# generated using pymatgen
data_NiSn
_symmetry_space_group_name_H-M   'P 1'
_cell_length_a   33.73840306
_cell_length_b   76.50776942
_cell_length_c   26.92131887
_cell_angle_alpha   85.43104012
_cell_angle_beta   88.70940236
_cell_angle_gamma   79.00695879
_symmetry_Int_Tables_number   1
_chemical_formula_structural   NiSn
_chemical_formula_sum   'Ni864 Sn864'
_cell_volume   67996.83808198
_cell_formula_units_Z   864
loop_
 _symmetry_equiv_pos_site_id
 _symmetry_equiv_pos_as_xyz
  1  'x, y, z'
loop_
 _atom_site_type_symbol
 _atom_site_label
 _atom_site_symmetry_multiplicity
 _atom_site_fract_x
 _atom_site_fract_y
 _atom_site_fract_z
 _atom_site_occupancy
  Ni  Ni0  1  0.17273374  0.13132167  0.92636679  1.0
  Ni  Ni1  1  0.17273374  0.46465500  0.92636679  1.0
  Ni  Ni2  1  0.17273374  0.79798833  0.92636679  1.0
  Ni  Ni3  1  0.50606707  0.13132167  0.92636679  1.0
  Ni  Ni4  1  0.50606707  0.46465500  0.92636679  1.0
  Ni  Ni5  1  0.50606707  0.79798833  0.92636679  1.0
  Ni  Ni6  1  0.83940040  0.13132167  0.92636679  1.0
  Ni  Ni7  1  0.83940040  0.46465500  0.92636679  1.0
  Ni  Ni8  1  0.83940040  0.79798833  0.92636679  1.0
  Ni  Ni9  1  0.31559088  0.13132167  0.99779536  1.0
  Ni  Ni10  1  0.31559088  0.46465500  0.99779536  1.0
  Ni  Ni11  1  0.31559088  0.79798833  0.99779536  1.0
  Ni  Ni12  1  0.64892421  0.13132167  0.99779536  1.0
  Ni  Ni13  1  0.64892421  0.46465500  0.99779536  1.0
  Ni  Ni14  1  0.64892421  0.79798833  0.99779536  1.0
  Ni  Ni15  1  0.98225755  0.13132167  0.99779536  1.0
  Ni  Ni16  1  0.98225755  0.46465500  0.99779536  1.0
  Ni  Ni17  1  0.98225755  0.79798833  0.99779536  1.0
  Ni  Ni18  1  0.28529517  0.03534500  0.98264750  1.0
  Ni  Ni19  1  0.28529517  0.36867833  0.98264750  1.0
  Ni  Ni20  1  0.28529517  0.70201167  0.98264750  1.0
  Ni  Ni21  1  0.61862850  0.03534500  0.98264750  1.0
  Ni  Ni22  1  0.61862850  0.36867833  0.98264750  1.0
  Ni  Ni23  1  0.61862850  0.70201167  0.98264750  1.0
  Ni  Ni24  1  0.95196183  0.03534500  0.98264750  1.0
  Ni  Ni25  1  0.95196183  0.36867833  0.98264750  1.0
  Ni  Ni26  1  0.95196183  0.70201167  0.98264750  1.0
  Ni  Ni27  1  0.14243802  0.03534500  0.91121893  1.0
  Ni  Ni28  1  0.14243802  0.36867833  0.91121893  1.0
  Ni  Ni29  1  0.14243802  0.70201167  0.91121893  1.0
  Ni  Ni30  1  0.47577136  0.03534500  0.91121893  1.0
  Ni  Ni31  1  0.47577136  0.36867833  0.91121893  1.0
  Ni  Ni32  1  0.47577136  0.70201167  0.91121893  1.0
  Ni  Ni33  1  0.80910469  0.03534500  0.91121893  1.0
  Ni  Ni34  1  0.80910469  0.36867833  0.91121893  1.0
  Ni  Ni35  1  0.80910469  0.70201167  0.91121893  1.0
  Ni  Ni36  1  0.28830983  0.08515367  0.90082150  1.0
  Ni  Ni37  1  0.28830983  0.41848700  0.90082150  1.0
  Ni  Ni38  1  0.28830983  0.75182033  0.90082150  1.0
  Ni  Ni39  1  0.62164317  0.08515367  0.90082150  1.0
  Ni  Ni40  1  0.62164317  0.41848700  0.90082150  1.0
  Ni  Ni41  1  0.62164317  0.75182033  0.90082150  1.0
  Ni  Ni42  1  0.95497650  0.08515367  0.90082150  1.0
  Ni  Ni43  1  0.95497650  0.41848700  0.90082150  1.0
  Ni  Ni44  1  0.95497650  0.75182033  0.90082150  1.0
  Ni  Ni45  1  0.09783364  0.08515367  0.97225007  1.0
  Ni  Ni46  1  0.09783364  0.41848700  0.97225007  1.0
  Ni  Ni47  1  0.09783364  0.75182033  0.97225007  1.0
  Ni  Ni48  1  0.43116698  0.08515367  0.97225007  1.0
  Ni  Ni49  1  0.43116698  0.41848700  0.97225007  1.0
  Ni  Ni50  1  0.43116698  0.75182033  0.97225007  1.0
  Ni  Ni51  1  0.76450031  0.08515367  0.97225007  1.0
  Ni  Ni52  1  0.76450031  0.41848700  0.97225007  1.0
  Ni  Ni53  1  0.76450031  0.75182033  0.97225007  1.0
  Ni  Ni54  1  0.26330569  0.21359833  0.88831943  1.0
  Ni  Ni55  1  0.26330569  0.54693167  0.88831943  1.0
  Ni  Ni56  1  0.26330569  0.88026500  0.88831943  1.0
  Ni  Ni57  1  0.59663902  0.21359833  0.88831943  1.0
  Ni  Ni58  1  0.59663902  0.54693167  0.88831943  1.0
  Ni  Ni59  1  0.59663902  0.88026500  0.88831943  1.0
  Ni  Ni60  1  0.92997236  0.21359833  0.88831943  1.0
  Ni  Ni61  1  0.92997236  0.54693167  0.88831943  1.0
  Ni  Ni62  1  0.92997236  0.88026500  0.88831943  1.0
  Ni  Ni63  1  0.07282950  0.21359833  0.95974800  1.0
  Ni  Ni64  1  0.07282950  0.54693167  0.95974800  1.0
  Ni  Ni65  1  0.07282950  0.88026500  0.95974800  1.0
  Ni  Ni66  1  0.40616283  0.21359833  0.95974800  1.0
  Ni  Ni67  1  0.40616283  0.54693167  0.95974800  1.0
  Ni  Ni68  1  0.40616283  0.88026500  0.95974800  1.0
  Ni  Ni69  1  0.73949617  0.21359833  0.95974800  1.0
  Ni  Ni70  1  0.73949617  0.54693167  0.95974800  1.0
  Ni  Ni71  1  0.73949617  0.88026500  0.95974800  1.0
  Ni  Ni72  1  0.11305664  0.28640167  0.97986157  1.0
  Ni  Ni73  1  0.11305664  0.61973500  0.97986157  1.0
  Ni  Ni74  1  0.11305664  0.95306833  0.97986157  1.0
  Ni  Ni75  1  0.44638998  0.28640167  0.97986157  1.0
  Ni  Ni76  1  0.44638998  0.61973500  0.97986157  1.0
  Ni  Ni77  1  0.44638998  0.95306833  0.97986157  1.0
  Ni  Ni78  1  0.77972331  0.28640167  0.97986157  1.0
  Ni  Ni79  1  0.77972331  0.61973500  0.97986157  1.0
  Ni  Ni80  1  0.77972331  0.95306833  0.97986157  1.0
  Ni  Ni81  1  0.30353283  0.28640167  0.90843300  1.0
  Ni  Ni82  1  0.30353283  0.61973500  0.90843300  1.0
  Ni  Ni83  1  0.30353283  0.95306833  0.90843300  1.0
  Ni  Ni84  1  0.63686617  0.28640167  0.90843300  1.0
  Ni  Ni85  1  0.63686617  0.61973500  0.90843300  1.0
  Ni  Ni86  1  0.63686617  0.95306833  0.90843300  1.0
  Ni  Ni87  1  0.97019950  0.28640167  0.90843300  1.0
  Ni  Ni88  1  0.97019950  0.61973500  0.90843300  1.0
  Ni  Ni89  1  0.97019950  0.95306833  0.90843300  1.0
  Ni  Ni90  1  0.20632040  0.25182033  0.85982679  1.0
  Ni  Ni91  1  0.20632040  0.58515367  0.85982679  1.0
  Ni  Ni92  1  0.20632040  0.91848700  0.85982679  1.0
  Ni  Ni93  1  0.53965374  0.25182033  0.85982679  1.0
  Ni  Ni94  1  0.53965374  0.58515367  0.85982679  1.0
  Ni  Ni95  1  0.53965374  0.91848700  0.85982679  1.0
  Ni  Ni96  1  0.87298707  0.25182033  0.85982679  1.0
  Ni  Ni97  1  0.87298707  0.58515367  0.85982679  1.0
  Ni  Ni98  1  0.87298707  0.91848700  0.85982679  1.0
  Ni  Ni99  1  0.01584421  0.25182033  0.93125536  1.0
  Ni  Ni100  1  0.01584421  0.58515367  0.93125536  1.0
  Ni  Ni101  1  0.01584421  0.91848700  0.93125536  1.0
  Ni  Ni102  1  0.34917755  0.25182033  0.93125536  1.0
  Ni  Ni103  1  0.34917755  0.58515367  0.93125536  1.0
  Ni  Ni104  1  0.34917755  0.91848700  0.93125536  1.0
  Ni  Ni105  1  0.68251088  0.25182033  0.93125536  1.0
  Ni  Ni106  1  0.68251088  0.58515367  0.93125536  1.0
  Ni  Ni107  1  0.68251088  0.91848700  0.93125536  1.0
  Ni  Ni108  1  0.26000002  0.16666667  0.96999993  1.0
  Ni  Ni109  1  0.26000002  0.50000000  0.96999993  1.0
  Ni  Ni110  1  0.26000002  0.83333333  0.96999993  1.0
  Ni  Ni111  1  0.59333336  0.16666667  0.96999993  1.0
  Ni  Ni112  1  0.59333336  0.50000000  0.96999993  1.0
  Ni  Ni113  1  0.59333336  0.83333333  0.96999993  1.0
  Ni  Ni114  1  0.92666669  0.16666667  0.96999993  1.0
  Ni  Ni115  1  0.92666669  0.50000000  0.96999993  1.0
  Ni  Ni116  1  0.92666669  0.83333333  0.96999993  1.0
  Ni  Ni117  1  0.11714288  0.16666667  0.89857136  1.0
  Ni  Ni118  1  0.11714288  0.50000000  0.89857136  1.0
  Ni  Ni119  1  0.11714288  0.83333333  0.89857136  1.0
  Ni  Ni120  1  0.45047621  0.16666667  0.89857136  1.0
  Ni  Ni121  1  0.45047621  0.50000000  0.89857136  1.0
  Ni  Ni122  1  0.45047621  0.83333333  0.89857136  1.0
  Ni  Ni123  1  0.78380955  0.16666667  0.89857136  1.0
  Ni  Ni124  1  0.78380955  0.50000000  0.89857136  1.0
  Ni  Ni125  1  0.78380955  0.83333333  0.89857136  1.0
  Ni  Ni126  1  0.11383721  0.11973500  0.98025186  1.0
  Ni  Ni127  1  0.11383721  0.45306833  0.98025186  1.0
  Ni  Ni128  1  0.11383721  0.78640167  0.98025186  1.0
  Ni  Ni129  1  0.44717055  0.11973500  0.98025186  1.0
  Ni  Ni130  1  0.44717055  0.45306833  0.98025186  1.0
  Ni  Ni131  1  0.44717055  0.78640167  0.98025186  1.0
  Ni  Ni132  1  0.78050388  0.11973500  0.98025186  1.0
  Ni  Ni133  1  0.78050388  0.45306833  0.98025186  1.0
  Ni  Ni134  1  0.78050388  0.78640167  0.98025186  1.0
  Ni  Ni135  1  0.30431340  0.11973500  0.90882329  1.0
  Ni  Ni136  1  0.30431340  0.45306833  0.90882329  1.0
  Ni  Ni137  1  0.30431340  0.78640167  0.90882329  1.0
  Ni  Ni138  1  0.63764674  0.11973500  0.90882329  1.0
  Ni  Ni139  1  0.63764674  0.45306833  0.90882329  1.0
  Ni  Ni140  1  0.63764674  0.78640167  0.90882329  1.0
  Ni  Ni141  1  0.97098007  0.11973500  0.90882329  1.0
  Ni  Ni142  1  0.97098007  0.45306833  0.90882329  1.0
  Ni  Ni143  1  0.97098007  0.78640167  0.90882329  1.0
  Ni  Ni144  1  0.08883307  0.24817967  0.96774979  1.0
  Ni  Ni145  1  0.08883307  0.58151300  0.96774979  1.0
  Ni  Ni146  1  0.08883307  0.91484633  0.96774979  1.0
  Ni  Ni147  1  0.42216640  0.24817967  0.96774979  1.0
  Ni  Ni148  1  0.42216640  0.58151300  0.96774979  1.0
  Ni  Ni149  1  0.42216640  0.91484633  0.96774979  1.0
  Ni  Ni150  1  0.75549974  0.24817967  0.96774979  1.0
  Ni  Ni151  1  0.75549974  0.58151300  0.96774979  1.0
  Ni  Ni152  1  0.75549974  0.91484633  0.96774979  1.0
  Ni  Ni153  1  0.27930926  0.24817967  0.89632121  1.0
  Ni  Ni154  1  0.27930926  0.58151300  0.89632121  1.0
  Ni  Ni155  1  0.27930926  0.91484633  0.89632121  1.0
  Ni  Ni156  1  0.61264260  0.24817967  0.89632121  1.0
  Ni  Ni157  1  0.61264260  0.58151300  0.89632121  1.0
  Ni  Ni158  1  0.61264260  0.91484633  0.89632121  1.0
  Ni  Ni159  1  0.94597593  0.24817967  0.89632121  1.0
  Ni  Ni160  1  0.94597593  0.58151300  0.89632121  1.0
  Ni  Ni161  1  0.94597593  0.91484633  0.89632121  1.0
  Ni  Ni162  1  0.09184774  0.29798833  0.88592379  1.0
  Ni  Ni163  1  0.09184774  0.63132167  0.88592379  1.0
  Ni  Ni164  1  0.09184774  0.96465500  0.88592379  1.0
  Ni  Ni165  1  0.42518107  0.29798833  0.88592379  1.0
  Ni  Ni166  1  0.42518107  0.63132167  0.88592379  1.0
  Ni  Ni167  1  0.42518107  0.96465500  0.88592379  1.0
  Ni  Ni168  1  0.75851440  0.29798833  0.88592379  1.0
  Ni  Ni169  1  0.75851440  0.63132167  0.88592379  1.0
  Ni  Ni170  1  0.75851440  0.96465500  0.88592379  1.0
  Ni  Ni171  1  0.23470488  0.29798833  0.95735236  1.0
  Ni  Ni172  1  0.23470488  0.63132167  0.95735236  1.0
  Ni  Ni173  1  0.23470488  0.96465500  0.95735236  1.0
  Ni  Ni174  1  0.56803821  0.29798833  0.95735236  1.0
  Ni  Ni175  1  0.56803821  0.63132167  0.95735236  1.0
  Ni  Ni176  1  0.56803821  0.96465500  0.95735236  1.0
  Ni  Ni177  1  0.90137155  0.29798833  0.95735236  1.0
  Ni  Ni178  1  0.90137155  0.63132167  0.95735236  1.0
  Ni  Ni179  1  0.90137155  0.96465500  0.95735236  1.0
  Ni  Ni180  1  0.21844155  0.08151300  0.86588736  1.0
  Ni  Ni181  1  0.21844155  0.41484633  0.86588736  1.0
  Ni  Ni182  1  0.21844155  0.74817967  0.86588736  1.0
  Ni  Ni183  1  0.55177488  0.08151300  0.86588736  1.0
  Ni  Ni184  1  0.55177488  0.41484633  0.86588736  1.0
  Ni  Ni185  1  0.55177488  0.74817967  0.86588736  1.0
  Ni  Ni186  1  0.88510821  0.08151300  0.86588736  1.0
  Ni  Ni187  1  0.88510821  0.41484633  0.86588736  1.0
  Ni  Ni188  1  0.88510821  0.74817967  0.86588736  1.0
  Ni  Ni189  1  0.02796536  0.08151300  0.93731593  1.0
  Ni  Ni190  1  0.02796536  0.41484633  0.93731593  1.0
  Ni  Ni191  1  0.02796536  0.74817967  0.93731593  1.0
  Ni  Ni192  1  0.36129869  0.08151300  0.93731593  1.0
  Ni  Ni193  1  0.36129869  0.41484633  0.93731593  1.0
  Ni  Ni194  1  0.36129869  0.74817967  0.93731593  1.0
  Ni  Ni195  1  0.69463202  0.08151300  0.93731593  1.0
  Ni  Ni196  1  0.69463202  0.41484633  0.93731593  1.0
  Ni  Ni197  1  0.69463202  0.74817967  0.93731593  1.0
  Ni  Ni198  1  0.20440917  0.20201167  0.94220450  1.0
  Ni  Ni199  1  0.20440917  0.53534500  0.94220450  1.0
  Ni  Ni200  1  0.20440917  0.86867833  0.94220450  1.0
  Ni  Ni201  1  0.53774250  0.20201167  0.94220450  1.0
  Ni  Ni202  1  0.53774250  0.53534500  0.94220450  1.0
  Ni  Ni203  1  0.53774250  0.86867833  0.94220450  1.0
  Ni  Ni204  1  0.87107583  0.20201167  0.94220450  1.0
  Ni  Ni205  1  0.87107583  0.53534500  0.94220450  1.0
  Ni  Ni206  1  0.87107583  0.86867833  0.94220450  1.0
  Ni  Ni207  1  0.06155202  0.20201167  0.87077593  1.0
  Ni  Ni208  1  0.06155202  0.53534500  0.87077593  1.0
  Ni  Ni209  1  0.06155202  0.86867833  0.87077593  1.0
  Ni  Ni210  1  0.39488536  0.20201167  0.87077593  1.0
  Ni  Ni211  1  0.39488536  0.53534500  0.87077593  1.0
  Ni  Ni212  1  0.39488536  0.86867833  0.87077593  1.0
  Ni  Ni213  1  0.72821869  0.20201167  0.87077593  1.0
  Ni  Ni214  1  0.72821869  0.53534500  0.87077593  1.0
  Ni  Ni215  1  0.72821869  0.86867833  0.87077593  1.0
  Ni  Ni216  1  0.26408626  0.04693167  0.88870971  1.0
  Ni  Ni217  1  0.26408626  0.38026500  0.88870971  1.0
  Ni  Ni218  1  0.26408626  0.71359833  0.88870971  1.0
  Ni  Ni219  1  0.59741960  0.04693167  0.88870971  1.0
  Ni  Ni220  1  0.59741960  0.38026500  0.88870971  1.0
  Ni  Ni221  1  0.59741960  0.71359833  0.88870971  1.0
  Ni  Ni222  1  0.93075293  0.04693167  0.88870971  1.0
  Ni  Ni223  1  0.93075293  0.38026500  0.88870971  1.0
  Ni  Ni224  1  0.93075293  0.71359833  0.88870971  1.0
  Ni  Ni225  1  0.07361007  0.04693167  0.96013829  1.0
  Ni  Ni226  1  0.07361007  0.38026500  0.96013829  1.0
  Ni  Ni227  1  0.07361007  0.71359833  0.96013829  1.0
  Ni  Ni228  1  0.40694340  0.04693167  0.96013829  1.0
  Ni  Ni229  1  0.40694340  0.38026500  0.96013829  1.0
  Ni  Ni230  1  0.40694340  0.71359833  0.96013829  1.0
  Ni  Ni231  1  0.74027674  0.04693167  0.96013829  1.0
  Ni  Ni232  1  0.74027674  0.38026500  0.96013829  1.0
  Ni  Ni233  1  0.74027674  0.71359833  0.96013829  1.0
  Ni  Ni234  1  0.04571431  0.00000000  0.86285707  1.0
  Ni  Ni235  1  0.04571431  0.33333333  0.86285707  1.0
  Ni  Ni236  1  0.04571431  0.66666667  0.86285707  1.0
  Ni  Ni237  1  0.37904764  0.00000000  0.86285707  1.0
  Ni  Ni238  1  0.37904764  0.33333333  0.86285707  1.0
  Ni  Ni239  1  0.37904764  0.66666667  0.86285707  1.0
  Ni  Ni240  1  0.71238098  0.00000000  0.86285707  1.0
  Ni  Ni241  1  0.71238098  0.33333333  0.86285707  1.0
  Ni  Ni242  1  0.71238098  0.66666667  0.86285707  1.0
  Ni  Ni243  1  0.18857145  0.00000000  0.93428564  1.0
  Ni  Ni244  1  0.18857145  0.33333333  0.93428564  1.0
  Ni  Ni245  1  0.18857145  0.66666667  0.93428564  1.0
  Ni  Ni246  1  0.52190479  0.00000000  0.93428564  1.0
  Ni  Ni247  1  0.52190479  0.33333333  0.93428564  1.0
  Ni  Ni248  1  0.52190479  0.66666667  0.93428564  1.0
  Ni  Ni249  1  0.85523812  0.00000000  0.93428564  1.0
  Ni  Ni250  1  0.85523812  0.33333333  0.93428564  1.0
  Ni  Ni251  1  0.85523812  0.66666667  0.93428564  1.0
  Ni  Ni252  1  0.18857145  0.16666667  0.93428564  1.0
  Ni  Ni253  1  0.18857145  0.50000000  0.93428564  1.0
  Ni  Ni254  1  0.18857145  0.83333333  0.93428564  1.0
  Ni  Ni255  1  0.52190479  0.16666667  0.93428564  1.0
  Ni  Ni256  1  0.52190479  0.50000000  0.93428564  1.0
  Ni  Ni257  1  0.52190479  0.83333333  0.93428564  1.0
  Ni  Ni258  1  0.85523812  0.16666667  0.93428564  1.0
  Ni  Ni259  1  0.85523812  0.50000000  0.93428564  1.0
  Ni  Ni260  1  0.85523812  0.83333333  0.93428564  1.0
  Ni  Ni261  1  0.04571431  0.16666667  0.86285707  1.0
  Ni  Ni262  1  0.04571431  0.50000000  0.86285707  1.0
  Ni  Ni263  1  0.04571431  0.83333333  0.86285707  1.0
  Ni  Ni264  1  0.37904764  0.16666667  0.86285707  1.0
  Ni  Ni265  1  0.37904764  0.50000000  0.86285707  1.0
  Ni  Ni266  1  0.37904764  0.83333333  0.86285707  1.0
  Ni  Ni267  1  0.71238098  0.16666667  0.86285707  1.0
  Ni  Ni268  1  0.71238098  0.50000000  0.86285707  1.0
  Ni  Ni269  1  0.71238098  0.83333333  0.86285707  1.0
  Ni  Ni270  1  0.26000002  0.33333333  0.96999993  1.0
  Ni  Ni271  1  0.26000002  0.66666667  0.96999993  1.0
  Ni  Ni272  1  0.26000002  1.00000000  0.96999993  1.0
  Ni  Ni273  1  0.59333336  0.33333333  0.96999993  1.0
  Ni  Ni274  1  0.59333336  0.66666667  0.96999993  1.0
  Ni  Ni275  1  0.59333336  1.00000000  0.96999993  1.0
  Ni  Ni276  1  0.92666669  0.33333333  0.96999993  1.0
  Ni  Ni277  1  0.92666669  0.66666667  0.96999993  1.0
  Ni  Ni278  1  0.92666669  1.00000000  0.96999993  1.0
  Ni  Ni279  1  0.11714288  0.33333333  0.89857136  1.0
  Ni  Ni280  1  0.11714288  0.66666667  0.89857136  1.0
  Ni  Ni281  1  0.11714288  1.00000000  0.89857136  1.0
  Ni  Ni282  1  0.45047621  0.33333333  0.89857136  1.0
  Ni  Ni283  1  0.45047621  0.66666667  0.89857136  1.0
  Ni  Ni284  1  0.45047621  1.00000000  0.89857136  1.0
  Ni  Ni285  1  0.78380955  0.33333333  0.89857136  1.0
  Ni  Ni286  1  0.78380955  0.66666667  0.89857136  1.0
  Ni  Ni287  1  0.78380955  1.00000000  0.89857136  1.0
  Ni  Ni288  1  0.22035279  0.13132167  0.78350964  1.0
  Ni  Ni289  1  0.22035279  0.46465500  0.78350964  1.0
  Ni  Ni290  1  0.22035279  0.79798833  0.78350964  1.0
  Ni  Ni291  1  0.55368612  0.13132167  0.78350964  1.0
  Ni  Ni292  1  0.55368612  0.46465500  0.78350964  1.0
  Ni  Ni293  1  0.55368612  0.79798833  0.78350964  1.0
  Ni  Ni294  1  0.88701945  0.13132167  0.78350964  1.0
  Ni  Ni295  1  0.88701945  0.46465500  0.78350964  1.0
  Ni  Ni296  1  0.88701945  0.79798833  0.78350964  1.0
  Ni  Ni297  1  0.02987660  0.13132167  0.85493821  1.0
  Ni  Ni298  1  0.02987660  0.46465500  0.85493821  1.0
  Ni  Ni299  1  0.02987660  0.79798833  0.85493821  1.0
  Ni  Ni300  1  0.36320993  0.13132167  0.85493821  1.0
  Ni  Ni301  1  0.36320993  0.46465500  0.85493821  1.0
  Ni  Ni302  1  0.36320993  0.79798833  0.85493821  1.0
  Ni  Ni303  1  0.69654326  0.13132167  0.85493821  1.0
  Ni  Ni304  1  0.69654326  0.46465500  0.85493821  1.0
  Ni  Ni305  1  0.69654326  0.79798833  0.85493821  1.0
  Ni  Ni306  1  0.33291421  0.03534500  0.83979036  1.0
  Ni  Ni307  1  0.33291421  0.36867833  0.83979036  1.0
  Ni  Ni308  1  0.33291421  0.70201167  0.83979036  1.0
  Ni  Ni309  1  0.66624755  0.03534500  0.83979036  1.0
  Ni  Ni310  1  0.66624755  0.36867833  0.83979036  1.0
  Ni  Ni311  1  0.66624755  0.70201167  0.83979036  1.0
  Ni  Ni312  1  0.99958088  0.03534500  0.83979036  1.0
  Ni  Ni313  1  0.99958088  0.36867833  0.83979036  1.0
  Ni  Ni314  1  0.99958088  0.70201167  0.83979036  1.0
  Ni  Ni315  1  0.19005707  0.03534500  0.76836179  1.0
  Ni  Ni316  1  0.19005707  0.36867833  0.76836179  1.0
  Ni  Ni317  1  0.19005707  0.70201167  0.76836179  1.0
  Ni  Ni318  1  0.52339040  0.03534500  0.76836179  1.0
  Ni  Ni319  1  0.52339040  0.36867833  0.76836179  1.0
  Ni  Ni320  1  0.52339040  0.70201167  0.76836179  1.0
  Ni  Ni321  1  0.85672374  0.03534500  0.76836179  1.0
  Ni  Ni322  1  0.85672374  0.36867833  0.76836179  1.0
  Ni  Ni323  1  0.85672374  0.70201167  0.76836179  1.0
  Ni  Ni324  1  0.00259555  0.08515367  0.75796436  1.0
  Ni  Ni325  1  0.00259555  0.41848700  0.75796436  1.0
  Ni  Ni326  1  0.00259555  0.75182033  0.75796436  1.0
  Ni  Ni327  1  0.33592888  0.08515367  0.75796436  1.0
  Ni  Ni328  1  0.33592888  0.41848700  0.75796436  1.0
  Ni  Ni329  1  0.33592888  0.75182033  0.75796436  1.0
  Ni  Ni330  1  0.66926221  0.08515367  0.75796436  1.0
  Ni  Ni331  1  0.66926221  0.41848700  0.75796436  1.0
  Ni  Ni332  1  0.66926221  0.75182033  0.75796436  1.0
  Ni  Ni333  1  0.14545269  0.08515367  0.82939293  1.0
  Ni  Ni334  1  0.14545269  0.41848700  0.82939293  1.0
  Ni  Ni335  1  0.14545269  0.75182033  0.82939293  1.0
  Ni  Ni336  1  0.47878602  0.08515367  0.82939293  1.0
  Ni  Ni337  1  0.47878602  0.41848700  0.82939293  1.0
  Ni  Ni338  1  0.47878602  0.75182033  0.82939293  1.0
  Ni  Ni339  1  0.81211936  0.08515367  0.82939293  1.0
  Ni  Ni340  1  0.81211936  0.41848700  0.82939293  1.0
  Ni  Ni341  1  0.81211936  0.75182033  0.82939293  1.0
  Ni  Ni342  1  0.31092474  0.21359833  0.74546229  1.0
  Ni  Ni343  1  0.31092474  0.54693167  0.74546229  1.0
  Ni  Ni344  1  0.31092474  0.88026500  0.74546229  1.0
  Ni  Ni345  1  0.64425807  0.21359833  0.74546229  1.0
  Ni  Ni346  1  0.64425807  0.54693167  0.74546229  1.0
  Ni  Ni347  1  0.64425807  0.88026500  0.74546229  1.0
  Ni  Ni348  1  0.97759140  0.21359833  0.74546229  1.0
  Ni  Ni349  1  0.97759140  0.54693167  0.74546229  1.0
  Ni  Ni350  1  0.97759140  0.88026500  0.74546229  1.0
  Ni  Ni351  1  0.12044855  0.21359833  0.81689086  1.0
  Ni  Ni352  1  0.12044855  0.54693167  0.81689086  1.0
  Ni  Ni353  1  0.12044855  0.88026500  0.81689086  1.0
  Ni  Ni354  1  0.45378188  0.21359833  0.81689086  1.0
  Ni  Ni355  1  0.45378188  0.54693167  0.81689086  1.0
  Ni  Ni356  1  0.45378188  0.88026500  0.81689086  1.0
  Ni  Ni357  1  0.78711521  0.21359833  0.81689086  1.0
  Ni  Ni358  1  0.78711521  0.54693167  0.81689086  1.0
  Ni  Ni359  1  0.78711521  0.88026500  0.81689086  1.0
  Ni  Ni360  1  0.16067569  0.28640167  0.83700443  1.0
  Ni  Ni361  1  0.16067569  0.61973500  0.83700443  1.0
  Ni  Ni362  1  0.16067569  0.95306833  0.83700443  1.0
  Ni  Ni363  1  0.49400902  0.28640167  0.83700443  1.0
  Ni  Ni364  1  0.49400902  0.61973500  0.83700443  1.0
  Ni  Ni365  1  0.49400902  0.95306833  0.83700443  1.0
  Ni  Ni366  1  0.82734236  0.28640167  0.83700443  1.0
  Ni  Ni367  1  0.82734236  0.61973500  0.83700443  1.0
  Ni  Ni368  1  0.82734236  0.95306833  0.83700443  1.0
  Ni  Ni369  1  0.01781855  0.28640167  0.76557586  1.0
  Ni  Ni370  1  0.01781855  0.61973500  0.76557586  1.0
  Ni  Ni371  1  0.01781855  0.95306833  0.76557586  1.0
  Ni  Ni372  1  0.35115188  0.28640167  0.76557586  1.0
  Ni  Ni373  1  0.35115188  0.61973500  0.76557586  1.0
  Ni  Ni374  1  0.35115188  0.95306833  0.76557586  1.0
  Ni  Ni375  1  0.68448521  0.28640167  0.76557586  1.0
  Ni  Ni376  1  0.68448521  0.61973500  0.76557586  1.0
  Ni  Ni377  1  0.68448521  0.95306833  0.76557586  1.0
  Ni  Ni378  1  0.25393945  0.25182033  0.71696964  1.0
  Ni  Ni379  1  0.25393945  0.58515367  0.71696964  1.0
  Ni  Ni380  1  0.25393945  0.91848700  0.71696964  1.0
  Ni  Ni381  1  0.58727279  0.25182033  0.71696964  1.0
  Ni  Ni382  1  0.58727279  0.58515367  0.71696964  1.0
  Ni  Ni383  1  0.58727279  0.91848700  0.71696964  1.0
  Ni  Ni384  1  0.92060612  0.25182033  0.71696964  1.0
  Ni  Ni385  1  0.92060612  0.58515367  0.71696964  1.0
  Ni  Ni386  1  0.92060612  0.91848700  0.71696964  1.0
  Ni  Ni387  1  0.06346326  0.25182033  0.78839821  1.0
  Ni  Ni388  1  0.06346326  0.58515367  0.78839821  1.0
  Ni  Ni389  1  0.06346326  0.91848700  0.78839821  1.0
  Ni  Ni390  1  0.39679660  0.25182033  0.78839821  1.0
  Ni  Ni391  1  0.39679660  0.58515367  0.78839821  1.0
  Ni  Ni392  1  0.39679660  0.91848700  0.78839821  1.0
  Ni  Ni393  1  0.73012993  0.25182033  0.78839821  1.0
  Ni  Ni394  1  0.73012993  0.58515367  0.78839821  1.0
  Ni  Ni395  1  0.73012993  0.91848700  0.78839821  1.0
  Ni  Ni396  1  0.30761907  0.16666667  0.82714279  1.0
  Ni  Ni397  1  0.30761907  0.50000000  0.82714279  1.0
  Ni  Ni398  1  0.30761907  0.83333333  0.82714279  1.0
  Ni  Ni399  1  0.64095240  0.16666667  0.82714279  1.0
  Ni  Ni400  1  0.64095240  0.50000000  0.82714279  1.0
  Ni  Ni401  1  0.64095240  0.83333333  0.82714279  1.0
  Ni  Ni402  1  0.97428574  0.16666667  0.82714279  1.0
  Ni  Ni403  1  0.97428574  0.50000000  0.82714279  1.0
  Ni  Ni404  1  0.97428574  0.83333333  0.82714279  1.0
  Ni  Ni405  1  0.16476193  0.16666667  0.75571421  1.0
  Ni  Ni406  1  0.16476193  0.50000000  0.75571421  1.0
  Ni  Ni407  1  0.16476193  0.83333333  0.75571421  1.0
  Ni  Ni408  1  0.49809526  0.16666667  0.75571421  1.0
  Ni  Ni409  1  0.49809526  0.50000000  0.75571421  1.0
  Ni  Ni410  1  0.49809526  0.83333333  0.75571421  1.0
  Ni  Ni411  1  0.83142860  0.16666667  0.75571421  1.0
  Ni  Ni412  1  0.83142860  0.50000000  0.75571421  1.0
  Ni  Ni413  1  0.83142860  0.83333333  0.75571421  1.0
  Ni  Ni414  1  0.16145626  0.11973500  0.83739471  1.0
  Ni  Ni415  1  0.16145626  0.45306833  0.83739471  1.0
  Ni  Ni416  1  0.16145626  0.78640167  0.83739471  1.0
  Ni  Ni417  1  0.49478960  0.11973500  0.83739471  1.0
  Ni  Ni418  1  0.49478960  0.45306833  0.83739471  1.0
  Ni  Ni419  1  0.49478960  0.78640167  0.83739471  1.0
  Ni  Ni420  1  0.82812293  0.11973500  0.83739471  1.0
  Ni  Ni421  1  0.82812293  0.45306833  0.83739471  1.0
  Ni  Ni422  1  0.82812293  0.78640167  0.83739471  1.0
  Ni  Ni423  1  0.01859912  0.11973500  0.76596614  1.0
  Ni  Ni424  1  0.01859912  0.45306833  0.76596614  1.0
  Ni  Ni425  1  0.01859912  0.78640167  0.76596614  1.0
  Ni  Ni426  1  0.35193245  0.11973500  0.76596614  1.0
  Ni  Ni427  1  0.35193245  0.45306833  0.76596614  1.0
  Ni  Ni428  1  0.35193245  0.78640167  0.76596614  1.0
  Ni  Ni429  1  0.68526579  0.11973500  0.76596614  1.0
  Ni  Ni430  1  0.68526579  0.45306833  0.76596614  1.0
  Ni  Ni431  1  0.68526579  0.78640167  0.76596614  1.0
  Ni  Ni432  1  0.13645212  0.24817967  0.82489264  1.0
  Ni  Ni433  1  0.13645212  0.58151300  0.82489264  1.0
  Ni  Ni434  1  0.13645212  0.91484633  0.82489264  1.0
  Ni  Ni435  1  0.46978545  0.24817967  0.82489264  1.0
  Ni  Ni436  1  0.46978545  0.58151300  0.82489264  1.0
  Ni  Ni437  1  0.46978545  0.91484633  0.82489264  1.0
  Ni  Ni438  1  0.80311879  0.24817967  0.82489264  1.0
  Ni  Ni439  1  0.80311879  0.58151300  0.82489264  1.0
  Ni  Ni440  1  0.80311879  0.91484633  0.82489264  1.0
  Ni  Ni441  1  0.32692831  0.24817967  0.75346407  1.0
  Ni  Ni442  1  0.32692831  0.58151300  0.75346407  1.0
  Ni  Ni443  1  0.32692831  0.91484633  0.75346407  1.0
  Ni  Ni444  1  0.66026164  0.24817967  0.75346407  1.0
  Ni  Ni445  1  0.66026164  0.58151300  0.75346407  1.0
  Ni  Ni446  1  0.66026164  0.91484633  0.75346407  1.0
  Ni  Ni447  1  0.99359498  0.24817967  0.75346407  1.0
  Ni  Ni448  1  0.99359498  0.58151300  0.75346407  1.0
  Ni  Ni449  1  0.99359498  0.91484633  0.75346407  1.0
  Ni  Ni450  1  0.13946679  0.29798833  0.74306664  1.0
  Ni  Ni451  1  0.13946679  0.63132167  0.74306664  1.0
  Ni  Ni452  1  0.13946679  0.96465500  0.74306664  1.0
  Ni  Ni453  1  0.47280012  0.29798833  0.74306664  1.0
  Ni  Ni454  1  0.47280012  0.63132167  0.74306664  1.0
  Ni  Ni455  1  0.47280012  0.96465500  0.74306664  1.0
  Ni  Ni456  1  0.80613345  0.29798833  0.74306664  1.0
  Ni  Ni457  1  0.80613345  0.63132167  0.74306664  1.0
  Ni  Ni458  1  0.80613345  0.96465500  0.74306664  1.0
  Ni  Ni459  1  0.28232393  0.29798833  0.81449521  1.0
  Ni  Ni460  1  0.28232393  0.63132167  0.81449521  1.0
  Ni  Ni461  1  0.28232393  0.96465500  0.81449521  1.0
  Ni  Ni462  1  0.61565726  0.29798833  0.81449521  1.0
  Ni  Ni463  1  0.61565726  0.63132167  0.81449521  1.0
  Ni  Ni464  1  0.61565726  0.96465500  0.81449521  1.0
  Ni  Ni465  1  0.94899060  0.29798833  0.81449521  1.0
  Ni  Ni466  1  0.94899060  0.63132167  0.81449521  1.0
  Ni  Ni467  1  0.94899060  0.96465500  0.81449521  1.0
  Ni  Ni468  1  0.26606060  0.08151300  0.72303021  1.0
  Ni  Ni469  1  0.26606060  0.41484633  0.72303021  1.0
  Ni  Ni470  1  0.26606060  0.74817967  0.72303021  1.0
  Ni  Ni471  1  0.59939393  0.08151300  0.72303021  1.0
  Ni  Ni472  1  0.59939393  0.41484633  0.72303021  1.0
  Ni  Ni473  1  0.59939393  0.74817967  0.72303021  1.0
  Ni  Ni474  1  0.93272726  0.08151300  0.72303021  1.0
  Ni  Ni475  1  0.93272726  0.41484633  0.72303021  1.0
  Ni  Ni476  1  0.93272726  0.74817967  0.72303021  1.0
  Ni  Ni477  1  0.07558440  0.08151300  0.79445879  1.0
  Ni  Ni478  1  0.07558440  0.41484633  0.79445879  1.0
  Ni  Ni479  1  0.07558440  0.74817967  0.79445879  1.0
  Ni  Ni480  1  0.40891774  0.08151300  0.79445879  1.0
  Ni  Ni481  1  0.40891774  0.41484633  0.79445879  1.0
  Ni  Ni482  1  0.40891774  0.74817967  0.79445879  1.0
  Ni  Ni483  1  0.74225107  0.08151300  0.79445879  1.0
  Ni  Ni484  1  0.74225107  0.41484633  0.79445879  1.0
  Ni  Ni485  1  0.74225107  0.74817967  0.79445879  1.0
  Ni  Ni486  1  0.25202821  0.20201167  0.79934736  1.0
  Ni  Ni487  1  0.25202821  0.53534500  0.79934736  1.0
  Ni  Ni488  1  0.25202821  0.86867833  0.79934736  1.0
  Ni  Ni489  1  0.58536155  0.20201167  0.79934736  1.0
  Ni  Ni490  1  0.58536155  0.53534500  0.79934736  1.0
  Ni  Ni491  1  0.58536155  0.86867833  0.79934736  1.0
  Ni  Ni492  1  0.91869488  0.20201167  0.79934736  1.0
  Ni  Ni493  1  0.91869488  0.53534500  0.79934736  1.0
  Ni  Ni494  1  0.91869488  0.86867833  0.79934736  1.0
  Ni  Ni495  1  0.10917107  0.20201167  0.72791879  1.0
  Ni  Ni496  1  0.10917107  0.53534500  0.72791879  1.0
  Ni  Ni497  1  0.10917107  0.86867833  0.72791879  1.0
  Ni  Ni498  1  0.44250440  0.20201167  0.72791879  1.0
  Ni  Ni499  1  0.44250440  0.53534500  0.72791879  1.0
  Ni  Ni500  1  0.44250440  0.86867833  0.72791879  1.0
  Ni  Ni501  1  0.77583774  0.20201167  0.72791879  1.0
  Ni  Ni502  1  0.77583774  0.53534500  0.72791879  1.0
  Ni  Ni503  1  0.77583774  0.86867833  0.72791879  1.0
  Ni  Ni504  1  0.31170531  0.04693167  0.74585257  1.0
  Ni  Ni505  1  0.31170531  0.38026500  0.74585257  1.0
  Ni  Ni506  1  0.31170531  0.71359833  0.74585257  1.0
  Ni  Ni507  1  0.64503864  0.04693167  0.74585257  1.0
  Ni  Ni508  1  0.64503864  0.38026500  0.74585257  1.0
  Ni  Ni509  1  0.64503864  0.71359833  0.74585257  1.0
  Ni  Ni510  1  0.97837198  0.04693167  0.74585257  1.0
  Ni  Ni511  1  0.97837198  0.38026500  0.74585257  1.0
  Ni  Ni512  1  0.97837198  0.71359833  0.74585257  1.0
  Ni  Ni513  1  0.12122912  0.04693167  0.81728114  1.0
  Ni  Ni514  1  0.12122912  0.38026500  0.81728114  1.0
  Ni  Ni515  1  0.12122912  0.71359833  0.81728114  1.0
  Ni  Ni516  1  0.45456245  0.04693167  0.81728114  1.0
  Ni  Ni517  1  0.45456245  0.38026500  0.81728114  1.0
  Ni  Ni518  1  0.45456245  0.71359833  0.81728114  1.0
  Ni  Ni519  1  0.78789579  0.04693167  0.81728114  1.0
  Ni  Ni520  1  0.78789579  0.38026500  0.81728114  1.0
  Ni  Ni521  1  0.78789579  0.71359833  0.81728114  1.0
  Ni  Ni522  1  0.09333336  0.00000000  0.71999993  1.0
  Ni  Ni523  1  0.09333336  0.33333333  0.71999993  1.0
  Ni  Ni524  1  0.09333336  0.66666667  0.71999993  1.0
  Ni  Ni525  1  0.42666669  0.00000000  0.71999993  1.0
  Ni  Ni526  1  0.42666669  0.33333333  0.71999993  1.0
  Ni  Ni527  1  0.42666669  0.66666667  0.71999993  1.0
  Ni  Ni528  1  0.76000002  0.00000000  0.71999993  1.0
  Ni  Ni529  1  0.76000002  0.33333333  0.71999993  1.0
  Ni  Ni530  1  0.76000002  0.66666667  0.71999993  1.0
  Ni  Ni531  1  0.23619050  0.00000000  0.79142850  1.0
  Ni  Ni532  1  0.23619050  0.33333333  0.79142850  1.0
  Ni  Ni533  1  0.23619050  0.66666667  0.79142850  1.0
  Ni  Ni534  1  0.56952383  0.00000000  0.79142850  1.0
  Ni  Ni535  1  0.56952383  0.33333333  0.79142850  1.0
  Ni  Ni536  1  0.56952383  0.66666667  0.79142850  1.0
  Ni  Ni537  1  0.90285717  0.00000000  0.79142850  1.0
  Ni  Ni538  1  0.90285717  0.33333333  0.79142850  1.0
  Ni  Ni539  1  0.90285717  0.66666667  0.79142850  1.0
  Ni  Ni540  1  0.23619050  0.16666667  0.79142850  1.0
  Ni  Ni541  1  0.23619050  0.50000000  0.79142850  1.0
  Ni  Ni542  1  0.23619050  0.83333333  0.79142850  1.0
  Ni  Ni543  1  0.56952383  0.16666667  0.79142850  1.0
  Ni  Ni544  1  0.56952383  0.50000000  0.79142850  1.0
  Ni  Ni545  1  0.56952383  0.83333333  0.79142850  1.0
  Ni  Ni546  1  0.90285717  0.16666667  0.79142850  1.0
  Ni  Ni547  1  0.90285717  0.50000000  0.79142850  1.0
  Ni  Ni548  1  0.90285717  0.83333333  0.79142850  1.0
  Ni  Ni549  1  0.09333336  0.16666667  0.71999993  1.0
  Ni  Ni550  1  0.09333336  0.50000000  0.71999993  1.0
  Ni  Ni551  1  0.09333336  0.83333333  0.71999993  1.0
  Ni  Ni552  1  0.42666669  0.16666667  0.71999993  1.0
  Ni  Ni553  1  0.42666669  0.50000000  0.71999993  1.0
  Ni  Ni554  1  0.42666669  0.83333333  0.71999993  1.0
  Ni  Ni555  1  0.76000002  0.16666667  0.71999993  1.0
  Ni  Ni556  1  0.76000002  0.50000000  0.71999993  1.0
  Ni  Ni557  1  0.76000002  0.83333333  0.71999993  1.0
  Ni  Ni558  1  0.30761907  0.33333333  0.82714279  1.0
  Ni  Ni559  1  0.30761907  0.66666667  0.82714279  1.0
  Ni  Ni560  1  0.30761907  1.00000000  0.82714279  1.0
  Ni  Ni561  1  0.64095240  0.33333333  0.82714279  1.0
  Ni  Ni562  1  0.64095240  0.66666667  0.82714279  1.0
  Ni  Ni563  1  0.64095240  1.00000000  0.82714279  1.0
  Ni  Ni564  1  0.97428574  0.33333333  0.82714279  1.0
  Ni  Ni565  1  0.97428574  0.66666667  0.82714279  1.0
  Ni  Ni566  1  0.97428574  1.00000000  0.82714279  1.0
  Ni  Ni567  1  0.16476193  0.33333333  0.75571421  1.0
  Ni  Ni568  1  0.16476193  0.66666667  0.75571421  1.0
  Ni  Ni569  1  0.16476193  1.00000000  0.75571421  1.0
  Ni  Ni570  1  0.49809526  0.33333333  0.75571421  1.0
  Ni  Ni571  1  0.49809526  0.66666667  0.75571421  1.0
  Ni  Ni572  1  0.49809526  1.00000000  0.75571421  1.0
  Ni  Ni573  1  0.83142860  0.33333333  0.75571421  1.0
  Ni  Ni574  1  0.83142860  0.66666667  0.75571421  1.0
  Ni  Ni575  1  0.83142860  1.00000000  0.75571421  1.0
  Ni  Ni576  1  0.26797183  0.13132167  0.64065250  1.0
  Ni  Ni577  1  0.26797183  0.46465500  0.64065250  1.0
  Ni  Ni578  1  0.26797183  0.79798833  0.64065250  1.0
  Ni  Ni579  1  0.60130517  0.13132167  0.64065250  1.0
  Ni  Ni580  1  0.60130517  0.46465500  0.64065250  1.0
  Ni  Ni581  1  0.60130517  0.79798833  0.64065250  1.0
  Ni  Ni582  1  0.93463850  0.13132167  0.64065250  1.0
  Ni  Ni583  1  0.93463850  0.46465500  0.64065250  1.0
  Ni  Ni584  1  0.93463850  0.79798833  0.64065250  1.0
  Ni  Ni585  1  0.07749564  0.13132167  0.71208107  1.0
  Ni  Ni586  1  0.07749564  0.46465500  0.71208107  1.0
  Ni  Ni587  1  0.07749564  0.79798833  0.71208107  1.0
  Ni  Ni588  1  0.41082898  0.13132167  0.71208107  1.0
  Ni  Ni589  1  0.41082898  0.46465500  0.71208107  1.0
  Ni  Ni590  1  0.41082898  0.79798833  0.71208107  1.0
  Ni  Ni591  1  0.74416231  0.13132167  0.71208107  1.0
  Ni  Ni592  1  0.74416231  0.46465500  0.71208107  1.0
  Ni  Ni593  1  0.74416231  0.79798833  0.71208107  1.0
  Ni  Ni594  1  0.04719993  0.03534500  0.69693321  1.0
  Ni  Ni595  1  0.04719993  0.36867833  0.69693321  1.0
  Ni  Ni596  1  0.04719993  0.70201167  0.69693321  1.0
  Ni  Ni597  1  0.38053326  0.03534500  0.69693321  1.0
  Ni  Ni598  1  0.38053326  0.36867833  0.69693321  1.0
  Ni  Ni599  1  0.38053326  0.70201167  0.69693321  1.0
  Ni  Ni600  1  0.71386660  0.03534500  0.69693321  1.0
  Ni  Ni601  1  0.71386660  0.36867833  0.69693321  1.0
  Ni  Ni602  1  0.71386660  0.70201167  0.69693321  1.0
  Ni  Ni603  1  0.23767612  0.03534500  0.62550464  1.0
  Ni  Ni604  1  0.23767612  0.36867833  0.62550464  1.0
  Ni  Ni605  1  0.23767612  0.70201167  0.62550464  1.0
  Ni  Ni606  1  0.57100945  0.03534500  0.62550464  1.0
  Ni  Ni607  1  0.57100945  0.36867833  0.62550464  1.0
  Ni  Ni608  1  0.57100945  0.70201167  0.62550464  1.0
  Ni  Ni609  1  0.90434279  0.03534500  0.62550464  1.0
  Ni  Ni610  1  0.90434279  0.36867833  0.62550464  1.0
  Ni  Ni611  1  0.90434279  0.70201167  0.62550464  1.0
  Ni  Ni612  1  0.05021460  0.08515367  0.61510721  1.0
  Ni  Ni613  1  0.05021460  0.41848700  0.61510721  1.0
  Ni  Ni614  1  0.05021460  0.75182033  0.61510721  1.0
  Ni  Ni615  1  0.38354793  0.08515367  0.61510721  1.0
  Ni  Ni616  1  0.38354793  0.41848700  0.61510721  1.0
  Ni  Ni617  1  0.38354793  0.75182033  0.61510721  1.0
  Ni  Ni618  1  0.71688126  0.08515367  0.61510721  1.0
  Ni  Ni619  1  0.71688126  0.41848700  0.61510721  1.0
  Ni  Ni620  1  0.71688126  0.75182033  0.61510721  1.0
  Ni  Ni621  1  0.19307174  0.08515367  0.68653579  1.0
  Ni  Ni622  1  0.19307174  0.41848700  0.68653579  1.0
  Ni  Ni623  1  0.19307174  0.75182033  0.68653579  1.0
  Ni  Ni624  1  0.52640507  0.08515367  0.68653579  1.0
  Ni  Ni625  1  0.52640507  0.41848700  0.68653579  1.0
  Ni  Ni626  1  0.52640507  0.75182033  0.68653579  1.0
  Ni  Ni627  1  0.85973840  0.08515367  0.68653579  1.0
  Ni  Ni628  1  0.85973840  0.41848700  0.68653579  1.0
  Ni  Ni629  1  0.85973840  0.75182033  0.68653579  1.0
  Ni  Ni630  1  0.02521045  0.21359833  0.60260514  1.0
  Ni  Ni631  1  0.02521045  0.54693167  0.60260514  1.0
  Ni  Ni632  1  0.02521045  0.88026500  0.60260514  1.0
  Ni  Ni633  1  0.35854379  0.21359833  0.60260514  1.0
  Ni  Ni634  1  0.35854379  0.54693167  0.60260514  1.0
  Ni  Ni635  1  0.35854379  0.88026500  0.60260514  1.0
  Ni  Ni636  1  0.69187712  0.21359833  0.60260514  1.0
  Ni  Ni637  1  0.69187712  0.54693167  0.60260514  1.0
  Ni  Ni638  1  0.69187712  0.88026500  0.60260514  1.0
  Ni  Ni639  1  0.16806760  0.21359833  0.67403371  1.0
  Ni  Ni640  1  0.16806760  0.54693167  0.67403371  1.0
  Ni  Ni641  1  0.16806760  0.88026500  0.67403371  1.0
  Ni  Ni642  1  0.50140093  0.21359833  0.67403371  1.0
  Ni  Ni643  1  0.50140093  0.54693167  0.67403371  1.0
  Ni  Ni644  1  0.50140093  0.88026500  0.67403371  1.0
  Ni  Ni645  1  0.83473426  0.21359833  0.67403371  1.0
  Ni  Ni646  1  0.83473426  0.54693167  0.67403371  1.0
  Ni  Ni647  1  0.83473426  0.88026500  0.67403371  1.0
  Ni  Ni648  1  0.20829474  0.28640167  0.69414729  1.0
  Ni  Ni649  1  0.20829474  0.61973500  0.69414729  1.0
  Ni  Ni650  1  0.20829474  0.95306833  0.69414729  1.0
  Ni  Ni651  1  0.54162807  0.28640167  0.69414729  1.0
  Ni  Ni652  1  0.54162807  0.61973500  0.69414729  1.0
  Ni  Ni653  1  0.54162807  0.95306833  0.69414729  1.0
  Ni  Ni654  1  0.87496140  0.28640167  0.69414729  1.0
  Ni  Ni655  1  0.87496140  0.61973500  0.69414729  1.0
  Ni  Ni656  1  0.87496140  0.95306833  0.69414729  1.0
  Ni  Ni657  1  0.06543760  0.28640167  0.62271871  1.0
  Ni  Ni658  1  0.06543760  0.61973500  0.62271871  1.0
  Ni  Ni659  1  0.06543760  0.95306833  0.62271871  1.0
  Ni  Ni660  1  0.39877093  0.28640167  0.62271871  1.0
  Ni  Ni661  1  0.39877093  0.61973500  0.62271871  1.0
  Ni  Ni662  1  0.39877093  0.95306833  0.62271871  1.0
  Ni  Ni663  1  0.73210426  0.28640167  0.62271871  1.0
  Ni  Ni664  1  0.73210426  0.61973500  0.62271871  1.0
  Ni  Ni665  1  0.73210426  0.95306833  0.62271871  1.0
  Ni  Ni666  1  0.30155850  0.25182033  0.57411250  1.0
  Ni  Ni667  1  0.30155850  0.58515367  0.57411250  1.0
  Ni  Ni668  1  0.30155850  0.91848700  0.57411250  1.0
  Ni  Ni669  1  0.63489183  0.25182033  0.57411250  1.0
  Ni  Ni670  1  0.63489183  0.58515367  0.57411250  1.0
  Ni  Ni671  1  0.63489183  0.91848700  0.57411250  1.0
  Ni  Ni672  1  0.96822517  0.25182033  0.57411250  1.0
  Ni  Ni673  1  0.96822517  0.58515367  0.57411250  1.0
  Ni  Ni674  1  0.96822517  0.91848700  0.57411250  1.0
  Ni  Ni675  1  0.11108231  0.25182033  0.64554107  1.0
  Ni  Ni676  1  0.11108231  0.58515367  0.64554107  1.0
  Ni  Ni677  1  0.11108231  0.91848700  0.64554107  1.0
  Ni  Ni678  1  0.44441564  0.25182033  0.64554107  1.0
  Ni  Ni679  1  0.44441564  0.58515367  0.64554107  1.0
  Ni  Ni680  1  0.44441564  0.91848700  0.64554107  1.0
  Ni  Ni681  1  0.77774898  0.25182033  0.64554107  1.0
  Ni  Ni682  1  0.77774898  0.58515367  0.64554107  1.0
  Ni  Ni683  1  0.77774898  0.91848700  0.64554107  1.0
  Ni  Ni684  1  0.02190479  0.16666667  0.68428564  1.0
  Ni  Ni685  1  0.02190479  0.50000000  0.68428564  1.0
  Ni  Ni686  1  0.02190479  0.83333333  0.68428564  1.0
  Ni  Ni687  1  0.35523812  0.16666667  0.68428564  1.0
  Ni  Ni688  1  0.35523812  0.50000000  0.68428564  1.0
  Ni  Ni689  1  0.35523812  0.83333333  0.68428564  1.0
  Ni  Ni690  1  0.68857145  0.16666667  0.68428564  1.0
  Ni  Ni691  1  0.68857145  0.50000000  0.68428564  1.0
  Ni  Ni692  1  0.68857145  0.83333333  0.68428564  1.0
  Ni  Ni693  1  0.21238098  0.16666667  0.61285707  1.0
  Ni  Ni694  1  0.21238098  0.50000000  0.61285707  1.0
  Ni  Ni695  1  0.21238098  0.83333333  0.61285707  1.0
  Ni  Ni696  1  0.54571431  0.16666667  0.61285707  1.0
  Ni  Ni697  1  0.54571431  0.50000000  0.61285707  1.0
  Ni  Ni698  1  0.54571431  0.83333333  0.61285707  1.0
  Ni  Ni699  1  0.87904764  0.16666667  0.61285707  1.0
  Ni  Ni700  1  0.87904764  0.50000000  0.61285707  1.0
  Ni  Ni701  1  0.87904764  0.83333333  0.61285707  1.0
  Ni  Ni702  1  0.20907531  0.11973500  0.69453757  1.0
  Ni  Ni703  1  0.20907531  0.45306833  0.69453757  1.0
  Ni  Ni704  1  0.20907531  0.78640167  0.69453757  1.0
  Ni  Ni705  1  0.54240864  0.11973500  0.69453757  1.0
  Ni  Ni706  1  0.54240864  0.45306833  0.69453757  1.0
  Ni  Ni707  1  0.54240864  0.78640167  0.69453757  1.0
  Ni  Ni708  1  0.87574198  0.11973500  0.69453757  1.0
  Ni  Ni709  1  0.87574198  0.45306833  0.69453757  1.0
  Ni  Ni710  1  0.87574198  0.78640167  0.69453757  1.0
  Ni  Ni711  1  0.06621817  0.11973500  0.62310900  1.0
  Ni  Ni712  1  0.06621817  0.45306833  0.62310900  1.0
  Ni  Ni713  1  0.06621817  0.78640167  0.62310900  1.0
  Ni  Ni714  1  0.39955150  0.11973500  0.62310900  1.0
  Ni  Ni715  1  0.39955150  0.45306833  0.62310900  1.0
  Ni  Ni716  1  0.39955150  0.78640167  0.62310900  1.0
  Ni  Ni717  1  0.73288483  0.11973500  0.62310900  1.0
  Ni  Ni718  1  0.73288483  0.45306833  0.62310900  1.0
  Ni  Ni719  1  0.73288483  0.78640167  0.62310900  1.0
  Ni  Ni720  1  0.18407117  0.24817967  0.68203550  1.0
  Ni  Ni721  1  0.18407117  0.58151300  0.68203550  1.0
  Ni  Ni722  1  0.18407117  0.91484633  0.68203550  1.0
  Ni  Ni723  1  0.51740450  0.24817967  0.68203550  1.0
  Ni  Ni724  1  0.51740450  0.58151300  0.68203550  1.0
  Ni  Ni725  1  0.51740450  0.91484633  0.68203550  1.0
  Ni  Ni726  1  0.85073783  0.24817967  0.68203550  1.0
  Ni  Ni727  1  0.85073783  0.58151300  0.68203550  1.0
  Ni  Ni728  1  0.85073783  0.91484633  0.68203550  1.0
  Ni  Ni729  1  0.04121402  0.24817967  0.61060693  1.0
  Ni  Ni730  1  0.04121402  0.58151300  0.61060693  1.0
  Ni  Ni731  1  0.04121402  0.91484633  0.61060693  1.0
  Ni  Ni732  1  0.37454736  0.24817967  0.61060693  1.0
  Ni  Ni733  1  0.37454736  0.58151300  0.61060693  1.0
  Ni  Ni734  1  0.37454736  0.91484633  0.61060693  1.0
  Ni  Ni735  1  0.70788069  0.24817967  0.61060693  1.0
  Ni  Ni736  1  0.70788069  0.58151300  0.61060693  1.0
  Ni  Ni737  1  0.70788069  0.91484633  0.61060693  1.0
  Ni  Ni738  1  0.18708583  0.29798833  0.60020950  1.0
  Ni  Ni739  1  0.18708583  0.63132167  0.60020950  1.0
  Ni  Ni740  1  0.18708583  0.96465500  0.60020950  1.0
  Ni  Ni741  1  0.52041917  0.29798833  0.60020950  1.0
  Ni  Ni742  1  0.52041917  0.63132167  0.60020950  1.0
  Ni  Ni743  1  0.52041917  0.96465500  0.60020950  1.0
  Ni  Ni744  1  0.85375250  0.29798833  0.60020950  1.0
  Ni  Ni745  1  0.85375250  0.63132167  0.60020950  1.0
  Ni  Ni746  1  0.85375250  0.96465500  0.60020950  1.0
  Ni  Ni747  1  0.32994298  0.29798833  0.67163807  1.0
  Ni  Ni748  1  0.32994298  0.63132167  0.67163807  1.0
  Ni  Ni749  1  0.32994298  0.96465500  0.67163807  1.0
  Ni  Ni750  1  0.66327631  0.29798833  0.67163807  1.0
  Ni  Ni751  1  0.66327631  0.63132167  0.67163807  1.0
  Ni  Ni752  1  0.66327631  0.96465500  0.67163807  1.0
  Ni  Ni753  1  0.99660964  0.29798833  0.67163807  1.0
  Ni  Ni754  1  0.99660964  0.63132167  0.67163807  1.0
  Ni  Ni755  1  0.99660964  0.96465500  0.67163807  1.0
  Ni  Ni756  1  0.31367964  0.08151300  0.58017307  1.0
  Ni  Ni757  1  0.31367964  0.41484633  0.58017307  1.0
  Ni  Ni758  1  0.31367964  0.74817967  0.58017307  1.0
  Ni  Ni759  1  0.64701298  0.08151300  0.58017307  1.0
  Ni  Ni760  1  0.64701298  0.41484633  0.58017307  1.0
  Ni  Ni761  1  0.64701298  0.74817967  0.58017307  1.0
  Ni  Ni762  1  0.98034631  0.08151300  0.58017307  1.0
  Ni  Ni763  1  0.98034631  0.41484633  0.58017307  1.0
  Ni  Ni764  1  0.98034631  0.74817967  0.58017307  1.0
  Ni  Ni765  1  0.12320345  0.08151300  0.65160164  1.0
  Ni  Ni766  1  0.12320345  0.41484633  0.65160164  1.0
  Ni  Ni767  1  0.12320345  0.74817967  0.65160164  1.0
  Ni  Ni768  1  0.45653679  0.08151300  0.65160164  1.0
  Ni  Ni769  1  0.45653679  0.41484633  0.65160164  1.0
  Ni  Ni770  1  0.45653679  0.74817967  0.65160164  1.0
  Ni  Ni771  1  0.78987012  0.08151300  0.65160164  1.0
  Ni  Ni772  1  0.78987012  0.41484633  0.65160164  1.0
  Ni  Ni773  1  0.78987012  0.74817967  0.65160164  1.0
  Ni  Ni774  1  0.29964726  0.20201167  0.65649021  1.0
  Ni  Ni775  1  0.29964726  0.53534500  0.65649021  1.0
  Ni  Ni776  1  0.29964726  0.86867833  0.65649021  1.0
  Ni  Ni777  1  0.63298060  0.20201167  0.65649021  1.0
  Ni  Ni778  1  0.63298060  0.53534500  0.65649021  1.0
  Ni  Ni779  1  0.63298060  0.86867833  0.65649021  1.0
  Ni  Ni780  1  0.96631393  0.20201167  0.65649021  1.0
  Ni  Ni781  1  0.96631393  0.53534500  0.65649021  1.0
  Ni  Ni782  1  0.96631393  0.86867833  0.65649021  1.0
  Ni  Ni783  1  0.15679012  0.20201167  0.58506164  1.0
  Ni  Ni784  1  0.15679012  0.53534500  0.58506164  1.0
  Ni  Ni785  1  0.15679012  0.86867833  0.58506164  1.0
  Ni  Ni786  1  0.49012345  0.20201167  0.58506164  1.0
  Ni  Ni787  1  0.49012345  0.53534500  0.58506164  1.0
  Ni  Ni788  1  0.49012345  0.86867833  0.58506164  1.0
  Ni  Ni789  1  0.82345679  0.20201167  0.58506164  1.0
  Ni  Ni790  1  0.82345679  0.53534500  0.58506164  1.0
  Ni  Ni791  1  0.82345679  0.86867833  0.58506164  1.0
  Ni  Ni792  1  0.02599102  0.04693167  0.60299543  1.0
  Ni  Ni793  1  0.02599102  0.38026500  0.60299543  1.0
  Ni  Ni794  1  0.02599102  0.71359833  0.60299543  1.0
  Ni  Ni795  1  0.35932436  0.04693167  0.60299543  1.0
  Ni  Ni796  1  0.35932436  0.38026500  0.60299543  1.0
  Ni  Ni797  1  0.35932436  0.71359833  0.60299543  1.0
  Ni  Ni798  1  0.69265769  0.04693167  0.60299543  1.0
  Ni  Ni799  1  0.69265769  0.38026500  0.60299543  1.0
  Ni  Ni800  1  0.69265769  0.71359833  0.60299543  1.0
  Ni  Ni801  1  0.16884817  0.04693167  0.67442400  1.0
  Ni  Ni802  1  0.16884817  0.38026500  0.67442400  1.0
  Ni  Ni803  1  0.16884817  0.71359833  0.67442400  1.0
  Ni  Ni804  1  0.50218150  0.04693167  0.67442400  1.0
  Ni  Ni805  1  0.50218150  0.38026500  0.67442400  1.0
  Ni  Ni806  1  0.50218150  0.71359833  0.67442400  1.0
  Ni  Ni807  1  0.83551483  0.04693167  0.67442400  1.0
  Ni  Ni808  1  0.83551483  0.38026500  0.67442400  1.0
  Ni  Ni809  1  0.83551483  0.71359833  0.67442400  1.0
  Ni  Ni810  1  0.14095240  0.00000000  0.57714279  1.0
  Ni  Ni811  1  0.14095240  0.33333333  0.57714279  1.0
  Ni  Ni812  1  0.14095240  0.66666667  0.57714279  1.0
  Ni  Ni813  1  0.47428574  0.00000000  0.57714279  1.0
  Ni  Ni814  1  0.47428574  0.33333333  0.57714279  1.0
  Ni  Ni815  1  0.47428574  0.66666667  0.57714279  1.0
  Ni  Ni816  1  0.80761907  0.00000000  0.57714279  1.0
  Ni  Ni817  1  0.80761907  0.33333333  0.57714279  1.0
  Ni  Ni818  1  0.80761907  0.66666667  0.57714279  1.0
  Ni  Ni819  1  0.28380955  0.00000000  0.64857136  1.0
  Ni  Ni820  1  0.28380955  0.33333333  0.64857136  1.0
  Ni  Ni821  1  0.28380955  0.66666667  0.64857136  1.0
  Ni  Ni822  1  0.61714288  0.00000000  0.64857136  1.0
  Ni  Ni823  1  0.61714288  0.33333333  0.64857136  1.0
  Ni  Ni824  1  0.61714288  0.66666667  0.64857136  1.0
  Ni  Ni825  1  0.95047621  0.00000000  0.64857136  1.0
  Ni  Ni826  1  0.95047621  0.33333333  0.64857136  1.0
  Ni  Ni827  1  0.95047621  0.66666667  0.64857136  1.0
  Ni  Ni828  1  0.28380955  0.16666667  0.64857136  1.0
  Ni  Ni829  1  0.28380955  0.50000000  0.64857136  1.0
  Ni  Ni830  1  0.28380955  0.83333333  0.64857136  1.0
  Ni  Ni831  1  0.61714288  0.16666667  0.64857136  1.0
  Ni  Ni832  1  0.61714288  0.50000000  0.64857136  1.0
  Ni  Ni833  1  0.61714288  0.83333333  0.64857136  1.0
  Ni  Ni834  1  0.95047621  0.16666667  0.64857136  1.0
  Ni  Ni835  1  0.95047621  0.50000000  0.64857136  1.0
  Ni  Ni836  1  0.95047621  0.83333333  0.64857136  1.0
  Ni  Ni837  1  0.14095240  0.16666667  0.57714279  1.0
  Ni  Ni838  1  0.14095240  0.50000000  0.57714279  1.0
  Ni  Ni839  1  0.14095240  0.83333333  0.57714279  1.0
  Ni  Ni840  1  0.47428574  0.16666667  0.57714279  1.0
  Ni  Ni841  1  0.47428574  0.50000000  0.57714279  1.0
  Ni  Ni842  1  0.47428574  0.83333333  0.57714279  1.0
  Ni  Ni843  1  0.80761907  0.16666667  0.57714279  1.0
  Ni  Ni844  1  0.80761907  0.50000000  0.57714279  1.0
  Ni  Ni845  1  0.80761907  0.83333333  0.57714279  1.0
  Ni  Ni846  1  0.02190479  0.33333333  0.68428564  1.0
  Ni  Ni847  1  0.02190479  0.66666667  0.68428564  1.0
  Ni  Ni848  1  0.02190479  1.00000000  0.68428564  1.0
  Ni  Ni849  1  0.35523812  0.33333333  0.68428564  1.0
  Ni  Ni850  1  0.35523812  0.66666667  0.68428564  1.0
  Ni  Ni851  1  0.35523812  1.00000000  0.68428564  1.0
  Ni  Ni852  1  0.68857145  0.33333333  0.68428564  1.0
  Ni  Ni853  1  0.68857145  0.66666667  0.68428564  1.0
  Ni  Ni854  1  0.68857145  1.00000000  0.68428564  1.0
  Ni  Ni855  1  0.21238098  0.33333333  0.61285707  1.0
  Ni  Ni856  1  0.21238098  0.66666667  0.61285707  1.0
  Ni  Ni857  1  0.21238098  1.00000000  0.61285707  1.0
  Ni  Ni858  1  0.54571431  0.33333333  0.61285707  1.0
  Ni  Ni859  1  0.54571431  0.66666667  0.61285707  1.0
  Ni  Ni860  1  0.54571431  1.00000000  0.61285707  1.0
  Ni  Ni861  1  0.87904764  0.33333333  0.61285707  1.0
  Ni  Ni862  1  0.87904764  0.66666667  0.61285707  1.0
  Ni  Ni863  1  0.87904764  1.00000000  0.61285707  1.0
  Sn  Sn864  1  0.31323655  0.01306900  0.91328486  1.0
  Sn  Sn865  1  0.31323655  0.34640233  0.91328486  1.0
  Sn  Sn866  1  0.31323655  0.67973567  0.91328486  1.0
  Sn  Sn867  1  0.64656988  0.01306900  0.91328486  1.0
  Sn  Sn868  1  0.64656988  0.34640233  0.91328486  1.0
  Sn  Sn869  1  0.64656988  0.67973567  0.91328486  1.0
  Sn  Sn870  1  0.97990321  0.01306900  0.91328486  1.0
  Sn  Sn871  1  0.97990321  0.34640233  0.91328486  1.0
  Sn  Sn872  1  0.97990321  0.67973567  0.91328486  1.0
  Sn  Sn873  1  0.12276036  0.01306900  0.98471343  1.0
  Sn  Sn874  1  0.12276036  0.34640233  0.98471343  1.0
  Sn  Sn875  1  0.12276036  0.67973567  0.98471343  1.0
  Sn  Sn876  1  0.45609369  0.01306900  0.98471343  1.0
  Sn  Sn877  1  0.45609369  0.34640233  0.98471343  1.0
  Sn  Sn878  1  0.45609369  0.67973567  0.98471343  1.0
  Sn  Sn879  1  0.78942702  0.01306900  0.98471343  1.0
  Sn  Sn880  1  0.78942702  0.34640233  0.98471343  1.0
  Sn  Sn881  1  0.78942702  0.67973567  0.98471343  1.0
  Sn  Sn882  1  0.16182231  0.30323433  0.92091107  1.0
  Sn  Sn883  1  0.16182231  0.63656767  0.92091107  1.0
  Sn  Sn884  1  0.16182231  0.96990100  0.92091107  1.0
  Sn  Sn885  1  0.49515564  0.30323433  0.92091107  1.0
  Sn  Sn886  1  0.49515564  0.63656767  0.92091107  1.0
  Sn  Sn887  1  0.49515564  0.96990100  0.92091107  1.0
  Sn  Sn888  1  0.82848898  0.30323433  0.92091107  1.0
  Sn  Sn889  1  0.82848898  0.63656767  0.92091107  1.0
  Sn  Sn890  1  0.82848898  0.96990100  0.92091107  1.0
  Sn  Sn891  1  0.30467945  0.30323433  0.99233964  1.0
  Sn  Sn892  1  0.30467945  0.63656767  0.99233964  1.0
  Sn  Sn893  1  0.30467945  0.96990100  0.99233964  1.0
  Sn  Sn894  1  0.63801279  0.30323433  0.99233964  1.0
  Sn  Sn895  1  0.63801279  0.63656767  0.99233964  1.0
  Sn  Sn896  1  0.63801279  0.96990100  0.99233964  1.0
  Sn  Sn897  1  0.97134612  0.30323433  0.99233964  1.0
  Sn  Sn898  1  0.97134612  0.63656767  0.99233964  1.0
  Sn  Sn899  1  0.97134612  0.96990100  0.99233964  1.0
  Sn  Sn900  1  0.21532060  0.03009900  0.94766021  1.0
  Sn  Sn901  1  0.21532060  0.36343233  0.94766021  1.0
  Sn  Sn902  1  0.21532060  0.69676567  0.94766021  1.0
  Sn  Sn903  1  0.54865393  0.03009900  0.94766021  1.0
  Sn  Sn904  1  0.54865393  0.36343233  0.94766021  1.0
  Sn  Sn905  1  0.54865393  0.69676567  0.94766021  1.0
  Sn  Sn906  1  0.88198726  0.03009900  0.94766021  1.0
  Sn  Sn907  1  0.88198726  0.36343233  0.94766021  1.0
  Sn  Sn908  1  0.88198726  0.69676567  0.94766021  1.0
  Sn  Sn909  1  0.07246345  0.03009900  0.87623164  1.0
  Sn  Sn910  1  0.07246345  0.36343233  0.87623164  1.0
  Sn  Sn911  1  0.07246345  0.69676567  0.87623164  1.0
  Sn  Sn912  1  0.40579679  0.03009900  0.87623164  1.0
  Sn  Sn913  1  0.40579679  0.36343233  0.87623164  1.0
  Sn  Sn914  1  0.40579679  0.69676567  0.87623164  1.0
  Sn  Sn915  1  0.73913012  0.03009900  0.87623164  1.0
  Sn  Sn916  1  0.73913012  0.36343233  0.87623164  1.0
  Sn  Sn917  1  0.73913012  0.69676567  0.87623164  1.0
  Sn  Sn918  1  0.23523783  0.27971567  0.87428550  1.0
  Sn  Sn919  1  0.23523783  0.61304900  0.87428550  1.0
  Sn  Sn920  1  0.23523783  0.94638233  0.87428550  1.0
  Sn  Sn921  1  0.56857117  0.27971567  0.87428550  1.0
  Sn  Sn922  1  0.56857117  0.61304900  0.87428550  1.0
  Sn  Sn923  1  0.56857117  0.94638233  0.87428550  1.0
  Sn  Sn924  1  0.90190450  0.27971567  0.87428550  1.0
  Sn  Sn925  1  0.90190450  0.61304900  0.87428550  1.0
  Sn  Sn926  1  0.90190450  0.94638233  0.87428550  1.0
  Sn  Sn927  1  0.04476164  0.27971567  0.94571407  1.0
  Sn  Sn928  1  0.04476164  0.61304900  0.94571407  1.0
  Sn  Sn929  1  0.04476164  0.94638233  0.94571407  1.0
  Sn  Sn930  1  0.37809498  0.27971567  0.94571407  1.0
  Sn  Sn931  1  0.37809498  0.61304900  0.94571407  1.0
  Sn  Sn932  1  0.37809498  0.94638233  0.94571407  1.0
  Sn  Sn933  1  0.71142831  0.27971567  0.94571407  1.0
  Sn  Sn934  1  0.71142831  0.61304900  0.94571407  1.0
  Sn  Sn935  1  0.71142831  0.94638233  0.94571407  1.0
  Sn  Sn936  1  0.06390636  0.32026433  0.95528643  1.0
  Sn  Sn937  1  0.06390636  0.65359767  0.95528643  1.0
  Sn  Sn938  1  0.06390636  0.98693100  0.95528643  1.0
  Sn  Sn939  1  0.39723969  0.32026433  0.95528643  1.0
  Sn  Sn940  1  0.39723969  0.65359767  0.95528643  1.0
  Sn  Sn941  1  0.39723969  0.98693100  0.95528643  1.0
  Sn  Sn942  1  0.73057302  0.32026433  0.95528643  1.0
  Sn  Sn943  1  0.73057302  0.65359767  0.95528643  1.0
  Sn  Sn944  1  0.73057302  0.98693100  0.95528643  1.0
  Sn  Sn945  1  0.25438255  0.32026433  0.88385786  1.0
  Sn  Sn946  1  0.25438255  0.65359767  0.88385786  1.0
  Sn  Sn947  1  0.25438255  0.98693100  0.88385786  1.0
  Sn  Sn948  1  0.58771588  0.32026433  0.88385786  1.0
  Sn  Sn949  1  0.58771588  0.65359767  0.88385786  1.0
  Sn  Sn950  1  0.58771588  0.98693100  0.88385786  1.0
  Sn  Sn951  1  0.92104921  0.32026433  0.88385786  1.0
  Sn  Sn952  1  0.92104921  0.65359767  0.88385786  1.0
  Sn  Sn953  1  0.92104921  0.98693100  0.88385786  1.0
  Sn  Sn954  1  0.13602317  0.19676567  0.90801150  1.0
  Sn  Sn955  1  0.13602317  0.53009900  0.90801150  1.0
  Sn  Sn956  1  0.13602317  0.86343233  0.90801150  1.0
  Sn  Sn957  1  0.46935650  0.19676567  0.90801150  1.0
  Sn  Sn958  1  0.46935650  0.53009900  0.90801150  1.0
  Sn  Sn959  1  0.46935650  0.86343233  0.90801150  1.0
  Sn  Sn960  1  0.80268983  0.19676567  0.90801150  1.0
  Sn  Sn961  1  0.80268983  0.53009900  0.90801150  1.0
  Sn  Sn962  1  0.80268983  0.86343233  0.90801150  1.0
  Sn  Sn963  1  0.27888031  0.19676567  0.97944007  1.0
  Sn  Sn964  1  0.27888031  0.53009900  0.97944007  1.0
  Sn  Sn965  1  0.27888031  0.86343233  0.97944007  1.0
  Sn  Sn966  1  0.61221364  0.19676567  0.97944007  1.0
  Sn  Sn967  1  0.61221364  0.53009900  0.97944007  1.0
  Sn  Sn968  1  0.61221364  0.86343233  0.97944007  1.0
  Sn  Sn969  1  0.94554698  0.19676567  0.97944007  1.0
  Sn  Sn970  1  0.94554698  0.53009900  0.97944007  1.0
  Sn  Sn971  1  0.94554698  0.86343233  0.97944007  1.0
  Sn  Sn972  1  0.15470517  0.09666667  0.91735250  1.0
  Sn  Sn973  1  0.15470517  0.43000000  0.91735250  1.0
  Sn  Sn974  1  0.15470517  0.76333333  0.91735250  1.0
  Sn  Sn975  1  0.48803850  0.09666667  0.91735250  1.0
  Sn  Sn976  1  0.48803850  0.43000000  0.91735250  1.0
  Sn  Sn977  1  0.48803850  0.76333333  0.91735250  1.0
  Sn  Sn978  1  0.82137183  0.09666667  0.91735250  1.0
  Sn  Sn979  1  0.82137183  0.43000000  0.91735250  1.0
  Sn  Sn980  1  0.82137183  0.76333333  0.91735250  1.0
  Sn  Sn981  1  0.29756231  0.09666667  0.98878107  1.0
  Sn  Sn982  1  0.29756231  0.43000000  0.98878107  1.0
  Sn  Sn983  1  0.29756231  0.76333333  0.98878107  1.0
  Sn  Sn984  1  0.63089564  0.09666667  0.98878107  1.0
  Sn  Sn985  1  0.63089564  0.43000000  0.98878107  1.0
  Sn  Sn986  1  0.63089564  0.76333333  0.98878107  1.0
  Sn  Sn987  1  0.96422898  0.09666667  0.98878107  1.0
  Sn  Sn988  1  0.96422898  0.43000000  0.98878107  1.0
  Sn  Sn989  1  0.96422898  0.76333333  0.98878107  1.0
  Sn  Sn990  1  0.23756231  0.07000000  0.95878107  1.0
  Sn  Sn991  1  0.23756231  0.40333333  0.95878107  1.0
  Sn  Sn992  1  0.23756231  0.73666667  0.95878107  1.0
  Sn  Sn993  1  0.57089564  0.07000000  0.95878107  1.0
  Sn  Sn994  1  0.57089564  0.40333333  0.95878107  1.0
  Sn  Sn995  1  0.57089564  0.73666667  0.95878107  1.0
  Sn  Sn996  1  0.90422898  0.07000000  0.95878107  1.0
  Sn  Sn997  1  0.90422898  0.40333333  0.95878107  1.0
  Sn  Sn998  1  0.90422898  0.73666667  0.95878107  1.0
  Sn  Sn999  1  0.09470517  0.07000000  0.88735250  1.0
  Sn  Sn1000  1  0.09470517  0.40333333  0.88735250  1.0
  Sn  Sn1001  1  0.09470517  0.73666667  0.88735250  1.0
  Sn  Sn1002  1  0.42803850  0.07000000  0.88735250  1.0
  Sn  Sn1003  1  0.42803850  0.40333333  0.88735250  1.0
  Sn  Sn1004  1  0.42803850  0.73666667  0.88735250  1.0
  Sn  Sn1005  1  0.76137183  0.07000000  0.88735250  1.0
  Sn  Sn1006  1  0.76137183  0.40333333  0.88735250  1.0
  Sn  Sn1007  1  0.76137183  0.73666667  0.88735250  1.0
  Sn  Sn1008  1  0.13958060  0.26333333  0.90979021  1.0
  Sn  Sn1009  1  0.13958060  0.59666667  0.90979021  1.0
  Sn  Sn1010  1  0.13958060  0.93000000  0.90979021  1.0
  Sn  Sn1011  1  0.47291393  0.26333333  0.90979021  1.0
  Sn  Sn1012  1  0.47291393  0.59666667  0.90979021  1.0
  Sn  Sn1013  1  0.47291393  0.93000000  0.90979021  1.0
  Sn  Sn1014  1  0.80624726  0.26333333  0.90979021  1.0
  Sn  Sn1015  1  0.80624726  0.59666667  0.90979021  1.0
  Sn  Sn1016  1  0.80624726  0.93000000  0.90979021  1.0
  Sn  Sn1017  1  0.28243774  0.26333333  0.98121879  1.0
  Sn  Sn1018  1  0.28243774  0.59666667  0.98121879  1.0
  Sn  Sn1019  1  0.28243774  0.93000000  0.98121879  1.0
  Sn  Sn1020  1  0.61577107  0.26333333  0.98121879  1.0
  Sn  Sn1021  1  0.61577107  0.59666667  0.98121879  1.0
  Sn  Sn1022  1  0.61577107  0.93000000  0.98121879  1.0
  Sn  Sn1023  1  0.94910440  0.26333333  0.98121879  1.0
  Sn  Sn1024  1  0.94910440  0.59666667  0.98121879  1.0
  Sn  Sn1025  1  0.94910440  0.93000000  0.98121879  1.0
  Sn  Sn1026  1  0.24318055  0.17973567  0.87825686  1.0
  Sn  Sn1027  1  0.24318055  0.51306900  0.87825686  1.0
  Sn  Sn1028  1  0.24318055  0.84640233  0.87825686  1.0
  Sn  Sn1029  1  0.57651388  0.17973567  0.87825686  1.0
  Sn  Sn1030  1  0.57651388  0.51306900  0.87825686  1.0
  Sn  Sn1031  1  0.57651388  0.84640233  0.87825686  1.0
  Sn  Sn1032  1  0.90984721  0.17973567  0.87825686  1.0
  Sn  Sn1033  1  0.90984721  0.51306900  0.87825686  1.0
  Sn  Sn1034  1  0.90984721  0.84640233  0.87825686  1.0
  Sn  Sn1035  1  0.05270436  0.17973567  0.94968543  1.0
  Sn  Sn1036  1  0.05270436  0.51306900  0.94968543  1.0
  Sn  Sn1037  1  0.05270436  0.84640233  0.94968543  1.0
  Sn  Sn1038  1  0.38603769  0.17973567  0.94968543  1.0
  Sn  Sn1039  1  0.38603769  0.51306900  0.94968543  1.0
  Sn  Sn1040  1  0.38603769  0.84640233  0.94968543  1.0
  Sn  Sn1041  1  0.71937102  0.17973567  0.94968543  1.0
  Sn  Sn1042  1  0.71937102  0.51306900  0.94968543  1.0
  Sn  Sn1043  1  0.71937102  0.84640233  0.94968543  1.0
  Sn  Sn1044  1  0.24111974  0.13656767  0.96055979  1.0
  Sn  Sn1045  1  0.24111974  0.46990100  0.96055979  1.0
  Sn  Sn1046  1  0.24111974  0.80323433  0.96055979  1.0
  Sn  Sn1047  1  0.57445307  0.13656767  0.96055979  1.0
  Sn  Sn1048  1  0.57445307  0.46990100  0.96055979  1.0
  Sn  Sn1049  1  0.57445307  0.80323433  0.96055979  1.0
  Sn  Sn1050  1  0.90778640  0.13656767  0.96055979  1.0
  Sn  Sn1051  1  0.90778640  0.46990100  0.96055979  1.0
  Sn  Sn1052  1  0.90778640  0.80323433  0.96055979  1.0
  Sn  Sn1053  1  0.09826260  0.13656767  0.88913121  1.0
  Sn  Sn1054  1  0.09826260  0.46990100  0.88913121  1.0
  Sn  Sn1055  1  0.09826260  0.80323433  0.88913121  1.0
  Sn  Sn1056  1  0.43159593  0.13656767  0.88913121  1.0
  Sn  Sn1057  1  0.43159593  0.46990100  0.88913121  1.0
  Sn  Sn1058  1  0.43159593  0.80323433  0.88913121  1.0
  Sn  Sn1059  1  0.76492926  0.13656767  0.88913121  1.0
  Sn  Sn1060  1  0.76492926  0.46990100  0.88913121  1.0
  Sn  Sn1061  1  0.76492926  0.80323433  0.88913121  1.0
  Sn  Sn1062  1  0.13396236  0.15359767  0.99031443  1.0
  Sn  Sn1063  1  0.13396236  0.48693100  0.99031443  1.0
  Sn  Sn1064  1  0.13396236  0.82026433  0.99031443  1.0
  Sn  Sn1065  1  0.46729569  0.15359767  0.99031443  1.0
  Sn  Sn1066  1  0.46729569  0.48693100  0.99031443  1.0
  Sn  Sn1067  1  0.46729569  0.82026433  0.99031443  1.0
  Sn  Sn1068  1  0.80062902  0.15359767  0.99031443  1.0
  Sn  Sn1069  1  0.80062902  0.48693100  0.99031443  1.0
  Sn  Sn1070  1  0.80062902  0.82026433  0.99031443  1.0
  Sn  Sn1071  1  0.32443855  0.15359767  0.91888586  1.0
  Sn  Sn1072  1  0.32443855  0.48693100  0.91888586  1.0
  Sn  Sn1073  1  0.32443855  0.82026433  0.91888586  1.0
  Sn  Sn1074  1  0.65777188  0.15359767  0.91888586  1.0
  Sn  Sn1075  1  0.65777188  0.48693100  0.91888586  1.0
  Sn  Sn1076  1  0.65777188  0.82026433  0.91888586  1.0
  Sn  Sn1077  1  0.99110521  0.15359767  0.91888586  1.0
  Sn  Sn1078  1  0.99110521  0.48693100  0.91888586  1.0
  Sn  Sn1079  1  0.99110521  0.82026433  0.91888586  1.0
  Sn  Sn1080  1  0.22243774  0.23666667  0.95121879  1.0
  Sn  Sn1081  1  0.22243774  0.57000000  0.95121879  1.0
  Sn  Sn1082  1  0.22243774  0.90333333  0.95121879  1.0
  Sn  Sn1083  1  0.55577107  0.23666667  0.95121879  1.0
  Sn  Sn1084  1  0.55577107  0.57000000  0.95121879  1.0
  Sn  Sn1085  1  0.55577107  0.90333333  0.95121879  1.0
  Sn  Sn1086  1  0.88910440  0.23666667  0.95121879  1.0
  Sn  Sn1087  1  0.88910440  0.57000000  0.95121879  1.0
  Sn  Sn1088  1  0.88910440  0.90333333  0.95121879  1.0
  Sn  Sn1089  1  0.07958060  0.23666667  0.87979021  1.0
  Sn  Sn1090  1  0.07958060  0.57000000  0.87979021  1.0
  Sn  Sn1091  1  0.07958060  0.90333333  0.87979021  1.0
  Sn  Sn1092  1  0.41291393  0.23666667  0.87979021  1.0
  Sn  Sn1093  1  0.41291393  0.57000000  0.87979021  1.0
  Sn  Sn1094  1  0.41291393  0.90333333  0.87979021  1.0
  Sn  Sn1095  1  0.74624726  0.23666667  0.87979021  1.0
  Sn  Sn1096  1  0.74624726  0.57000000  0.87979021  1.0
  Sn  Sn1097  1  0.74624726  0.90333333  0.87979021  1.0
  Sn  Sn1098  1  0.14166079  0.22028433  0.99416364  1.0
  Sn  Sn1099  1  0.14166079  0.55361767  0.99416364  1.0
  Sn  Sn1100  1  0.14166079  0.88695100  0.99416364  1.0
  Sn  Sn1101  1  0.47499412  0.22028433  0.99416364  1.0
  Sn  Sn1102  1  0.47499412  0.55361767  0.99416364  1.0
  Sn  Sn1103  1  0.47499412  0.88695100  0.99416364  1.0
  Sn  Sn1104  1  0.80832745  0.22028433  0.99416364  1.0
  Sn  Sn1105  1  0.80832745  0.55361767  0.99416364  1.0
  Sn  Sn1106  1  0.80832745  0.88695100  0.99416364  1.0
  Sn  Sn1107  1  0.33213698  0.22028433  0.92273507  1.0
  Sn  Sn1108  1  0.33213698  0.55361767  0.92273507  1.0
  Sn  Sn1109  1  0.33213698  0.88695100  0.92273507  1.0
  Sn  Sn1110  1  0.66547031  0.22028433  0.92273507  1.0
  Sn  Sn1111  1  0.66547031  0.55361767  0.92273507  1.0
  Sn  Sn1112  1  0.66547031  0.88695100  0.92273507  1.0
  Sn  Sn1113  1  0.99880364  0.22028433  0.92273507  1.0
  Sn  Sn1114  1  0.99880364  0.55361767  0.92273507  1.0
  Sn  Sn1115  1  0.99880364  0.88695100  0.92273507  1.0
  Sn  Sn1116  1  0.14190507  0.05361767  0.99428579  1.0
  Sn  Sn1117  1  0.14190507  0.38695100  0.99428579  1.0
  Sn  Sn1118  1  0.14190507  0.72028433  0.99428579  1.0
  Sn  Sn1119  1  0.47523840  0.05361767  0.99428579  1.0
  Sn  Sn1120  1  0.47523840  0.38695100  0.99428579  1.0
  Sn  Sn1121  1  0.47523840  0.72028433  0.99428579  1.0
  Sn  Sn1122  1  0.80857174  0.05361767  0.99428579  1.0
  Sn  Sn1123  1  0.80857174  0.38695100  0.99428579  1.0
  Sn  Sn1124  1  0.80857174  0.72028433  0.99428579  1.0
  Sn  Sn1125  1  0.33238126  0.05361767  0.92285721  1.0
  Sn  Sn1126  1  0.33238126  0.38695100  0.92285721  1.0
  Sn  Sn1127  1  0.33238126  0.72028433  0.92285721  1.0
  Sn  Sn1128  1  0.66571460  0.05361767  0.92285721  1.0
  Sn  Sn1129  1  0.66571460  0.38695100  0.92285721  1.0
  Sn  Sn1130  1  0.66571460  0.72028433  0.92285721  1.0
  Sn  Sn1131  1  0.99904793  0.05361767  0.92285721  1.0
  Sn  Sn1132  1  0.99904793  0.38695100  0.92285721  1.0
  Sn  Sn1133  1  0.99904793  0.72028433  0.92285721  1.0
  Sn  Sn1134  1  0.23548212  0.11304900  0.87440764  1.0
  Sn  Sn1135  1  0.23548212  0.44638233  0.87440764  1.0
  Sn  Sn1136  1  0.23548212  0.77971567  0.87440764  1.0
  Sn  Sn1137  1  0.56881545  0.11304900  0.87440764  1.0
  Sn  Sn1138  1  0.56881545  0.44638233  0.87440764  1.0
  Sn  Sn1139  1  0.56881545  0.77971567  0.87440764  1.0
  Sn  Sn1140  1  0.90214879  0.11304900  0.87440764  1.0
  Sn  Sn1141  1  0.90214879  0.44638233  0.87440764  1.0
  Sn  Sn1142  1  0.90214879  0.77971567  0.87440764  1.0
  Sn  Sn1143  1  0.04500593  0.11304900  0.94583621  1.0
  Sn  Sn1144  1  0.04500593  0.44638233  0.94583621  1.0
  Sn  Sn1145  1  0.04500593  0.77971567  0.94583621  1.0
  Sn  Sn1146  1  0.37833926  0.11304900  0.94583621  1.0
  Sn  Sn1147  1  0.37833926  0.44638233  0.94583621  1.0
  Sn  Sn1148  1  0.37833926  0.77971567  0.94583621  1.0
  Sn  Sn1149  1  0.71167260  0.11304900  0.94583621  1.0
  Sn  Sn1150  1  0.71167260  0.44638233  0.94583621  1.0
  Sn  Sn1151  1  0.71167260  0.77971567  0.94583621  1.0
  Sn  Sn1152  1  0.02752226  0.01306900  0.77042771  1.0
  Sn  Sn1153  1  0.02752226  0.34640233  0.77042771  1.0
  Sn  Sn1154  1  0.02752226  0.67973567  0.77042771  1.0
  Sn  Sn1155  1  0.36085560  0.01306900  0.77042771  1.0
  Sn  Sn1156  1  0.36085560  0.34640233  0.77042771  1.0
  Sn  Sn1157  1  0.36085560  0.67973567  0.77042771  1.0
  Sn  Sn1158  1  0.69418893  0.01306900  0.77042771  1.0
  Sn  Sn1159  1  0.69418893  0.34640233  0.77042771  1.0
  Sn  Sn1160  1  0.69418893  0.67973567  0.77042771  1.0
  Sn  Sn1161  1  0.17037940  0.01306900  0.84185629  1.0
  Sn  Sn1162  1  0.17037940  0.34640233  0.84185629  1.0
  Sn  Sn1163  1  0.17037940  0.67973567  0.84185629  1.0
  Sn  Sn1164  1  0.50371274  0.01306900  0.84185629  1.0
  Sn  Sn1165  1  0.50371274  0.34640233  0.84185629  1.0
  Sn  Sn1166  1  0.50371274  0.67973567  0.84185629  1.0
  Sn  Sn1167  1  0.83704607  0.01306900  0.84185629  1.0
  Sn  Sn1168  1  0.83704607  0.34640233  0.84185629  1.0
  Sn  Sn1169  1  0.83704607  0.67973567  0.84185629  1.0
  Sn  Sn1170  1  0.20944136  0.30323433  0.77805393  1.0
  Sn  Sn1171  1  0.20944136  0.63656767  0.77805393  1.0
  Sn  Sn1172  1  0.20944136  0.96990100  0.77805393  1.0
  Sn  Sn1173  1  0.54277469  0.30323433  0.77805393  1.0
  Sn  Sn1174  1  0.54277469  0.63656767  0.77805393  1.0
  Sn  Sn1175  1  0.54277469  0.96990100  0.77805393  1.0
  Sn  Sn1176  1  0.87610802  0.30323433  0.77805393  1.0
  Sn  Sn1177  1  0.87610802  0.63656767  0.77805393  1.0
  Sn  Sn1178  1  0.87610802  0.96990100  0.77805393  1.0
  Sn  Sn1179  1  0.01896517  0.30323433  0.84948250  1.0
  Sn  Sn1180  1  0.01896517  0.63656767  0.84948250  1.0
  Sn  Sn1181  1  0.01896517  0.96990100  0.84948250  1.0
  Sn  Sn1182  1  0.35229850  0.30323433  0.84948250  1.0
  Sn  Sn1183  1  0.35229850  0.63656767  0.84948250  1.0
  Sn  Sn1184  1  0.35229850  0.96990100  0.84948250  1.0
  Sn  Sn1185  1  0.68563183  0.30323433  0.84948250  1.0
  Sn  Sn1186  1  0.68563183  0.63656767  0.84948250  1.0
  Sn  Sn1187  1  0.68563183  0.96990100  0.84948250  1.0
  Sn  Sn1188  1  0.26293964  0.03009900  0.80480307  1.0
  Sn  Sn1189  1  0.26293964  0.36343233  0.80480307  1.0
  Sn  Sn1190  1  0.26293964  0.69676567  0.80480307  1.0
  Sn  Sn1191  1  0.59627298  0.03009900  0.80480307  1.0
  Sn  Sn1192  1  0.59627298  0.36343233  0.80480307  1.0
  Sn  Sn1193  1  0.59627298  0.69676567  0.80480307  1.0
  Sn  Sn1194  1  0.92960631  0.03009900  0.80480307  1.0
  Sn  Sn1195  1  0.92960631  0.36343233  0.80480307  1.0
  Sn  Sn1196  1  0.92960631  0.69676567  0.80480307  1.0
  Sn  Sn1197  1  0.12008250  0.03009900  0.73337450  1.0
  Sn  Sn1198  1  0.12008250  0.36343233  0.73337450  1.0
  Sn  Sn1199  1  0.12008250  0.69676567  0.73337450  1.0
  Sn  Sn1200  1  0.45341583  0.03009900  0.73337450  1.0
  Sn  Sn1201  1  0.45341583  0.36343233  0.73337450  1.0
  Sn  Sn1202  1  0.45341583  0.69676567  0.73337450  1.0
  Sn  Sn1203  1  0.78674917  0.03009900  0.73337450  1.0
  Sn  Sn1204  1  0.78674917  0.36343233  0.73337450  1.0
  Sn  Sn1205  1  0.78674917  0.69676567  0.73337450  1.0
  Sn  Sn1206  1  0.28285688  0.27971567  0.73142836  1.0
  Sn  Sn1207  1  0.28285688  0.61304900  0.73142836  1.0
  Sn  Sn1208  1  0.28285688  0.94638233  0.73142836  1.0
  Sn  Sn1209  1  0.61619021  0.27971567  0.73142836  1.0
  Sn  Sn1210  1  0.61619021  0.61304900  0.73142836  1.0
  Sn  Sn1211  1  0.61619021  0.94638233  0.73142836  1.0
  Sn  Sn1212  1  0.94952355  0.27971567  0.73142836  1.0
  Sn  Sn1213  1  0.94952355  0.61304900  0.73142836  1.0
  Sn  Sn1214  1  0.94952355  0.94638233  0.73142836  1.0
  Sn  Sn1215  1  0.09238069  0.27971567  0.80285693  1.0
  Sn  Sn1216  1  0.09238069  0.61304900  0.80285693  1.0
  Sn  Sn1217  1  0.09238069  0.94638233  0.80285693  1.0
  Sn  Sn1218  1  0.42571402  0.27971567  0.80285693  1.0
  Sn  Sn1219  1  0.42571402  0.61304900  0.80285693  1.0
  Sn  Sn1220  1  0.42571402  0.94638233  0.80285693  1.0
  Sn  Sn1221  1  0.75904736  0.27971567  0.80285693  1.0
  Sn  Sn1222  1  0.75904736  0.61304900  0.80285693  1.0
  Sn  Sn1223  1  0.75904736  0.94638233  0.80285693  1.0
  Sn  Sn1224  1  0.11152540  0.32026433  0.81242929  1.0
  Sn  Sn1225  1  0.11152540  0.65359767  0.81242929  1.0
  Sn  Sn1226  1  0.11152540  0.98693100  0.81242929  1.0
  Sn  Sn1227  1  0.44485874  0.32026433  0.81242929  1.0
  Sn  Sn1228  1  0.44485874  0.65359767  0.81242929  1.0
  Sn  Sn1229  1  0.44485874  0.98693100  0.81242929  1.0
  Sn  Sn1230  1  0.77819207  0.32026433  0.81242929  1.0
  Sn  Sn1231  1  0.77819207  0.65359767  0.81242929  1.0
  Sn  Sn1232  1  0.77819207  0.98693100  0.81242929  1.0
  Sn  Sn1233  1  0.30200160  0.32026433  0.74100071  1.0
  Sn  Sn1234  1  0.30200160  0.65359767  0.74100071  1.0
  Sn  Sn1235  1  0.30200160  0.98693100  0.74100071  1.0
  Sn  Sn1236  1  0.63533493  0.32026433  0.74100071  1.0
  Sn  Sn1237  1  0.63533493  0.65359767  0.74100071  1.0
  Sn  Sn1238  1  0.63533493  0.98693100  0.74100071  1.0
  Sn  Sn1239  1  0.96866826  0.32026433  0.74100071  1.0
  Sn  Sn1240  1  0.96866826  0.65359767  0.74100071  1.0
  Sn  Sn1241  1  0.96866826  0.98693100  0.74100071  1.0
  Sn  Sn1242  1  0.18364221  0.19676567  0.76515436  1.0
  Sn  Sn1243  1  0.18364221  0.53009900  0.76515436  1.0
  Sn  Sn1244  1  0.18364221  0.86343233  0.76515436  1.0
  Sn  Sn1245  1  0.51697555  0.19676567  0.76515436  1.0
  Sn  Sn1246  1  0.51697555  0.53009900  0.76515436  1.0
  Sn  Sn1247  1  0.51697555  0.86343233  0.76515436  1.0
  Sn  Sn1248  1  0.85030888  0.19676567  0.76515436  1.0
  Sn  Sn1249  1  0.85030888  0.53009900  0.76515436  1.0
  Sn  Sn1250  1  0.85030888  0.86343233  0.76515436  1.0
  Sn  Sn1251  1  0.32649936  0.19676567  0.83658293  1.0
  Sn  Sn1252  1  0.32649936  0.53009900  0.83658293  1.0
  Sn  Sn1253  1  0.32649936  0.86343233  0.83658293  1.0
  Sn  Sn1254  1  0.65983269  0.19676567  0.83658293  1.0
  Sn  Sn1255  1  0.65983269  0.53009900  0.83658293  1.0
  Sn  Sn1256  1  0.65983269  0.86343233  0.83658293  1.0
  Sn  Sn1257  1  0.99316602  0.19676567  0.83658293  1.0
  Sn  Sn1258  1  0.99316602  0.53009900  0.83658293  1.0
  Sn  Sn1259  1  0.99316602  0.86343233  0.83658293  1.0
  Sn  Sn1260  1  0.20232421  0.09666667  0.77449536  1.0
  Sn  Sn1261  1  0.20232421  0.43000000  0.77449536  1.0
  Sn  Sn1262  1  0.20232421  0.76333333  0.77449536  1.0
  Sn  Sn1263  1  0.53565755  0.09666667  0.77449536  1.0
  Sn  Sn1264  1  0.53565755  0.43000000  0.77449536  1.0
  Sn  Sn1265  1  0.53565755  0.76333333  0.77449536  1.0
  Sn  Sn1266  1  0.86899088  0.09666667  0.77449536  1.0
  Sn  Sn1267  1  0.86899088  0.43000000  0.77449536  1.0
  Sn  Sn1268  1  0.86899088  0.76333333  0.77449536  1.0
  Sn  Sn1269  1  0.01184802  0.09666667  0.84592393  1.0
  Sn  Sn1270  1  0.01184802  0.43000000  0.84592393  1.0
  Sn  Sn1271  1  0.01184802  0.76333333  0.84592393  1.0
  Sn  Sn1272  1  0.34518136  0.09666667  0.84592393  1.0
  Sn  Sn1273  1  0.34518136  0.43000000  0.84592393  1.0
  Sn  Sn1274  1  0.34518136  0.76333333  0.84592393  1.0
  Sn  Sn1275  1  0.67851469  0.09666667  0.84592393  1.0
  Sn  Sn1276  1  0.67851469  0.43000000  0.84592393  1.0
  Sn  Sn1277  1  0.67851469  0.76333333  0.84592393  1.0
  Sn  Sn1278  1  0.28518136  0.07000000  0.81592393  1.0
  Sn  Sn1279  1  0.28518136  0.40333333  0.81592393  1.0
  Sn  Sn1280  1  0.28518136  0.73666667  0.81592393  1.0
  Sn  Sn1281  1  0.61851469  0.07000000  0.81592393  1.0
  Sn  Sn1282  1  0.61851469  0.40333333  0.81592393  1.0
  Sn  Sn1283  1  0.61851469  0.73666667  0.81592393  1.0
  Sn  Sn1284  1  0.95184802  0.07000000  0.81592393  1.0
  Sn  Sn1285  1  0.95184802  0.40333333  0.81592393  1.0
  Sn  Sn1286  1  0.95184802  0.73666667  0.81592393  1.0
  Sn  Sn1287  1  0.14232421  0.07000000  0.74449536  1.0
  Sn  Sn1288  1  0.14232421  0.40333333  0.74449536  1.0
  Sn  Sn1289  1  0.14232421  0.73666667  0.74449536  1.0
  Sn  Sn1290  1  0.47565755  0.07000000  0.74449536  1.0
  Sn  Sn1291  1  0.47565755  0.40333333  0.74449536  1.0
  Sn  Sn1292  1  0.47565755  0.73666667  0.74449536  1.0
  Sn  Sn1293  1  0.80899088  0.07000000  0.74449536  1.0
  Sn  Sn1294  1  0.80899088  0.40333333  0.74449536  1.0
  Sn  Sn1295  1  0.80899088  0.73666667  0.74449536  1.0
  Sn  Sn1296  1  0.18719964  0.26333333  0.76693307  1.0
  Sn  Sn1297  1  0.18719964  0.59666667  0.76693307  1.0
  Sn  Sn1298  1  0.18719964  0.93000000  0.76693307  1.0
  Sn  Sn1299  1  0.52053298  0.26333333  0.76693307  1.0
  Sn  Sn1300  1  0.52053298  0.59666667  0.76693307  1.0
  Sn  Sn1301  1  0.52053298  0.93000000  0.76693307  1.0
  Sn  Sn1302  1  0.85386631  0.26333333  0.76693307  1.0
  Sn  Sn1303  1  0.85386631  0.59666667  0.76693307  1.0
  Sn  Sn1304  1  0.85386631  0.93000000  0.76693307  1.0
  Sn  Sn1305  1  0.33005679  0.26333333  0.83836164  1.0
  Sn  Sn1306  1  0.33005679  0.59666667  0.83836164  1.0
  Sn  Sn1307  1  0.33005679  0.93000000  0.83836164  1.0
  Sn  Sn1308  1  0.66339012  0.26333333  0.83836164  1.0
  Sn  Sn1309  1  0.66339012  0.59666667  0.83836164  1.0
  Sn  Sn1310  1  0.66339012  0.93000000  0.83836164  1.0
  Sn  Sn1311  1  0.99672345  0.26333333  0.83836164  1.0
  Sn  Sn1312  1  0.99672345  0.59666667  0.83836164  1.0
  Sn  Sn1313  1  0.99672345  0.93000000  0.83836164  1.0
  Sn  Sn1314  1  0.29079960  0.17973567  0.73539971  1.0
  Sn  Sn1315  1  0.29079960  0.51306900  0.73539971  1.0
  Sn  Sn1316  1  0.29079960  0.84640233  0.73539971  1.0
  Sn  Sn1317  1  0.62413293  0.17973567  0.73539971  1.0
  Sn  Sn1318  1  0.62413293  0.51306900  0.73539971  1.0
  Sn  Sn1319  1  0.62413293  0.84640233  0.73539971  1.0
  Sn  Sn1320  1  0.95746626  0.17973567  0.73539971  1.0
  Sn  Sn1321  1  0.95746626  0.51306900  0.73539971  1.0
  Sn  Sn1322  1  0.95746626  0.84640233  0.73539971  1.0
  Sn  Sn1323  1  0.10032340  0.17973567  0.80682829  1.0
  Sn  Sn1324  1  0.10032340  0.51306900  0.80682829  1.0
  Sn  Sn1325  1  0.10032340  0.84640233  0.80682829  1.0
  Sn  Sn1326  1  0.43365674  0.17973567  0.80682829  1.0
  Sn  Sn1327  1  0.43365674  0.51306900  0.80682829  1.0
  Sn  Sn1328  1  0.43365674  0.84640233  0.80682829  1.0
  Sn  Sn1329  1  0.76699007  0.17973567  0.80682829  1.0
  Sn  Sn1330  1  0.76699007  0.51306900  0.80682829  1.0
  Sn  Sn1331  1  0.76699007  0.84640233  0.80682829  1.0
  Sn  Sn1332  1  0.28873879  0.13656767  0.81770264  1.0
  Sn  Sn1333  1  0.28873879  0.46990100  0.81770264  1.0
  Sn  Sn1334  1  0.28873879  0.80323433  0.81770264  1.0
  Sn  Sn1335  1  0.62207212  0.13656767  0.81770264  1.0
  Sn  Sn1336  1  0.62207212  0.46990100  0.81770264  1.0
  Sn  Sn1337  1  0.62207212  0.80323433  0.81770264  1.0
  Sn  Sn1338  1  0.95540545  0.13656767  0.81770264  1.0
  Sn  Sn1339  1  0.95540545  0.46990100  0.81770264  1.0
  Sn  Sn1340  1  0.95540545  0.80323433  0.81770264  1.0
  Sn  Sn1341  1  0.14588164  0.13656767  0.74627407  1.0
  Sn  Sn1342  1  0.14588164  0.46990100  0.74627407  1.0
  Sn  Sn1343  1  0.14588164  0.80323433  0.74627407  1.0
  Sn  Sn1344  1  0.47921498  0.13656767  0.74627407  1.0
  Sn  Sn1345  1  0.47921498  0.46990100  0.74627407  1.0
  Sn  Sn1346  1  0.47921498  0.80323433  0.74627407  1.0
  Sn  Sn1347  1  0.81254831  0.13656767  0.74627407  1.0
  Sn  Sn1348  1  0.81254831  0.46990100  0.74627407  1.0
  Sn  Sn1349  1  0.81254831  0.80323433  0.74627407  1.0
  Sn  Sn1350  1  0.18158140  0.15359767  0.84745729  1.0
  Sn  Sn1351  1  0.18158140  0.48693100  0.84745729  1.0
  Sn  Sn1352  1  0.18158140  0.82026433  0.84745729  1.0
  Sn  Sn1353  1  0.51491474  0.15359767  0.84745729  1.0
  Sn  Sn1354  1  0.51491474  0.48693100  0.84745729  1.0
  Sn  Sn1355  1  0.51491474  0.82026433  0.84745729  1.0
  Sn  Sn1356  1  0.84824807  0.15359767  0.84745729  1.0
  Sn  Sn1357  1  0.84824807  0.48693100  0.84745729  1.0
  Sn  Sn1358  1  0.84824807  0.82026433  0.84745729  1.0
  Sn  Sn1359  1  0.03872426  0.15359767  0.77602871  1.0
  Sn  Sn1360  1  0.03872426  0.48693100  0.77602871  1.0
  Sn  Sn1361  1  0.03872426  0.82026433  0.77602871  1.0
  Sn  Sn1362  1  0.37205760  0.15359767  0.77602871  1.0
  Sn  Sn1363  1  0.37205760  0.48693100  0.77602871  1.0
  Sn  Sn1364  1  0.37205760  0.82026433  0.77602871  1.0
  Sn  Sn1365  1  0.70539093  0.15359767  0.77602871  1.0
  Sn  Sn1366  1  0.70539093  0.48693100  0.77602871  1.0
  Sn  Sn1367  1  0.70539093  0.82026433  0.77602871  1.0
  Sn  Sn1368  1  0.27005679  0.23666667  0.80836164  1.0
  Sn  Sn1369  1  0.27005679  0.57000000  0.80836164  1.0
  Sn  Sn1370  1  0.27005679  0.90333333  0.80836164  1.0
  Sn  Sn1371  1  0.60339012  0.23666667  0.80836164  1.0
  Sn  Sn1372  1  0.60339012  0.57000000  0.80836164  1.0
  Sn  Sn1373  1  0.60339012  0.90333333  0.80836164  1.0
  Sn  Sn1374  1  0.93672345  0.23666667  0.80836164  1.0
  Sn  Sn1375  1  0.93672345  0.57000000  0.80836164  1.0
  Sn  Sn1376  1  0.93672345  0.90333333  0.80836164  1.0
  Sn  Sn1377  1  0.12719964  0.23666667  0.73693307  1.0
  Sn  Sn1378  1  0.12719964  0.57000000  0.73693307  1.0
  Sn  Sn1379  1  0.12719964  0.90333333  0.73693307  1.0
  Sn  Sn1380  1  0.46053298  0.23666667  0.73693307  1.0
  Sn  Sn1381  1  0.46053298  0.57000000  0.73693307  1.0
  Sn  Sn1382  1  0.46053298  0.90333333  0.73693307  1.0
  Sn  Sn1383  1  0.79386631  0.23666667  0.73693307  1.0
  Sn  Sn1384  1  0.79386631  0.57000000  0.73693307  1.0
  Sn  Sn1385  1  0.79386631  0.90333333  0.73693307  1.0
  Sn  Sn1386  1  0.18927983  0.22028433  0.85130650  1.0
  Sn  Sn1387  1  0.18927983  0.55361767  0.85130650  1.0
  Sn  Sn1388  1  0.18927983  0.88695100  0.85130650  1.0
  Sn  Sn1389  1  0.52261317  0.22028433  0.85130650  1.0
  Sn  Sn1390  1  0.52261317  0.55361767  0.85130650  1.0
  Sn  Sn1391  1  0.52261317  0.88695100  0.85130650  1.0
  Sn  Sn1392  1  0.85594650  0.22028433  0.85130650  1.0
  Sn  Sn1393  1  0.85594650  0.55361767  0.85130650  1.0
  Sn  Sn1394  1  0.85594650  0.88695100  0.85130650  1.0
  Sn  Sn1395  1  0.04642269  0.22028433  0.77987793  1.0
  Sn  Sn1396  1  0.04642269  0.55361767  0.77987793  1.0
  Sn  Sn1397  1  0.04642269  0.88695100  0.77987793  1.0
  Sn  Sn1398  1  0.37975602  0.22028433  0.77987793  1.0
  Sn  Sn1399  1  0.37975602  0.55361767  0.77987793  1.0
  Sn  Sn1400  1  0.37975602  0.88695100  0.77987793  1.0
  Sn  Sn1401  1  0.71308936  0.22028433  0.77987793  1.0
  Sn  Sn1402  1  0.71308936  0.55361767  0.77987793  1.0
  Sn  Sn1403  1  0.71308936  0.88695100  0.77987793  1.0
  Sn  Sn1404  1  0.18952412  0.05361767  0.85142864  1.0
  Sn  Sn1405  1  0.18952412  0.38695100  0.85142864  1.0
  Sn  Sn1406  1  0.18952412  0.72028433  0.85142864  1.0
  Sn  Sn1407  1  0.52285745  0.05361767  0.85142864  1.0
  Sn  Sn1408  1  0.52285745  0.38695100  0.85142864  1.0
  Sn  Sn1409  1  0.52285745  0.72028433  0.85142864  1.0
  Sn  Sn1410  1  0.85619079  0.05361767  0.85142864  1.0
  Sn  Sn1411  1  0.85619079  0.38695100  0.85142864  1.0
  Sn  Sn1412  1  0.85619079  0.72028433  0.85142864  1.0
  Sn  Sn1413  1  0.04666698  0.05361767  0.78000007  1.0
  Sn  Sn1414  1  0.04666698  0.38695100  0.78000007  1.0
  Sn  Sn1415  1  0.04666698  0.72028433  0.78000007  1.0
  Sn  Sn1416  1  0.38000031  0.05361767  0.78000007  1.0
  Sn  Sn1417  1  0.38000031  0.38695100  0.78000007  1.0
  Sn  Sn1418  1  0.38000031  0.72028433  0.78000007  1.0
  Sn  Sn1419  1  0.71333364  0.05361767  0.78000007  1.0
  Sn  Sn1420  1  0.71333364  0.38695100  0.78000007  1.0
  Sn  Sn1421  1  0.71333364  0.72028433  0.78000007  1.0
  Sn  Sn1422  1  0.28310117  0.11304900  0.73155050  1.0
  Sn  Sn1423  1  0.28310117  0.44638233  0.73155050  1.0
  Sn  Sn1424  1  0.28310117  0.77971567  0.73155050  1.0
  Sn  Sn1425  1  0.61643450  0.11304900  0.73155050  1.0
  Sn  Sn1426  1  0.61643450  0.44638233  0.73155050  1.0
  Sn  Sn1427  1  0.61643450  0.77971567  0.73155050  1.0
  Sn  Sn1428  1  0.94976783  0.11304900  0.73155050  1.0
  Sn  Sn1429  1  0.94976783  0.44638233  0.73155050  1.0
  Sn  Sn1430  1  0.94976783  0.77971567  0.73155050  1.0
  Sn  Sn1431  1  0.09262498  0.11304900  0.80297907  1.0
  Sn  Sn1432  1  0.09262498  0.44638233  0.80297907  1.0
  Sn  Sn1433  1  0.09262498  0.77971567  0.80297907  1.0
  Sn  Sn1434  1  0.42595831  0.11304900  0.80297907  1.0
  Sn  Sn1435  1  0.42595831  0.44638233  0.80297907  1.0
  Sn  Sn1436  1  0.42595831  0.77971567  0.80297907  1.0
  Sn  Sn1437  1  0.75929164  0.11304900  0.80297907  1.0
  Sn  Sn1438  1  0.75929164  0.44638233  0.80297907  1.0
  Sn  Sn1439  1  0.75929164  0.77971567  0.80297907  1.0
  Sn  Sn1440  1  0.07514131  0.01306900  0.62757057  1.0
  Sn  Sn1441  1  0.07514131  0.34640233  0.62757057  1.0
  Sn  Sn1442  1  0.07514131  0.67973567  0.62757057  1.0
  Sn  Sn1443  1  0.40847464  0.01306900  0.62757057  1.0
  Sn  Sn1444  1  0.40847464  0.34640233  0.62757057  1.0
  Sn  Sn1445  1  0.40847464  0.67973567  0.62757057  1.0
  Sn  Sn1446  1  0.74180798  0.01306900  0.62757057  1.0
  Sn  Sn1447  1  0.74180798  0.34640233  0.62757057  1.0
  Sn  Sn1448  1  0.74180798  0.67973567  0.62757057  1.0
  Sn  Sn1449  1  0.21799845  0.01306900  0.69899914  1.0
  Sn  Sn1450  1  0.21799845  0.34640233  0.69899914  1.0
  Sn  Sn1451  1  0.21799845  0.67973567  0.69899914  1.0
  Sn  Sn1452  1  0.55133179  0.01306900  0.69899914  1.0
  Sn  Sn1453  1  0.55133179  0.34640233  0.69899914  1.0
  Sn  Sn1454  1  0.55133179  0.67973567  0.69899914  1.0
  Sn  Sn1455  1  0.88466512  0.01306900  0.69899914  1.0
  Sn  Sn1456  1  0.88466512  0.34640233  0.69899914  1.0
  Sn  Sn1457  1  0.88466512  0.67973567  0.69899914  1.0
  Sn  Sn1458  1  0.25706040  0.30323433  0.63519679  1.0
  Sn  Sn1459  1  0.25706040  0.63656767  0.63519679  1.0
  Sn  Sn1460  1  0.25706040  0.96990100  0.63519679  1.0
  Sn  Sn1461  1  0.59039374  0.30323433  0.63519679  1.0
  Sn  Sn1462  1  0.59039374  0.63656767  0.63519679  1.0
  Sn  Sn1463  1  0.59039374  0.96990100  0.63519679  1.0
  Sn  Sn1464  1  0.92372707  0.30323433  0.63519679  1.0
  Sn  Sn1465  1  0.92372707  0.63656767  0.63519679  1.0
  Sn  Sn1466  1  0.92372707  0.96990100  0.63519679  1.0
  Sn  Sn1467  1  0.06658421  0.30323433  0.70662536  1.0
  Sn  Sn1468  1  0.06658421  0.63656767  0.70662536  1.0
  Sn  Sn1469  1  0.06658421  0.96990100  0.70662536  1.0
  Sn  Sn1470  1  0.39991755  0.30323433  0.70662536  1.0
  Sn  Sn1471  1  0.39991755  0.63656767  0.70662536  1.0
  Sn  Sn1472  1  0.39991755  0.96990100  0.70662536  1.0
  Sn  Sn1473  1  0.73325088  0.30323433  0.70662536  1.0
  Sn  Sn1474  1  0.73325088  0.63656767  0.70662536  1.0
  Sn  Sn1475  1  0.73325088  0.96990100  0.70662536  1.0
  Sn  Sn1476  1  0.31055869  0.03009900  0.66194593  1.0
  Sn  Sn1477  1  0.31055869  0.36343233  0.66194593  1.0
  Sn  Sn1478  1  0.31055869  0.69676567  0.66194593  1.0
  Sn  Sn1479  1  0.64389202  0.03009900  0.66194593  1.0
  Sn  Sn1480  1  0.64389202  0.36343233  0.66194593  1.0
  Sn  Sn1481  1  0.64389202  0.69676567  0.66194593  1.0
  Sn  Sn1482  1  0.97722536  0.03009900  0.66194593  1.0
  Sn  Sn1483  1  0.97722536  0.36343233  0.66194593  1.0
  Sn  Sn1484  1  0.97722536  0.69676567  0.66194593  1.0
  Sn  Sn1485  1  0.16770155  0.03009900  0.59051736  1.0
  Sn  Sn1486  1  0.16770155  0.36343233  0.59051736  1.0
  Sn  Sn1487  1  0.16770155  0.69676567  0.59051736  1.0
  Sn  Sn1488  1  0.50103488  0.03009900  0.59051736  1.0
  Sn  Sn1489  1  0.50103488  0.36343233  0.59051736  1.0
  Sn  Sn1490  1  0.50103488  0.69676567  0.59051736  1.0
  Sn  Sn1491  1  0.83436821  0.03009900  0.59051736  1.0
  Sn  Sn1492  1  0.83436821  0.36343233  0.59051736  1.0
  Sn  Sn1493  1  0.83436821  0.69676567  0.59051736  1.0
  Sn  Sn1494  1  0.33047593  0.27971567  0.58857121  1.0
  Sn  Sn1495  1  0.33047593  0.61304900  0.58857121  1.0
  Sn  Sn1496  1  0.33047593  0.94638233  0.58857121  1.0
  Sn  Sn1497  1  0.66380926  0.27971567  0.58857121  1.0
  Sn  Sn1498  1  0.66380926  0.61304900  0.58857121  1.0
  Sn  Sn1499  1  0.66380926  0.94638233  0.58857121  1.0
  Sn  Sn1500  1  0.99714260  0.27971567  0.58857121  1.0
  Sn  Sn1501  1  0.99714260  0.61304900  0.58857121  1.0
  Sn  Sn1502  1  0.99714260  0.94638233  0.58857121  1.0
  Sn  Sn1503  1  0.13999974  0.27971567  0.65999979  1.0
  Sn  Sn1504  1  0.13999974  0.61304900  0.65999979  1.0
  Sn  Sn1505  1  0.13999974  0.94638233  0.65999979  1.0
  Sn  Sn1506  1  0.47333307  0.27971567  0.65999979  1.0
  Sn  Sn1507  1  0.47333307  0.61304900  0.65999979  1.0
  Sn  Sn1508  1  0.47333307  0.94638233  0.65999979  1.0
  Sn  Sn1509  1  0.80666640  0.27971567  0.65999979  1.0
  Sn  Sn1510  1  0.80666640  0.61304900  0.65999979  1.0
  Sn  Sn1511  1  0.80666640  0.94638233  0.65999979  1.0
  Sn  Sn1512  1  0.15914445  0.32026433  0.66957214  1.0
  Sn  Sn1513  1  0.15914445  0.65359767  0.66957214  1.0
  Sn  Sn1514  1  0.15914445  0.98693100  0.66957214  1.0
  Sn  Sn1515  1  0.49247779  0.32026433  0.66957214  1.0
  Sn  Sn1516  1  0.49247779  0.65359767  0.66957214  1.0
  Sn  Sn1517  1  0.49247779  0.98693100  0.66957214  1.0
  Sn  Sn1518  1  0.82581112  0.32026433  0.66957214  1.0
  Sn  Sn1519  1  0.82581112  0.65359767  0.66957214  1.0
  Sn  Sn1520  1  0.82581112  0.98693100  0.66957214  1.0
  Sn  Sn1521  1  0.01628731  0.32026433  0.59814357  1.0
  Sn  Sn1522  1  0.01628731  0.65359767  0.59814357  1.0
  Sn  Sn1523  1  0.01628731  0.98693100  0.59814357  1.0
  Sn  Sn1524  1  0.34962064  0.32026433  0.59814357  1.0
  Sn  Sn1525  1  0.34962064  0.65359767  0.59814357  1.0
  Sn  Sn1526  1  0.34962064  0.98693100  0.59814357  1.0
  Sn  Sn1527  1  0.68295398  0.32026433  0.59814357  1.0
  Sn  Sn1528  1  0.68295398  0.65359767  0.59814357  1.0
  Sn  Sn1529  1  0.68295398  0.98693100  0.59814357  1.0
  Sn  Sn1530  1  0.23126126  0.19676567  0.62229721  1.0
  Sn  Sn1531  1  0.23126126  0.53009900  0.62229721  1.0
  Sn  Sn1532  1  0.23126126  0.86343233  0.62229721  1.0
  Sn  Sn1533  1  0.56459460  0.19676567  0.62229721  1.0
  Sn  Sn1534  1  0.56459460  0.53009900  0.62229721  1.0
  Sn  Sn1535  1  0.56459460  0.86343233  0.62229721  1.0
  Sn  Sn1536  1  0.89792793  0.19676567  0.62229721  1.0
  Sn  Sn1537  1  0.89792793  0.53009900  0.62229721  1.0
  Sn  Sn1538  1  0.89792793  0.86343233  0.62229721  1.0
  Sn  Sn1539  1  0.04078507  0.19676567  0.69372579  1.0
  Sn  Sn1540  1  0.04078507  0.53009900  0.69372579  1.0
  Sn  Sn1541  1  0.04078507  0.86343233  0.69372579  1.0
  Sn  Sn1542  1  0.37411840  0.19676567  0.69372579  1.0
  Sn  Sn1543  1  0.37411840  0.53009900  0.69372579  1.0
  Sn  Sn1544  1  0.37411840  0.86343233  0.69372579  1.0
  Sn  Sn1545  1  0.70745174  0.19676567  0.69372579  1.0
  Sn  Sn1546  1  0.70745174  0.53009900  0.69372579  1.0
  Sn  Sn1547  1  0.70745174  0.86343233  0.69372579  1.0
  Sn  Sn1548  1  0.24994326  0.09666667  0.63163821  1.0
  Sn  Sn1549  1  0.24994326  0.43000000  0.63163821  1.0
  Sn  Sn1550  1  0.24994326  0.76333333  0.63163821  1.0
  Sn  Sn1551  1  0.58327660  0.09666667  0.63163821  1.0
  Sn  Sn1552  1  0.58327660  0.43000000  0.63163821  1.0
  Sn  Sn1553  1  0.58327660  0.76333333  0.63163821  1.0
  Sn  Sn1554  1  0.91660993  0.09666667  0.63163821  1.0
  Sn  Sn1555  1  0.91660993  0.43000000  0.63163821  1.0
  Sn  Sn1556  1  0.91660993  0.76333333  0.63163821  1.0
  Sn  Sn1557  1  0.05946707  0.09666667  0.70306679  1.0
  Sn  Sn1558  1  0.05946707  0.43000000  0.70306679  1.0
  Sn  Sn1559  1  0.05946707  0.76333333  0.70306679  1.0
  Sn  Sn1560  1  0.39280040  0.09666667  0.70306679  1.0
  Sn  Sn1561  1  0.39280040  0.43000000  0.70306679  1.0
  Sn  Sn1562  1  0.39280040  0.76333333  0.70306679  1.0
  Sn  Sn1563  1  0.72613374  0.09666667  0.70306679  1.0
  Sn  Sn1564  1  0.72613374  0.43000000  0.70306679  1.0
  Sn  Sn1565  1  0.72613374  0.76333333  0.70306679  1.0
  Sn  Sn1566  1  0.33280040  0.07000000  0.67306679  1.0
  Sn  Sn1567  1  0.33280040  0.40333333  0.67306679  1.0
  Sn  Sn1568  1  0.33280040  0.73666667  0.67306679  1.0
  Sn  Sn1569  1  0.66613374  0.07000000  0.67306679  1.0
  Sn  Sn1570  1  0.66613374  0.40333333  0.67306679  1.0
  Sn  Sn1571  1  0.66613374  0.73666667  0.67306679  1.0
  Sn  Sn1572  1  0.99946707  0.07000000  0.67306679  1.0
  Sn  Sn1573  1  0.99946707  0.40333333  0.67306679  1.0
  Sn  Sn1574  1  0.99946707  0.73666667  0.67306679  1.0
  Sn  Sn1575  1  0.18994326  0.07000000  0.60163821  1.0
  Sn  Sn1576  1  0.18994326  0.40333333  0.60163821  1.0
  Sn  Sn1577  1  0.18994326  0.73666667  0.60163821  1.0
  Sn  Sn1578  1  0.52327660  0.07000000  0.60163821  1.0
  Sn  Sn1579  1  0.52327660  0.40333333  0.60163821  1.0
  Sn  Sn1580  1  0.52327660  0.73666667  0.60163821  1.0
  Sn  Sn1581  1  0.85660993  0.07000000  0.60163821  1.0
  Sn  Sn1582  1  0.85660993  0.40333333  0.60163821  1.0
  Sn  Sn1583  1  0.85660993  0.73666667  0.60163821  1.0
  Sn  Sn1584  1  0.23481869  0.26333333  0.62407593  1.0
  Sn  Sn1585  1  0.23481869  0.59666667  0.62407593  1.0
  Sn  Sn1586  1  0.23481869  0.93000000  0.62407593  1.0
  Sn  Sn1587  1  0.56815202  0.26333333  0.62407593  1.0
  Sn  Sn1588  1  0.56815202  0.59666667  0.62407593  1.0
  Sn  Sn1589  1  0.56815202  0.93000000  0.62407593  1.0
  Sn  Sn1590  1  0.90148536  0.26333333  0.62407593  1.0
  Sn  Sn1591  1  0.90148536  0.59666667  0.62407593  1.0
  Sn  Sn1592  1  0.90148536  0.93000000  0.62407593  1.0
  Sn  Sn1593  1  0.04434250  0.26333333  0.69550450  1.0
  Sn  Sn1594  1  0.04434250  0.59666667  0.69550450  1.0
  Sn  Sn1595  1  0.04434250  0.93000000  0.69550450  1.0
  Sn  Sn1596  1  0.37767583  0.26333333  0.69550450  1.0
  Sn  Sn1597  1  0.37767583  0.59666667  0.69550450  1.0
  Sn  Sn1598  1  0.37767583  0.93000000  0.69550450  1.0
  Sn  Sn1599  1  0.71100917  0.26333333  0.69550450  1.0
  Sn  Sn1600  1  0.71100917  0.59666667  0.69550450  1.0
  Sn  Sn1601  1  0.71100917  0.93000000  0.69550450  1.0
  Sn  Sn1602  1  0.00508531  0.17973567  0.59254257  1.0
  Sn  Sn1603  1  0.00508531  0.51306900  0.59254257  1.0
  Sn  Sn1604  1  0.00508531  0.84640233  0.59254257  1.0
  Sn  Sn1605  1  0.33841864  0.17973567  0.59254257  1.0
  Sn  Sn1606  1  0.33841864  0.51306900  0.59254257  1.0
  Sn  Sn1607  1  0.33841864  0.84640233  0.59254257  1.0
  Sn  Sn1608  1  0.67175198  0.17973567  0.59254257  1.0
  Sn  Sn1609  1  0.67175198  0.51306900  0.59254257  1.0
  Sn  Sn1610  1  0.67175198  0.84640233  0.59254257  1.0
  Sn  Sn1611  1  0.14794245  0.17973567  0.66397114  1.0
  Sn  Sn1612  1  0.14794245  0.51306900  0.66397114  1.0
  Sn  Sn1613  1  0.14794245  0.84640233  0.66397114  1.0
  Sn  Sn1614  1  0.48127579  0.17973567  0.66397114  1.0
  Sn  Sn1615  1  0.48127579  0.51306900  0.66397114  1.0
  Sn  Sn1616  1  0.48127579  0.84640233  0.66397114  1.0
  Sn  Sn1617  1  0.81460912  0.17973567  0.66397114  1.0
  Sn  Sn1618  1  0.81460912  0.51306900  0.66397114  1.0
  Sn  Sn1619  1  0.81460912  0.84640233  0.66397114  1.0
  Sn  Sn1620  1  0.00302450  0.13656767  0.67484550  1.0
  Sn  Sn1621  1  0.00302450  0.46990100  0.67484550  1.0
  Sn  Sn1622  1  0.00302450  0.80323433  0.67484550  1.0
  Sn  Sn1623  1  0.33635783  0.13656767  0.67484550  1.0
  Sn  Sn1624  1  0.33635783  0.46990100  0.67484550  1.0
  Sn  Sn1625  1  0.33635783  0.80323433  0.67484550  1.0
  Sn  Sn1626  1  0.66969117  0.13656767  0.67484550  1.0
  Sn  Sn1627  1  0.66969117  0.46990100  0.67484550  1.0
  Sn  Sn1628  1  0.66969117  0.80323433  0.67484550  1.0
  Sn  Sn1629  1  0.19350069  0.13656767  0.60341693  1.0
  Sn  Sn1630  1  0.19350069  0.46990100  0.60341693  1.0
  Sn  Sn1631  1  0.19350069  0.80323433  0.60341693  1.0
  Sn  Sn1632  1  0.52683402  0.13656767  0.60341693  1.0
  Sn  Sn1633  1  0.52683402  0.46990100  0.60341693  1.0
  Sn  Sn1634  1  0.52683402  0.80323433  0.60341693  1.0
  Sn  Sn1635  1  0.86016736  0.13656767  0.60341693  1.0
  Sn  Sn1636  1  0.86016736  0.46990100  0.60341693  1.0
  Sn  Sn1637  1  0.86016736  0.80323433  0.60341693  1.0
  Sn  Sn1638  1  0.22920045  0.15359767  0.70460014  1.0
  Sn  Sn1639  1  0.22920045  0.48693100  0.70460014  1.0
  Sn  Sn1640  1  0.22920045  0.82026433  0.70460014  1.0
  Sn  Sn1641  1  0.56253379  0.15359767  0.70460014  1.0
  Sn  Sn1642  1  0.56253379  0.48693100  0.70460014  1.0
  Sn  Sn1643  1  0.56253379  0.82026433  0.70460014  1.0
  Sn  Sn1644  1  0.89586712  0.15359767  0.70460014  1.0
  Sn  Sn1645  1  0.89586712  0.48693100  0.70460014  1.0
  Sn  Sn1646  1  0.89586712  0.82026433  0.70460014  1.0
  Sn  Sn1647  1  0.08634331  0.15359767  0.63317157  1.0
  Sn  Sn1648  1  0.08634331  0.48693100  0.63317157  1.0
  Sn  Sn1649  1  0.08634331  0.82026433  0.63317157  1.0
  Sn  Sn1650  1  0.41967664  0.15359767  0.63317157  1.0
  Sn  Sn1651  1  0.41967664  0.48693100  0.63317157  1.0
  Sn  Sn1652  1  0.41967664  0.82026433  0.63317157  1.0
  Sn  Sn1653  1  0.75300998  0.15359767  0.63317157  1.0
  Sn  Sn1654  1  0.75300998  0.48693100  0.63317157  1.0
  Sn  Sn1655  1  0.75300998  0.82026433  0.63317157  1.0
  Sn  Sn1656  1  0.31767583  0.23666667  0.66550450  1.0
  Sn  Sn1657  1  0.31767583  0.57000000  0.66550450  1.0
  Sn  Sn1658  1  0.31767583  0.90333333  0.66550450  1.0
  Sn  Sn1659  1  0.65100917  0.23666667  0.66550450  1.0
  Sn  Sn1660  1  0.65100917  0.57000000  0.66550450  1.0
  Sn  Sn1661  1  0.65100917  0.90333333  0.66550450  1.0
  Sn  Sn1662  1  0.98434250  0.23666667  0.66550450  1.0
  Sn  Sn1663  1  0.98434250  0.57000000  0.66550450  1.0
  Sn  Sn1664  1  0.98434250  0.90333333  0.66550450  1.0
  Sn  Sn1665  1  0.17481869  0.23666667  0.59407593  1.0
  Sn  Sn1666  1  0.17481869  0.57000000  0.59407593  1.0
  Sn  Sn1667  1  0.17481869  0.90333333  0.59407593  1.0
  Sn  Sn1668  1  0.50815202  0.23666667  0.59407593  1.0
  Sn  Sn1669  1  0.50815202  0.57000000  0.59407593  1.0
  Sn  Sn1670  1  0.50815202  0.90333333  0.59407593  1.0
  Sn  Sn1671  1  0.84148536  0.23666667  0.59407593  1.0
  Sn  Sn1672  1  0.84148536  0.57000000  0.59407593  1.0
  Sn  Sn1673  1  0.84148536  0.90333333  0.59407593  1.0
  Sn  Sn1674  1  0.23689888  0.22028433  0.70844936  1.0
  Sn  Sn1675  1  0.23689888  0.55361767  0.70844936  1.0
  Sn  Sn1676  1  0.23689888  0.88695100  0.70844936  1.0
  Sn  Sn1677  1  0.57023221  0.22028433  0.70844936  1.0
  Sn  Sn1678  1  0.57023221  0.55361767  0.70844936  1.0
  Sn  Sn1679  1  0.57023221  0.88695100  0.70844936  1.0
  Sn  Sn1680  1  0.90356555  0.22028433  0.70844936  1.0
  Sn  Sn1681  1  0.90356555  0.55361767  0.70844936  1.0
  Sn  Sn1682  1  0.90356555  0.88695100  0.70844936  1.0
  Sn  Sn1683  1  0.09404174  0.22028433  0.63702079  1.0
  Sn  Sn1684  1  0.09404174  0.55361767  0.63702079  1.0
  Sn  Sn1685  1  0.09404174  0.88695100  0.63702079  1.0
  Sn  Sn1686  1  0.42737507  0.22028433  0.63702079  1.0
  Sn  Sn1687  1  0.42737507  0.55361767  0.63702079  1.0
  Sn  Sn1688  1  0.42737507  0.88695100  0.63702079  1.0
  Sn  Sn1689  1  0.76070840  0.22028433  0.63702079  1.0
  Sn  Sn1690  1  0.76070840  0.55361767  0.63702079  1.0
  Sn  Sn1691  1  0.76070840  0.88695100  0.63702079  1.0
  Sn  Sn1692  1  0.23714317  0.05361767  0.70857150  1.0
  Sn  Sn1693  1  0.23714317  0.38695100  0.70857150  1.0
  Sn  Sn1694  1  0.23714317  0.72028433  0.70857150  1.0
  Sn  Sn1695  1  0.57047650  0.05361767  0.70857150  1.0
  Sn  Sn1696  1  0.57047650  0.38695100  0.70857150  1.0
  Sn  Sn1697  1  0.57047650  0.72028433  0.70857150  1.0
  Sn  Sn1698  1  0.90380983  0.05361767  0.70857150  1.0
  Sn  Sn1699  1  0.90380983  0.38695100  0.70857150  1.0
  Sn  Sn1700  1  0.90380983  0.72028433  0.70857150  1.0
  Sn  Sn1701  1  0.09428602  0.05361767  0.63714293  1.0
  Sn  Sn1702  1  0.09428602  0.38695100  0.63714293  1.0
  Sn  Sn1703  1  0.09428602  0.72028433  0.63714293  1.0
  Sn  Sn1704  1  0.42761936  0.05361767  0.63714293  1.0
  Sn  Sn1705  1  0.42761936  0.38695100  0.63714293  1.0
  Sn  Sn1706  1  0.42761936  0.72028433  0.63714293  1.0
  Sn  Sn1707  1  0.76095269  0.05361767  0.63714293  1.0
  Sn  Sn1708  1  0.76095269  0.38695100  0.63714293  1.0
  Sn  Sn1709  1  0.76095269  0.72028433  0.63714293  1.0
  Sn  Sn1710  1  0.33072021  0.11304900  0.58869336  1.0
  Sn  Sn1711  1  0.33072021  0.44638233  0.58869336  1.0
  Sn  Sn1712  1  0.33072021  0.77971567  0.58869336  1.0
  Sn  Sn1713  1  0.66405355  0.11304900  0.58869336  1.0
  Sn  Sn1714  1  0.66405355  0.44638233  0.58869336  1.0
  Sn  Sn1715  1  0.66405355  0.77971567  0.58869336  1.0
  Sn  Sn1716  1  0.99738688  0.11304900  0.58869336  1.0
  Sn  Sn1717  1  0.99738688  0.44638233  0.58869336  1.0
  Sn  Sn1718  1  0.99738688  0.77971567  0.58869336  1.0
  Sn  Sn1719  1  0.14024402  0.11304900  0.66012193  1.0
  Sn  Sn1720  1  0.14024402  0.44638233  0.66012193  1.0
  Sn  Sn1721  1  0.14024402  0.77971567  0.66012193  1.0
  Sn  Sn1722  1  0.47357736  0.11304900  0.66012193  1.0
  Sn  Sn1723  1  0.47357736  0.44638233  0.66012193  1.0
  Sn  Sn1724  1  0.47357736  0.77971567  0.66012193  1.0
  Sn  Sn1725  1  0.80691069  0.11304900  0.66012193  1.0
  Sn  Sn1726  1  0.80691069  0.44638233  0.66012193  1.0
  Sn  Sn1727  1  0.80691069  0.77971567  0.66012193  1.0
