# generated using pymatgen
data_Sc2Ni
_symmetry_space_group_name_H-M   'P 1'
_cell_length_a   36.27432001
_cell_length_b   44.42678739
_cell_length_c   27.03728179
_cell_angle_alpha   90.00000000
_cell_angle_beta   90.00000000
_cell_angle_gamma   114.09484255
_symmetry_Int_Tables_number   1
_chemical_formula_structural   Sc2Ni
_chemical_formula_sum   'Sc576 Ni288'
_cell_volume   39775.58665768
_cell_formula_units_Z   288
loop_
 _symmetry_equiv_pos_site_id
 _symmetry_equiv_pos_as_xyz
  1  'x, y, z'
loop_
 _atom_site_type_symbol
 _atom_site_label
 _atom_site_symmetry_multiplicity
 _atom_site_fract_x
 _atom_site_fract_y
 _atom_site_fract_z
 _atom_site_occupancy
  Ni  Ni0  1  0.17937294  0.26267335  0.12504938  1.0
  Ni  Ni1  1  0.17937294  0.59600668  0.12504938  1.0
  Ni  Ni2  1  0.17937294  0.92934002  0.12504938  1.0
  Ni  Ni3  1  0.51270627  0.26267335  0.12504938  1.0
  Ni  Ni4  1  0.51270627  0.59600668  0.12504938  1.0
  Ni  Ni5  1  0.51270627  0.92934002  0.12504938  1.0
  Ni  Ni6  1  0.84603961  0.26267335  0.12504938  1.0
  Ni  Ni7  1  0.84603961  0.59600668  0.12504938  1.0
  Ni  Ni8  1  0.84603961  0.92934002  0.12504938  1.0
  Ni  Ni9  1  0.07937294  0.06267335  0.02504938  1.0
  Ni  Ni10  1  0.07937294  0.39600668  0.02504938  1.0
  Ni  Ni11  1  0.07937294  0.72934002  0.02504938  1.0
  Ni  Ni12  1  0.41270627  0.06267335  0.02504938  1.0
  Ni  Ni13  1  0.41270627  0.39600668  0.02504938  1.0
  Ni  Ni14  1  0.41270627  0.72934002  0.02504938  1.0
  Ni  Ni15  1  0.74603961  0.06267335  0.02504938  1.0
  Ni  Ni16  1  0.74603961  0.39600668  0.02504938  1.0
  Ni  Ni17  1  0.74603961  0.72934002  0.02504938  1.0
  Ni  Ni18  1  0.26060032  0.30908900  0.09023765  1.0
  Ni  Ni19  1  0.26060032  0.64242233  0.09023765  1.0
  Ni  Ni20  1  0.26060032  0.97575566  0.09023765  1.0
  Ni  Ni21  1  0.59393365  0.30908900  0.09023765  1.0
  Ni  Ni22  1  0.59393365  0.64242233  0.09023765  1.0
  Ni  Ni23  1  0.59393365  0.97575566  0.09023765  1.0
  Ni  Ni24  1  0.92726698  0.30908900  0.09023765  1.0
  Ni  Ni25  1  0.92726698  0.64242233  0.09023765  1.0
  Ni  Ni26  1  0.92726698  0.97575566  0.09023765  1.0
  Ni  Ni27  1  0.02726698  0.17575566  0.19023765  1.0
  Ni  Ni28  1  0.02726698  0.50908900  0.19023765  1.0
  Ni  Ni29  1  0.02726698  0.84242233  0.19023765  1.0
  Ni  Ni30  1  0.36060032  0.17575566  0.19023765  1.0
  Ni  Ni31  1  0.36060032  0.50908900  0.19023765  1.0
  Ni  Ni32  1  0.36060032  0.84242233  0.19023765  1.0
  Ni  Ni33  1  0.69393365  0.17575566  0.19023765  1.0
  Ni  Ni34  1  0.69393365  0.50908900  0.19023765  1.0
  Ni  Ni35  1  0.69393365  0.84242233  0.19023765  1.0
  Ni  Ni36  1  0.24899641  0.28588117  0.19467285  1.0
  Ni  Ni37  1  0.24899641  0.61921451  0.19467285  1.0
  Ni  Ni38  1  0.24899641  0.95254784  0.19467285  1.0
  Ni  Ni39  1  0.58232974  0.28588117  0.19467285  1.0
  Ni  Ni40  1  0.58232974  0.61921451  0.19467285  1.0
  Ni  Ni41  1  0.58232974  0.95254784  0.19467285  1.0
  Ni  Ni42  1  0.91566307  0.28588117  0.19467285  1.0
  Ni  Ni43  1  0.91566307  0.61921451  0.19467285  1.0
  Ni  Ni44  1  0.91566307  0.95254784  0.19467285  1.0
  Ni  Ni45  1  0.14899641  0.08588117  0.09467285  1.0
  Ni  Ni46  1  0.14899641  0.41921451  0.09467285  1.0
  Ni  Ni47  1  0.14899641  0.75254784  0.09467285  1.0
  Ni  Ni48  1  0.48232974  0.08588117  0.09467285  1.0
  Ni  Ni49  1  0.48232974  0.41921451  0.09467285  1.0
  Ni  Ni50  1  0.48232974  0.75254784  0.09467285  1.0
  Ni  Ni51  1  0.81566307  0.08588117  0.09467285  1.0
  Ni  Ni52  1  0.81566307  0.41921451  0.09467285  1.0
  Ni  Ni53  1  0.81566307  0.75254784  0.09467285  1.0
  Ni  Ni54  1  0.21418467  0.33229682  0.15986112  1.0
  Ni  Ni55  1  0.21418467  0.66563015  0.15986112  1.0
  Ni  Ni56  1  0.21418467  0.99896348  0.15986112  1.0
  Ni  Ni57  1  0.54751801  0.33229682  0.15986112  1.0
  Ni  Ni58  1  0.54751801  0.66563015  0.15986112  1.0
  Ni  Ni59  1  0.54751801  0.99896348  0.15986112  1.0
  Ni  Ni60  1  0.88085134  0.33229682  0.15986112  1.0
  Ni  Ni61  1  0.88085134  0.66563015  0.15986112  1.0
  Ni  Ni62  1  0.88085134  0.99896348  0.15986112  1.0
  Ni  Ni63  1  0.11418467  0.13229682  0.05986112  1.0
  Ni  Ni64  1  0.11418467  0.46563015  0.05986112  1.0
  Ni  Ni65  1  0.11418467  0.79896348  0.05986112  1.0
  Ni  Ni66  1  0.44751801  0.13229682  0.05986112  1.0
  Ni  Ni67  1  0.44751801  0.46563015  0.05986112  1.0
  Ni  Ni68  1  0.44751801  0.79896348  0.05986112  1.0
  Ni  Ni69  1  0.78085134  0.13229682  0.05986112  1.0
  Ni  Ni70  1  0.78085134  0.46563015  0.05986112  1.0
  Ni  Ni71  1  0.78085134  0.79896348  0.05986112  1.0
  Ni  Ni72  1  0.20553756  0.03229682  0.00986112  1.0
  Ni  Ni73  1  0.20553756  0.36563015  0.00986112  1.0
  Ni  Ni74  1  0.20553756  0.69896348  0.00986112  1.0
  Ni  Ni75  1  0.53887089  0.03229682  0.00986112  1.0
  Ni  Ni76  1  0.53887089  0.36563015  0.00986112  1.0
  Ni  Ni77  1  0.53887089  0.69896348  0.00986112  1.0
  Ni  Ni78  1  0.87220423  0.03229682  0.00986112  1.0
  Ni  Ni79  1  0.87220423  0.36563015  0.00986112  1.0
  Ni  Ni80  1  0.87220423  0.69896348  0.00986112  1.0
  Ni  Ni81  1  0.30553756  0.23229682  0.10986112  1.0
  Ni  Ni82  1  0.30553756  0.56563015  0.10986112  1.0
  Ni  Ni83  1  0.30553756  0.89896348  0.10986112  1.0
  Ni  Ni84  1  0.63887089  0.23229682  0.10986112  1.0
  Ni  Ni85  1  0.63887089  0.56563015  0.10986112  1.0
  Ni  Ni86  1  0.63887089  0.89896348  0.10986112  1.0
  Ni  Ni87  1  0.97220423  0.23229682  0.10986112  1.0
  Ni  Ni88  1  0.97220423  0.56563015  0.10986112  1.0
  Ni  Ni89  1  0.97220423  0.89896348  0.10986112  1.0
  Ni  Ni90  1  0.12431018  0.31921450  0.04467285  1.0
  Ni  Ni91  1  0.12431018  0.65254784  0.04467285  1.0
  Ni  Ni92  1  0.12431018  0.98588117  0.04467285  1.0
  Ni  Ni93  1  0.45764352  0.31921450  0.04467285  1.0
  Ni  Ni94  1  0.45764352  0.65254784  0.04467285  1.0
  Ni  Ni95  1  0.45764352  0.98588117  0.04467285  1.0
  Ni  Ni96  1  0.79097685  0.31921450  0.04467285  1.0
  Ni  Ni97  1  0.79097685  0.65254784  0.04467285  1.0
  Ni  Ni98  1  0.79097685  0.98588117  0.04467285  1.0
  Ni  Ni99  1  0.22431018  0.18588117  0.14467285  1.0
  Ni  Ni100  1  0.22431018  0.51921450  0.14467285  1.0
  Ni  Ni101  1  0.22431018  0.85254784  0.14467285  1.0
  Ni  Ni102  1  0.55764352  0.18588117  0.14467285  1.0
  Ni  Ni103  1  0.55764352  0.51921450  0.14467285  1.0
  Ni  Ni104  1  0.55764352  0.85254784  0.14467285  1.0
  Ni  Ni105  1  0.89097685  0.18588117  0.14467285  1.0
  Ni  Ni106  1  0.89097685  0.51921450  0.14467285  1.0
  Ni  Ni107  1  0.89097685  0.85254784  0.14467285  1.0
  Ni  Ni108  1  0.03739249  0.02934002  0.17504938  1.0
  Ni  Ni109  1  0.03739249  0.36267335  0.17504938  1.0
  Ni  Ni110  1  0.03739249  0.69600668  0.17504938  1.0
  Ni  Ni111  1  0.37072583  0.02934002  0.17504938  1.0
  Ni  Ni112  1  0.37072583  0.36267335  0.17504938  1.0
  Ni  Ni113  1  0.37072583  0.69600668  0.17504938  1.0
  Ni  Ni114  1  0.70405916  0.02934002  0.17504938  1.0
  Ni  Ni115  1  0.70405916  0.36267335  0.17504938  1.0
  Ni  Ni116  1  0.70405916  0.69600668  0.17504938  1.0
  Ni  Ni117  1  0.27072583  0.16267335  0.07504938  1.0
  Ni  Ni118  1  0.27072583  0.49600668  0.07504938  1.0
  Ni  Ni119  1  0.27072583  0.82934002  0.07504938  1.0
  Ni  Ni120  1  0.60405916  0.16267335  0.07504938  1.0
  Ni  Ni121  1  0.60405916  0.49600668  0.07504938  1.0
  Ni  Ni122  1  0.60405916  0.82934002  0.07504938  1.0
  Ni  Ni123  1  0.93739249  0.16267335  0.07504938  1.0
  Ni  Ni124  1  0.93739249  0.49600668  0.07504938  1.0
  Ni  Ni125  1  0.93739249  0.82934002  0.07504938  1.0
  Ni  Ni126  1  0.00258076  0.07575566  0.14023765  1.0
  Ni  Ni127  1  0.00258076  0.40908899  0.14023765  1.0
  Ni  Ni128  1  0.00258076  0.74242233  0.14023765  1.0
  Ni  Ni129  1  0.33591409  0.07575566  0.14023765  1.0
  Ni  Ni130  1  0.33591409  0.40908899  0.14023765  1.0
  Ni  Ni131  1  0.33591409  0.74242233  0.14023765  1.0
  Ni  Ni132  1  0.66924743  0.07575566  0.14023765  1.0
  Ni  Ni133  1  0.66924743  0.40908899  0.14023765  1.0
  Ni  Ni134  1  0.66924743  0.74242233  0.14023765  1.0
  Ni  Ni135  1  0.23591409  0.20908899  0.04023765  1.0
  Ni  Ni136  1  0.23591409  0.54242233  0.04023765  1.0
  Ni  Ni137  1  0.23591409  0.87575566  0.04023765  1.0
  Ni  Ni138  1  0.56924743  0.20908899  0.04023765  1.0
  Ni  Ni139  1  0.56924743  0.54242233  0.04023765  1.0
  Ni  Ni140  1  0.56924743  0.87575566  0.04023765  1.0
  Ni  Ni141  1  0.90258076  0.20908899  0.04023765  1.0
  Ni  Ni142  1  0.90258076  0.54242233  0.04023765  1.0
  Ni  Ni143  1  0.90258076  0.87575566  0.04023765  1.0
  Ni  Ni144  1  0.04603961  0.32934002  0.32504938  1.0
  Ni  Ni145  1  0.04603961  0.66267335  0.32504938  1.0
  Ni  Ni146  1  0.04603961  0.99600668  0.32504938  1.0
  Ni  Ni147  1  0.37937294  0.32934002  0.32504938  1.0
  Ni  Ni148  1  0.37937294  0.66267335  0.32504938  1.0
  Ni  Ni149  1  0.37937294  0.99600668  0.32504938  1.0
  Ni  Ni150  1  0.71270627  0.32934002  0.32504938  1.0
  Ni  Ni151  1  0.71270627  0.66267335  0.32504938  1.0
  Ni  Ni152  1  0.71270627  0.99600668  0.32504938  1.0
  Ni  Ni153  1  0.27937294  0.12934002  0.22504938  1.0
  Ni  Ni154  1  0.27937294  0.46267335  0.22504938  1.0
  Ni  Ni155  1  0.27937294  0.79600668  0.22504938  1.0
  Ni  Ni156  1  0.61270627  0.12934002  0.22504938  1.0
  Ni  Ni157  1  0.61270627  0.46267335  0.22504938  1.0
  Ni  Ni158  1  0.61270627  0.79600668  0.22504938  1.0
  Ni  Ni159  1  0.94603961  0.12934002  0.22504938  1.0
  Ni  Ni160  1  0.94603961  0.46267335  0.22504938  1.0
  Ni  Ni161  1  0.94603961  0.79600668  0.22504938  1.0
  Ni  Ni162  1  0.12726698  0.04242233  0.29023765  1.0
  Ni  Ni163  1  0.12726698  0.37575566  0.29023765  1.0
  Ni  Ni164  1  0.12726698  0.70908900  0.29023765  1.0
  Ni  Ni165  1  0.46060032  0.04242233  0.29023765  1.0
  Ni  Ni166  1  0.46060032  0.37575566  0.29023765  1.0
  Ni  Ni167  1  0.46060032  0.70908900  0.29023765  1.0
  Ni  Ni168  1  0.79393365  0.04242233  0.29023765  1.0
  Ni  Ni169  1  0.79393365  0.37575566  0.29023765  1.0
  Ni  Ni170  1  0.79393365  0.70908900  0.29023765  1.0
  Ni  Ni171  1  0.22726698  0.24242233  0.39023765  1.0
  Ni  Ni172  1  0.22726698  0.57575566  0.39023765  1.0
  Ni  Ni173  1  0.22726698  0.90908900  0.39023765  1.0
  Ni  Ni174  1  0.56060032  0.24242233  0.39023765  1.0
  Ni  Ni175  1  0.56060032  0.57575566  0.39023765  1.0
  Ni  Ni176  1  0.56060032  0.90908900  0.39023765  1.0
  Ni  Ni177  1  0.89393365  0.24242233  0.39023765  1.0
  Ni  Ni178  1  0.89393365  0.57575566  0.39023765  1.0
  Ni  Ni179  1  0.89393365  0.90908900  0.39023765  1.0
  Ni  Ni180  1  0.11566307  0.01921451  0.39467285  1.0
  Ni  Ni181  1  0.11566307  0.35254784  0.39467285  1.0
  Ni  Ni182  1  0.11566307  0.68588117  0.39467285  1.0
  Ni  Ni183  1  0.44899641  0.01921451  0.39467285  1.0
  Ni  Ni184  1  0.44899641  0.35254784  0.39467285  1.0
  Ni  Ni185  1  0.44899641  0.68588117  0.39467285  1.0
  Ni  Ni186  1  0.78232974  0.01921451  0.39467285  1.0
  Ni  Ni187  1  0.78232974  0.35254784  0.39467285  1.0
  Ni  Ni188  1  0.78232974  0.68588117  0.39467285  1.0
  Ni  Ni189  1  0.01566307  0.15254784  0.29467285  1.0
  Ni  Ni190  1  0.01566307  0.48588117  0.29467285  1.0
  Ni  Ni191  1  0.01566307  0.81921451  0.29467285  1.0
  Ni  Ni192  1  0.34899641  0.15254784  0.29467285  1.0
  Ni  Ni193  1  0.34899641  0.48588117  0.29467285  1.0
  Ni  Ni194  1  0.34899641  0.81921451  0.29467285  1.0
  Ni  Ni195  1  0.68232974  0.15254784  0.29467285  1.0
  Ni  Ni196  1  0.68232974  0.48588117  0.29467285  1.0
  Ni  Ni197  1  0.68232974  0.81921451  0.29467285  1.0
  Ni  Ni198  1  0.08085134  0.06563015  0.35986112  1.0
  Ni  Ni199  1  0.08085134  0.39896348  0.35986112  1.0
  Ni  Ni200  1  0.08085134  0.73229682  0.35986112  1.0
  Ni  Ni201  1  0.41418467  0.06563015  0.35986112  1.0
  Ni  Ni202  1  0.41418467  0.39896348  0.35986112  1.0
  Ni  Ni203  1  0.41418467  0.73229682  0.35986112  1.0
  Ni  Ni204  1  0.74751801  0.06563015  0.35986112  1.0
  Ni  Ni205  1  0.74751801  0.39896348  0.35986112  1.0
  Ni  Ni206  1  0.74751801  0.73229682  0.35986112  1.0
  Ni  Ni207  1  0.31418467  0.19896348  0.25986112  1.0
  Ni  Ni208  1  0.31418467  0.53229682  0.25986112  1.0
  Ni  Ni209  1  0.31418467  0.86563015  0.25986112  1.0
  Ni  Ni210  1  0.64751801  0.19896348  0.25986112  1.0
  Ni  Ni211  1  0.64751801  0.53229682  0.25986112  1.0
  Ni  Ni212  1  0.64751801  0.86563015  0.25986112  1.0
  Ni  Ni213  1  0.98085134  0.19896348  0.25986112  1.0
  Ni  Ni214  1  0.98085134  0.53229682  0.25986112  1.0
  Ni  Ni215  1  0.98085134  0.86563015  0.25986112  1.0
  Ni  Ni216  1  0.07220423  0.09896348  0.20986112  1.0
  Ni  Ni217  1  0.07220423  0.43229682  0.20986112  1.0
  Ni  Ni218  1  0.07220423  0.76563015  0.20986112  1.0
  Ni  Ni219  1  0.40553756  0.09896348  0.20986112  1.0
  Ni  Ni220  1  0.40553756  0.43229682  0.20986112  1.0
  Ni  Ni221  1  0.40553756  0.76563015  0.20986112  1.0
  Ni  Ni222  1  0.73887089  0.09896348  0.20986112  1.0
  Ni  Ni223  1  0.73887089  0.43229682  0.20986112  1.0
  Ni  Ni224  1  0.73887089  0.76563015  0.20986112  1.0
  Ni  Ni225  1  0.17220423  0.29896348  0.30986112  1.0
  Ni  Ni226  1  0.17220423  0.63229682  0.30986112  1.0
  Ni  Ni227  1  0.17220423  0.96563015  0.30986112  1.0
  Ni  Ni228  1  0.50553756  0.29896348  0.30986112  1.0
  Ni  Ni229  1  0.50553756  0.63229682  0.30986112  1.0
  Ni  Ni230  1  0.50553756  0.96563015  0.30986112  1.0
  Ni  Ni231  1  0.83887089  0.29896348  0.30986112  1.0
  Ni  Ni232  1  0.83887089  0.63229682  0.30986112  1.0
  Ni  Ni233  1  0.83887089  0.96563015  0.30986112  1.0
  Ni  Ni234  1  0.32431018  0.05254784  0.24467285  1.0
  Ni  Ni235  1  0.32431018  0.38588117  0.24467285  1.0
  Ni  Ni236  1  0.32431018  0.71921450  0.24467285  1.0
  Ni  Ni237  1  0.65764352  0.05254784  0.24467285  1.0
  Ni  Ni238  1  0.65764352  0.38588117  0.24467285  1.0
  Ni  Ni239  1  0.65764352  0.71921450  0.24467285  1.0
  Ni  Ni240  1  0.99097685  0.05254784  0.24467285  1.0
  Ni  Ni241  1  0.99097685  0.38588117  0.24467285  1.0
  Ni  Ni242  1  0.99097685  0.71921450  0.24467285  1.0
  Ni  Ni243  1  0.09097685  0.25254784  0.34467285  1.0
  Ni  Ni244  1  0.09097685  0.58588117  0.34467285  1.0
  Ni  Ni245  1  0.09097685  0.91921450  0.34467285  1.0
  Ni  Ni246  1  0.42431018  0.25254784  0.34467285  1.0
  Ni  Ni247  1  0.42431018  0.58588117  0.34467285  1.0
  Ni  Ni248  1  0.42431018  0.91921450  0.34467285  1.0
  Ni  Ni249  1  0.75764352  0.25254784  0.34467285  1.0
  Ni  Ni250  1  0.75764352  0.58588117  0.34467285  1.0
  Ni  Ni251  1  0.75764352  0.91921450  0.34467285  1.0
  Ni  Ni252  1  0.23739249  0.09600668  0.37504938  1.0
  Ni  Ni253  1  0.23739249  0.42934002  0.37504938  1.0
  Ni  Ni254  1  0.23739249  0.76267335  0.37504938  1.0
  Ni  Ni255  1  0.57072583  0.09600668  0.37504938  1.0
  Ni  Ni256  1  0.57072583  0.42934002  0.37504938  1.0
  Ni  Ni257  1  0.57072583  0.76267335  0.37504938  1.0
  Ni  Ni258  1  0.90405916  0.09600668  0.37504938  1.0
  Ni  Ni259  1  0.90405916  0.42934002  0.37504938  1.0
  Ni  Ni260  1  0.90405916  0.76267335  0.37504938  1.0
  Ni  Ni261  1  0.13739249  0.22934002  0.27504938  1.0
  Ni  Ni262  1  0.13739249  0.56267335  0.27504938  1.0
  Ni  Ni263  1  0.13739249  0.89600668  0.27504938  1.0
  Ni  Ni264  1  0.47072583  0.22934002  0.27504938  1.0
  Ni  Ni265  1  0.47072583  0.56267335  0.27504938  1.0
  Ni  Ni266  1  0.47072583  0.89600668  0.27504938  1.0
  Ni  Ni267  1  0.80405916  0.22934002  0.27504938  1.0
  Ni  Ni268  1  0.80405916  0.56267335  0.27504938  1.0
  Ni  Ni269  1  0.80405916  0.89600668  0.27504938  1.0
  Ni  Ni270  1  0.20258076  0.14242233  0.34023765  1.0
  Ni  Ni271  1  0.20258076  0.47575566  0.34023765  1.0
  Ni  Ni272  1  0.20258076  0.80908899  0.34023765  1.0
  Ni  Ni273  1  0.53591409  0.14242233  0.34023765  1.0
  Ni  Ni274  1  0.53591409  0.47575566  0.34023765  1.0
  Ni  Ni275  1  0.53591409  0.80908899  0.34023765  1.0
  Ni  Ni276  1  0.86924743  0.14242233  0.34023765  1.0
  Ni  Ni277  1  0.86924743  0.47575566  0.34023765  1.0
  Ni  Ni278  1  0.86924743  0.80908899  0.34023765  1.0
  Ni  Ni279  1  0.10258076  0.27575566  0.24023765  1.0
  Ni  Ni280  1  0.10258076  0.60908899  0.24023765  1.0
  Ni  Ni281  1  0.10258076  0.94242233  0.24023765  1.0
  Ni  Ni282  1  0.43591409  0.27575566  0.24023765  1.0
  Ni  Ni283  1  0.43591409  0.60908899  0.24023765  1.0
  Ni  Ni284  1  0.43591409  0.94242233  0.24023765  1.0
  Ni  Ni285  1  0.76924743  0.27575566  0.24023765  1.0
  Ni  Ni286  1  0.76924743  0.60908899  0.24023765  1.0
  Ni  Ni287  1  0.76924743  0.94242233  0.24023765  1.0
  Sc  Sc288  1  0.29245525  0.01415175  0.16745525  1.0
  Sc  Sc289  1  0.29245525  0.34748508  0.16745525  1.0
  Sc  Sc290  1  0.29245525  0.68081842  0.16745525  1.0
  Sc  Sc291  1  0.62578858  0.01415175  0.16745525  1.0
  Sc  Sc292  1  0.62578858  0.34748508  0.16745525  1.0
  Sc  Sc293  1  0.62578858  0.68081842  0.16745525  1.0
  Sc  Sc294  1  0.95912192  0.01415175  0.16745525  1.0
  Sc  Sc295  1  0.95912192  0.34748508  0.16745525  1.0
  Sc  Sc296  1  0.95912192  0.68081842  0.16745525  1.0
  Sc  Sc297  1  0.19245525  0.14748508  0.06745525  1.0
  Sc  Sc298  1  0.19245525  0.48081842  0.06745525  1.0
  Sc  Sc299  1  0.19245525  0.81415175  0.06745525  1.0
  Sc  Sc300  1  0.52578858  0.14748508  0.06745525  1.0
  Sc  Sc301  1  0.52578858  0.48081842  0.06745525  1.0
  Sc  Sc302  1  0.52578858  0.81415175  0.06745525  1.0
  Sc  Sc303  1  0.85912192  0.14748508  0.06745525  1.0
  Sc  Sc304  1  0.85912192  0.48081842  0.06745525  1.0
  Sc  Sc305  1  0.85912192  0.81415175  0.06745525  1.0
  Sc  Sc306  1  0.07578858  0.08081842  0.11745525  1.0
  Sc  Sc307  1  0.07578858  0.41415175  0.11745525  1.0
  Sc  Sc308  1  0.07578858  0.74748508  0.11745525  1.0
  Sc  Sc309  1  0.40912192  0.08081842  0.11745525  1.0
  Sc  Sc310  1  0.40912192  0.41415175  0.11745525  1.0
  Sc  Sc311  1  0.40912192  0.74748508  0.11745525  1.0
  Sc  Sc312  1  0.74245525  0.08081842  0.11745525  1.0
  Sc  Sc313  1  0.74245525  0.41415175  0.11745525  1.0
  Sc  Sc314  1  0.74245525  0.74748508  0.11745525  1.0
  Sc  Sc315  1  0.30912192  0.21415175  0.01745525  1.0
  Sc  Sc316  1  0.30912192  0.54748508  0.01745525  1.0
  Sc  Sc317  1  0.30912192  0.88081842  0.01745525  1.0
  Sc  Sc318  1  0.64245525  0.21415175  0.01745525  1.0
  Sc  Sc319  1  0.64245525  0.54748508  0.01745525  1.0
  Sc  Sc320  1  0.64245525  0.88081842  0.01745525  1.0
  Sc  Sc321  1  0.97578858  0.21415175  0.01745525  1.0
  Sc  Sc322  1  0.97578858  0.54748508  0.01745525  1.0
  Sc  Sc323  1  0.97578858  0.88081842  0.01745525  1.0
  Sc  Sc324  1  0.19245525  0.31415175  0.06745525  1.0
  Sc  Sc325  1  0.19245525  0.64748508  0.06745525  1.0
  Sc  Sc326  1  0.19245525  0.98081842  0.06745525  1.0
  Sc  Sc327  1  0.52578858  0.31415175  0.06745525  1.0
  Sc  Sc328  1  0.52578858  0.64748508  0.06745525  1.0
  Sc  Sc329  1  0.52578858  0.98081842  0.06745525  1.0
  Sc  Sc330  1  0.85912192  0.31415175  0.06745525  1.0
  Sc  Sc331  1  0.85912192  0.64748508  0.06745525  1.0
  Sc  Sc332  1  0.85912192  0.98081842  0.06745525  1.0
  Sc  Sc333  1  0.29245525  0.18081842  0.16745525  1.0
  Sc  Sc334  1  0.29245525  0.51415175  0.16745525  1.0
  Sc  Sc335  1  0.29245525  0.84748508  0.16745525  1.0
  Sc  Sc336  1  0.62578858  0.18081842  0.16745525  1.0
  Sc  Sc337  1  0.62578858  0.51415175  0.16745525  1.0
  Sc  Sc338  1  0.62578858  0.84748508  0.16745525  1.0
  Sc  Sc339  1  0.95912192  0.18081842  0.16745525  1.0
  Sc  Sc340  1  0.95912192  0.51415175  0.16745525  1.0
  Sc  Sc341  1  0.95912192  0.84748508  0.16745525  1.0
  Sc  Sc342  1  0.14245525  0.04748508  0.01745525  1.0
  Sc  Sc343  1  0.14245525  0.38081842  0.01745525  1.0
  Sc  Sc344  1  0.14245525  0.71415175  0.01745525  1.0
  Sc  Sc345  1  0.47578858  0.04748508  0.01745525  1.0
  Sc  Sc346  1  0.47578858  0.38081842  0.01745525  1.0
  Sc  Sc347  1  0.47578858  0.71415175  0.01745525  1.0
  Sc  Sc348  1  0.80912192  0.04748508  0.01745525  1.0
  Sc  Sc349  1  0.80912192  0.38081842  0.01745525  1.0
  Sc  Sc350  1  0.80912192  0.71415175  0.01745525  1.0
  Sc  Sc351  1  0.24245525  0.24748508  0.11745525  1.0
  Sc  Sc352  1  0.24245525  0.58081842  0.11745525  1.0
  Sc  Sc353  1  0.24245525  0.91415175  0.11745525  1.0
  Sc  Sc354  1  0.57578858  0.24748508  0.11745525  1.0
  Sc  Sc355  1  0.57578858  0.58081842  0.11745525  1.0
  Sc  Sc356  1  0.57578858  0.91415175  0.11745525  1.0
  Sc  Sc357  1  0.90912192  0.24748508  0.11745525  1.0
  Sc  Sc358  1  0.90912192  0.58081842  0.11745525  1.0
  Sc  Sc359  1  0.90912192  0.91415175  0.11745525  1.0
  Sc  Sc360  1  0.31720732  0.14698922  0.00532715  1.0
  Sc  Sc361  1  0.31720732  0.48032255  0.00532715  1.0
  Sc  Sc362  1  0.31720732  0.81365588  0.00532715  1.0
  Sc  Sc363  1  0.65054065  0.14698922  0.00532715  1.0
  Sc  Sc364  1  0.65054065  0.48032255  0.00532715  1.0
  Sc  Sc365  1  0.65054065  0.81365588  0.00532715  1.0
  Sc  Sc366  1  0.98387398  0.14698922  0.00532715  1.0
  Sc  Sc367  1  0.98387398  0.48032255  0.00532715  1.0
  Sc  Sc368  1  0.98387398  0.81365588  0.00532715  1.0
  Sc  Sc369  1  0.08387398  0.01365588  0.10532715  1.0
  Sc  Sc370  1  0.08387398  0.34698922  0.10532715  1.0
  Sc  Sc371  1  0.08387398  0.68032255  0.10532715  1.0
  Sc  Sc372  1  0.41720732  0.01365588  0.10532715  1.0
  Sc  Sc373  1  0.41720732  0.34698922  0.10532715  1.0
  Sc  Sc374  1  0.41720732  0.68032255  0.10532715  1.0
  Sc  Sc375  1  0.75054065  0.01365588  0.10532715  1.0
  Sc  Sc376  1  0.75054065  0.34698922  0.10532715  1.0
  Sc  Sc377  1  0.75054065  0.68032255  0.10532715  1.0
  Sc  Sc378  1  0.26770318  0.04798095  0.07958335  1.0
  Sc  Sc379  1  0.26770318  0.38131428  0.07958335  1.0
  Sc  Sc380  1  0.26770318  0.71464762  0.07958335  1.0
  Sc  Sc381  1  0.60103652  0.04798095  0.07958335  1.0
  Sc  Sc382  1  0.60103652  0.38131428  0.07958335  1.0
  Sc  Sc383  1  0.60103652  0.71464762  0.07958335  1.0
  Sc  Sc384  1  0.93436985  0.04798095  0.07958335  1.0
  Sc  Sc385  1  0.93436985  0.38131428  0.07958335  1.0
  Sc  Sc386  1  0.93436985  0.71464762  0.07958335  1.0
  Sc  Sc387  1  0.03436985  0.24798095  0.17958335  1.0
  Sc  Sc388  1  0.03436985  0.58131428  0.17958335  1.0
  Sc  Sc389  1  0.03436985  0.91464762  0.17958335  1.0
  Sc  Sc390  1  0.36770318  0.24798095  0.17958335  1.0
  Sc  Sc391  1  0.36770318  0.58131428  0.17958335  1.0
  Sc  Sc392  1  0.36770318  0.91464762  0.17958335  1.0
  Sc  Sc393  1  0.70103652  0.24798095  0.17958335  1.0
  Sc  Sc394  1  0.70103652  0.58131428  0.17958335  1.0
  Sc  Sc395  1  0.70103652  0.91464762  0.17958335  1.0
  Sc  Sc396  1  0.02100208  0.09748508  0.04245525  1.0
  Sc  Sc397  1  0.02100208  0.43081842  0.04245525  1.0
  Sc  Sc398  1  0.02100208  0.76415175  0.04245525  1.0
  Sc  Sc399  1  0.35433542  0.09748508  0.04245525  1.0
  Sc  Sc400  1  0.35433542  0.43081842  0.04245525  1.0
  Sc  Sc401  1  0.35433542  0.76415175  0.04245525  1.0
  Sc  Sc402  1  0.68766875  0.09748508  0.04245525  1.0
  Sc  Sc403  1  0.68766875  0.43081842  0.04245525  1.0
  Sc  Sc404  1  0.68766875  0.76415175  0.04245525  1.0
  Sc  Sc405  1  0.12100208  0.29748508  0.14245525  1.0
  Sc  Sc406  1  0.12100208  0.63081842  0.14245525  1.0
  Sc  Sc407  1  0.12100208  0.96415175  0.14245525  1.0
  Sc  Sc408  1  0.45433542  0.29748508  0.14245525  1.0
  Sc  Sc409  1  0.45433542  0.63081842  0.14245525  1.0
  Sc  Sc410  1  0.45433542  0.96415175  0.14245525  1.0
  Sc  Sc411  1  0.78766875  0.29748508  0.14245525  1.0
  Sc  Sc412  1  0.78766875  0.63081842  0.14245525  1.0
  Sc  Sc413  1  0.78766875  0.96415175  0.14245525  1.0
  Sc  Sc414  1  0.30483128  0.12223715  0.11671145  1.0
  Sc  Sc415  1  0.30483128  0.45557048  0.11671145  1.0
  Sc  Sc416  1  0.30483128  0.78890382  0.11671145  1.0
  Sc  Sc417  1  0.63816462  0.12223715  0.11671145  1.0
  Sc  Sc418  1  0.63816462  0.45557048  0.11671145  1.0
  Sc  Sc419  1  0.63816462  0.78890382  0.11671145  1.0
  Sc  Sc420  1  0.97149795  0.12223715  0.11671145  1.0
  Sc  Sc421  1  0.97149795  0.45557048  0.11671145  1.0
  Sc  Sc422  1  0.97149795  0.78890382  0.11671145  1.0
  Sc  Sc423  1  0.20483128  0.25557048  0.01671145  1.0
  Sc  Sc424  1  0.20483128  0.58890382  0.01671145  1.0
  Sc  Sc425  1  0.20483128  0.92223715  0.01671145  1.0
  Sc  Sc426  1  0.53816462  0.25557048  0.01671145  1.0
  Sc  Sc427  1  0.53816462  0.58890382  0.01671145  1.0
  Sc  Sc428  1  0.53816462  0.92223715  0.01671145  1.0
  Sc  Sc429  1  0.87149795  0.25557048  0.01671145  1.0
  Sc  Sc430  1  0.87149795  0.58890382  0.01671145  1.0
  Sc  Sc431  1  0.87149795  0.92223715  0.01671145  1.0
  Sc  Sc432  1  0.23057508  0.09748508  0.04245525  1.0
  Sc  Sc433  1  0.23057508  0.43081842  0.04245525  1.0
  Sc  Sc434  1  0.23057508  0.76415175  0.04245525  1.0
  Sc  Sc435  1  0.56390842  0.09748508  0.04245525  1.0
  Sc  Sc436  1  0.56390842  0.43081842  0.04245525  1.0
  Sc  Sc437  1  0.56390842  0.76415175  0.04245525  1.0
  Sc  Sc438  1  0.89724175  0.09748508  0.04245525  1.0
  Sc  Sc439  1  0.89724175  0.43081842  0.04245525  1.0
  Sc  Sc440  1  0.89724175  0.76415175  0.04245525  1.0
  Sc  Sc441  1  0.33057508  0.29748508  0.14245525  1.0
  Sc  Sc442  1  0.33057508  0.63081842  0.14245525  1.0
  Sc  Sc443  1  0.33057508  0.96415175  0.14245525  1.0
  Sc  Sc444  1  0.66390842  0.29748508  0.14245525  1.0
  Sc  Sc445  1  0.66390842  0.63081842  0.14245525  1.0
  Sc  Sc446  1  0.66390842  0.96415175  0.14245525  1.0
  Sc  Sc447  1  0.99724175  0.29748508  0.14245525  1.0
  Sc  Sc448  1  0.99724175  0.63081842  0.14245525  1.0
  Sc  Sc449  1  0.99724175  0.96415175  0.14245525  1.0
  Sc  Sc450  1  0.14674588  0.13939968  0.16819905  1.0
  Sc  Sc451  1  0.14674588  0.47273302  0.16819905  1.0
  Sc  Sc452  1  0.14674588  0.80606635  0.16819905  1.0
  Sc  Sc453  1  0.48007922  0.13939968  0.16819905  1.0
  Sc  Sc454  1  0.48007922  0.47273302  0.16819905  1.0
  Sc  Sc455  1  0.48007922  0.80606635  0.16819905  1.0
  Sc  Sc456  1  0.81341255  0.13939968  0.16819905  1.0
  Sc  Sc457  1  0.81341255  0.47273302  0.16819905  1.0
  Sc  Sc458  1  0.81341255  0.80606635  0.16819905  1.0
  Sc  Sc459  1  0.04674588  0.27273302  0.06819905  1.0
  Sc  Sc460  1  0.04674588  0.60606635  0.06819905  1.0
  Sc  Sc461  1  0.04674588  0.93939968  0.06819905  1.0
  Sc  Sc462  1  0.38007922  0.27273302  0.06819905  1.0
  Sc  Sc463  1  0.38007922  0.60606635  0.06819905  1.0
  Sc  Sc464  1  0.38007922  0.93939968  0.06819905  1.0
  Sc  Sc465  1  0.71341255  0.27273302  0.06819905  1.0
  Sc  Sc466  1  0.71341255  0.60606635  0.06819905  1.0
  Sc  Sc467  1  0.71341255  0.93939968  0.06819905  1.0
  Sc  Sc468  1  0.13057508  0.06415175  0.19245525  1.0
  Sc  Sc469  1  0.13057508  0.39748508  0.19245525  1.0
  Sc  Sc470  1  0.13057508  0.73081842  0.19245525  1.0
  Sc  Sc471  1  0.46390842  0.06415175  0.19245525  1.0
  Sc  Sc472  1  0.46390842  0.39748508  0.19245525  1.0
  Sc  Sc473  1  0.46390842  0.73081842  0.19245525  1.0
  Sc  Sc474  1  0.79724175  0.06415175  0.19245525  1.0
  Sc  Sc475  1  0.79724175  0.39748508  0.19245525  1.0
  Sc  Sc476  1  0.79724175  0.73081842  0.19245525  1.0
  Sc  Sc477  1  0.03057508  0.19748508  0.09245525  1.0
  Sc  Sc478  1  0.03057508  0.53081842  0.09245525  1.0
  Sc  Sc479  1  0.03057508  0.86415175  0.09245525  1.0
  Sc  Sc480  1  0.36390842  0.19748508  0.09245525  1.0
  Sc  Sc481  1  0.36390842  0.53081842  0.09245525  1.0
  Sc  Sc482  1  0.36390842  0.86415175  0.09245525  1.0
  Sc  Sc483  1  0.69724175  0.19748508  0.09245525  1.0
  Sc  Sc484  1  0.69724175  0.53081842  0.09245525  1.0
  Sc  Sc485  1  0.69724175  0.86415175  0.09245525  1.0
  Sc  Sc486  1  0.25433542  0.06415175  0.19245525  1.0
  Sc  Sc487  1  0.25433542  0.39748508  0.19245525  1.0
  Sc  Sc488  1  0.25433542  0.73081842  0.19245525  1.0
  Sc  Sc489  1  0.58766875  0.06415175  0.19245525  1.0
  Sc  Sc490  1  0.58766875  0.39748508  0.19245525  1.0
  Sc  Sc491  1  0.58766875  0.73081842  0.19245525  1.0
  Sc  Sc492  1  0.92100208  0.06415175  0.19245525  1.0
  Sc  Sc493  1  0.92100208  0.39748508  0.19245525  1.0
  Sc  Sc494  1  0.92100208  0.73081842  0.19245525  1.0
  Sc  Sc495  1  0.15433542  0.19748508  0.09245525  1.0
  Sc  Sc496  1  0.15433542  0.53081842  0.09245525  1.0
  Sc  Sc497  1  0.15433542  0.86415175  0.09245525  1.0
  Sc  Sc498  1  0.48766875  0.19748508  0.09245525  1.0
  Sc  Sc499  1  0.48766875  0.53081842  0.09245525  1.0
  Sc  Sc500  1  0.48766875  0.86415175  0.09245525  1.0
  Sc  Sc501  1  0.82100208  0.19748508  0.09245525  1.0
  Sc  Sc502  1  0.82100208  0.53081842  0.09245525  1.0
  Sc  Sc503  1  0.82100208  0.86415175  0.09245525  1.0
  Sc  Sc504  1  0.06770318  0.14798095  0.12958335  1.0
  Sc  Sc505  1  0.06770318  0.48131428  0.12958335  1.0
  Sc  Sc506  1  0.06770318  0.81464762  0.12958335  1.0
  Sc  Sc507  1  0.40103652  0.14798095  0.12958335  1.0
  Sc  Sc508  1  0.40103652  0.48131428  0.12958335  1.0
  Sc  Sc509  1  0.40103652  0.81464762  0.12958335  1.0
  Sc  Sc510  1  0.73436985  0.14798095  0.12958335  1.0
  Sc  Sc511  1  0.73436985  0.48131428  0.12958335  1.0
  Sc  Sc512  1  0.73436985  0.81464762  0.12958335  1.0
  Sc  Sc513  1  0.30103652  0.28131428  0.02958335  1.0
  Sc  Sc514  1  0.30103652  0.61464762  0.02958335  1.0
  Sc  Sc515  1  0.30103652  0.94798095  0.02958335  1.0
  Sc  Sc516  1  0.63436985  0.28131428  0.02958335  1.0
  Sc  Sc517  1  0.63436985  0.61464762  0.02958335  1.0
  Sc  Sc518  1  0.63436985  0.94798095  0.02958335  1.0
  Sc  Sc519  1  0.96770318  0.28131428  0.02958335  1.0
  Sc  Sc520  1  0.96770318  0.61464762  0.02958335  1.0
  Sc  Sc521  1  0.96770318  0.94798095  0.02958335  1.0
  Sc  Sc522  1  0.18007922  0.03939968  0.11819905  1.0
  Sc  Sc523  1  0.18007922  0.37273302  0.11819905  1.0
  Sc  Sc524  1  0.18007922  0.70606635  0.11819905  1.0
  Sc  Sc525  1  0.51341255  0.03939968  0.11819905  1.0
  Sc  Sc526  1  0.51341255  0.37273302  0.11819905  1.0
  Sc  Sc527  1  0.51341255  0.70606635  0.11819905  1.0
  Sc  Sc528  1  0.84674588  0.03939968  0.11819905  1.0
  Sc  Sc529  1  0.84674588  0.37273302  0.11819905  1.0
  Sc  Sc530  1  0.84674588  0.70606635  0.11819905  1.0
  Sc  Sc531  1  0.08007922  0.17273302  0.01819905  1.0
  Sc  Sc532  1  0.08007922  0.50606635  0.01819905  1.0
  Sc  Sc533  1  0.08007922  0.83939968  0.01819905  1.0
  Sc  Sc534  1  0.41341255  0.17273302  0.01819905  1.0
  Sc  Sc535  1  0.41341255  0.50606635  0.01819905  1.0
  Sc  Sc536  1  0.41341255  0.83939968  0.01819905  1.0
  Sc  Sc537  1  0.74674588  0.17273302  0.01819905  1.0
  Sc  Sc538  1  0.74674588  0.50606635  0.01819905  1.0
  Sc  Sc539  1  0.74674588  0.83939968  0.01819905  1.0
  Sc  Sc540  1  0.11720732  0.24698922  0.05532715  1.0
  Sc  Sc541  1  0.11720732  0.58032255  0.05532715  1.0
  Sc  Sc542  1  0.11720732  0.91365588  0.05532715  1.0
  Sc  Sc543  1  0.45054065  0.24698922  0.05532715  1.0
  Sc  Sc544  1  0.45054065  0.58032255  0.05532715  1.0
  Sc  Sc545  1  0.45054065  0.91365588  0.05532715  1.0
  Sc  Sc546  1  0.78387398  0.24698922  0.05532715  1.0
  Sc  Sc547  1  0.78387398  0.58032255  0.05532715  1.0
  Sc  Sc548  1  0.78387398  0.91365588  0.05532715  1.0
  Sc  Sc549  1  0.21720732  0.11365588  0.15532715  1.0
  Sc  Sc550  1  0.21720732  0.44698922  0.15532715  1.0
  Sc  Sc551  1  0.21720732  0.78032255  0.15532715  1.0
  Sc  Sc552  1  0.55054065  0.11365588  0.15532715  1.0
  Sc  Sc553  1  0.55054065  0.44698922  0.15532715  1.0
  Sc  Sc554  1  0.55054065  0.78032255  0.15532715  1.0
  Sc  Sc555  1  0.88387398  0.11365588  0.15532715  1.0
  Sc  Sc556  1  0.88387398  0.44698922  0.15532715  1.0
  Sc  Sc557  1  0.88387398  0.78032255  0.15532715  1.0
  Sc  Sc558  1  0.00483128  0.02223715  0.06671145  1.0
  Sc  Sc559  1  0.00483128  0.35557048  0.06671145  1.0
  Sc  Sc560  1  0.00483128  0.68890382  0.06671145  1.0
  Sc  Sc561  1  0.33816462  0.02223715  0.06671145  1.0
  Sc  Sc562  1  0.33816462  0.35557048  0.06671145  1.0
  Sc  Sc563  1  0.33816462  0.68890382  0.06671145  1.0
  Sc  Sc564  1  0.67149795  0.02223715  0.06671145  1.0
  Sc  Sc565  1  0.67149795  0.35557048  0.06671145  1.0
  Sc  Sc566  1  0.67149795  0.68890382  0.06671145  1.0
  Sc  Sc567  1  0.10483128  0.22223715  0.16671145  1.0
  Sc  Sc568  1  0.10483128  0.55557048  0.16671145  1.0
  Sc  Sc569  1  0.10483128  0.88890382  0.16671145  1.0
  Sc  Sc570  1  0.43816462  0.22223715  0.16671145  1.0
  Sc  Sc571  1  0.43816462  0.55557048  0.16671145  1.0
  Sc  Sc572  1  0.43816462  0.88890382  0.16671145  1.0
  Sc  Sc573  1  0.77149795  0.22223715  0.16671145  1.0
  Sc  Sc574  1  0.77149795  0.55557048  0.16671145  1.0
  Sc  Sc575  1  0.77149795  0.88890382  0.16671145  1.0
  Sc  Sc576  1  0.15912192  0.08081842  0.36745525  1.0
  Sc  Sc577  1  0.15912192  0.41415175  0.36745525  1.0
  Sc  Sc578  1  0.15912192  0.74748508  0.36745525  1.0
  Sc  Sc579  1  0.49245525  0.08081842  0.36745525  1.0
  Sc  Sc580  1  0.49245525  0.41415175  0.36745525  1.0
  Sc  Sc581  1  0.49245525  0.74748508  0.36745525  1.0
  Sc  Sc582  1  0.82578858  0.08081842  0.36745525  1.0
  Sc  Sc583  1  0.82578858  0.41415175  0.36745525  1.0
  Sc  Sc584  1  0.82578858  0.74748508  0.36745525  1.0
  Sc  Sc585  1  0.05912192  0.21415175  0.26745525  1.0
  Sc  Sc586  1  0.05912192  0.54748508  0.26745525  1.0
  Sc  Sc587  1  0.05912192  0.88081842  0.26745525  1.0
  Sc  Sc588  1  0.39245525  0.21415175  0.26745525  1.0
  Sc  Sc589  1  0.39245525  0.54748508  0.26745525  1.0
  Sc  Sc590  1  0.39245525  0.88081842  0.26745525  1.0
  Sc  Sc591  1  0.72578858  0.21415175  0.26745525  1.0
  Sc  Sc592  1  0.72578858  0.54748508  0.26745525  1.0
  Sc  Sc593  1  0.72578858  0.88081842  0.26745525  1.0
  Sc  Sc594  1  0.27578858  0.14748508  0.31745525  1.0
  Sc  Sc595  1  0.27578858  0.48081842  0.31745525  1.0
  Sc  Sc596  1  0.27578858  0.81415175  0.31745525  1.0
  Sc  Sc597  1  0.60912192  0.14748508  0.31745525  1.0
  Sc  Sc598  1  0.60912192  0.48081842  0.31745525  1.0
  Sc  Sc599  1  0.60912192  0.81415175  0.31745525  1.0
  Sc  Sc600  1  0.94245525  0.14748508  0.31745525  1.0
  Sc  Sc601  1  0.94245525  0.48081842  0.31745525  1.0
  Sc  Sc602  1  0.94245525  0.81415175  0.31745525  1.0
  Sc  Sc603  1  0.17578858  0.28081842  0.21745525  1.0
  Sc  Sc604  1  0.17578858  0.61415175  0.21745525  1.0
  Sc  Sc605  1  0.17578858  0.94748508  0.21745525  1.0
  Sc  Sc606  1  0.50912192  0.28081842  0.21745525  1.0
  Sc  Sc607  1  0.50912192  0.61415175  0.21745525  1.0
  Sc  Sc608  1  0.50912192  0.94748508  0.21745525  1.0
  Sc  Sc609  1  0.84245525  0.28081842  0.21745525  1.0
  Sc  Sc610  1  0.84245525  0.61415175  0.21745525  1.0
  Sc  Sc611  1  0.84245525  0.94748508  0.21745525  1.0
  Sc  Sc612  1  0.05912192  0.04748508  0.26745525  1.0
  Sc  Sc613  1  0.05912192  0.38081842  0.26745525  1.0
  Sc  Sc614  1  0.05912192  0.71415175  0.26745525  1.0
  Sc  Sc615  1  0.39245525  0.04748508  0.26745525  1.0
  Sc  Sc616  1  0.39245525  0.38081842  0.26745525  1.0
  Sc  Sc617  1  0.39245525  0.71415175  0.26745525  1.0
  Sc  Sc618  1  0.72578858  0.04748508  0.26745525  1.0
  Sc  Sc619  1  0.72578858  0.38081842  0.26745525  1.0
  Sc  Sc620  1  0.72578858  0.71415175  0.26745525  1.0
  Sc  Sc621  1  0.15912192  0.24748508  0.36745525  1.0
  Sc  Sc622  1  0.15912192  0.58081842  0.36745525  1.0
  Sc  Sc623  1  0.15912192  0.91415175  0.36745525  1.0
  Sc  Sc624  1  0.49245525  0.24748508  0.36745525  1.0
  Sc  Sc625  1  0.49245525  0.58081842  0.36745525  1.0
  Sc  Sc626  1  0.49245525  0.91415175  0.36745525  1.0
  Sc  Sc627  1  0.82578858  0.24748508  0.36745525  1.0
  Sc  Sc628  1  0.82578858  0.58081842  0.36745525  1.0
  Sc  Sc629  1  0.82578858  0.91415175  0.36745525  1.0
  Sc  Sc630  1  0.00912192  0.11415175  0.21745525  1.0
  Sc  Sc631  1  0.00912192  0.44748508  0.21745525  1.0
  Sc  Sc632  1  0.00912192  0.78081842  0.21745525  1.0
  Sc  Sc633  1  0.34245525  0.11415175  0.21745525  1.0
  Sc  Sc634  1  0.34245525  0.44748508  0.21745525  1.0
  Sc  Sc635  1  0.34245525  0.78081842  0.21745525  1.0
  Sc  Sc636  1  0.67578858  0.11415175  0.21745525  1.0
  Sc  Sc637  1  0.67578858  0.44748508  0.21745525  1.0
  Sc  Sc638  1  0.67578858  0.78081842  0.21745525  1.0
  Sc  Sc639  1  0.10912192  0.31415175  0.31745525  1.0
  Sc  Sc640  1  0.10912192  0.64748508  0.31745525  1.0
  Sc  Sc641  1  0.10912192  0.98081842  0.31745525  1.0
  Sc  Sc642  1  0.44245525  0.31415175  0.31745525  1.0
  Sc  Sc643  1  0.44245525  0.64748508  0.31745525  1.0
  Sc  Sc644  1  0.44245525  0.98081842  0.31745525  1.0
  Sc  Sc645  1  0.77578858  0.31415175  0.31745525  1.0
  Sc  Sc646  1  0.77578858  0.64748508  0.31745525  1.0
  Sc  Sc647  1  0.77578858  0.98081842  0.31745525  1.0
  Sc  Sc648  1  0.18387398  0.21365588  0.20532715  1.0
  Sc  Sc649  1  0.18387398  0.54698922  0.20532715  1.0
  Sc  Sc650  1  0.18387398  0.88032255  0.20532715  1.0
  Sc  Sc651  1  0.51720732  0.21365588  0.20532715  1.0
  Sc  Sc652  1  0.51720732  0.54698922  0.20532715  1.0
  Sc  Sc653  1  0.51720732  0.88032255  0.20532715  1.0
  Sc  Sc654  1  0.85054065  0.21365588  0.20532715  1.0
  Sc  Sc655  1  0.85054065  0.54698922  0.20532715  1.0
  Sc  Sc656  1  0.85054065  0.88032255  0.20532715  1.0
  Sc  Sc657  1  0.28387398  0.08032255  0.30532715  1.0
  Sc  Sc658  1  0.28387398  0.41365588  0.30532715  1.0
  Sc  Sc659  1  0.28387398  0.74698922  0.30532715  1.0
  Sc  Sc660  1  0.61720732  0.08032255  0.30532715  1.0
  Sc  Sc661  1  0.61720732  0.41365588  0.30532715  1.0
  Sc  Sc662  1  0.61720732  0.74698922  0.30532715  1.0
  Sc  Sc663  1  0.95054065  0.08032255  0.30532715  1.0
  Sc  Sc664  1  0.95054065  0.41365588  0.30532715  1.0
  Sc  Sc665  1  0.95054065  0.74698922  0.30532715  1.0
  Sc  Sc666  1  0.13436985  0.11464762  0.27958335  1.0
  Sc  Sc667  1  0.13436985  0.44798095  0.27958335  1.0
  Sc  Sc668  1  0.13436985  0.78131428  0.27958335  1.0
  Sc  Sc669  1  0.46770318  0.11464762  0.27958335  1.0
  Sc  Sc670  1  0.46770318  0.44798095  0.27958335  1.0
  Sc  Sc671  1  0.46770318  0.78131428  0.27958335  1.0
  Sc  Sc672  1  0.80103652  0.11464762  0.27958335  1.0
  Sc  Sc673  1  0.80103652  0.44798095  0.27958335  1.0
  Sc  Sc674  1  0.80103652  0.78131428  0.27958335  1.0
  Sc  Sc675  1  0.23436985  0.31464762  0.37958335  1.0
  Sc  Sc676  1  0.23436985  0.64798095  0.37958335  1.0
  Sc  Sc677  1  0.23436985  0.98131428  0.37958335  1.0
  Sc  Sc678  1  0.56770318  0.31464762  0.37958335  1.0
  Sc  Sc679  1  0.56770318  0.64798095  0.37958335  1.0
  Sc  Sc680  1  0.56770318  0.98131428  0.37958335  1.0
  Sc  Sc681  1  0.90103652  0.31464762  0.37958335  1.0
  Sc  Sc682  1  0.90103652  0.64798095  0.37958335  1.0
  Sc  Sc683  1  0.90103652  0.98131428  0.37958335  1.0
  Sc  Sc684  1  0.22100208  0.16415175  0.24245525  1.0
  Sc  Sc685  1  0.22100208  0.49748508  0.24245525  1.0
  Sc  Sc686  1  0.22100208  0.83081842  0.24245525  1.0
  Sc  Sc687  1  0.55433542  0.16415175  0.24245525  1.0
  Sc  Sc688  1  0.55433542  0.49748508  0.24245525  1.0
  Sc  Sc689  1  0.55433542  0.83081842  0.24245525  1.0
  Sc  Sc690  1  0.88766875  0.16415175  0.24245525  1.0
  Sc  Sc691  1  0.88766875  0.49748508  0.24245525  1.0
  Sc  Sc692  1  0.88766875  0.83081842  0.24245525  1.0
  Sc  Sc693  1  0.32100208  0.03081842  0.34245525  1.0
  Sc  Sc694  1  0.32100208  0.36415175  0.34245525  1.0
  Sc  Sc695  1  0.32100208  0.69748508  0.34245525  1.0
  Sc  Sc696  1  0.65433542  0.03081842  0.34245525  1.0
  Sc  Sc697  1  0.65433542  0.36415175  0.34245525  1.0
  Sc  Sc698  1  0.65433542  0.69748508  0.34245525  1.0
  Sc  Sc699  1  0.98766875  0.03081842  0.34245525  1.0
  Sc  Sc700  1  0.98766875  0.36415175  0.34245525  1.0
  Sc  Sc701  1  0.98766875  0.69748508  0.34245525  1.0
  Sc  Sc702  1  0.17149795  0.18890382  0.31671145  1.0
  Sc  Sc703  1  0.17149795  0.52223715  0.31671145  1.0
  Sc  Sc704  1  0.17149795  0.85557048  0.31671145  1.0
  Sc  Sc705  1  0.50483128  0.18890382  0.31671145  1.0
  Sc  Sc706  1  0.50483128  0.52223715  0.31671145  1.0
  Sc  Sc707  1  0.50483128  0.85557048  0.31671145  1.0
  Sc  Sc708  1  0.83816462  0.18890382  0.31671145  1.0
  Sc  Sc709  1  0.83816462  0.52223715  0.31671145  1.0
  Sc  Sc710  1  0.83816462  0.85557048  0.31671145  1.0
  Sc  Sc711  1  0.07149795  0.32223715  0.21671145  1.0
  Sc  Sc712  1  0.07149795  0.65557048  0.21671145  1.0
  Sc  Sc713  1  0.07149795  0.98890382  0.21671145  1.0
  Sc  Sc714  1  0.40483128  0.32223715  0.21671145  1.0
  Sc  Sc715  1  0.40483128  0.65557048  0.21671145  1.0
  Sc  Sc716  1  0.40483128  0.98890382  0.21671145  1.0
  Sc  Sc717  1  0.73816462  0.32223715  0.21671145  1.0
  Sc  Sc718  1  0.73816462  0.65557048  0.21671145  1.0
  Sc  Sc719  1  0.73816462  0.98890382  0.21671145  1.0
  Sc  Sc720  1  0.09724175  0.16415175  0.24245525  1.0
  Sc  Sc721  1  0.09724175  0.49748508  0.24245525  1.0
  Sc  Sc722  1  0.09724175  0.83081842  0.24245525  1.0
  Sc  Sc723  1  0.43057508  0.16415175  0.24245525  1.0
  Sc  Sc724  1  0.43057508  0.49748508  0.24245525  1.0
  Sc  Sc725  1  0.43057508  0.83081842  0.24245525  1.0
  Sc  Sc726  1  0.76390842  0.16415175  0.24245525  1.0
  Sc  Sc727  1  0.76390842  0.49748508  0.24245525  1.0
  Sc  Sc728  1  0.76390842  0.83081842  0.24245525  1.0
  Sc  Sc729  1  0.19724175  0.03081842  0.34245525  1.0
  Sc  Sc730  1  0.19724175  0.36415175  0.34245525  1.0
  Sc  Sc731  1  0.19724175  0.69748508  0.34245525  1.0
  Sc  Sc732  1  0.53057508  0.03081842  0.34245525  1.0
  Sc  Sc733  1  0.53057508  0.36415175  0.34245525  1.0
  Sc  Sc734  1  0.53057508  0.69748508  0.34245525  1.0
  Sc  Sc735  1  0.86390842  0.03081842  0.34245525  1.0
  Sc  Sc736  1  0.86390842  0.36415175  0.34245525  1.0
  Sc  Sc737  1  0.86390842  0.69748508  0.34245525  1.0
  Sc  Sc738  1  0.01341255  0.20606635  0.36819905  1.0
  Sc  Sc739  1  0.01341255  0.53939968  0.36819905  1.0
  Sc  Sc740  1  0.01341255  0.87273302  0.36819905  1.0
  Sc  Sc741  1  0.34674588  0.20606635  0.36819905  1.0
  Sc  Sc742  1  0.34674588  0.53939968  0.36819905  1.0
  Sc  Sc743  1  0.34674588  0.87273302  0.36819905  1.0
  Sc  Sc744  1  0.68007922  0.20606635  0.36819905  1.0
  Sc  Sc745  1  0.68007922  0.53939968  0.36819905  1.0
  Sc  Sc746  1  0.68007922  0.87273302  0.36819905  1.0
  Sc  Sc747  1  0.24674588  0.00606635  0.26819905  1.0
  Sc  Sc748  1  0.24674588  0.33939968  0.26819905  1.0
  Sc  Sc749  1  0.24674588  0.67273302  0.26819905  1.0
  Sc  Sc750  1  0.58007922  0.00606635  0.26819905  1.0
  Sc  Sc751  1  0.58007922  0.33939968  0.26819905  1.0
  Sc  Sc752  1  0.58007922  0.67273302  0.26819905  1.0
  Sc  Sc753  1  0.91341255  0.00606635  0.26819905  1.0
  Sc  Sc754  1  0.91341255  0.33939968  0.26819905  1.0
  Sc  Sc755  1  0.91341255  0.67273302  0.26819905  1.0
  Sc  Sc756  1  0.33057508  0.13081842  0.39245525  1.0
  Sc  Sc757  1  0.33057508  0.46415175  0.39245525  1.0
  Sc  Sc758  1  0.33057508  0.79748508  0.39245525  1.0
  Sc  Sc759  1  0.66390842  0.13081842  0.39245525  1.0
  Sc  Sc760  1  0.66390842  0.46415175  0.39245525  1.0
  Sc  Sc761  1  0.66390842  0.79748508  0.39245525  1.0
  Sc  Sc762  1  0.99724175  0.13081842  0.39245525  1.0
  Sc  Sc763  1  0.99724175  0.46415175  0.39245525  1.0
  Sc  Sc764  1  0.99724175  0.79748508  0.39245525  1.0
  Sc  Sc765  1  0.23057508  0.26415175  0.29245525  1.0
  Sc  Sc766  1  0.23057508  0.59748508  0.29245525  1.0
  Sc  Sc767  1  0.23057508  0.93081842  0.29245525  1.0
  Sc  Sc768  1  0.56390842  0.26415175  0.29245525  1.0
  Sc  Sc769  1  0.56390842  0.59748508  0.29245525  1.0
  Sc  Sc770  1  0.56390842  0.93081842  0.29245525  1.0
  Sc  Sc771  1  0.89724175  0.26415175  0.29245525  1.0
  Sc  Sc772  1  0.89724175  0.59748508  0.29245525  1.0
  Sc  Sc773  1  0.89724175  0.93081842  0.29245525  1.0
  Sc  Sc774  1  0.12100208  0.13081842  0.39245525  1.0
  Sc  Sc775  1  0.12100208  0.46415175  0.39245525  1.0
  Sc  Sc776  1  0.12100208  0.79748508  0.39245525  1.0
  Sc  Sc777  1  0.45433542  0.13081842  0.39245525  1.0
  Sc  Sc778  1  0.45433542  0.46415175  0.39245525  1.0
  Sc  Sc779  1  0.45433542  0.79748508  0.39245525  1.0
  Sc  Sc780  1  0.78766875  0.13081842  0.39245525  1.0
  Sc  Sc781  1  0.78766875  0.46415175  0.39245525  1.0
  Sc  Sc782  1  0.78766875  0.79748508  0.39245525  1.0
  Sc  Sc783  1  0.02100208  0.26415175  0.29245525  1.0
  Sc  Sc784  1  0.02100208  0.59748508  0.29245525  1.0
  Sc  Sc785  1  0.02100208  0.93081842  0.29245525  1.0
  Sc  Sc786  1  0.35433542  0.26415175  0.29245525  1.0
  Sc  Sc787  1  0.35433542  0.59748508  0.29245525  1.0
  Sc  Sc788  1  0.35433542  0.93081842  0.29245525  1.0
  Sc  Sc789  1  0.68766875  0.26415175  0.29245525  1.0
  Sc  Sc790  1  0.68766875  0.59748508  0.29245525  1.0
  Sc  Sc791  1  0.68766875  0.93081842  0.29245525  1.0
  Sc  Sc792  1  0.26770318  0.21464762  0.32958335  1.0
  Sc  Sc793  1  0.26770318  0.54798095  0.32958335  1.0
  Sc  Sc794  1  0.26770318  0.88131428  0.32958335  1.0
  Sc  Sc795  1  0.60103652  0.21464762  0.32958335  1.0
  Sc  Sc796  1  0.60103652  0.54798095  0.32958335  1.0
  Sc  Sc797  1  0.60103652  0.88131428  0.32958335  1.0
  Sc  Sc798  1  0.93436985  0.21464762  0.32958335  1.0
  Sc  Sc799  1  0.93436985  0.54798095  0.32958335  1.0
  Sc  Sc800  1  0.93436985  0.88131428  0.32958335  1.0
  Sc  Sc801  1  0.16770318  0.01464762  0.22958335  1.0
  Sc  Sc802  1  0.16770318  0.34798095  0.22958335  1.0
  Sc  Sc803  1  0.16770318  0.68131428  0.22958335  1.0
  Sc  Sc804  1  0.50103652  0.01464762  0.22958335  1.0
  Sc  Sc805  1  0.50103652  0.34798095  0.22958335  1.0
  Sc  Sc806  1  0.50103652  0.68131428  0.22958335  1.0
  Sc  Sc807  1  0.83436985  0.01464762  0.22958335  1.0
  Sc  Sc808  1  0.83436985  0.34798095  0.22958335  1.0
  Sc  Sc809  1  0.83436985  0.68131428  0.22958335  1.0
  Sc  Sc810  1  0.04674588  0.10606635  0.31819905  1.0
  Sc  Sc811  1  0.04674588  0.43939968  0.31819905  1.0
  Sc  Sc812  1  0.04674588  0.77273302  0.31819905  1.0
  Sc  Sc813  1  0.38007922  0.10606635  0.31819905  1.0
  Sc  Sc814  1  0.38007922  0.43939968  0.31819905  1.0
  Sc  Sc815  1  0.38007922  0.77273302  0.31819905  1.0
  Sc  Sc816  1  0.71341255  0.10606635  0.31819905  1.0
  Sc  Sc817  1  0.71341255  0.43939968  0.31819905  1.0
  Sc  Sc818  1  0.71341255  0.77273302  0.31819905  1.0
  Sc  Sc819  1  0.28007922  0.23939968  0.21819905  1.0
  Sc  Sc820  1  0.28007922  0.57273302  0.21819905  1.0
  Sc  Sc821  1  0.28007922  0.90606635  0.21819905  1.0
  Sc  Sc822  1  0.61341255  0.23939968  0.21819905  1.0
  Sc  Sc823  1  0.61341255  0.57273302  0.21819905  1.0
  Sc  Sc824  1  0.61341255  0.90606635  0.21819905  1.0
  Sc  Sc825  1  0.94674588  0.23939968  0.21819905  1.0
  Sc  Sc826  1  0.94674588  0.57273302  0.21819905  1.0
  Sc  Sc827  1  0.94674588  0.90606635  0.21819905  1.0
  Sc  Sc828  1  0.31720732  0.31365588  0.25532715  1.0
  Sc  Sc829  1  0.31720732  0.64698922  0.25532715  1.0
  Sc  Sc830  1  0.31720732  0.98032255  0.25532715  1.0
  Sc  Sc831  1  0.65054065  0.31365588  0.25532715  1.0
  Sc  Sc832  1  0.65054065  0.64698922  0.25532715  1.0
  Sc  Sc833  1  0.65054065  0.98032255  0.25532715  1.0
  Sc  Sc834  1  0.98387398  0.31365588  0.25532715  1.0
  Sc  Sc835  1  0.98387398  0.64698922  0.25532715  1.0
  Sc  Sc836  1  0.98387398  0.98032255  0.25532715  1.0
  Sc  Sc837  1  0.08387398  0.18032255  0.35532715  1.0
  Sc  Sc838  1  0.08387398  0.51365588  0.35532715  1.0
  Sc  Sc839  1  0.08387398  0.84698922  0.35532715  1.0
  Sc  Sc840  1  0.41720732  0.18032255  0.35532715  1.0
  Sc  Sc841  1  0.41720732  0.51365588  0.35532715  1.0
  Sc  Sc842  1  0.41720732  0.84698922  0.35532715  1.0
  Sc  Sc843  1  0.75054065  0.18032255  0.35532715  1.0
  Sc  Sc844  1  0.75054065  0.51365588  0.35532715  1.0
  Sc  Sc845  1  0.75054065  0.84698922  0.35532715  1.0
  Sc  Sc846  1  0.20483128  0.08890382  0.26671145  1.0
  Sc  Sc847  1  0.20483128  0.42223715  0.26671145  1.0
  Sc  Sc848  1  0.20483128  0.75557048  0.26671145  1.0
  Sc  Sc849  1  0.53816462  0.08890382  0.26671145  1.0
  Sc  Sc850  1  0.53816462  0.42223715  0.26671145  1.0
  Sc  Sc851  1  0.53816462  0.75557048  0.26671145  1.0
  Sc  Sc852  1  0.87149795  0.08890382  0.26671145  1.0
  Sc  Sc853  1  0.87149795  0.42223715  0.26671145  1.0
  Sc  Sc854  1  0.87149795  0.75557048  0.26671145  1.0
  Sc  Sc855  1  0.30483128  0.28890382  0.36671145  1.0
  Sc  Sc856  1  0.30483128  0.62223715  0.36671145  1.0
  Sc  Sc857  1  0.30483128  0.95557048  0.36671145  1.0
  Sc  Sc858  1  0.63816462  0.28890382  0.36671145  1.0
  Sc  Sc859  1  0.63816462  0.62223715  0.36671145  1.0
  Sc  Sc860  1  0.63816462  0.95557048  0.36671145  1.0
  Sc  Sc861  1  0.97149795  0.28890382  0.36671145  1.0
  Sc  Sc862  1  0.97149795  0.62223715  0.36671145  1.0
  Sc  Sc863  1  0.97149795  0.95557048  0.36671145  1.0
