# generated using pymatgen
data_Sc2Ni
_symmetry_space_group_name_H-M   'P 1'
_cell_length_a   25.64981766
_cell_length_b   44.42678739
_cell_length_c   42.74969610
_cell_angle_alpha   73.22134512
_cell_angle_beta   60.00000000
_cell_angle_gamma   73.22134512
_symmetry_Int_Tables_number   1
_chemical_formula_structural   Sc2Ni
_chemical_formula_sum   'Sc576 Ni288'
_cell_volume   39775.58665768
_cell_formula_units_Z   288
loop_
 _symmetry_equiv_pos_site_id
 _symmetry_equiv_pos_as_xyz
  1  'x, y, z'
loop_
 _atom_site_type_symbol
 _atom_site_label
 _atom_site_symmetry_multiplicity
 _atom_site_fract_x
 _atom_site_fract_y
 _atom_site_fract_z
 _atom_site_occupancy
  Sc  Sc0  1  0.18750000  0.27083333  0.00300733  1.0
  Sc  Sc1  1  0.18750000  0.60416667  0.00300733  1.0
  Sc  Sc2  1  0.18750000  0.93750000  0.00300733  1.0
  Sc  Sc3  1  0.52083333  0.27083333  0.00300733  1.0
  Sc  Sc4  1  0.52083333  0.60416667  0.00300733  1.0
  Sc  Sc5  1  0.52083333  0.93750000  0.00300733  1.0
  Sc  Sc6  1  0.85416667  0.27083333  0.00300733  1.0
  Sc  Sc7  1  0.85416667  0.60416667  0.00300733  1.0
  Sc  Sc8  1  0.85416667  0.93750000  0.00300733  1.0
  Sc  Sc9  1  0.02083333  0.10416667  0.10300733  1.0
  Sc  Sc10  1  0.02083333  0.43750000  0.10300733  1.0
  Sc  Sc11  1  0.02083333  0.77083333  0.10300733  1.0
  Sc  Sc12  1  0.35416667  0.10416667  0.10300733  1.0
  Sc  Sc13  1  0.35416667  0.43750000  0.10300733  1.0
  Sc  Sc14  1  0.35416667  0.77083333  0.10300733  1.0
  Sc  Sc15  1  0.68750000  0.10416667  0.10300733  1.0
  Sc  Sc16  1  0.68750000  0.43750000  0.10300733  1.0
  Sc  Sc17  1  0.68750000  0.77083333  0.10300733  1.0
  Sc  Sc18  1  0.27083333  0.18750000  0.15300733  1.0
  Sc  Sc19  1  0.27083333  0.52083333  0.15300733  1.0
  Sc  Sc20  1  0.27083333  0.85416667  0.15300733  1.0
  Sc  Sc21  1  0.60416667  0.18750000  0.15300733  1.0
  Sc  Sc22  1  0.60416667  0.52083333  0.15300733  1.0
  Sc  Sc23  1  0.60416667  0.85416667  0.15300733  1.0
  Sc  Sc24  1  0.93750000  0.18750000  0.15300733  1.0
  Sc  Sc25  1  0.93750000  0.52083333  0.15300733  1.0
  Sc  Sc26  1  0.93750000  0.85416667  0.15300733  1.0
  Sc  Sc27  1  0.10416667  0.02083333  0.05300733  1.0
  Sc  Sc28  1  0.10416667  0.35416667  0.05300733  1.0
  Sc  Sc29  1  0.10416667  0.68750000  0.05300733  1.0
  Sc  Sc30  1  0.43750000  0.02083333  0.05300733  1.0
  Sc  Sc31  1  0.43750000  0.35416667  0.05300733  1.0
  Sc  Sc32  1  0.43750000  0.68750000  0.05300733  1.0
  Sc  Sc33  1  0.77083333  0.02083333  0.05300733  1.0
  Sc  Sc34  1  0.77083333  0.35416667  0.05300733  1.0
  Sc  Sc35  1  0.77083333  0.68750000  0.05300733  1.0
  Sc  Sc36  1  0.02083333  0.27083333  0.10300733  1.0
  Sc  Sc37  1  0.02083333  0.60416667  0.10300733  1.0
  Sc  Sc38  1  0.02083333  0.93750000  0.10300733  1.0
  Sc  Sc39  1  0.35416667  0.27083333  0.10300733  1.0
  Sc  Sc40  1  0.35416667  0.60416667  0.10300733  1.0
  Sc  Sc41  1  0.35416667  0.93750000  0.10300733  1.0
  Sc  Sc42  1  0.68750000  0.27083333  0.10300733  1.0
  Sc  Sc43  1  0.68750000  0.60416667  0.10300733  1.0
  Sc  Sc44  1  0.68750000  0.93750000  0.10300733  1.0
  Sc  Sc45  1  0.18750000  0.10416667  0.00300733  1.0
  Sc  Sc46  1  0.18750000  0.43750000  0.00300733  1.0
  Sc  Sc47  1  0.18750000  0.77083333  0.00300733  1.0
  Sc  Sc48  1  0.52083333  0.10416667  0.00300733  1.0
  Sc  Sc49  1  0.52083333  0.43750000  0.00300733  1.0
  Sc  Sc50  1  0.52083333  0.77083333  0.00300733  1.0
  Sc  Sc51  1  0.85416667  0.10416667  0.00300733  1.0
  Sc  Sc52  1  0.85416667  0.43750000  0.00300733  1.0
  Sc  Sc53  1  0.85416667  0.77083333  0.00300733  1.0
  Sc  Sc54  1  0.18750000  0.27083333  0.10300733  1.0
  Sc  Sc55  1  0.18750000  0.60416667  0.10300733  1.0
  Sc  Sc56  1  0.18750000  0.93750000  0.10300733  1.0
  Sc  Sc57  1  0.52083333  0.27083333  0.10300733  1.0
  Sc  Sc58  1  0.52083333  0.60416667  0.10300733  1.0
  Sc  Sc59  1  0.52083333  0.93750000  0.10300733  1.0
  Sc  Sc60  1  0.85416667  0.27083333  0.10300733  1.0
  Sc  Sc61  1  0.85416667  0.60416667  0.10300733  1.0
  Sc  Sc62  1  0.85416667  0.93750000  0.10300733  1.0
  Sc  Sc63  1  0.02083333  0.10416667  0.00300733  1.0
  Sc  Sc64  1  0.02083333  0.43750000  0.00300733  1.0
  Sc  Sc65  1  0.02083333  0.77083333  0.00300733  1.0
  Sc  Sc66  1  0.35416667  0.10416667  0.00300733  1.0
  Sc  Sc67  1  0.35416667  0.43750000  0.00300733  1.0
  Sc  Sc68  1  0.35416667  0.77083333  0.00300733  1.0
  Sc  Sc69  1  0.68750000  0.10416667  0.00300733  1.0
  Sc  Sc70  1  0.68750000  0.43750000  0.00300733  1.0
  Sc  Sc71  1  0.68750000  0.77083333  0.00300733  1.0
  Sc  Sc72  1  0.01072658  0.17739325  0.19694328  1.0
  Sc  Sc73  1  0.01072658  0.51072658  0.19694328  1.0
  Sc  Sc74  1  0.01072658  0.84405992  0.19694328  1.0
  Sc  Sc75  1  0.34405992  0.17739325  0.19694328  1.0
  Sc  Sc76  1  0.34405992  0.51072658  0.19694328  1.0
  Sc  Sc77  1  0.34405992  0.84405992  0.19694328  1.0
  Sc  Sc78  1  0.67739325  0.17739325  0.19694328  1.0
  Sc  Sc79  1  0.67739325  0.51072658  0.19694328  1.0
  Sc  Sc80  1  0.67739325  0.84405992  0.19694328  1.0
  Sc  Sc81  1  0.17739325  0.01072658  0.09694328  1.0
  Sc  Sc82  1  0.17739325  0.34405992  0.09694328  1.0
  Sc  Sc83  1  0.17739325  0.67739325  0.09694328  1.0
  Sc  Sc84  1  0.51072658  0.01072658  0.09694328  1.0
  Sc  Sc85  1  0.51072658  0.34405992  0.09694328  1.0
  Sc  Sc86  1  0.51072658  0.67739325  0.09694328  1.0
  Sc  Sc87  1  0.84405992  0.01072658  0.09694328  1.0
  Sc  Sc88  1  0.84405992  0.34405992  0.09694328  1.0
  Sc  Sc89  1  0.84405992  0.67739325  0.09694328  1.0
  Sc  Sc90  1  0.07260675  0.23927342  0.03407138  1.0
  Sc  Sc91  1  0.07260675  0.57260675  0.03407138  1.0
  Sc  Sc92  1  0.07260675  0.90594008  0.03407138  1.0
  Sc  Sc93  1  0.40594008  0.23927342  0.03407138  1.0
  Sc  Sc94  1  0.40594008  0.57260675  0.03407138  1.0
  Sc  Sc95  1  0.40594008  0.90594008  0.03407138  1.0
  Sc  Sc96  1  0.73927342  0.23927342  0.03407138  1.0
  Sc  Sc97  1  0.73927342  0.57260675  0.03407138  1.0
  Sc  Sc98  1  0.73927342  0.90594008  0.03407138  1.0
  Sc  Sc99  1  0.23927342  0.07260675  0.13407138  1.0
  Sc  Sc100  1  0.23927342  0.40594008  0.13407138  1.0
  Sc  Sc101  1  0.23927342  0.73927342  0.13407138  1.0
  Sc  Sc102  1  0.57260675  0.07260675  0.13407138  1.0
  Sc  Sc103  1  0.57260675  0.40594008  0.13407138  1.0
  Sc  Sc104  1  0.57260675  0.73927342  0.13407138  1.0
  Sc  Sc105  1  0.90594008  0.07260675  0.13407138  1.0
  Sc  Sc106  1  0.90594008  0.40594008  0.13407138  1.0
  Sc  Sc107  1  0.90594008  0.73927342  0.13407138  1.0
  Sc  Sc108  1  0.13448692  0.17739325  0.19694328  1.0
  Sc  Sc109  1  0.13448692  0.51072658  0.19694328  1.0
  Sc  Sc110  1  0.13448692  0.84405992  0.19694328  1.0
  Sc  Sc111  1  0.46782025  0.17739325  0.19694328  1.0
  Sc  Sc112  1  0.46782025  0.51072658  0.19694328  1.0
  Sc  Sc113  1  0.46782025  0.84405992  0.19694328  1.0
  Sc  Sc114  1  0.80115358  0.17739325  0.19694328  1.0
  Sc  Sc115  1  0.80115358  0.51072658  0.19694328  1.0
  Sc  Sc116  1  0.80115358  0.84405992  0.19694328  1.0
  Sc  Sc117  1  0.30115358  0.01072658  0.09694328  1.0
  Sc  Sc118  1  0.30115358  0.34405992  0.09694328  1.0
  Sc  Sc119  1  0.30115358  0.67739325  0.09694328  1.0
  Sc  Sc120  1  0.63448692  0.01072658  0.09694328  1.0
  Sc  Sc121  1  0.63448692  0.34405992  0.09694328  1.0
  Sc  Sc122  1  0.63448692  0.67739325  0.09694328  1.0
  Sc  Sc123  1  0.96782025  0.01072658  0.09694328  1.0
  Sc  Sc124  1  0.96782025  0.34405992  0.09694328  1.0
  Sc  Sc125  1  0.96782025  0.67739325  0.09694328  1.0
  Sc  Sc126  1  0.07260675  0.23927342  0.15981518  1.0
  Sc  Sc127  1  0.07260675  0.57260675  0.15981518  1.0
  Sc  Sc128  1  0.07260675  0.90594008  0.15981518  1.0
  Sc  Sc129  1  0.40594008  0.23927342  0.15981518  1.0
  Sc  Sc130  1  0.40594008  0.57260675  0.15981518  1.0
  Sc  Sc131  1  0.40594008  0.90594008  0.15981518  1.0
  Sc  Sc132  1  0.73927342  0.23927342  0.15981518  1.0
  Sc  Sc133  1  0.73927342  0.57260675  0.15981518  1.0
  Sc  Sc134  1  0.73927342  0.90594008  0.15981518  1.0
  Sc  Sc135  1  0.23927342  0.07260675  0.05981518  1.0
  Sc  Sc136  1  0.23927342  0.40594008  0.05981518  1.0
  Sc  Sc137  1  0.23927342  0.73927342  0.05981518  1.0
  Sc  Sc138  1  0.57260675  0.07260675  0.05981518  1.0
  Sc  Sc139  1  0.57260675  0.40594008  0.05981518  1.0
  Sc  Sc140  1  0.57260675  0.73927342  0.05981518  1.0
  Sc  Sc141  1  0.90594008  0.07260675  0.05981518  1.0
  Sc  Sc142  1  0.90594008  0.40594008  0.05981518  1.0
  Sc  Sc143  1  0.90594008  0.73927342  0.05981518  1.0
  Sc  Sc144  1  0.28217975  0.23927342  0.03407138  1.0
  Sc  Sc145  1  0.28217975  0.57260675  0.03407138  1.0
  Sc  Sc146  1  0.28217975  0.90594008  0.03407138  1.0
  Sc  Sc147  1  0.61551308  0.23927342  0.03407138  1.0
  Sc  Sc148  1  0.61551308  0.57260675  0.03407138  1.0
  Sc  Sc149  1  0.61551308  0.90594008  0.03407138  1.0
  Sc  Sc150  1  0.94884642  0.23927342  0.03407138  1.0
  Sc  Sc151  1  0.94884642  0.57260675  0.03407138  1.0
  Sc  Sc152  1  0.94884642  0.90594008  0.03407138  1.0
  Sc  Sc153  1  0.11551308  0.07260675  0.13407138  1.0
  Sc  Sc154  1  0.11551308  0.40594008  0.13407138  1.0
  Sc  Sc155  1  0.11551308  0.73927342  0.13407138  1.0
  Sc  Sc156  1  0.44884642  0.07260675  0.13407138  1.0
  Sc  Sc157  1  0.44884642  0.40594008  0.13407138  1.0
  Sc  Sc158  1  0.44884642  0.73927342  0.13407138  1.0
  Sc  Sc159  1  0.78217975  0.07260675  0.13407138  1.0
  Sc  Sc160  1  0.78217975  0.40594008  0.13407138  1.0
  Sc  Sc161  1  0.78217975  0.73927342  0.13407138  1.0
  Sc  Sc162  1  0.01072658  0.17739325  0.07119948  1.0
  Sc  Sc163  1  0.01072658  0.51072658  0.07119948  1.0
  Sc  Sc164  1  0.01072658  0.84405992  0.07119948  1.0
  Sc  Sc165  1  0.34405992  0.17739325  0.07119948  1.0
  Sc  Sc166  1  0.34405992  0.51072658  0.07119948  1.0
  Sc  Sc167  1  0.34405992  0.84405992  0.07119948  1.0
  Sc  Sc168  1  0.67739325  0.17739325  0.07119948  1.0
  Sc  Sc169  1  0.67739325  0.51072658  0.07119948  1.0
  Sc  Sc170  1  0.67739325  0.84405992  0.07119948  1.0
  Sc  Sc171  1  0.17739325  0.01072658  0.17119948  1.0
  Sc  Sc172  1  0.17739325  0.34405992  0.17119948  1.0
  Sc  Sc173  1  0.17739325  0.67739325  0.17119948  1.0
  Sc  Sc174  1  0.51072658  0.01072658  0.17119948  1.0
  Sc  Sc175  1  0.51072658  0.34405992  0.17119948  1.0
  Sc  Sc176  1  0.51072658  0.67739325  0.17119948  1.0
  Sc  Sc177  1  0.84405992  0.01072658  0.17119948  1.0
  Sc  Sc178  1  0.84405992  0.34405992  0.17119948  1.0
  Sc  Sc179  1  0.84405992  0.67739325  0.17119948  1.0
  Sc  Sc180  1  0.07384642  0.19760675  0.10907138  1.0
  Sc  Sc181  1  0.07384642  0.53094008  0.10907138  1.0
  Sc  Sc182  1  0.07384642  0.86427342  0.10907138  1.0
  Sc  Sc183  1  0.40717975  0.19760675  0.10907138  1.0
  Sc  Sc184  1  0.40717975  0.53094008  0.10907138  1.0
  Sc  Sc185  1  0.40717975  0.86427342  0.10907138  1.0
  Sc  Sc186  1  0.74051308  0.19760675  0.10907138  1.0
  Sc  Sc187  1  0.74051308  0.53094008  0.10907138  1.0
  Sc  Sc188  1  0.74051308  0.86427342  0.10907138  1.0
  Sc  Sc189  1  0.24051308  0.03094008  0.00907138  1.0
  Sc  Sc190  1  0.24051308  0.36427342  0.00907138  1.0
  Sc  Sc191  1  0.24051308  0.69760675  0.00907138  1.0
  Sc  Sc192  1  0.57384642  0.03094008  0.00907138  1.0
  Sc  Sc193  1  0.57384642  0.36427342  0.00907138  1.0
  Sc  Sc194  1  0.57384642  0.69760675  0.00907138  1.0
  Sc  Sc195  1  0.90717975  0.03094008  0.00907138  1.0
  Sc  Sc196  1  0.90717975  0.36427342  0.00907138  1.0
  Sc  Sc197  1  0.90717975  0.69760675  0.00907138  1.0
  Sc  Sc198  1  0.09282025  0.30239325  0.17194328  1.0
  Sc  Sc199  1  0.09282025  0.63572658  0.17194328  1.0
  Sc  Sc200  1  0.09282025  0.96905992  0.17194328  1.0
  Sc  Sc201  1  0.42615358  0.30239325  0.17194328  1.0
  Sc  Sc202  1  0.42615358  0.63572658  0.17194328  1.0
  Sc  Sc203  1  0.42615358  0.96905992  0.17194328  1.0
  Sc  Sc204  1  0.75948692  0.30239325  0.17194328  1.0
  Sc  Sc205  1  0.75948692  0.63572658  0.17194328  1.0
  Sc  Sc206  1  0.75948692  0.96905992  0.17194328  1.0
  Sc  Sc207  1  0.25948692  0.13572658  0.07194328  1.0
  Sc  Sc208  1  0.25948692  0.46905992  0.07194328  1.0
  Sc  Sc209  1  0.25948692  0.80239325  0.07194328  1.0
  Sc  Sc210  1  0.59282025  0.13572658  0.07194328  1.0
  Sc  Sc211  1  0.59282025  0.46905992  0.07194328  1.0
  Sc  Sc212  1  0.59282025  0.80239325  0.07194328  1.0
  Sc  Sc213  1  0.92615358  0.13572658  0.07194328  1.0
  Sc  Sc214  1  0.92615358  0.46905992  0.07194328  1.0
  Sc  Sc215  1  0.92615358  0.80239325  0.07194328  1.0
  Sc  Sc216  1  0.19760675  0.19760675  0.10907138  1.0
  Sc  Sc217  1  0.19760675  0.53094008  0.10907138  1.0
  Sc  Sc218  1  0.19760675  0.86427342  0.10907138  1.0
  Sc  Sc219  1  0.53094008  0.19760675  0.10907138  1.0
  Sc  Sc220  1  0.53094008  0.53094008  0.10907138  1.0
  Sc  Sc221  1  0.53094008  0.86427342  0.10907138  1.0
  Sc  Sc222  1  0.86427342  0.19760675  0.10907138  1.0
  Sc  Sc223  1  0.86427342  0.53094008  0.10907138  1.0
  Sc  Sc224  1  0.86427342  0.86427342  0.10907138  1.0
  Sc  Sc225  1  0.03094008  0.03094008  0.00907138  1.0
  Sc  Sc226  1  0.03094008  0.36427342  0.00907138  1.0
  Sc  Sc227  1  0.03094008  0.69760675  0.00907138  1.0
  Sc  Sc228  1  0.36427342  0.03094008  0.00907138  1.0
  Sc  Sc229  1  0.36427342  0.36427342  0.00907138  1.0
  Sc  Sc230  1  0.36427342  0.69760675  0.00907138  1.0
  Sc  Sc231  1  0.69760675  0.03094008  0.00907138  1.0
  Sc  Sc232  1  0.69760675  0.36427342  0.00907138  1.0
  Sc  Sc233  1  0.69760675  0.69760675  0.00907138  1.0
  Sc  Sc234  1  0.30239325  0.30239325  0.04619948  1.0
  Sc  Sc235  1  0.30239325  0.63572658  0.04619948  1.0
  Sc  Sc236  1  0.30239325  0.96905992  0.04619948  1.0
  Sc  Sc237  1  0.63572658  0.30239325  0.04619948  1.0
  Sc  Sc238  1  0.63572658  0.63572658  0.04619948  1.0
  Sc  Sc239  1  0.63572658  0.96905992  0.04619948  1.0
  Sc  Sc240  1  0.96905992  0.30239325  0.04619948  1.0
  Sc  Sc241  1  0.96905992  0.63572658  0.04619948  1.0
  Sc  Sc242  1  0.96905992  0.96905992  0.04619948  1.0
  Sc  Sc243  1  0.13572658  0.13572658  0.14619948  1.0
  Sc  Sc244  1  0.13572658  0.46905992  0.14619948  1.0
  Sc  Sc245  1  0.13572658  0.80239325  0.14619948  1.0
  Sc  Sc246  1  0.46905992  0.13572658  0.14619948  1.0
  Sc  Sc247  1  0.46905992  0.46905992  0.14619948  1.0
  Sc  Sc248  1  0.46905992  0.80239325  0.14619948  1.0
  Sc  Sc249  1  0.80239325  0.13572658  0.14619948  1.0
  Sc  Sc250  1  0.80239325  0.46905992  0.14619948  1.0
  Sc  Sc251  1  0.80239325  0.80239325  0.14619948  1.0
  Sc  Sc252  1  0.30239325  0.30239325  0.17194328  1.0
  Sc  Sc253  1  0.30239325  0.63572658  0.17194328  1.0
  Sc  Sc254  1  0.30239325  0.96905992  0.17194328  1.0
  Sc  Sc255  1  0.63572658  0.30239325  0.17194328  1.0
  Sc  Sc256  1  0.63572658  0.63572658  0.17194328  1.0
  Sc  Sc257  1  0.63572658  0.96905992  0.17194328  1.0
  Sc  Sc258  1  0.96905992  0.30239325  0.17194328  1.0
  Sc  Sc259  1  0.96905992  0.63572658  0.17194328  1.0
  Sc  Sc260  1  0.96905992  0.96905992  0.17194328  1.0
  Sc  Sc261  1  0.13572658  0.13572658  0.07194328  1.0
  Sc  Sc262  1  0.13572658  0.46905992  0.07194328  1.0
  Sc  Sc263  1  0.13572658  0.80239325  0.07194328  1.0
  Sc  Sc264  1  0.46905992  0.13572658  0.07194328  1.0
  Sc  Sc265  1  0.46905992  0.46905992  0.07194328  1.0
  Sc  Sc266  1  0.46905992  0.80239325  0.07194328  1.0
  Sc  Sc267  1  0.80239325  0.13572658  0.07194328  1.0
  Sc  Sc268  1  0.80239325  0.46905992  0.07194328  1.0
  Sc  Sc269  1  0.80239325  0.80239325  0.07194328  1.0
  Sc  Sc270  1  0.19760675  0.19760675  0.03481518  1.0
  Sc  Sc271  1  0.19760675  0.53094008  0.03481518  1.0
  Sc  Sc272  1  0.19760675  0.86427342  0.03481518  1.0
  Sc  Sc273  1  0.53094008  0.19760675  0.03481518  1.0
  Sc  Sc274  1  0.53094008  0.53094008  0.03481518  1.0
  Sc  Sc275  1  0.53094008  0.86427342  0.03481518  1.0
  Sc  Sc276  1  0.86427342  0.19760675  0.03481518  1.0
  Sc  Sc277  1  0.86427342  0.53094008  0.03481518  1.0
  Sc  Sc278  1  0.86427342  0.86427342  0.03481518  1.0
  Sc  Sc279  1  0.03094008  0.03094008  0.13481518  1.0
  Sc  Sc280  1  0.03094008  0.36427342  0.13481518  1.0
  Sc  Sc281  1  0.03094008  0.69760675  0.13481518  1.0
  Sc  Sc282  1  0.36427342  0.03094008  0.13481518  1.0
  Sc  Sc283  1  0.36427342  0.36427342  0.13481518  1.0
  Sc  Sc284  1  0.36427342  0.69760675  0.13481518  1.0
  Sc  Sc285  1  0.69760675  0.03094008  0.13481518  1.0
  Sc  Sc286  1  0.69760675  0.36427342  0.13481518  1.0
  Sc  Sc287  1  0.69760675  0.69760675  0.13481518  1.0
  Ni  Ni288  1  0.08148534  0.30617155  0.10902200  1.0
  Ni  Ni289  1  0.08148534  0.63950489  0.10902200  1.0
  Ni  Ni290  1  0.08148534  0.97283822  0.10902200  1.0
  Ni  Ni291  1  0.41481867  0.30617155  0.10902200  1.0
  Ni  Ni292  1  0.41481867  0.63950489  0.10902200  1.0
  Ni  Ni293  1  0.41481867  0.97283822  0.10902200  1.0
  Ni  Ni294  1  0.74815200  0.30617155  0.10902200  1.0
  Ni  Ni295  1  0.74815200  0.63950489  0.10902200  1.0
  Ni  Ni296  1  0.74815200  0.97283822  0.10902200  1.0
  Ni  Ni297  1  0.24815200  0.13950489  0.00902200  1.0
  Ni  Ni298  1  0.24815200  0.47283822  0.00902200  1.0
  Ni  Ni299  1  0.24815200  0.80617155  0.00902200  1.0
  Ni  Ni300  1  0.58148533  0.13950489  0.00902200  1.0
  Ni  Ni301  1  0.58148533  0.47283822  0.00902200  1.0
  Ni  Ni302  1  0.58148534  0.80617155  0.00902200  1.0
  Ni  Ni303  1  0.91481867  0.13950489  0.00902200  1.0
  Ni  Ni304  1  0.91481867  0.47283822  0.00902200  1.0
  Ni  Ni305  1  0.91481867  0.80617155  0.00902200  1.0
  Ni  Ni306  1  0.13950489  0.24815200  0.07421026  1.0
  Ni  Ni307  1  0.13950489  0.58148533  0.07421026  1.0
  Ni  Ni308  1  0.13950489  0.91481867  0.07421026  1.0
  Ni  Ni309  1  0.47283822  0.24815200  0.07421026  1.0
  Ni  Ni310  1  0.47283822  0.58148533  0.07421026  1.0
  Ni  Ni311  1  0.47283822  0.91481867  0.07421026  1.0
  Ni  Ni312  1  0.80617156  0.24815200  0.07421026  1.0
  Ni  Ni313  1  0.80617156  0.58148533  0.07421026  1.0
  Ni  Ni314  1  0.80617156  0.91481867  0.07421026  1.0
  Ni  Ni315  1  0.30617156  0.08148533  0.17421026  1.0
  Ni  Ni316  1  0.30617156  0.41481867  0.17421026  1.0
  Ni  Ni317  1  0.30617156  0.74815200  0.17421026  1.0
  Ni  Ni318  1  0.63950489  0.08148533  0.17421026  1.0
  Ni  Ni319  1  0.63950489  0.41481867  0.17421026  1.0
  Ni  Ni320  1  0.63950489  0.74815200  0.17421026  1.0
  Ni  Ni321  1  0.97283822  0.08148533  0.17421026  1.0
  Ni  Ni322  1  0.97283822  0.41481867  0.17421026  1.0
  Ni  Ni323  1  0.97283822  0.74815200  0.17421026  1.0
  Ni  Ni324  1  0.19752445  0.30617155  0.03939853  1.0
  Ni  Ni325  1  0.19752445  0.63950489  0.03939853  1.0
  Ni  Ni326  1  0.19752445  0.97283822  0.03939853  1.0
  Ni  Ni327  1  0.53085778  0.30617155  0.03939853  1.0
  Ni  Ni328  1  0.53085778  0.63950489  0.03939853  1.0
  Ni  Ni329  1  0.53085778  0.97283822  0.03939853  1.0
  Ni  Ni330  1  0.86419111  0.30617155  0.03939853  1.0
  Ni  Ni331  1  0.86419111  0.63950489  0.03939853  1.0
  Ni  Ni332  1  0.86419111  0.97283822  0.03939853  1.0
  Ni  Ni333  1  0.03085778  0.13950489  0.13939853  1.0
  Ni  Ni334  1  0.03085778  0.47283822  0.13939853  1.0
  Ni  Ni335  1  0.03085778  0.80617155  0.13939853  1.0
  Ni  Ni336  1  0.36419111  0.13950489  0.13939853  1.0
  Ni  Ni337  1  0.36419111  0.47283822  0.13939853  1.0
  Ni  Ni338  1  0.36419111  0.80617155  0.13939853  1.0
  Ni  Ni339  1  0.69752444  0.13950489  0.13939853  1.0
  Ni  Ni340  1  0.69752444  0.47283822  0.13939853  1.0
  Ni  Ni341  1  0.69752444  0.80617155  0.13939853  1.0
  Ni  Ni342  1  0.08148534  0.30617155  0.03939853  1.0
  Ni  Ni343  1  0.08148533  0.63950489  0.03939853  1.0
  Ni  Ni344  1  0.08148533  0.97283822  0.03939853  1.0
  Ni  Ni345  1  0.41481867  0.30617155  0.03939853  1.0
  Ni  Ni346  1  0.41481867  0.63950489  0.03939853  1.0
  Ni  Ni347  1  0.41481867  0.97283822  0.03939853  1.0
  Ni  Ni348  1  0.74815200  0.30617155  0.03939853  1.0
  Ni  Ni349  1  0.74815200  0.63950489  0.03939853  1.0
  Ni  Ni350  1  0.74815200  0.97283822  0.03939853  1.0
  Ni  Ni351  1  0.24815200  0.13950489  0.13939853  1.0
  Ni  Ni352  1  0.24815200  0.47283822  0.13939853  1.0
  Ni  Ni353  1  0.24815200  0.80617155  0.13939853  1.0
  Ni  Ni354  1  0.58148533  0.13950489  0.13939853  1.0
  Ni  Ni355  1  0.58148533  0.47283822  0.13939853  1.0
  Ni  Ni356  1  0.58148533  0.80617155  0.13939853  1.0
  Ni  Ni357  1  0.91481867  0.13950489  0.13939853  1.0
  Ni  Ni358  1  0.91481867  0.47283822  0.13939853  1.0
  Ni  Ni359  1  0.91481867  0.80617155  0.13939853  1.0
  Ni  Ni360  1  0.29351467  0.23549511  0.09699267  1.0
  Ni  Ni361  1  0.29351467  0.56882844  0.09699267  1.0
  Ni  Ni362  1  0.29351467  0.90216178  0.09699267  1.0
  Ni  Ni363  1  0.62684800  0.23549511  0.09699267  1.0
  Ni  Ni364  1  0.62684800  0.56882844  0.09699267  1.0
  Ni  Ni365  1  0.62684800  0.90216178  0.09699267  1.0
  Ni  Ni366  1  0.96018133  0.23549511  0.09699267  1.0
  Ni  Ni367  1  0.96018133  0.56882844  0.09699267  1.0
  Ni  Ni368  1  0.96018133  0.90216178  0.09699267  1.0
  Ni  Ni369  1  0.12684800  0.06882844  0.19699267  1.0
  Ni  Ni370  1  0.12684800  0.40216178  0.19699267  1.0
  Ni  Ni371  1  0.12684800  0.73549511  0.19699267  1.0
  Ni  Ni372  1  0.46018133  0.06882844  0.19699267  1.0
  Ni  Ni373  1  0.46018133  0.40216178  0.19699267  1.0
  Ni  Ni374  1  0.46018133  0.73549511  0.19699267  1.0
  Ni  Ni375  1  0.79351466  0.06882844  0.19699267  1.0
  Ni  Ni376  1  0.79351466  0.40216178  0.19699267  1.0
  Ni  Ni377  1  0.79351467  0.73549511  0.19699267  1.0
  Ni  Ni378  1  0.23549511  0.29351467  0.13180440  1.0
  Ni  Ni379  1  0.23549511  0.62684800  0.13180440  1.0
  Ni  Ni380  1  0.23549511  0.96018133  0.13180440  1.0
  Ni  Ni381  1  0.56882844  0.29351467  0.13180440  1.0
  Ni  Ni382  1  0.56882844  0.62684800  0.13180440  1.0
  Ni  Ni383  1  0.56882844  0.96018133  0.13180440  1.0
  Ni  Ni384  1  0.90216178  0.29351467  0.13180440  1.0
  Ni  Ni385  1  0.90216178  0.62684800  0.13180440  1.0
  Ni  Ni386  1  0.90216178  0.96018133  0.13180440  1.0
  Ni  Ni387  1  0.06882844  0.12684800  0.03180440  1.0
  Ni  Ni388  1  0.06882844  0.46018133  0.03180440  1.0
  Ni  Ni389  1  0.06882844  0.79351467  0.03180440  1.0
  Ni  Ni390  1  0.40216178  0.12684800  0.03180440  1.0
  Ni  Ni391  1  0.40216178  0.46018133  0.03180440  1.0
  Ni  Ni392  1  0.40216178  0.79351467  0.03180440  1.0
  Ni  Ni393  1  0.73549511  0.12684800  0.03180440  1.0
  Ni  Ni394  1  0.73549511  0.46018133  0.03180440  1.0
  Ni  Ni395  1  0.73549511  0.79351467  0.03180440  1.0
  Ni  Ni396  1  0.29351467  0.23549511  0.16661613  1.0
  Ni  Ni397  1  0.29351467  0.56882844  0.16661613  1.0
  Ni  Ni398  1  0.29351467  0.90216178  0.16661613  1.0
  Ni  Ni399  1  0.62684800  0.23549511  0.16661613  1.0
  Ni  Ni400  1  0.62684800  0.56882844  0.16661613  1.0
  Ni  Ni401  1  0.62684800  0.90216178  0.16661613  1.0
  Ni  Ni402  1  0.96018133  0.23549511  0.16661613  1.0
  Ni  Ni403  1  0.96018133  0.56882844  0.16661613  1.0
  Ni  Ni404  1  0.96018133  0.90216178  0.16661613  1.0
  Ni  Ni405  1  0.12684800  0.06882844  0.06661613  1.0
  Ni  Ni406  1  0.12684800  0.40216178  0.06661613  1.0
  Ni  Ni407  1  0.12684800  0.73549511  0.06661613  1.0
  Ni  Ni408  1  0.46018133  0.06882844  0.06661613  1.0
  Ni  Ni409  1  0.46018133  0.40216178  0.06661613  1.0
  Ni  Ni410  1  0.46018133  0.73549511  0.06661613  1.0
  Ni  Ni411  1  0.79351466  0.06882844  0.06661613  1.0
  Ni  Ni412  1  0.79351466  0.40216178  0.06661613  1.0
  Ni  Ni413  1  0.79351467  0.73549511  0.06661613  1.0
  Ni  Ni414  1  0.17747556  0.23549511  0.16661613  1.0
  Ni  Ni415  1  0.17747556  0.56882844  0.16661613  1.0
  Ni  Ni416  1  0.17747556  0.90216178  0.16661613  1.0
  Ni  Ni417  1  0.51080889  0.23549511  0.16661613  1.0
  Ni  Ni418  1  0.51080889  0.56882844  0.16661613  1.0
  Ni  Ni419  1  0.51080889  0.90216178  0.16661613  1.0
  Ni  Ni420  1  0.84414222  0.23549511  0.16661613  1.0
  Ni  Ni421  1  0.84414222  0.56882844  0.16661613  1.0
  Ni  Ni422  1  0.84414222  0.90216178  0.16661613  1.0
  Ni  Ni423  1  0.01080889  0.06882844  0.06661613  1.0
  Ni  Ni424  1  0.01080889  0.40216178  0.06661613  1.0
  Ni  Ni425  1  0.01080889  0.73549511  0.06661613  1.0
  Ni  Ni426  1  0.34414222  0.06882844  0.06661613  1.0
  Ni  Ni427  1  0.34414222  0.40216178  0.06661613  1.0
  Ni  Ni428  1  0.34414222  0.73549511  0.06661613  1.0
  Ni  Ni429  1  0.67747556  0.06882844  0.06661613  1.0
  Ni  Ni430  1  0.67747556  0.40216178  0.06661613  1.0
  Ni  Ni431  1  0.67747556  0.73549511  0.06661613  1.0
  Sc  Sc432  1  0.18750000  0.27083333  0.20300733  1.0
  Sc  Sc433  1  0.18750000  0.60416667  0.20300733  1.0
  Sc  Sc434  1  0.18750000  0.93750000  0.20300733  1.0
  Sc  Sc435  1  0.52083333  0.27083333  0.20300733  1.0
  Sc  Sc436  1  0.52083333  0.60416667  0.20300733  1.0
  Sc  Sc437  1  0.52083333  0.93750000  0.20300733  1.0
  Sc  Sc438  1  0.85416667  0.27083333  0.20300733  1.0
  Sc  Sc439  1  0.85416667  0.60416667  0.20300733  1.0
  Sc  Sc440  1  0.85416667  0.93750000  0.20300733  1.0
  Sc  Sc441  1  0.02083333  0.10416667  0.30300733  1.0
  Sc  Sc442  1  0.02083333  0.43750000  0.30300733  1.0
  Sc  Sc443  1  0.02083333  0.77083333  0.30300733  1.0
  Sc  Sc444  1  0.35416667  0.10416667  0.30300733  1.0
  Sc  Sc445  1  0.35416667  0.43750000  0.30300733  1.0
  Sc  Sc446  1  0.35416667  0.77083333  0.30300733  1.0
  Sc  Sc447  1  0.68750000  0.10416667  0.30300733  1.0
  Sc  Sc448  1  0.68750000  0.43750000  0.30300733  1.0
  Sc  Sc449  1  0.68750000  0.77083333  0.30300733  1.0
  Sc  Sc450  1  0.27083333  0.18750000  0.35300733  1.0
  Sc  Sc451  1  0.27083333  0.52083333  0.35300733  1.0
  Sc  Sc452  1  0.27083333  0.85416667  0.35300733  1.0
  Sc  Sc453  1  0.60416667  0.18750000  0.35300733  1.0
  Sc  Sc454  1  0.60416667  0.52083333  0.35300733  1.0
  Sc  Sc455  1  0.60416667  0.85416667  0.35300733  1.0
  Sc  Sc456  1  0.93750000  0.18750000  0.35300733  1.0
  Sc  Sc457  1  0.93750000  0.52083333  0.35300733  1.0
  Sc  Sc458  1  0.93750000  0.85416667  0.35300733  1.0
  Sc  Sc459  1  0.10416667  0.02083333  0.25300733  1.0
  Sc  Sc460  1  0.10416667  0.35416667  0.25300733  1.0
  Sc  Sc461  1  0.10416667  0.68750000  0.25300733  1.0
  Sc  Sc462  1  0.43750000  0.02083333  0.25300733  1.0
  Sc  Sc463  1  0.43750000  0.35416667  0.25300733  1.0
  Sc  Sc464  1  0.43750000  0.68750000  0.25300733  1.0
  Sc  Sc465  1  0.77083333  0.02083333  0.25300733  1.0
  Sc  Sc466  1  0.77083333  0.35416667  0.25300733  1.0
  Sc  Sc467  1  0.77083333  0.68750000  0.25300733  1.0
  Sc  Sc468  1  0.02083333  0.27083333  0.30300733  1.0
  Sc  Sc469  1  0.02083333  0.60416667  0.30300733  1.0
  Sc  Sc470  1  0.02083333  0.93750000  0.30300733  1.0
  Sc  Sc471  1  0.35416667  0.27083333  0.30300733  1.0
  Sc  Sc472  1  0.35416667  0.60416667  0.30300733  1.0
  Sc  Sc473  1  0.35416667  0.93750000  0.30300733  1.0
  Sc  Sc474  1  0.68750000  0.27083333  0.30300733  1.0
  Sc  Sc475  1  0.68750000  0.60416667  0.30300733  1.0
  Sc  Sc476  1  0.68750000  0.93750000  0.30300733  1.0
  Sc  Sc477  1  0.18750000  0.10416667  0.20300733  1.0
  Sc  Sc478  1  0.18750000  0.43750000  0.20300733  1.0
  Sc  Sc479  1  0.18750000  0.77083333  0.20300733  1.0
  Sc  Sc480  1  0.52083333  0.10416667  0.20300733  1.0
  Sc  Sc481  1  0.52083333  0.43750000  0.20300733  1.0
  Sc  Sc482  1  0.52083333  0.77083333  0.20300733  1.0
  Sc  Sc483  1  0.85416667  0.10416667  0.20300733  1.0
  Sc  Sc484  1  0.85416667  0.43750000  0.20300733  1.0
  Sc  Sc485  1  0.85416667  0.77083333  0.20300733  1.0
  Sc  Sc486  1  0.18750000  0.27083333  0.30300733  1.0
  Sc  Sc487  1  0.18750000  0.60416667  0.30300733  1.0
  Sc  Sc488  1  0.18750000  0.93750000  0.30300733  1.0
  Sc  Sc489  1  0.52083333  0.27083333  0.30300733  1.0
  Sc  Sc490  1  0.52083333  0.60416667  0.30300733  1.0
  Sc  Sc491  1  0.52083333  0.93750000  0.30300733  1.0
  Sc  Sc492  1  0.85416667  0.27083333  0.30300733  1.0
  Sc  Sc493  1  0.85416667  0.60416667  0.30300733  1.0
  Sc  Sc494  1  0.85416667  0.93750000  0.30300733  1.0
  Sc  Sc495  1  0.02083333  0.10416667  0.20300733  1.0
  Sc  Sc496  1  0.02083333  0.43750000  0.20300733  1.0
  Sc  Sc497  1  0.02083333  0.77083333  0.20300733  1.0
  Sc  Sc498  1  0.35416667  0.10416667  0.20300733  1.0
  Sc  Sc499  1  0.35416667  0.43750000  0.20300733  1.0
  Sc  Sc500  1  0.35416667  0.77083333  0.20300733  1.0
  Sc  Sc501  1  0.68750000  0.10416667  0.20300733  1.0
  Sc  Sc502  1  0.68750000  0.43750000  0.20300733  1.0
  Sc  Sc503  1  0.68750000  0.77083333  0.20300733  1.0
  Sc  Sc504  1  0.01072658  0.17739325  0.39694328  1.0
  Sc  Sc505  1  0.01072658  0.51072658  0.39694328  1.0
  Sc  Sc506  1  0.01072658  0.84405992  0.39694328  1.0
  Sc  Sc507  1  0.34405992  0.17739325  0.39694328  1.0
  Sc  Sc508  1  0.34405992  0.51072658  0.39694328  1.0
  Sc  Sc509  1  0.34405992  0.84405992  0.39694328  1.0
  Sc  Sc510  1  0.67739325  0.17739325  0.39694328  1.0
  Sc  Sc511  1  0.67739325  0.51072658  0.39694328  1.0
  Sc  Sc512  1  0.67739325  0.84405992  0.39694328  1.0
  Sc  Sc513  1  0.17739325  0.01072658  0.29694328  1.0
  Sc  Sc514  1  0.17739325  0.34405992  0.29694328  1.0
  Sc  Sc515  1  0.17739325  0.67739325  0.29694328  1.0
  Sc  Sc516  1  0.51072658  0.01072658  0.29694328  1.0
  Sc  Sc517  1  0.51072658  0.34405992  0.29694328  1.0
  Sc  Sc518  1  0.51072658  0.67739325  0.29694328  1.0
  Sc  Sc519  1  0.84405992  0.01072658  0.29694328  1.0
  Sc  Sc520  1  0.84405992  0.34405992  0.29694328  1.0
  Sc  Sc521  1  0.84405992  0.67739325  0.29694328  1.0
  Sc  Sc522  1  0.07260675  0.23927342  0.23407138  1.0
  Sc  Sc523  1  0.07260675  0.57260675  0.23407138  1.0
  Sc  Sc524  1  0.07260675  0.90594008  0.23407138  1.0
  Sc  Sc525  1  0.40594008  0.23927342  0.23407138  1.0
  Sc  Sc526  1  0.40594008  0.57260675  0.23407138  1.0
  Sc  Sc527  1  0.40594008  0.90594008  0.23407138  1.0
  Sc  Sc528  1  0.73927342  0.23927342  0.23407138  1.0
  Sc  Sc529  1  0.73927342  0.57260675  0.23407138  1.0
  Sc  Sc530  1  0.73927342  0.90594008  0.23407138  1.0
  Sc  Sc531  1  0.23927342  0.07260675  0.33407138  1.0
  Sc  Sc532  1  0.23927342  0.40594008  0.33407138  1.0
  Sc  Sc533  1  0.23927342  0.73927342  0.33407138  1.0
  Sc  Sc534  1  0.57260675  0.07260675  0.33407138  1.0
  Sc  Sc535  1  0.57260675  0.40594008  0.33407138  1.0
  Sc  Sc536  1  0.57260675  0.73927342  0.33407138  1.0
  Sc  Sc537  1  0.90594008  0.07260675  0.33407138  1.0
  Sc  Sc538  1  0.90594008  0.40594008  0.33407138  1.0
  Sc  Sc539  1  0.90594008  0.73927342  0.33407138  1.0
  Sc  Sc540  1  0.13448692  0.17739325  0.39694328  1.0
  Sc  Sc541  1  0.13448692  0.51072658  0.39694328  1.0
  Sc  Sc542  1  0.13448692  0.84405992  0.39694328  1.0
  Sc  Sc543  1  0.46782025  0.17739325  0.39694328  1.0
  Sc  Sc544  1  0.46782025  0.51072658  0.39694328  1.0
  Sc  Sc545  1  0.46782025  0.84405992  0.39694328  1.0
  Sc  Sc546  1  0.80115358  0.17739325  0.39694328  1.0
  Sc  Sc547  1  0.80115358  0.51072658  0.39694328  1.0
  Sc  Sc548  1  0.80115358  0.84405992  0.39694328  1.0
  Sc  Sc549  1  0.30115358  0.01072658  0.29694328  1.0
  Sc  Sc550  1  0.30115358  0.34405992  0.29694328  1.0
  Sc  Sc551  1  0.30115358  0.67739325  0.29694328  1.0
  Sc  Sc552  1  0.63448692  0.01072658  0.29694328  1.0
  Sc  Sc553  1  0.63448692  0.34405992  0.29694328  1.0
  Sc  Sc554  1  0.63448692  0.67739325  0.29694328  1.0
  Sc  Sc555  1  0.96782025  0.01072658  0.29694328  1.0
  Sc  Sc556  1  0.96782025  0.34405992  0.29694328  1.0
  Sc  Sc557  1  0.96782025  0.67739325  0.29694328  1.0
  Sc  Sc558  1  0.07260675  0.23927342  0.35981518  1.0
  Sc  Sc559  1  0.07260675  0.57260675  0.35981518  1.0
  Sc  Sc560  1  0.07260675  0.90594008  0.35981518  1.0
  Sc  Sc561  1  0.40594008  0.23927342  0.35981518  1.0
  Sc  Sc562  1  0.40594008  0.57260675  0.35981518  1.0
  Sc  Sc563  1  0.40594008  0.90594008  0.35981518  1.0
  Sc  Sc564  1  0.73927342  0.23927342  0.35981518  1.0
  Sc  Sc565  1  0.73927342  0.57260675  0.35981518  1.0
  Sc  Sc566  1  0.73927342  0.90594008  0.35981518  1.0
  Sc  Sc567  1  0.23927342  0.07260675  0.25981518  1.0
  Sc  Sc568  1  0.23927342  0.40594008  0.25981518  1.0
  Sc  Sc569  1  0.23927342  0.73927342  0.25981518  1.0
  Sc  Sc570  1  0.57260675  0.07260675  0.25981518  1.0
  Sc  Sc571  1  0.57260675  0.40594008  0.25981518  1.0
  Sc  Sc572  1  0.57260675  0.73927342  0.25981518  1.0
  Sc  Sc573  1  0.90594008  0.07260675  0.25981518  1.0
  Sc  Sc574  1  0.90594008  0.40594008  0.25981518  1.0
  Sc  Sc575  1  0.90594008  0.73927342  0.25981518  1.0
  Sc  Sc576  1  0.28217975  0.23927342  0.23407138  1.0
  Sc  Sc577  1  0.28217975  0.57260675  0.23407138  1.0
  Sc  Sc578  1  0.28217975  0.90594008  0.23407138  1.0
  Sc  Sc579  1  0.61551308  0.23927342  0.23407138  1.0
  Sc  Sc580  1  0.61551308  0.57260675  0.23407138  1.0
  Sc  Sc581  1  0.61551308  0.90594008  0.23407138  1.0
  Sc  Sc582  1  0.94884642  0.23927342  0.23407138  1.0
  Sc  Sc583  1  0.94884642  0.57260675  0.23407138  1.0
  Sc  Sc584  1  0.94884642  0.90594008  0.23407138  1.0
  Sc  Sc585  1  0.11551308  0.07260675  0.33407138  1.0
  Sc  Sc586  1  0.11551308  0.40594008  0.33407138  1.0
  Sc  Sc587  1  0.11551308  0.73927342  0.33407138  1.0
  Sc  Sc588  1  0.44884642  0.07260675  0.33407138  1.0
  Sc  Sc589  1  0.44884642  0.40594008  0.33407138  1.0
  Sc  Sc590  1  0.44884642  0.73927342  0.33407138  1.0
  Sc  Sc591  1  0.78217975  0.07260675  0.33407138  1.0
  Sc  Sc592  1  0.78217975  0.40594008  0.33407138  1.0
  Sc  Sc593  1  0.78217975  0.73927342  0.33407138  1.0
  Sc  Sc594  1  0.01072658  0.17739325  0.27119948  1.0
  Sc  Sc595  1  0.01072658  0.51072658  0.27119948  1.0
  Sc  Sc596  1  0.01072658  0.84405992  0.27119948  1.0
  Sc  Sc597  1  0.34405992  0.17739325  0.27119948  1.0
  Sc  Sc598  1  0.34405992  0.51072658  0.27119948  1.0
  Sc  Sc599  1  0.34405992  0.84405992  0.27119948  1.0
  Sc  Sc600  1  0.67739325  0.17739325  0.27119948  1.0
  Sc  Sc601  1  0.67739325  0.51072658  0.27119948  1.0
  Sc  Sc602  1  0.67739325  0.84405992  0.27119948  1.0
  Sc  Sc603  1  0.17739325  0.01072658  0.37119948  1.0
  Sc  Sc604  1  0.17739325  0.34405992  0.37119948  1.0
  Sc  Sc605  1  0.17739325  0.67739325  0.37119948  1.0
  Sc  Sc606  1  0.51072658  0.01072658  0.37119948  1.0
  Sc  Sc607  1  0.51072658  0.34405992  0.37119948  1.0
  Sc  Sc608  1  0.51072658  0.67739325  0.37119948  1.0
  Sc  Sc609  1  0.84405992  0.01072658  0.37119948  1.0
  Sc  Sc610  1  0.84405992  0.34405992  0.37119948  1.0
  Sc  Sc611  1  0.84405992  0.67739325  0.37119948  1.0
  Sc  Sc612  1  0.07384642  0.19760675  0.30907138  1.0
  Sc  Sc613  1  0.07384642  0.53094008  0.30907138  1.0
  Sc  Sc614  1  0.07384642  0.86427342  0.30907138  1.0
  Sc  Sc615  1  0.40717975  0.19760675  0.30907138  1.0
  Sc  Sc616  1  0.40717975  0.53094008  0.30907138  1.0
  Sc  Sc617  1  0.40717975  0.86427342  0.30907138  1.0
  Sc  Sc618  1  0.74051308  0.19760675  0.30907138  1.0
  Sc  Sc619  1  0.74051308  0.53094008  0.30907138  1.0
  Sc  Sc620  1  0.74051308  0.86427342  0.30907138  1.0
  Sc  Sc621  1  0.24051308  0.03094008  0.20907138  1.0
  Sc  Sc622  1  0.24051308  0.36427342  0.20907138  1.0
  Sc  Sc623  1  0.24051308  0.69760675  0.20907138  1.0
  Sc  Sc624  1  0.57384642  0.03094008  0.20907138  1.0
  Sc  Sc625  1  0.57384642  0.36427342  0.20907138  1.0
  Sc  Sc626  1  0.57384642  0.69760675  0.20907138  1.0
  Sc  Sc627  1  0.90717975  0.03094008  0.20907138  1.0
  Sc  Sc628  1  0.90717975  0.36427342  0.20907138  1.0
  Sc  Sc629  1  0.90717975  0.69760675  0.20907138  1.0
  Sc  Sc630  1  0.09282025  0.30239325  0.37194328  1.0
  Sc  Sc631  1  0.09282025  0.63572658  0.37194328  1.0
  Sc  Sc632  1  0.09282025  0.96905992  0.37194328  1.0
  Sc  Sc633  1  0.42615358  0.30239325  0.37194328  1.0
  Sc  Sc634  1  0.42615358  0.63572658  0.37194328  1.0
  Sc  Sc635  1  0.42615358  0.96905992  0.37194328  1.0
  Sc  Sc636  1  0.75948692  0.30239325  0.37194328  1.0
  Sc  Sc637  1  0.75948692  0.63572658  0.37194328  1.0
  Sc  Sc638  1  0.75948692  0.96905992  0.37194328  1.0
  Sc  Sc639  1  0.25948692  0.13572658  0.27194328  1.0
  Sc  Sc640  1  0.25948692  0.46905992  0.27194328  1.0
  Sc  Sc641  1  0.25948692  0.80239325  0.27194328  1.0
  Sc  Sc642  1  0.59282025  0.13572658  0.27194328  1.0
  Sc  Sc643  1  0.59282025  0.46905992  0.27194328  1.0
  Sc  Sc644  1  0.59282025  0.80239325  0.27194328  1.0
  Sc  Sc645  1  0.92615358  0.13572658  0.27194328  1.0
  Sc  Sc646  1  0.92615358  0.46905992  0.27194328  1.0
  Sc  Sc647  1  0.92615358  0.80239325  0.27194328  1.0
  Sc  Sc648  1  0.19760675  0.19760675  0.30907138  1.0
  Sc  Sc649  1  0.19760675  0.53094008  0.30907138  1.0
  Sc  Sc650  1  0.19760675  0.86427342  0.30907138  1.0
  Sc  Sc651  1  0.53094008  0.19760675  0.30907138  1.0
  Sc  Sc652  1  0.53094008  0.53094008  0.30907138  1.0
  Sc  Sc653  1  0.53094008  0.86427342  0.30907138  1.0
  Sc  Sc654  1  0.86427342  0.19760675  0.30907138  1.0
  Sc  Sc655  1  0.86427342  0.53094008  0.30907138  1.0
  Sc  Sc656  1  0.86427342  0.86427342  0.30907138  1.0
  Sc  Sc657  1  0.03094008  0.03094008  0.20907138  1.0
  Sc  Sc658  1  0.03094008  0.36427342  0.20907138  1.0
  Sc  Sc659  1  0.03094008  0.69760675  0.20907138  1.0
  Sc  Sc660  1  0.36427342  0.03094008  0.20907138  1.0
  Sc  Sc661  1  0.36427342  0.36427342  0.20907138  1.0
  Sc  Sc662  1  0.36427342  0.69760675  0.20907138  1.0
  Sc  Sc663  1  0.69760675  0.03094008  0.20907138  1.0
  Sc  Sc664  1  0.69760675  0.36427342  0.20907138  1.0
  Sc  Sc665  1  0.69760675  0.69760675  0.20907138  1.0
  Sc  Sc666  1  0.30239325  0.30239325  0.24619948  1.0
  Sc  Sc667  1  0.30239325  0.63572658  0.24619948  1.0
  Sc  Sc668  1  0.30239325  0.96905992  0.24619948  1.0
  Sc  Sc669  1  0.63572658  0.30239325  0.24619948  1.0
  Sc  Sc670  1  0.63572658  0.63572658  0.24619948  1.0
  Sc  Sc671  1  0.63572658  0.96905992  0.24619948  1.0
  Sc  Sc672  1  0.96905992  0.30239325  0.24619948  1.0
  Sc  Sc673  1  0.96905992  0.63572658  0.24619948  1.0
  Sc  Sc674  1  0.96905992  0.96905992  0.24619948  1.0
  Sc  Sc675  1  0.13572658  0.13572658  0.34619948  1.0
  Sc  Sc676  1  0.13572658  0.46905992  0.34619948  1.0
  Sc  Sc677  1  0.13572658  0.80239325  0.34619948  1.0
  Sc  Sc678  1  0.46905992  0.13572658  0.34619948  1.0
  Sc  Sc679  1  0.46905992  0.46905992  0.34619948  1.0
  Sc  Sc680  1  0.46905992  0.80239325  0.34619948  1.0
  Sc  Sc681  1  0.80239325  0.13572658  0.34619948  1.0
  Sc  Sc682  1  0.80239325  0.46905992  0.34619948  1.0
  Sc  Sc683  1  0.80239325  0.80239325  0.34619948  1.0
  Sc  Sc684  1  0.30239325  0.30239325  0.37194328  1.0
  Sc  Sc685  1  0.30239325  0.63572658  0.37194328  1.0
  Sc  Sc686  1  0.30239325  0.96905992  0.37194328  1.0
  Sc  Sc687  1  0.63572658  0.30239325  0.37194328  1.0
  Sc  Sc688  1  0.63572658  0.63572658  0.37194328  1.0
  Sc  Sc689  1  0.63572658  0.96905992  0.37194328  1.0
  Sc  Sc690  1  0.96905992  0.30239325  0.37194328  1.0
  Sc  Sc691  1  0.96905992  0.63572658  0.37194328  1.0
  Sc  Sc692  1  0.96905992  0.96905992  0.37194328  1.0
  Sc  Sc693  1  0.13572658  0.13572658  0.27194328  1.0
  Sc  Sc694  1  0.13572658  0.46905992  0.27194328  1.0
  Sc  Sc695  1  0.13572658  0.80239325  0.27194328  1.0
  Sc  Sc696  1  0.46905992  0.13572658  0.27194328  1.0
  Sc  Sc697  1  0.46905992  0.46905992  0.27194328  1.0
  Sc  Sc698  1  0.46905992  0.80239325  0.27194328  1.0
  Sc  Sc699  1  0.80239325  0.13572658  0.27194328  1.0
  Sc  Sc700  1  0.80239325  0.46905992  0.27194328  1.0
  Sc  Sc701  1  0.80239325  0.80239325  0.27194328  1.0
  Sc  Sc702  1  0.19760675  0.19760675  0.23481518  1.0
  Sc  Sc703  1  0.19760675  0.53094008  0.23481518  1.0
  Sc  Sc704  1  0.19760675  0.86427342  0.23481518  1.0
  Sc  Sc705  1  0.53094008  0.19760675  0.23481518  1.0
  Sc  Sc706  1  0.53094008  0.53094008  0.23481518  1.0
  Sc  Sc707  1  0.53094008  0.86427342  0.23481518  1.0
  Sc  Sc708  1  0.86427342  0.19760675  0.23481518  1.0
  Sc  Sc709  1  0.86427342  0.53094008  0.23481518  1.0
  Sc  Sc710  1  0.86427342  0.86427342  0.23481518  1.0
  Sc  Sc711  1  0.03094008  0.03094008  0.33481518  1.0
  Sc  Sc712  1  0.03094008  0.36427342  0.33481518  1.0
  Sc  Sc713  1  0.03094008  0.69760675  0.33481518  1.0
  Sc  Sc714  1  0.36427342  0.03094008  0.33481518  1.0
  Sc  Sc715  1  0.36427342  0.36427342  0.33481518  1.0
  Sc  Sc716  1  0.36427342  0.69760675  0.33481518  1.0
  Sc  Sc717  1  0.69760675  0.03094008  0.33481518  1.0
  Sc  Sc718  1  0.69760675  0.36427342  0.33481518  1.0
  Sc  Sc719  1  0.69760675  0.69760675  0.33481518  1.0
  Ni  Ni720  1  0.08148534  0.30617155  0.30902200  1.0
  Ni  Ni721  1  0.08148534  0.63950489  0.30902200  1.0
  Ni  Ni722  1  0.08148534  0.97283822  0.30902200  1.0
  Ni  Ni723  1  0.41481867  0.30617155  0.30902200  1.0
  Ni  Ni724  1  0.41481867  0.63950489  0.30902200  1.0
  Ni  Ni725  1  0.41481867  0.97283822  0.30902200  1.0
  Ni  Ni726  1  0.74815200  0.30617155  0.30902200  1.0
  Ni  Ni727  1  0.74815200  0.63950489  0.30902200  1.0
  Ni  Ni728  1  0.74815200  0.97283822  0.30902200  1.0
  Ni  Ni729  1  0.24815200  0.13950489  0.20902200  1.0
  Ni  Ni730  1  0.24815200  0.47283822  0.20902200  1.0
  Ni  Ni731  1  0.24815200  0.80617155  0.20902200  1.0
  Ni  Ni732  1  0.58148533  0.13950489  0.20902200  1.0
  Ni  Ni733  1  0.58148533  0.47283822  0.20902200  1.0
  Ni  Ni734  1  0.58148534  0.80617155  0.20902200  1.0
  Ni  Ni735  1  0.91481867  0.13950489  0.20902200  1.0
  Ni  Ni736  1  0.91481867  0.47283822  0.20902200  1.0
  Ni  Ni737  1  0.91481867  0.80617155  0.20902200  1.0
  Ni  Ni738  1  0.13950489  0.24815200  0.27421026  1.0
  Ni  Ni739  1  0.13950489  0.58148533  0.27421026  1.0
  Ni  Ni740  1  0.13950489  0.91481867  0.27421026  1.0
  Ni  Ni741  1  0.47283822  0.24815200  0.27421026  1.0
  Ni  Ni742  1  0.47283822  0.58148533  0.27421026  1.0
  Ni  Ni743  1  0.47283822  0.91481867  0.27421026  1.0
  Ni  Ni744  1  0.80617156  0.24815200  0.27421026  1.0
  Ni  Ni745  1  0.80617156  0.58148533  0.27421026  1.0
  Ni  Ni746  1  0.80617156  0.91481867  0.27421026  1.0
  Ni  Ni747  1  0.30617156  0.08148533  0.37421026  1.0
  Ni  Ni748  1  0.30617156  0.41481867  0.37421026  1.0
  Ni  Ni749  1  0.30617156  0.74815200  0.37421026  1.0
  Ni  Ni750  1  0.63950489  0.08148533  0.37421026  1.0
  Ni  Ni751  1  0.63950489  0.41481867  0.37421026  1.0
  Ni  Ni752  1  0.63950489  0.74815200  0.37421026  1.0
  Ni  Ni753  1  0.97283822  0.08148533  0.37421026  1.0
  Ni  Ni754  1  0.97283822  0.41481867  0.37421026  1.0
  Ni  Ni755  1  0.97283822  0.74815200  0.37421026  1.0
  Ni  Ni756  1  0.19752445  0.30617155  0.23939853  1.0
  Ni  Ni757  1  0.19752445  0.63950489  0.23939853  1.0
  Ni  Ni758  1  0.19752445  0.97283822  0.23939853  1.0
  Ni  Ni759  1  0.53085778  0.30617155  0.23939853  1.0
  Ni  Ni760  1  0.53085778  0.63950489  0.23939853  1.0
  Ni  Ni761  1  0.53085778  0.97283822  0.23939853  1.0
  Ni  Ni762  1  0.86419111  0.30617155  0.23939853  1.0
  Ni  Ni763  1  0.86419111  0.63950489  0.23939853  1.0
  Ni  Ni764  1  0.86419111  0.97283822  0.23939853  1.0
  Ni  Ni765  1  0.03085778  0.13950489  0.33939853  1.0
  Ni  Ni766  1  0.03085778  0.47283822  0.33939853  1.0
  Ni  Ni767  1  0.03085778  0.80617155  0.33939853  1.0
  Ni  Ni768  1  0.36419111  0.13950489  0.33939853  1.0
  Ni  Ni769  1  0.36419111  0.47283822  0.33939853  1.0
  Ni  Ni770  1  0.36419111  0.80617155  0.33939853  1.0
  Ni  Ni771  1  0.69752444  0.13950489  0.33939853  1.0
  Ni  Ni772  1  0.69752444  0.47283822  0.33939853  1.0
  Ni  Ni773  1  0.69752444  0.80617155  0.33939853  1.0
  Ni  Ni774  1  0.08148534  0.30617155  0.23939853  1.0
  Ni  Ni775  1  0.08148533  0.63950489  0.23939853  1.0
  Ni  Ni776  1  0.08148533  0.97283822  0.23939853  1.0
  Ni  Ni777  1  0.41481867  0.30617155  0.23939853  1.0
  Ni  Ni778  1  0.41481867  0.63950489  0.23939853  1.0
  Ni  Ni779  1  0.41481867  0.97283822  0.23939853  1.0
  Ni  Ni780  1  0.74815200  0.30617155  0.23939853  1.0
  Ni  Ni781  1  0.74815200  0.63950489  0.23939853  1.0
  Ni  Ni782  1  0.74815200  0.97283822  0.23939853  1.0
  Ni  Ni783  1  0.24815200  0.13950489  0.33939853  1.0
  Ni  Ni784  1  0.24815200  0.47283822  0.33939853  1.0
  Ni  Ni785  1  0.24815200  0.80617155  0.33939853  1.0
  Ni  Ni786  1  0.58148533  0.13950489  0.33939853  1.0
  Ni  Ni787  1  0.58148533  0.47283822  0.33939853  1.0
  Ni  Ni788  1  0.58148533  0.80617155  0.33939853  1.0
  Ni  Ni789  1  0.91481867  0.13950489  0.33939853  1.0
  Ni  Ni790  1  0.91481867  0.47283822  0.33939853  1.0
  Ni  Ni791  1  0.91481867  0.80617155  0.33939853  1.0
  Ni  Ni792  1  0.29351467  0.23549511  0.29699267  1.0
  Ni  Ni793  1  0.29351467  0.56882844  0.29699267  1.0
  Ni  Ni794  1  0.29351467  0.90216178  0.29699267  1.0
  Ni  Ni795  1  0.62684800  0.23549511  0.29699267  1.0
  Ni  Ni796  1  0.62684800  0.56882844  0.29699267  1.0
  Ni  Ni797  1  0.62684800  0.90216178  0.29699267  1.0
  Ni  Ni798  1  0.96018133  0.23549511  0.29699267  1.0
  Ni  Ni799  1  0.96018133  0.56882844  0.29699267  1.0
  Ni  Ni800  1  0.96018133  0.90216178  0.29699267  1.0
  Ni  Ni801  1  0.12684800  0.06882844  0.39699267  1.0
  Ni  Ni802  1  0.12684800  0.40216178  0.39699267  1.0
  Ni  Ni803  1  0.12684800  0.73549511  0.39699267  1.0
  Ni  Ni804  1  0.46018133  0.06882844  0.39699267  1.0
  Ni  Ni805  1  0.46018133  0.40216178  0.39699267  1.0
  Ni  Ni806  1  0.46018133  0.73549511  0.39699267  1.0
  Ni  Ni807  1  0.79351466  0.06882844  0.39699267  1.0
  Ni  Ni808  1  0.79351466  0.40216178  0.39699267  1.0
  Ni  Ni809  1  0.79351467  0.73549511  0.39699267  1.0
  Ni  Ni810  1  0.23549511  0.29351467  0.33180440  1.0
  Ni  Ni811  1  0.23549511  0.62684800  0.33180440  1.0
  Ni  Ni812  1  0.23549511  0.96018133  0.33180440  1.0
  Ni  Ni813  1  0.56882844  0.29351467  0.33180440  1.0
  Ni  Ni814  1  0.56882844  0.62684800  0.33180440  1.0
  Ni  Ni815  1  0.56882844  0.96018133  0.33180440  1.0
  Ni  Ni816  1  0.90216178  0.29351467  0.33180440  1.0
  Ni  Ni817  1  0.90216178  0.62684800  0.33180440  1.0
  Ni  Ni818  1  0.90216178  0.96018133  0.33180440  1.0
  Ni  Ni819  1  0.06882844  0.12684800  0.23180440  1.0
  Ni  Ni820  1  0.06882844  0.46018133  0.23180440  1.0
  Ni  Ni821  1  0.06882844  0.79351467  0.23180440  1.0
  Ni  Ni822  1  0.40216178  0.12684800  0.23180440  1.0
  Ni  Ni823  1  0.40216178  0.46018133  0.23180440  1.0
  Ni  Ni824  1  0.40216178  0.79351467  0.23180440  1.0
  Ni  Ni825  1  0.73549511  0.12684800  0.23180440  1.0
  Ni  Ni826  1  0.73549511  0.46018133  0.23180440  1.0
  Ni  Ni827  1  0.73549511  0.79351467  0.23180440  1.0
  Ni  Ni828  1  0.29351467  0.23549511  0.36661613  1.0
  Ni  Ni829  1  0.29351467  0.56882844  0.36661613  1.0
  Ni  Ni830  1  0.29351467  0.90216178  0.36661613  1.0
  Ni  Ni831  1  0.62684800  0.23549511  0.36661613  1.0
  Ni  Ni832  1  0.62684800  0.56882844  0.36661613  1.0
  Ni  Ni833  1  0.62684800  0.90216178  0.36661613  1.0
  Ni  Ni834  1  0.96018133  0.23549511  0.36661613  1.0
  Ni  Ni835  1  0.96018133  0.56882844  0.36661613  1.0
  Ni  Ni836  1  0.96018133  0.90216178  0.36661613  1.0
  Ni  Ni837  1  0.12684800  0.06882844  0.26661613  1.0
  Ni  Ni838  1  0.12684800  0.40216178  0.26661613  1.0
  Ni  Ni839  1  0.12684800  0.73549511  0.26661613  1.0
  Ni  Ni840  1  0.46018133  0.06882844  0.26661613  1.0
  Ni  Ni841  1  0.46018133  0.40216178  0.26661613  1.0
  Ni  Ni842  1  0.46018133  0.73549511  0.26661613  1.0
  Ni  Ni843  1  0.79351466  0.06882844  0.26661613  1.0
  Ni  Ni844  1  0.79351466  0.40216178  0.26661613  1.0
  Ni  Ni845  1  0.79351467  0.73549511  0.26661613  1.0
  Ni  Ni846  1  0.17747556  0.23549511  0.36661613  1.0
  Ni  Ni847  1  0.17747556  0.56882844  0.36661613  1.0
  Ni  Ni848  1  0.17747556  0.90216178  0.36661613  1.0
  Ni  Ni849  1  0.51080889  0.23549511  0.36661613  1.0
  Ni  Ni850  1  0.51080889  0.56882844  0.36661613  1.0
  Ni  Ni851  1  0.51080889  0.90216178  0.36661613  1.0
  Ni  Ni852  1  0.84414222  0.23549511  0.36661613  1.0
  Ni  Ni853  1  0.84414222  0.56882844  0.36661613  1.0
  Ni  Ni854  1  0.84414222  0.90216178  0.36661613  1.0
  Ni  Ni855  1  0.01080889  0.06882844  0.26661613  1.0
  Ni  Ni856  1  0.01080889  0.40216178  0.26661613  1.0
  Ni  Ni857  1  0.01080889  0.73549511  0.26661613  1.0
  Ni  Ni858  1  0.34414222  0.06882844  0.26661613  1.0
  Ni  Ni859  1  0.34414222  0.40216178  0.26661613  1.0
  Ni  Ni860  1  0.34414222  0.73549511  0.26661613  1.0
  Ni  Ni861  1  0.67747556  0.06882844  0.26661613  1.0
  Ni  Ni862  1  0.67747556  0.40216178  0.26661613  1.0
  Ni  Ni863  1  0.67747556  0.73549511  0.26661613  1.0
