# generated using pymatgen
data_Sc2Ni7
_symmetry_space_group_name_H-M   'P 1'
_cell_length_a   37.86659150
_cell_length_b   72.41060254
_cell_length_c   28.62445260
_cell_angle_alpha   84.32837960
_cell_angle_beta   79.10660535
_cell_angle_gamma   79.23593355
_symmetry_Int_Tables_number   1
_chemical_formula_structural   Sc2Ni7
_chemical_formula_sum   'Sc576 Ni2016'
_cell_volume   75551.82969255
_cell_formula_units_Z   288
loop_
 _symmetry_equiv_pos_site_id
 _symmetry_equiv_pos_as_xyz
  1  'x, y, z'
loop_
 _atom_site_type_symbol
 _atom_site_label
 _atom_site_symmetry_multiplicity
 _atom_site_fract_x
 _atom_site_fract_y
 _atom_site_fract_z
 _atom_site_occupancy
  Ni  Ni0  1  0.10876040  0.33333333  0.89123960  1.0
  Ni  Ni1  1  0.10876040  0.66666667  0.89123960  1.0
  Ni  Ni2  1  0.10876040  0.00000000  0.89123960  1.0
  Ni  Ni3  1  0.44209373  0.33333333  0.89123960  1.0
  Ni  Ni4  1  0.44209373  0.66666667  0.89123960  1.0
  Ni  Ni5  1  0.44209373  0.00000000  0.89123960  1.0
  Ni  Ni6  1  0.77542706  0.33333333  0.89123960  1.0
  Ni  Ni7  1  0.77542706  0.66666667  0.89123960  1.0
  Ni  Ni8  1  0.77542706  0.00000000  0.89123960  1.0
  Ni  Ni9  1  0.21987151  0.00000000  0.94679516  1.0
  Ni  Ni10  1  0.21987151  0.33333333  0.94679516  1.0
  Ni  Ni11  1  0.21987151  0.66666667  0.94679516  1.0
  Ni  Ni12  1  0.55320484  0.00000000  0.94679516  1.0
  Ni  Ni13  1  0.55320484  0.33333333  0.94679516  1.0
  Ni  Ni14  1  0.55320484  0.66666667  0.94679516  1.0
  Ni  Ni15  1  0.88653818  0.00000000  0.94679516  1.0
  Ni  Ni16  1  0.88653818  0.33333333  0.94679516  1.0
  Ni  Ni17  1  0.88653818  0.66666667  0.94679516  1.0
  Ni  Ni18  1  0.27542706  0.16666667  0.97457294  1.0
  Ni  Ni19  1  0.27542706  0.50000000  0.97457294  1.0
  Ni  Ni20  1  0.27542706  0.83333333  0.97457294  1.0
  Ni  Ni21  1  0.60876040  0.16666667  0.97457294  1.0
  Ni  Ni22  1  0.60876040  0.50000000  0.97457294  1.0
  Ni  Ni23  1  0.60876040  0.83333333  0.97457294  1.0
  Ni  Ni24  1  0.94209373  0.16666667  0.97457294  1.0
  Ni  Ni25  1  0.94209373  0.50000000  0.97457294  1.0
  Ni  Ni26  1  0.94209373  0.83333333  0.97457294  1.0
  Ni  Ni27  1  0.16431595  0.16666667  0.91901738  1.0
  Ni  Ni28  1  0.16431595  0.50000000  0.91901738  1.0
  Ni  Ni29  1  0.16431595  0.83333333  0.91901738  1.0
  Ni  Ni30  1  0.49764929  0.16666667  0.91901738  1.0
  Ni  Ni31  1  0.49764929  0.50000000  0.91901738  1.0
  Ni  Ni32  1  0.49764929  0.83333333  0.91901738  1.0
  Ni  Ni33  1  0.83098262  0.16666667  0.91901738  1.0
  Ni  Ni34  1  0.83098262  0.50000000  0.91901738  1.0
  Ni  Ni35  1  0.83098262  0.83333333  0.91901738  1.0
  Ni  Ni36  1  0.22913751  0.25000000  0.92366049  1.0
  Ni  Ni37  1  0.22913751  0.58333333  0.92366049  1.0
  Ni  Ni38  1  0.22913751  0.91666667  0.92366049  1.0
  Ni  Ni39  1  0.56247084  0.25000000  0.92366049  1.0
  Ni  Ni40  1  0.56247084  0.58333333  0.92366049  1.0
  Ni  Ni41  1  0.56247084  0.91666667  0.92366049  1.0
  Ni  Ni42  1  0.89580418  0.25000000  0.92366049  1.0
  Ni  Ni43  1  0.89580418  0.58333333  0.92366049  1.0
  Ni  Ni44  1  0.89580418  0.91666667  0.92366049  1.0
  Ni  Ni45  1  0.00691529  0.25000000  0.97921605  1.0
  Ni  Ni46  1  0.00691529  0.58333333  0.97921605  1.0
  Ni  Ni47  1  0.00691529  0.91666667  0.97921605  1.0
  Ni  Ni48  1  0.34024862  0.25000000  0.97921605  1.0
  Ni  Ni49  1  0.34024862  0.58333333  0.97921605  1.0
  Ni  Ni50  1  0.34024862  0.91666667  0.97921605  1.0
  Ni  Ni51  1  0.67358195  0.25000000  0.97921605  1.0
  Ni  Ni52  1  0.67358195  0.58333333  0.97921605  1.0
  Ni  Ni53  1  0.67358195  0.91666667  0.97921605  1.0
  Ni  Ni54  1  0.11802640  0.25000000  0.95140794  1.0
  Ni  Ni55  1  0.11802640  0.58333333  0.95140794  1.0
  Ni  Ni56  1  0.11802640  0.91666667  0.95140794  1.0
  Ni  Ni57  1  0.45135973  0.25000000  0.95140794  1.0
  Ni  Ni58  1  0.45135973  0.58333333  0.95140794  1.0
  Ni  Ni59  1  0.45135973  0.91666667  0.95140794  1.0
  Ni  Ni60  1  0.78469306  0.25000000  0.95140794  1.0
  Ni  Ni61  1  0.78469306  0.58333333  0.95140794  1.0
  Ni  Ni62  1  0.78469306  0.91666667  0.95140794  1.0
  Ni  Ni63  1  0.00691529  0.25000000  0.89585238  1.0
  Ni  Ni64  1  0.00691529  0.58333333  0.89585238  1.0
  Ni  Ni65  1  0.00691529  0.91666667  0.89585238  1.0
  Ni  Ni66  1  0.34024862  0.25000000  0.89585238  1.0
  Ni  Ni67  1  0.34024862  0.58333333  0.89585238  1.0
  Ni  Ni68  1  0.34024862  0.91666667  0.89585238  1.0
  Ni  Ni69  1  0.67358195  0.25000000  0.89585238  1.0
  Ni  Ni70  1  0.67358195  0.58333333  0.89585238  1.0
  Ni  Ni71  1  0.67358195  0.91666667  0.89585238  1.0
  Ni  Ni72  1  0.17356173  0.25000000  0.89587260  1.0
  Ni  Ni73  1  0.17356173  0.58333333  0.89587260  1.0
  Ni  Ni74  1  0.17356173  0.91666667  0.89587260  1.0
  Ni  Ni75  1  0.50689506  0.25000000  0.89587260  1.0
  Ni  Ni76  1  0.50689506  0.58333333  0.89587260  1.0
  Ni  Ni77  1  0.50689506  0.91666667  0.89587260  1.0
  Ni  Ni78  1  0.84022840  0.25000000  0.89587260  1.0
  Ni  Ni79  1  0.84022840  0.58333333  0.89587260  1.0
  Ni  Ni80  1  0.84022840  0.91666667  0.89587260  1.0
  Ni  Ni81  1  0.28467284  0.25000000  0.95142816  1.0
  Ni  Ni82  1  0.28467284  0.58333333  0.95142816  1.0
  Ni  Ni83  1  0.28467284  0.91666667  0.95142816  1.0
  Ni  Ni84  1  0.61800618  0.25000000  0.95142816  1.0
  Ni  Ni85  1  0.61800618  0.58333333  0.95142816  1.0
  Ni  Ni86  1  0.61800618  0.91666667  0.95142816  1.0
  Ni  Ni87  1  0.95133951  0.25000000  0.95142816  1.0
  Ni  Ni88  1  0.95133951  0.58333333  0.95142816  1.0
  Ni  Ni89  1  0.95133951  0.91666667  0.95142816  1.0
  Ni  Ni90  1  0.21060551  0.08333333  0.96992982  1.0
  Ni  Ni91  1  0.21060551  0.41666667  0.96992982  1.0
  Ni  Ni92  1  0.21060551  0.75000000  0.96992982  1.0
  Ni  Ni93  1  0.54393884  0.08333333  0.96992982  1.0
  Ni  Ni94  1  0.54393884  0.41666667  0.96992982  1.0
  Ni  Ni95  1  0.54393884  0.75000000  0.96992982  1.0
  Ni  Ni96  1  0.87727218  0.08333333  0.96992982  1.0
  Ni  Ni97  1  0.87727218  0.41666667  0.96992982  1.0
  Ni  Ni98  1  0.87727218  0.75000000  0.96992982  1.0
  Ni  Ni99  1  0.09949440  0.08333333  0.91437427  1.0
  Ni  Ni100  1  0.09949440  0.41666667  0.91437427  1.0
  Ni  Ni101  1  0.09949440  0.75000000  0.91437427  1.0
  Ni  Ni102  1  0.43282773  0.08333333  0.91437427  1.0
  Ni  Ni103  1  0.43282773  0.41666667  0.91437427  1.0
  Ni  Ni104  1  0.43282773  0.75000000  0.91437427  1.0
  Ni  Ni105  1  0.76616106  0.08333333  0.91437427  1.0
  Ni  Ni106  1  0.76616106  0.41666667  0.91437427  1.0
  Ni  Ni107  1  0.76616106  0.75000000  0.91437427  1.0
  Ni  Ni108  1  0.32171662  0.08333333  0.94218238  1.0
  Ni  Ni109  1  0.32171662  0.41666667  0.94218238  1.0
  Ni  Ni110  1  0.32171662  0.75000000  0.94218238  1.0
  Ni  Ni111  1  0.65504995  0.08333333  0.94218238  1.0
  Ni  Ni112  1  0.65504995  0.41666667  0.94218238  1.0
  Ni  Ni113  1  0.65504995  0.75000000  0.94218238  1.0
  Ni  Ni114  1  0.98838329  0.08333333  0.94218238  1.0
  Ni  Ni115  1  0.98838329  0.41666667  0.94218238  1.0
  Ni  Ni116  1  0.98838329  0.75000000  0.94218238  1.0
  Ni  Ni117  1  0.09949440  0.08333333  0.99773794  1.0
  Ni  Ni118  1  0.09949440  0.41666667  0.99773794  1.0
  Ni  Ni119  1  0.09949440  0.75000000  0.99773794  1.0
  Ni  Ni120  1  0.43282773  0.08333333  0.99773794  1.0
  Ni  Ni121  1  0.43282773  0.41666667  0.99773794  1.0
  Ni  Ni122  1  0.43282773  0.75000000  0.99773794  1.0
  Ni  Ni123  1  0.76616106  0.08333333  0.99773794  1.0
  Ni  Ni124  1  0.76616106  0.41666667  0.99773794  1.0
  Ni  Ni125  1  0.76616106  0.75000000  0.99773794  1.0
  Ni  Ni126  1  0.26618129  0.08333333  0.99771771  1.0
  Ni  Ni127  1  0.26618129  0.41666667  0.99771771  1.0
  Ni  Ni128  1  0.26618129  0.75000000  0.99771771  1.0
  Ni  Ni129  1  0.59951462  0.08333333  0.99771771  1.0
  Ni  Ni130  1  0.59951462  0.41666667  0.99771771  1.0
  Ni  Ni131  1  0.59951462  0.75000000  0.99771771  1.0
  Ni  Ni132  1  0.93284795  0.08333333  0.99771771  1.0
  Ni  Ni133  1  0.93284795  0.41666667  0.99771771  1.0
  Ni  Ni134  1  0.93284795  0.75000000  0.99771771  1.0
  Ni  Ni135  1  0.15507018  0.08333333  0.94216216  1.0
  Ni  Ni136  1  0.15507018  0.41666667  0.94216216  1.0
  Ni  Ni137  1  0.15507018  0.75000000  0.94216216  1.0
  Ni  Ni138  1  0.48840351  0.08333333  0.94216216  1.0
  Ni  Ni139  1  0.48840351  0.41666667  0.94216216  1.0
  Ni  Ni140  1  0.48840351  0.75000000  0.94216216  1.0
  Ni  Ni141  1  0.82173684  0.08333333  0.94216216  1.0
  Ni  Ni142  1  0.82173684  0.41666667  0.94216216  1.0
  Ni  Ni143  1  0.82173684  0.75000000  0.94216216  1.0
  Ni  Ni144  1  0.21047429  0.30557267  0.91412038  1.0
  Ni  Ni145  1  0.21047429  0.63890600  0.91412038  1.0
  Ni  Ni146  1  0.21047429  0.97223933  0.91412038  1.0
  Ni  Ni147  1  0.54380762  0.30557267  0.91412038  1.0
  Ni  Ni148  1  0.54380762  0.63890600  0.91412038  1.0
  Ni  Ni149  1  0.54380762  0.97223933  0.91412038  1.0
  Ni  Ni150  1  0.87714095  0.30557267  0.91412038  1.0
  Ni  Ni151  1  0.87714095  0.63890600  0.91412038  1.0
  Ni  Ni152  1  0.87714095  0.97223933  0.91412038  1.0
  Ni  Ni153  1  0.32158540  0.30557267  0.96967594  1.0
  Ni  Ni154  1  0.32158540  0.63890600  0.96967594  1.0
  Ni  Ni155  1  0.32158540  0.97223933  0.96967594  1.0
  Ni  Ni156  1  0.65491873  0.30557267  0.96967594  1.0
  Ni  Ni157  1  0.65491873  0.63890600  0.96967594  1.0
  Ni  Ni158  1  0.65491873  0.97223933  0.96967594  1.0
  Ni  Ni159  1  0.98825206  0.30557267  0.96967594  1.0
  Ni  Ni160  1  0.98825206  0.63890600  0.96967594  1.0
  Ni  Ni161  1  0.98825206  0.97223933  0.96967594  1.0
  Ni  Ni162  1  0.09936318  0.30557267  0.94249332  1.0
  Ni  Ni163  1  0.09936318  0.63890600  0.94249332  1.0
  Ni  Ni164  1  0.09936318  0.97223933  0.94249332  1.0
  Ni  Ni165  1  0.43269651  0.30557267  0.94249332  1.0
  Ni  Ni166  1  0.43269651  0.63890600  0.94249332  1.0
  Ni  Ni167  1  0.43269651  0.97223933  0.94249332  1.0
  Ni  Ni168  1  0.76602984  0.30557267  0.94249332  1.0
  Ni  Ni169  1  0.76602984  0.63890600  0.94249332  1.0
  Ni  Ni170  1  0.76602984  0.97223933  0.94249332  1.0
  Ni  Ni171  1  0.21047429  0.30557267  0.99804888  1.0
  Ni  Ni172  1  0.21047429  0.63890600  0.99804888  1.0
  Ni  Ni173  1  0.21047429  0.97223933  0.99804888  1.0
  Ni  Ni174  1  0.54380762  0.30557267  0.99804888  1.0
  Ni  Ni175  1  0.54380762  0.63890600  0.99804888  1.0
  Ni  Ni176  1  0.54380762  0.97223933  0.99804888  1.0
  Ni  Ni177  1  0.87714095  0.30557267  0.99804888  1.0
  Ni  Ni178  1  0.87714095  0.63890600  0.99804888  1.0
  Ni  Ni179  1  0.87714095  0.97223933  0.99804888  1.0
  Ni  Ni180  1  0.04420440  0.30557267  0.99765210  1.0
  Ni  Ni181  1  0.04420440  0.63890600  0.99765210  1.0
  Ni  Ni182  1  0.04420440  0.97223933  0.99765210  1.0
  Ni  Ni183  1  0.37753773  0.30557267  0.99765210  1.0
  Ni  Ni184  1  0.37753773  0.63890600  0.99765210  1.0
  Ni  Ni185  1  0.37753773  0.97223933  0.99765210  1.0
  Ni  Ni186  1  0.71087106  0.30557267  0.99765210  1.0
  Ni  Ni187  1  0.71087106  0.63890600  0.99765210  1.0
  Ni  Ni188  1  0.71087106  0.97223933  0.99765210  1.0
  Ni  Ni189  1  0.26642662  0.30557267  0.94209655  1.0
  Ni  Ni190  1  0.26642662  0.63890600  0.94209655  1.0
  Ni  Ni191  1  0.26642662  0.97223933  0.94209655  1.0
  Ni  Ni192  1  0.59975995  0.30557267  0.94209655  1.0
  Ni  Ni193  1  0.59975995  0.63890600  0.94209655  1.0
  Ni  Ni194  1  0.59975995  0.97223933  0.94209655  1.0
  Ni  Ni195  1  0.93309329  0.30557267  0.94209655  1.0
  Ni  Ni196  1  0.93309329  0.63890600  0.94209655  1.0
  Ni  Ni197  1  0.93309329  0.97223933  0.94209655  1.0
  Ni  Ni198  1  0.22926873  0.02776067  0.97946994  1.0
  Ni  Ni199  1  0.22926873  0.36109400  0.97946994  1.0
  Ni  Ni200  1  0.22926873  0.69442733  0.97946994  1.0
  Ni  Ni201  1  0.56260206  0.02776067  0.97946994  1.0
  Ni  Ni202  1  0.56260206  0.36109400  0.97946994  1.0
  Ni  Ni203  1  0.56260206  0.69442733  0.97946994  1.0
  Ni  Ni204  1  0.89593540  0.02776067  0.97946994  1.0
  Ni  Ni205  1  0.89593540  0.36109400  0.97946994  1.0
  Ni  Ni206  1  0.89593540  0.69442733  0.97946994  1.0
  Ni  Ni207  1  0.11815762  0.02776067  0.92391438  1.0
  Ni  Ni208  1  0.11815762  0.36109400  0.92391438  1.0
  Ni  Ni209  1  0.11815762  0.69442733  0.92391438  1.0
  Ni  Ni210  1  0.45149095  0.02776067  0.92391438  1.0
  Ni  Ni211  1  0.45149095  0.36109400  0.92391438  1.0
  Ni  Ni212  1  0.45149095  0.69442733  0.92391438  1.0
  Ni  Ni213  1  0.78482429  0.02776067  0.92391438  1.0
  Ni  Ni214  1  0.78482429  0.36109400  0.92391438  1.0
  Ni  Ni215  1  0.78482429  0.69442733  0.92391438  1.0
  Ni  Ni216  1  0.00704651  0.02776067  0.95109699  1.0
  Ni  Ni217  1  0.00704651  0.36109400  0.95109699  1.0
  Ni  Ni218  1  0.00704651  0.69442733  0.95109699  1.0
  Ni  Ni219  1  0.34037984  0.02776067  0.95109699  1.0
  Ni  Ni220  1  0.34037984  0.36109400  0.95109699  1.0
  Ni  Ni221  1  0.34037984  0.69442733  0.95109699  1.0
  Ni  Ni222  1  0.67371318  0.02776067  0.95109699  1.0
  Ni  Ni223  1  0.67371318  0.36109400  0.95109699  1.0
  Ni  Ni224  1  0.67371318  0.69442733  0.95109699  1.0
  Ni  Ni225  1  0.22926873  0.02776067  0.89554144  1.0
  Ni  Ni226  1  0.22926873  0.36109400  0.89554144  1.0
  Ni  Ni227  1  0.22926873  0.69442733  0.89554144  1.0
  Ni  Ni228  1  0.56260206  0.02776067  0.89554144  1.0
  Ni  Ni229  1  0.56260206  0.36109400  0.89554144  1.0
  Ni  Ni230  1  0.56260206  0.69442733  0.89554144  1.0
  Ni  Ni231  1  0.89593540  0.02776067  0.89554144  1.0
  Ni  Ni232  1  0.89593540  0.36109400  0.89554144  1.0
  Ni  Ni233  1  0.89593540  0.69442733  0.89554144  1.0
  Ni  Ni234  1  0.06220529  0.02776067  0.89593821  1.0
  Ni  Ni235  1  0.06220529  0.36109400  0.89593821  1.0
  Ni  Ni236  1  0.06220529  0.69442733  0.89593821  1.0
  Ni  Ni237  1  0.39553862  0.02776067  0.89593821  1.0
  Ni  Ni238  1  0.39553862  0.36109400  0.89593821  1.0
  Ni  Ni239  1  0.39553862  0.69442733  0.89593821  1.0
  Ni  Ni240  1  0.72887195  0.02776067  0.89593821  1.0
  Ni  Ni241  1  0.72887195  0.36109400  0.89593821  1.0
  Ni  Ni242  1  0.72887195  0.69442733  0.89593821  1.0
  Ni  Ni243  1  0.17331640  0.02776067  0.95149377  1.0
  Ni  Ni244  1  0.17331640  0.36109400  0.95149377  1.0
  Ni  Ni245  1  0.17331640  0.69442733  0.95149377  1.0
  Ni  Ni246  1  0.50664973  0.02776067  0.95149377  1.0
  Ni  Ni247  1  0.50664973  0.36109400  0.95149377  1.0
  Ni  Ni248  1  0.50664973  0.69442733  0.95149377  1.0
  Ni  Ni249  1  0.83998306  0.02776067  0.95149377  1.0
  Ni  Ni250  1  0.83998306  0.36109400  0.95149377  1.0
  Ni  Ni251  1  0.83998306  0.69442733  0.95149377  1.0
  Ni  Ni252  1  0.19222029  0.13890600  0.96094571  1.0
  Ni  Ni253  1  0.19222029  0.47223933  0.96094571  1.0
  Ni  Ni254  1  0.19222029  0.80557267  0.96094571  1.0
  Ni  Ni255  1  0.52555362  0.13890600  0.96094571  1.0
  Ni  Ni256  1  0.52555362  0.47223933  0.96094571  1.0
  Ni  Ni257  1  0.52555362  0.80557267  0.96094571  1.0
  Ni  Ni258  1  0.85888695  0.13890600  0.96094571  1.0
  Ni  Ni259  1  0.85888695  0.47223933  0.96094571  1.0
  Ni  Ni260  1  0.85888695  0.80557267  0.96094571  1.0
  Ni  Ni261  1  0.08110918  0.13890600  0.90539016  1.0
  Ni  Ni262  1  0.08110918  0.47223933  0.90539016  1.0
  Ni  Ni263  1  0.08110918  0.80557267  0.90539016  1.0
  Ni  Ni264  1  0.41444251  0.13890600  0.90539016  1.0
  Ni  Ni265  1  0.41444251  0.47223933  0.90539016  1.0
  Ni  Ni266  1  0.41444251  0.80557267  0.90539016  1.0
  Ni  Ni267  1  0.74777584  0.13890600  0.90539016  1.0
  Ni  Ni268  1  0.74777584  0.47223933  0.90539016  1.0
  Ni  Ni269  1  0.74777584  0.80557267  0.90539016  1.0
  Ni  Ni270  1  0.30333140  0.13890600  0.93257277  1.0
  Ni  Ni271  1  0.30333140  0.47223933  0.93257277  1.0
  Ni  Ni272  1  0.30333140  0.80557267  0.93257277  1.0
  Ni  Ni273  1  0.63666473  0.13890600  0.93257277  1.0
  Ni  Ni274  1  0.63666473  0.47223933  0.93257277  1.0
  Ni  Ni275  1  0.63666473  0.80557267  0.93257277  1.0
  Ni  Ni276  1  0.96999806  0.13890600  0.93257277  1.0
  Ni  Ni277  1  0.96999806  0.47223933  0.93257277  1.0
  Ni  Ni278  1  0.96999806  0.80557267  0.93257277  1.0
  Ni  Ni279  1  0.08110918  0.13890600  0.98812832  1.0
  Ni  Ni280  1  0.08110918  0.47223933  0.98812832  1.0
  Ni  Ni281  1  0.08110918  0.80557267  0.98812832  1.0
  Ni  Ni282  1  0.41444251  0.13890600  0.98812832  1.0
  Ni  Ni283  1  0.41444251  0.47223933  0.98812832  1.0
  Ni  Ni284  1  0.41444251  0.80557267  0.98812832  1.0
  Ni  Ni285  1  0.74777584  0.13890600  0.98812832  1.0
  Ni  Ni286  1  0.74777584  0.47223933  0.98812832  1.0
  Ni  Ni287  1  0.74777584  0.80557267  0.98812832  1.0
  Ni  Ni288  1  0.24737906  0.13890600  0.98852510  1.0
  Ni  Ni289  1  0.24737906  0.47223933  0.98852510  1.0
  Ni  Ni290  1  0.24737906  0.80557267  0.98852510  1.0
  Ni  Ni291  1  0.58071240  0.13890600  0.98852510  1.0
  Ni  Ni292  1  0.58071240  0.47223933  0.98852510  1.0
  Ni  Ni293  1  0.58071240  0.80557267  0.98852510  1.0
  Ni  Ni294  1  0.91404573  0.13890600  0.98852510  1.0
  Ni  Ni295  1  0.91404573  0.47223933  0.98852510  1.0
  Ni  Ni296  1  0.91404573  0.80557267  0.98852510  1.0
  Ni  Ni297  1  0.13626795  0.13890600  0.93296955  1.0
  Ni  Ni298  1  0.13626795  0.47223933  0.93296955  1.0
  Ni  Ni299  1  0.13626795  0.80557267  0.93296955  1.0
  Ni  Ni300  1  0.46960129  0.13890600  0.93296955  1.0
  Ni  Ni301  1  0.46960129  0.47223933  0.93296955  1.0
  Ni  Ni302  1  0.46960129  0.80557267  0.93296955  1.0
  Ni  Ni303  1  0.80293462  0.13890600  0.93296955  1.0
  Ni  Ni304  1  0.80293462  0.47223933  0.93296955  1.0
  Ni  Ni305  1  0.80293462  0.80557267  0.93296955  1.0
  Ni  Ni306  1  0.24752273  0.19442733  0.93264460  1.0
  Ni  Ni307  1  0.24752273  0.52776067  0.93264460  1.0
  Ni  Ni308  1  0.24752273  0.86109400  0.93264460  1.0
  Ni  Ni309  1  0.58085606  0.19442733  0.93264460  1.0
  Ni  Ni310  1  0.58085606  0.52776067  0.93264460  1.0
  Ni  Ni311  1  0.58085606  0.86109400  0.93264460  1.0
  Ni  Ni312  1  0.91418940  0.19442733  0.93264460  1.0
  Ni  Ni313  1  0.91418940  0.52776067  0.93264460  1.0
  Ni  Ni314  1  0.91418940  0.86109400  0.93264460  1.0
  Ni  Ni315  1  0.02530051  0.19442733  0.98820016  1.0
  Ni  Ni316  1  0.02530051  0.52776067  0.98820016  1.0
  Ni  Ni317  1  0.02530051  0.86109400  0.98820016  1.0
  Ni  Ni318  1  0.35863384  0.19442733  0.98820016  1.0
  Ni  Ni319  1  0.35863384  0.52776067  0.98820016  1.0
  Ni  Ni320  1  0.35863384  0.86109400  0.98820016  1.0
  Ni  Ni321  1  0.69196718  0.19442733  0.98820016  1.0
  Ni  Ni322  1  0.69196718  0.52776067  0.98820016  1.0
  Ni  Ni323  1  0.69196718  0.86109400  0.98820016  1.0
  Ni  Ni324  1  0.13641162  0.19442733  0.96101755  1.0
  Ni  Ni325  1  0.13641162  0.52776067  0.96101755  1.0
  Ni  Ni326  1  0.13641162  0.86109400  0.96101755  1.0
  Ni  Ni327  1  0.46974495  0.19442733  0.96101755  1.0
  Ni  Ni328  1  0.46974495  0.52776067  0.96101755  1.0
  Ni  Ni329  1  0.46974495  0.86109400  0.96101755  1.0
  Ni  Ni330  1  0.80307829  0.19442733  0.96101755  1.0
  Ni  Ni331  1  0.80307829  0.52776067  0.96101755  1.0
  Ni  Ni332  1  0.80307829  0.86109400  0.96101755  1.0
  Ni  Ni333  1  0.02530051  0.19442733  0.90546199  1.0
  Ni  Ni334  1  0.02530051  0.52776067  0.90546199  1.0
  Ni  Ni335  1  0.02530051  0.86109400  0.90546199  1.0
  Ni  Ni336  1  0.35863384  0.19442733  0.90546199  1.0
  Ni  Ni337  1  0.35863384  0.52776067  0.90546199  1.0
  Ni  Ni338  1  0.35863384  0.86109400  0.90546199  1.0
  Ni  Ni339  1  0.69196718  0.19442733  0.90546199  1.0
  Ni  Ni340  1  0.69196718  0.52776067  0.90546199  1.0
  Ni  Ni341  1  0.69196718  0.86109400  0.90546199  1.0
  Ni  Ni342  1  0.19236395  0.19442733  0.90506521  1.0
  Ni  Ni343  1  0.19236395  0.52776067  0.90506521  1.0
  Ni  Ni344  1  0.19236395  0.86109400  0.90506521  1.0
  Ni  Ni345  1  0.52569729  0.19442733  0.90506521  1.0
  Ni  Ni346  1  0.52569729  0.52776067  0.90506521  1.0
  Ni  Ni347  1  0.52569729  0.86109400  0.90506521  1.0
  Ni  Ni348  1  0.85903062  0.19442733  0.90506521  1.0
  Ni  Ni349  1  0.85903062  0.52776067  0.90506521  1.0
  Ni  Ni350  1  0.85903062  0.86109400  0.90506521  1.0
  Ni  Ni351  1  0.30347506  0.19442733  0.96062077  1.0
  Ni  Ni352  1  0.30347506  0.52776067  0.96062077  1.0
  Ni  Ni353  1  0.30347506  0.86109400  0.96062077  1.0
  Ni  Ni354  1  0.63680840  0.19442733  0.96062077  1.0
  Ni  Ni355  1  0.63680840  0.52776067  0.96062077  1.0
  Ni  Ni356  1  0.63680840  0.86109400  0.96062077  1.0
  Ni  Ni357  1  0.97014173  0.19442733  0.96062077  1.0
  Ni  Ni358  1  0.97014173  0.52776067  0.96062077  1.0
  Ni  Ni359  1  0.97014173  0.86109400  0.96062077  1.0
  Ni  Ni360  1  0.23836240  0.27786067  0.95604060  1.0
  Ni  Ni361  1  0.23836240  0.61119400  0.95604060  1.0
  Ni  Ni362  1  0.23836240  0.94452733  0.95604060  1.0
  Ni  Ni363  1  0.57169573  0.27786067  0.95604060  1.0
  Ni  Ni364  1  0.57169573  0.61119400  0.95604060  1.0
  Ni  Ni365  1  0.57169573  0.94452733  0.95604060  1.0
  Ni  Ni366  1  0.90502906  0.27786067  0.95604060  1.0
  Ni  Ni367  1  0.90502906  0.61119400  0.95604060  1.0
  Ni  Ni368  1  0.90502906  0.94452733  0.95604060  1.0
  Ni  Ni369  1  0.12725129  0.27786067  0.90048505  1.0
  Ni  Ni370  1  0.12725129  0.61119400  0.90048505  1.0
  Ni  Ni371  1  0.12725129  0.94452733  0.90048505  1.0
  Ni  Ni372  1  0.46058462  0.27786067  0.90048505  1.0
  Ni  Ni373  1  0.46058462  0.61119400  0.90048505  1.0
  Ni  Ni374  1  0.46058462  0.94452733  0.90048505  1.0
  Ni  Ni375  1  0.79391795  0.27786067  0.90048505  1.0
  Ni  Ni376  1  0.79391795  0.61119400  0.90048505  1.0
  Ni  Ni377  1  0.79391795  0.94452733  0.90048505  1.0
  Ni  Ni378  1  0.31249173  0.05547267  0.99310527  1.0
  Ni  Ni379  1  0.31249173  0.38880600  0.99310527  1.0
  Ni  Ni380  1  0.31249173  0.72213933  0.99310527  1.0
  Ni  Ni381  1  0.64582506  0.05547267  0.99310527  1.0
  Ni  Ni382  1  0.64582506  0.38880600  0.99310527  1.0
  Ni  Ni383  1  0.64582506  0.72213933  0.99310527  1.0
  Ni  Ni384  1  0.97915840  0.05547267  0.99310527  1.0
  Ni  Ni385  1  0.97915840  0.38880600  0.99310527  1.0
  Ni  Ni386  1  0.97915840  0.72213933  0.99310527  1.0
  Ni  Ni387  1  0.20138062  0.05547267  0.93754971  1.0
  Ni  Ni388  1  0.20138062  0.38880600  0.93754971  1.0
  Ni  Ni389  1  0.20138062  0.72213933  0.93754971  1.0
  Ni  Ni390  1  0.53471395  0.05547267  0.93754971  1.0
  Ni  Ni391  1  0.53471395  0.38880600  0.93754971  1.0
  Ni  Ni392  1  0.53471395  0.72213933  0.93754971  1.0
  Ni  Ni393  1  0.86804729  0.05547267  0.93754971  1.0
  Ni  Ni394  1  0.86804729  0.38880600  0.93754971  1.0
  Ni  Ni395  1  0.86804729  0.72213933  0.93754971  1.0
  Ni  Ni396  1  0.29391795  0.11119400  0.98381838  1.0
  Ni  Ni397  1  0.29391795  0.44452733  0.98381838  1.0
  Ni  Ni398  1  0.29391795  0.77786067  0.98381838  1.0
  Ni  Ni399  1  0.62725129  0.11119400  0.98381838  1.0
  Ni  Ni400  1  0.62725129  0.44452733  0.98381838  1.0
  Ni  Ni401  1  0.62725129  0.77786067  0.98381838  1.0
  Ni  Ni402  1  0.96058462  0.11119400  0.98381838  1.0
  Ni  Ni403  1  0.96058462  0.44452733  0.98381838  1.0
  Ni  Ni404  1  0.96058462  0.77786067  0.98381838  1.0
  Ni  Ni405  1  0.18280684  0.11119400  0.92826282  1.0
  Ni  Ni406  1  0.18280684  0.44452733  0.92826282  1.0
  Ni  Ni407  1  0.18280684  0.77786067  0.92826282  1.0
  Ni  Ni408  1  0.51614018  0.11119400  0.92826282  1.0
  Ni  Ni409  1  0.51614018  0.44452733  0.92826282  1.0
  Ni  Ni410  1  0.51614018  0.77786067  0.92826282  1.0
  Ni  Ni411  1  0.84947351  0.11119400  0.92826282  1.0
  Ni  Ni412  1  0.84947351  0.44452733  0.92826282  1.0
  Ni  Ni413  1  0.84947351  0.77786067  0.92826282  1.0
  Ni  Ni414  1  0.25693618  0.22213933  0.96532749  1.0
  Ni  Ni415  1  0.25693618  0.55547267  0.96532749  1.0
  Ni  Ni416  1  0.25693618  0.88880600  0.96532749  1.0
  Ni  Ni417  1  0.59026951  0.22213933  0.96532749  1.0
  Ni  Ni418  1  0.59026951  0.55547267  0.96532749  1.0
  Ni  Ni419  1  0.59026951  0.88880600  0.96532749  1.0
  Ni  Ni420  1  0.92360284  0.22213933  0.96532749  1.0
  Ni  Ni421  1  0.92360284  0.55547267  0.96532749  1.0
  Ni  Ni422  1  0.92360284  0.88880600  0.96532749  1.0
  Ni  Ni423  1  0.14582506  0.22213933  0.90977194  1.0
  Ni  Ni424  1  0.14582506  0.55547267  0.90977194  1.0
  Ni  Ni425  1  0.14582506  0.88880600  0.90977194  1.0
  Ni  Ni426  1  0.47915840  0.22213933  0.90977194  1.0
  Ni  Ni427  1  0.47915840  0.55547267  0.90977194  1.0
  Ni  Ni428  1  0.47915840  0.88880600  0.90977194  1.0
  Ni  Ni429  1  0.81249173  0.22213933  0.90977194  1.0
  Ni  Ni430  1  0.81249173  0.55547267  0.90977194  1.0
  Ni  Ni431  1  0.81249173  0.88880600  0.90977194  1.0
  Ni  Ni432  1  0.01617344  0.05553867  0.90050168  1.0
  Ni  Ni433  1  0.01617344  0.38887200  0.90050168  1.0
  Ni  Ni434  1  0.01617344  0.72220533  0.90050168  1.0
  Ni  Ni435  1  0.34950677  0.05553867  0.90050168  1.0
  Ni  Ni436  1  0.34950677  0.38887200  0.90050168  1.0
  Ni  Ni437  1  0.34950677  0.72220533  0.90050168  1.0
  Ni  Ni438  1  0.68284010  0.05553867  0.90050168  1.0
  Ni  Ni439  1  0.68284010  0.38887200  0.90050168  1.0
  Ni  Ni440  1  0.68284010  0.72220533  0.90050168  1.0
  Ni  Ni441  1  0.12728455  0.05553867  0.95605723  1.0
  Ni  Ni442  1  0.12728455  0.38887200  0.95605723  1.0
  Ni  Ni443  1  0.12728455  0.72220533  0.95605723  1.0
  Ni  Ni444  1  0.46061788  0.05553867  0.95605723  1.0
  Ni  Ni445  1  0.46061788  0.38887200  0.95605723  1.0
  Ni  Ni446  1  0.46061788  0.72220533  0.95605723  1.0
  Ni  Ni447  1  0.79395121  0.05553867  0.95605723  1.0
  Ni  Ni448  1  0.79395121  0.38887200  0.95605723  1.0
  Ni  Ni449  1  0.79395121  0.72220533  0.95605723  1.0
  Ni  Ni450  1  0.09023625  0.27779467  0.99308864  1.0
  Ni  Ni451  1  0.09023625  0.61112800  0.99308864  1.0
  Ni  Ni452  1  0.09023625  0.94446133  0.99308864  1.0
  Ni  Ni453  1  0.42356958  0.27779467  0.99308864  1.0
  Ni  Ni454  1  0.42356958  0.61112800  0.99308864  1.0
  Ni  Ni455  1  0.42356958  0.94446133  0.99308864  1.0
  Ni  Ni456  1  0.75690292  0.27779467  0.99308864  1.0
  Ni  Ni457  1  0.75690292  0.61112800  0.99308864  1.0
  Ni  Ni458  1  0.75690292  0.94446133  0.99308864  1.0
  Ni  Ni459  1  0.31245847  0.27779467  0.93753308  1.0
  Ni  Ni460  1  0.31245847  0.61112800  0.93753308  1.0
  Ni  Ni461  1  0.31245847  0.94446133  0.93753308  1.0
  Ni  Ni462  1  0.64579181  0.27779467  0.93753308  1.0
  Ni  Ni463  1  0.64579181  0.61112800  0.93753308  1.0
  Ni  Ni464  1  0.64579181  0.94446133  0.93753308  1.0
  Ni  Ni465  1  0.97912514  0.27779467  0.93753308  1.0
  Ni  Ni466  1  0.97912514  0.61112800  0.93753308  1.0
  Ni  Ni467  1  0.97912514  0.94446133  0.93753308  1.0
  Ni  Ni468  1  0.21987151  0.22222222  0.89123960  1.0
  Ni  Ni469  1  0.21987151  0.55555556  0.89123960  1.0
  Ni  Ni470  1  0.21987151  0.88888889  0.89123960  1.0
  Ni  Ni471  1  0.55320484  0.22222222  0.89123960  1.0
  Ni  Ni472  1  0.55320484  0.55555556  0.89123960  1.0
  Ni  Ni473  1  0.55320484  0.88888889  0.89123960  1.0
  Ni  Ni474  1  0.88653818  0.22222222  0.89123960  1.0
  Ni  Ni475  1  0.88653818  0.55555556  0.89123960  1.0
  Ni  Ni476  1  0.88653818  0.88888889  0.89123960  1.0
  Ni  Ni477  1  0.33098262  0.22222222  0.94679516  1.0
  Ni  Ni478  1  0.33098262  0.55555556  0.94679516  1.0
  Ni  Ni479  1  0.33098262  0.88888889  0.94679516  1.0
  Ni  Ni480  1  0.66431595  0.22222222  0.94679516  1.0
  Ni  Ni481  1  0.66431595  0.55555556  0.94679516  1.0
  Ni  Ni482  1  0.66431595  0.88888889  0.94679516  1.0
  Ni  Ni483  1  0.99764929  0.22222222  0.94679516  1.0
  Ni  Ni484  1  0.99764929  0.55555556  0.94679516  1.0
  Ni  Ni485  1  0.99764929  0.88888889  0.94679516  1.0
  Ni  Ni486  1  0.33097699  0.11112800  0.89123679  1.0
  Ni  Ni487  1  0.33097699  0.44446133  0.89123679  1.0
  Ni  Ni488  1  0.33097699  0.77779467  0.89123679  1.0
  Ni  Ni489  1  0.66431032  0.11112800  0.89123679  1.0
  Ni  Ni490  1  0.66431032  0.44446133  0.89123679  1.0
  Ni  Ni491  1  0.66431032  0.77779467  0.89123679  1.0
  Ni  Ni492  1  0.99764366  0.11112800  0.89123679  1.0
  Ni  Ni493  1  0.99764366  0.44446133  0.89123679  1.0
  Ni  Ni494  1  0.99764366  0.77779467  0.89123679  1.0
  Ni  Ni495  1  0.10875477  0.11112800  0.94679234  1.0
  Ni  Ni496  1  0.10875477  0.44446133  0.94679234  1.0
  Ni  Ni497  1  0.10875477  0.77779467  0.94679234  1.0
  Ni  Ni498  1  0.44208810  0.11112800  0.94679234  1.0
  Ni  Ni499  1  0.44208810  0.44446133  0.94679234  1.0
  Ni  Ni500  1  0.44208810  0.77779467  0.94679234  1.0
  Ni  Ni501  1  0.77542144  0.11112800  0.94679234  1.0
  Ni  Ni502  1  0.77542144  0.44446133  0.94679234  1.0
  Ni  Ni503  1  0.77542144  0.77779467  0.94679234  1.0
  Ni  Ni504  1  0.21987151  0.00000000  0.78012849  1.0
  Ni  Ni505  1  0.21987151  0.33333333  0.78012849  1.0
  Ni  Ni506  1  0.21987151  0.66666667  0.78012849  1.0
  Ni  Ni507  1  0.55320484  0.00000000  0.78012849  1.0
  Ni  Ni508  1  0.55320484  0.33333333  0.78012849  1.0
  Ni  Ni509  1  0.55320484  0.66666667  0.78012849  1.0
  Ni  Ni510  1  0.88653818  0.00000000  0.78012849  1.0
  Ni  Ni511  1  0.88653818  0.33333333  0.78012849  1.0
  Ni  Ni512  1  0.88653818  0.66666667  0.78012849  1.0
  Ni  Ni513  1  0.33098262  0.00000000  0.83568405  1.0
  Ni  Ni514  1  0.33098262  0.33333333  0.83568405  1.0
  Ni  Ni515  1  0.33098262  0.66666667  0.83568405  1.0
  Ni  Ni516  1  0.66431595  0.00000000  0.83568405  1.0
  Ni  Ni517  1  0.66431595  0.33333333  0.83568405  1.0
  Ni  Ni518  1  0.66431595  0.66666667  0.83568405  1.0
  Ni  Ni519  1  0.99764929  0.00000000  0.83568405  1.0
  Ni  Ni520  1  0.99764929  0.33333333  0.83568405  1.0
  Ni  Ni521  1  0.99764929  0.66666667  0.83568405  1.0
  Ni  Ni522  1  0.05320484  0.16666667  0.86346182  1.0
  Ni  Ni523  1  0.05320484  0.50000000  0.86346182  1.0
  Ni  Ni524  1  0.05320484  0.83333333  0.86346182  1.0
  Ni  Ni525  1  0.38653818  0.16666667  0.86346182  1.0
  Ni  Ni526  1  0.38653818  0.50000000  0.86346182  1.0
  Ni  Ni527  1  0.38653818  0.83333333  0.86346182  1.0
  Ni  Ni528  1  0.71987151  0.16666667  0.86346182  1.0
  Ni  Ni529  1  0.71987151  0.50000000  0.86346182  1.0
  Ni  Ni530  1  0.71987151  0.83333333  0.86346182  1.0
  Ni  Ni531  1  0.27542706  0.16666667  0.80790627  1.0
  Ni  Ni532  1  0.27542706  0.50000000  0.80790627  1.0
  Ni  Ni533  1  0.27542706  0.83333333  0.80790627  1.0
  Ni  Ni534  1  0.60876040  0.16666667  0.80790627  1.0
  Ni  Ni535  1  0.60876040  0.50000000  0.80790627  1.0
  Ni  Ni536  1  0.60876040  0.83333333  0.80790627  1.0
  Ni  Ni537  1  0.94209373  0.16666667  0.80790627  1.0
  Ni  Ni538  1  0.94209373  0.50000000  0.80790627  1.0
  Ni  Ni539  1  0.94209373  0.83333333  0.80790627  1.0
  Ni  Ni540  1  0.00691529  0.25000000  0.81254938  1.0
  Ni  Ni541  1  0.00691529  0.58333333  0.81254938  1.0
  Ni  Ni542  1  0.00691529  0.91666667  0.81254938  1.0
  Ni  Ni543  1  0.34024862  0.25000000  0.81254938  1.0
  Ni  Ni544  1  0.34024862  0.58333333  0.81254938  1.0
  Ni  Ni545  1  0.34024862  0.91666667  0.81254938  1.0
  Ni  Ni546  1  0.67358195  0.25000000  0.81254938  1.0
  Ni  Ni547  1  0.67358195  0.58333333  0.81254938  1.0
  Ni  Ni548  1  0.67358195  0.91666667  0.81254938  1.0
  Ni  Ni549  1  0.11802640  0.25000000  0.86810494  1.0
  Ni  Ni550  1  0.11802640  0.58333333  0.86810494  1.0
  Ni  Ni551  1  0.11802640  0.91666667  0.86810494  1.0
  Ni  Ni552  1  0.45135973  0.25000000  0.86810494  1.0
  Ni  Ni553  1  0.45135973  0.58333333  0.86810494  1.0
  Ni  Ni554  1  0.45135973  0.91666667  0.86810494  1.0
  Ni  Ni555  1  0.78469306  0.25000000  0.86810494  1.0
  Ni  Ni556  1  0.78469306  0.58333333  0.86810494  1.0
  Ni  Ni557  1  0.78469306  0.91666667  0.86810494  1.0
  Ni  Ni558  1  0.22913751  0.25000000  0.84029682  1.0
  Ni  Ni559  1  0.22913751  0.58333333  0.84029682  1.0
  Ni  Ni560  1  0.22913751  0.91666667  0.84029682  1.0
  Ni  Ni561  1  0.56247084  0.25000000  0.84029682  1.0
  Ni  Ni562  1  0.56247084  0.58333333  0.84029682  1.0
  Ni  Ni563  1  0.56247084  0.91666667  0.84029682  1.0
  Ni  Ni564  1  0.89580418  0.25000000  0.84029682  1.0
  Ni  Ni565  1  0.89580418  0.58333333  0.84029682  1.0
  Ni  Ni566  1  0.89580418  0.91666667  0.84029682  1.0
  Ni  Ni567  1  0.11802640  0.25000000  0.78474127  1.0
  Ni  Ni568  1  0.11802640  0.58333333  0.78474127  1.0
  Ni  Ni569  1  0.11802640  0.91666667  0.78474127  1.0
  Ni  Ni570  1  0.45135973  0.25000000  0.78474127  1.0
  Ni  Ni571  1  0.45135973  0.58333333  0.78474127  1.0
  Ni  Ni572  1  0.45135973  0.91666667  0.78474127  1.0
  Ni  Ni573  1  0.78469306  0.25000000  0.78474127  1.0
  Ni  Ni574  1  0.78469306  0.58333333  0.78474127  1.0
  Ni  Ni575  1  0.78469306  0.91666667  0.78474127  1.0
  Ni  Ni576  1  0.28467284  0.25000000  0.78476149  1.0
  Ni  Ni577  1  0.28467284  0.58333333  0.78476149  1.0
  Ni  Ni578  1  0.28467284  0.91666667  0.78476149  1.0
  Ni  Ni579  1  0.61800618  0.25000000  0.78476149  1.0
  Ni  Ni580  1  0.61800618  0.58333333  0.78476149  1.0
  Ni  Ni581  1  0.61800618  0.91666667  0.78476149  1.0
  Ni  Ni582  1  0.95133951  0.25000000  0.78476149  1.0
  Ni  Ni583  1  0.95133951  0.58333333  0.78476149  1.0
  Ni  Ni584  1  0.95133951  0.91666667  0.78476149  1.0
  Ni  Ni585  1  0.06245062  0.25000000  0.84031705  1.0
  Ni  Ni586  1  0.06245062  0.58333333  0.84031705  1.0
  Ni  Ni587  1  0.06245062  0.91666667  0.84031705  1.0
  Ni  Ni588  1  0.39578395  0.25000000  0.84031705  1.0
  Ni  Ni589  1  0.39578395  0.58333333  0.84031705  1.0
  Ni  Ni590  1  0.39578395  0.91666667  0.84031705  1.0
  Ni  Ni591  1  0.72911729  0.25000000  0.84031705  1.0
  Ni  Ni592  1  0.72911729  0.58333333  0.84031705  1.0
  Ni  Ni593  1  0.72911729  0.91666667  0.84031705  1.0
  Ni  Ni594  1  0.32171662  0.08333333  0.85881871  1.0
  Ni  Ni595  1  0.32171662  0.41666667  0.85881871  1.0
  Ni  Ni596  1  0.32171662  0.75000000  0.85881871  1.0
  Ni  Ni597  1  0.65504995  0.08333333  0.85881871  1.0
  Ni  Ni598  1  0.65504995  0.41666667  0.85881871  1.0
  Ni  Ni599  1  0.65504995  0.75000000  0.85881871  1.0
  Ni  Ni600  1  0.98838329  0.08333333  0.85881871  1.0
  Ni  Ni601  1  0.98838329  0.41666667  0.85881871  1.0
  Ni  Ni602  1  0.98838329  0.75000000  0.85881871  1.0
  Ni  Ni603  1  0.21060551  0.08333333  0.80326316  1.0
  Ni  Ni604  1  0.21060551  0.41666667  0.80326316  1.0
  Ni  Ni605  1  0.21060551  0.75000000  0.80326316  1.0
  Ni  Ni606  1  0.54393884  0.08333333  0.80326316  1.0
  Ni  Ni607  1  0.54393884  0.41666667  0.80326316  1.0
  Ni  Ni608  1  0.54393884  0.75000000  0.80326316  1.0
  Ni  Ni609  1  0.87727218  0.08333333  0.80326316  1.0
  Ni  Ni610  1  0.87727218  0.41666667  0.80326316  1.0
  Ni  Ni611  1  0.87727218  0.75000000  0.80326316  1.0
  Ni  Ni612  1  0.09949440  0.08333333  0.83107127  1.0
  Ni  Ni613  1  0.09949440  0.41666667  0.83107127  1.0
  Ni  Ni614  1  0.09949440  0.75000000  0.83107127  1.0
  Ni  Ni615  1  0.43282773  0.08333333  0.83107127  1.0
  Ni  Ni616  1  0.43282773  0.41666667  0.83107127  1.0
  Ni  Ni617  1  0.43282773  0.75000000  0.83107127  1.0
  Ni  Ni618  1  0.76616106  0.08333333  0.83107127  1.0
  Ni  Ni619  1  0.76616106  0.41666667  0.83107127  1.0
  Ni  Ni620  1  0.76616106  0.75000000  0.83107127  1.0
  Ni  Ni621  1  0.21060551  0.08333333  0.88662682  1.0
  Ni  Ni622  1  0.21060551  0.41666667  0.88662682  1.0
  Ni  Ni623  1  0.21060551  0.75000000  0.88662682  1.0
  Ni  Ni624  1  0.54393884  0.08333333  0.88662682  1.0
  Ni  Ni625  1  0.54393884  0.41666667  0.88662682  1.0
  Ni  Ni626  1  0.54393884  0.75000000  0.88662682  1.0
  Ni  Ni627  1  0.87727218  0.08333333  0.88662682  1.0
  Ni  Ni628  1  0.87727218  0.41666667  0.88662682  1.0
  Ni  Ni629  1  0.87727218  0.75000000  0.88662682  1.0
  Ni  Ni630  1  0.04395906  0.08333333  0.88660660  1.0
  Ni  Ni631  1  0.04395906  0.41666667  0.88660660  1.0
  Ni  Ni632  1  0.04395906  0.75000000  0.88660660  1.0
  Ni  Ni633  1  0.37729240  0.08333333  0.88660660  1.0
  Ni  Ni634  1  0.37729240  0.41666667  0.88660660  1.0
  Ni  Ni635  1  0.37729240  0.75000000  0.88660660  1.0
  Ni  Ni636  1  0.71062573  0.08333333  0.88660660  1.0
  Ni  Ni637  1  0.71062573  0.41666667  0.88660660  1.0
  Ni  Ni638  1  0.71062573  0.75000000  0.88660660  1.0
  Ni  Ni639  1  0.26618129  0.08333333  0.83105105  1.0
  Ni  Ni640  1  0.26618129  0.41666667  0.83105105  1.0
  Ni  Ni641  1  0.26618129  0.75000000  0.83105105  1.0
  Ni  Ni642  1  0.59951462  0.08333333  0.83105105  1.0
  Ni  Ni643  1  0.59951462  0.41666667  0.83105105  1.0
  Ni  Ni644  1  0.59951462  0.75000000  0.83105105  1.0
  Ni  Ni645  1  0.93284795  0.08333333  0.83105105  1.0
  Ni  Ni646  1  0.93284795  0.41666667  0.83105105  1.0
  Ni  Ni647  1  0.93284795  0.75000000  0.83105105  1.0
  Ni  Ni648  1  0.32158540  0.30557267  0.80300927  1.0
  Ni  Ni649  1  0.32158540  0.63890600  0.80300927  1.0
  Ni  Ni650  1  0.32158540  0.97223933  0.80300927  1.0
  Ni  Ni651  1  0.65491873  0.30557267  0.80300927  1.0
  Ni  Ni652  1  0.65491873  0.63890600  0.80300927  1.0
  Ni  Ni653  1  0.65491873  0.97223933  0.80300927  1.0
  Ni  Ni654  1  0.98825206  0.30557267  0.80300927  1.0
  Ni  Ni655  1  0.98825206  0.63890600  0.80300927  1.0
  Ni  Ni656  1  0.98825206  0.97223933  0.80300927  1.0
  Ni  Ni657  1  0.09936318  0.30557267  0.85856482  1.0
  Ni  Ni658  1  0.09936318  0.63890600  0.85856482  1.0
  Ni  Ni659  1  0.09936318  0.97223933  0.85856482  1.0
  Ni  Ni660  1  0.43269651  0.30557267  0.85856482  1.0
  Ni  Ni661  1  0.43269651  0.63890600  0.85856482  1.0
  Ni  Ni662  1  0.43269651  0.97223933  0.85856482  1.0
  Ni  Ni663  1  0.76602984  0.30557267  0.85856482  1.0
  Ni  Ni664  1  0.76602984  0.63890600  0.85856482  1.0
  Ni  Ni665  1  0.76602984  0.97223933  0.85856482  1.0
  Ni  Ni666  1  0.21047429  0.30557267  0.83138221  1.0
  Ni  Ni667  1  0.21047429  0.63890600  0.83138221  1.0
  Ni  Ni668  1  0.21047429  0.97223933  0.83138221  1.0
  Ni  Ni669  1  0.54380762  0.30557267  0.83138221  1.0
  Ni  Ni670  1  0.54380762  0.63890600  0.83138221  1.0
  Ni  Ni671  1  0.54380762  0.97223933  0.83138221  1.0
  Ni  Ni672  1  0.87714095  0.30557267  0.83138221  1.0
  Ni  Ni673  1  0.87714095  0.63890600  0.83138221  1.0
  Ni  Ni674  1  0.87714095  0.97223933  0.83138221  1.0
  Ni  Ni675  1  0.32158540  0.30557267  0.88693777  1.0
  Ni  Ni676  1  0.32158540  0.63890600  0.88693777  1.0
  Ni  Ni677  1  0.32158540  0.97223933  0.88693777  1.0
  Ni  Ni678  1  0.65491873  0.30557267  0.88693777  1.0
  Ni  Ni679  1  0.65491873  0.63890600  0.88693777  1.0
  Ni  Ni680  1  0.65491873  0.97223933  0.88693777  1.0
  Ni  Ni681  1  0.98825206  0.30557267  0.88693777  1.0
  Ni  Ni682  1  0.98825206  0.63890600  0.88693777  1.0
  Ni  Ni683  1  0.98825206  0.97223933  0.88693777  1.0
  Ni  Ni684  1  0.15531551  0.30557267  0.88654099  1.0
  Ni  Ni685  1  0.15531551  0.63890600  0.88654099  1.0
  Ni  Ni686  1  0.15531551  0.97223933  0.88654099  1.0
  Ni  Ni687  1  0.48864884  0.30557267  0.88654099  1.0
  Ni  Ni688  1  0.48864884  0.63890600  0.88654099  1.0
  Ni  Ni689  1  0.48864884  0.97223933  0.88654099  1.0
  Ni  Ni690  1  0.82198218  0.30557267  0.88654099  1.0
  Ni  Ni691  1  0.82198218  0.63890600  0.88654099  1.0
  Ni  Ni692  1  0.82198218  0.97223933  0.88654099  1.0
  Ni  Ni693  1  0.04420440  0.30557267  0.83098544  1.0
  Ni  Ni694  1  0.04420440  0.63890600  0.83098544  1.0
  Ni  Ni695  1  0.04420440  0.97223933  0.83098544  1.0
  Ni  Ni696  1  0.37753773  0.30557267  0.83098544  1.0
  Ni  Ni697  1  0.37753773  0.63890600  0.83098544  1.0
  Ni  Ni698  1  0.37753773  0.97223933  0.83098544  1.0
  Ni  Ni699  1  0.71087106  0.30557267  0.83098544  1.0
  Ni  Ni700  1  0.71087106  0.63890600  0.83098544  1.0
  Ni  Ni701  1  0.71087106  0.97223933  0.83098544  1.0
  Ni  Ni702  1  0.00704651  0.02776067  0.86835882  1.0
  Ni  Ni703  1  0.00704651  0.36109400  0.86835882  1.0
  Ni  Ni704  1  0.00704651  0.69442733  0.86835882  1.0
  Ni  Ni705  1  0.34037984  0.02776067  0.86835882  1.0
  Ni  Ni706  1  0.34037984  0.36109400  0.86835882  1.0
  Ni  Ni707  1  0.34037984  0.69442733  0.86835882  1.0
  Ni  Ni708  1  0.67371318  0.02776067  0.86835882  1.0
  Ni  Ni709  1  0.67371318  0.36109400  0.86835882  1.0
  Ni  Ni710  1  0.67371318  0.69442733  0.86835882  1.0
  Ni  Ni711  1  0.22926873  0.02776067  0.81280327  1.0
  Ni  Ni712  1  0.22926873  0.36109400  0.81280327  1.0
  Ni  Ni713  1  0.22926873  0.69442733  0.81280327  1.0
  Ni  Ni714  1  0.56260206  0.02776067  0.81280327  1.0
  Ni  Ni715  1  0.56260206  0.36109400  0.81280327  1.0
  Ni  Ni716  1  0.56260206  0.69442733  0.81280327  1.0
  Ni  Ni717  1  0.89593540  0.02776067  0.81280327  1.0
  Ni  Ni718  1  0.89593540  0.36109400  0.81280327  1.0
  Ni  Ni719  1  0.89593540  0.69442733  0.81280327  1.0
  Ni  Ni720  1  0.11815762  0.02776067  0.83998588  1.0
  Ni  Ni721  1  0.11815762  0.36109400  0.83998588  1.0
  Ni  Ni722  1  0.11815762  0.69442733  0.83998588  1.0
  Ni  Ni723  1  0.45149095  0.02776067  0.83998588  1.0
  Ni  Ni724  1  0.45149095  0.36109400  0.83998588  1.0
  Ni  Ni725  1  0.45149095  0.69442733  0.83998588  1.0
  Ni  Ni726  1  0.78482429  0.02776067  0.83998588  1.0
  Ni  Ni727  1  0.78482429  0.36109400  0.83998588  1.0
  Ni  Ni728  1  0.78482429  0.69442733  0.83998588  1.0
  Ni  Ni729  1  0.00704651  0.02776067  0.78443032  1.0
  Ni  Ni730  1  0.00704651  0.36109400  0.78443032  1.0
  Ni  Ni731  1  0.00704651  0.69442733  0.78443032  1.0
  Ni  Ni732  1  0.34037984  0.02776067  0.78443032  1.0
  Ni  Ni733  1  0.34037984  0.36109400  0.78443032  1.0
  Ni  Ni734  1  0.34037984  0.69442733  0.78443032  1.0
  Ni  Ni735  1  0.67371318  0.02776067  0.78443032  1.0
  Ni  Ni736  1  0.67371318  0.36109400  0.78443032  1.0
  Ni  Ni737  1  0.67371318  0.69442733  0.78443032  1.0
  Ni  Ni738  1  0.17331640  0.02776067  0.78482710  1.0
  Ni  Ni739  1  0.17331640  0.36109400  0.78482710  1.0
  Ni  Ni740  1  0.17331640  0.69442733  0.78482710  1.0
  Ni  Ni741  1  0.50664973  0.02776067  0.78482710  1.0
  Ni  Ni742  1  0.50664973  0.36109400  0.78482710  1.0
  Ni  Ni743  1  0.50664973  0.69442733  0.78482710  1.0
  Ni  Ni744  1  0.83998306  0.02776067  0.78482710  1.0
  Ni  Ni745  1  0.83998306  0.36109400  0.78482710  1.0
  Ni  Ni746  1  0.83998306  0.69442733  0.78482710  1.0
  Ni  Ni747  1  0.28442751  0.02776067  0.84038266  1.0
  Ni  Ni748  1  0.28442751  0.36109400  0.84038266  1.0
  Ni  Ni749  1  0.28442751  0.69442733  0.84038266  1.0
  Ni  Ni750  1  0.61776084  0.02776067  0.84038266  1.0
  Ni  Ni751  1  0.61776084  0.36109400  0.84038266  1.0
  Ni  Ni752  1  0.61776084  0.69442733  0.84038266  1.0
  Ni  Ni753  1  0.95109418  0.02776067  0.84038266  1.0
  Ni  Ni754  1  0.95109418  0.36109400  0.84038266  1.0
  Ni  Ni755  1  0.95109418  0.69442733  0.84038266  1.0
  Ni  Ni756  1  0.30333140  0.13890600  0.84983460  1.0
  Ni  Ni757  1  0.30333140  0.47223933  0.84983460  1.0
  Ni  Ni758  1  0.30333140  0.80557267  0.84983460  1.0
  Ni  Ni759  1  0.63666473  0.13890600  0.84983460  1.0
  Ni  Ni760  1  0.63666473  0.47223933  0.84983460  1.0
  Ni  Ni761  1  0.63666473  0.80557267  0.84983460  1.0
  Ni  Ni762  1  0.96999806  0.13890600  0.84983460  1.0
  Ni  Ni763  1  0.96999806  0.47223933  0.84983460  1.0
  Ni  Ni764  1  0.96999806  0.80557267  0.84983460  1.0
  Ni  Ni765  1  0.19222029  0.13890600  0.79427905  1.0
  Ni  Ni766  1  0.19222029  0.47223933  0.79427905  1.0
  Ni  Ni767  1  0.19222029  0.80557267  0.79427905  1.0
  Ni  Ni768  1  0.52555362  0.13890600  0.79427905  1.0
  Ni  Ni769  1  0.52555362  0.47223933  0.79427905  1.0
  Ni  Ni770  1  0.52555362  0.80557267  0.79427905  1.0
  Ni  Ni771  1  0.85888695  0.13890600  0.79427905  1.0
  Ni  Ni772  1  0.85888695  0.47223933  0.79427905  1.0
  Ni  Ni773  1  0.85888695  0.80557267  0.79427905  1.0
  Ni  Ni774  1  0.08110918  0.13890600  0.82146166  1.0
  Ni  Ni775  1  0.08110918  0.47223933  0.82146166  1.0
  Ni  Ni776  1  0.08110918  0.80557267  0.82146166  1.0
  Ni  Ni777  1  0.41444251  0.13890600  0.82146166  1.0
  Ni  Ni778  1  0.41444251  0.47223933  0.82146166  1.0
  Ni  Ni779  1  0.41444251  0.80557267  0.82146166  1.0
  Ni  Ni780  1  0.74777584  0.13890600  0.82146166  1.0
  Ni  Ni781  1  0.74777584  0.47223933  0.82146166  1.0
  Ni  Ni782  1  0.74777584  0.80557267  0.82146166  1.0
  Ni  Ni783  1  0.19222029  0.13890600  0.87701721  1.0
  Ni  Ni784  1  0.19222029  0.47223933  0.87701721  1.0
  Ni  Ni785  1  0.19222029  0.80557267  0.87701721  1.0
  Ni  Ni786  1  0.52555362  0.13890600  0.87701721  1.0
  Ni  Ni787  1  0.52555362  0.47223933  0.87701721  1.0
  Ni  Ni788  1  0.52555362  0.80557267  0.87701721  1.0
  Ni  Ni789  1  0.85888695  0.13890600  0.87701721  1.0
  Ni  Ni790  1  0.85888695  0.47223933  0.87701721  1.0
  Ni  Ni791  1  0.85888695  0.80557267  0.87701721  1.0
  Ni  Ni792  1  0.02515684  0.13890600  0.87741399  1.0
  Ni  Ni793  1  0.02515684  0.47223933  0.87741399  1.0
  Ni  Ni794  1  0.02515684  0.80557267  0.87741399  1.0
  Ni  Ni795  1  0.35849018  0.13890600  0.87741399  1.0
  Ni  Ni796  1  0.35849018  0.47223933  0.87741399  1.0
  Ni  Ni797  1  0.35849018  0.80557267  0.87741399  1.0
  Ni  Ni798  1  0.69182351  0.13890600  0.87741399  1.0
  Ni  Ni799  1  0.69182351  0.47223933  0.87741399  1.0
  Ni  Ni800  1  0.69182351  0.80557267  0.87741399  1.0
  Ni  Ni801  1  0.24737906  0.13890600  0.82185844  1.0
  Ni  Ni802  1  0.24737906  0.47223933  0.82185844  1.0
  Ni  Ni803  1  0.24737906  0.80557267  0.82185844  1.0
  Ni  Ni804  1  0.58071240  0.13890600  0.82185844  1.0
  Ni  Ni805  1  0.58071240  0.47223933  0.82185844  1.0
  Ni  Ni806  1  0.58071240  0.80557267  0.82185844  1.0
  Ni  Ni807  1  0.91404573  0.13890600  0.82185844  1.0
  Ni  Ni808  1  0.91404573  0.47223933  0.82185844  1.0
  Ni  Ni809  1  0.91404573  0.80557267  0.82185844  1.0
  Ni  Ni810  1  0.02530051  0.19442733  0.82153349  1.0
  Ni  Ni811  1  0.02530051  0.52776067  0.82153349  1.0
  Ni  Ni812  1  0.02530051  0.86109400  0.82153349  1.0
  Ni  Ni813  1  0.35863384  0.19442733  0.82153349  1.0
  Ni  Ni814  1  0.35863384  0.52776067  0.82153349  1.0
  Ni  Ni815  1  0.35863384  0.86109400  0.82153349  1.0
  Ni  Ni816  1  0.69196718  0.19442733  0.82153349  1.0
  Ni  Ni817  1  0.69196718  0.52776067  0.82153349  1.0
  Ni  Ni818  1  0.69196718  0.86109400  0.82153349  1.0
  Ni  Ni819  1  0.13641162  0.19442733  0.87708905  1.0
  Ni  Ni820  1  0.13641162  0.52776067  0.87708905  1.0
  Ni  Ni821  1  0.13641162  0.86109400  0.87708905  1.0
  Ni  Ni822  1  0.46974495  0.19442733  0.87708905  1.0
  Ni  Ni823  1  0.46974495  0.52776067  0.87708905  1.0
  Ni  Ni824  1  0.46974495  0.86109400  0.87708905  1.0
  Ni  Ni825  1  0.80307829  0.19442733  0.87708905  1.0
  Ni  Ni826  1  0.80307829  0.52776067  0.87708905  1.0
  Ni  Ni827  1  0.80307829  0.86109400  0.87708905  1.0
  Ni  Ni828  1  0.24752273  0.19442733  0.84990644  1.0
  Ni  Ni829  1  0.24752273  0.52776067  0.84990644  1.0
  Ni  Ni830  1  0.24752273  0.86109400  0.84990644  1.0
  Ni  Ni831  1  0.58085606  0.19442733  0.84990644  1.0
  Ni  Ni832  1  0.58085606  0.52776067  0.84990644  1.0
  Ni  Ni833  1  0.58085606  0.86109400  0.84990644  1.0
  Ni  Ni834  1  0.91418940  0.19442733  0.84990644  1.0
  Ni  Ni835  1  0.91418940  0.52776067  0.84990644  1.0
  Ni  Ni836  1  0.91418940  0.86109400  0.84990644  1.0
  Ni  Ni837  1  0.13641162  0.19442733  0.79435088  1.0
  Ni  Ni838  1  0.13641162  0.52776067  0.79435088  1.0
  Ni  Ni839  1  0.13641162  0.86109400  0.79435088  1.0
  Ni  Ni840  1  0.46974495  0.19442733  0.79435088  1.0
  Ni  Ni841  1  0.46974495  0.52776067  0.79435088  1.0
  Ni  Ni842  1  0.46974495  0.86109400  0.79435088  1.0
  Ni  Ni843  1  0.80307829  0.19442733  0.79435088  1.0
  Ni  Ni844  1  0.80307829  0.52776067  0.79435088  1.0
  Ni  Ni845  1  0.80307829  0.86109400  0.79435088  1.0
  Ni  Ni846  1  0.30347506  0.19442733  0.79395410  1.0
  Ni  Ni847  1  0.30347506  0.52776067  0.79395410  1.0
  Ni  Ni848  1  0.30347506  0.86109400  0.79395410  1.0
  Ni  Ni849  1  0.63680840  0.19442733  0.79395410  1.0
  Ni  Ni850  1  0.63680840  0.52776067  0.79395410  1.0
  Ni  Ni851  1  0.63680840  0.86109400  0.79395410  1.0
  Ni  Ni852  1  0.97014173  0.19442733  0.79395410  1.0
  Ni  Ni853  1  0.97014173  0.52776067  0.79395410  1.0
  Ni  Ni854  1  0.97014173  0.86109400  0.79395410  1.0
  Ni  Ni855  1  0.08125284  0.19442733  0.84950966  1.0
  Ni  Ni856  1  0.08125284  0.52776067  0.84950966  1.0
  Ni  Ni857  1  0.08125284  0.86109400  0.84950966  1.0
  Ni  Ni858  1  0.41458618  0.19442733  0.84950966  1.0
  Ni  Ni859  1  0.41458618  0.52776067  0.84950966  1.0
  Ni  Ni860  1  0.41458618  0.86109400  0.84950966  1.0
  Ni  Ni861  1  0.74791951  0.19442733  0.84950966  1.0
  Ni  Ni862  1  0.74791951  0.52776067  0.84950966  1.0
  Ni  Ni863  1  0.74791951  0.86109400  0.84950966  1.0
  Ni  Ni864  1  0.01614018  0.27786067  0.84492949  1.0
  Ni  Ni865  1  0.01614018  0.61119400  0.84492949  1.0
  Ni  Ni866  1  0.01614018  0.94452733  0.84492949  1.0
  Ni  Ni867  1  0.34947351  0.27786067  0.84492949  1.0
  Ni  Ni868  1  0.34947351  0.61119400  0.84492949  1.0
  Ni  Ni869  1  0.34947351  0.94452733  0.84492949  1.0
  Ni  Ni870  1  0.68280684  0.27786067  0.84492949  1.0
  Ni  Ni871  1  0.68280684  0.61119400  0.84492949  1.0
  Ni  Ni872  1  0.68280684  0.94452733  0.84492949  1.0
  Ni  Ni873  1  0.23836240  0.27786067  0.78937394  1.0
  Ni  Ni874  1  0.23836240  0.61119400  0.78937394  1.0
  Ni  Ni875  1  0.23836240  0.94452733  0.78937394  1.0
  Ni  Ni876  1  0.57169573  0.27786067  0.78937394  1.0
  Ni  Ni877  1  0.57169573  0.61119400  0.78937394  1.0
  Ni  Ni878  1  0.57169573  0.94452733  0.78937394  1.0
  Ni  Ni879  1  0.90502906  0.27786067  0.78937394  1.0
  Ni  Ni880  1  0.90502906  0.61119400  0.78937394  1.0
  Ni  Ni881  1  0.90502906  0.94452733  0.78937394  1.0
  Ni  Ni882  1  0.09026951  0.05547267  0.88199416  1.0
  Ni  Ni883  1  0.09026951  0.38880600  0.88199416  1.0
  Ni  Ni884  1  0.09026951  0.72213933  0.88199416  1.0
  Ni  Ni885  1  0.42360284  0.05547267  0.88199416  1.0
  Ni  Ni886  1  0.42360284  0.38880600  0.88199416  1.0
  Ni  Ni887  1  0.42360284  0.72213933  0.88199416  1.0
  Ni  Ni888  1  0.75693618  0.05547267  0.88199416  1.0
  Ni  Ni889  1  0.75693618  0.38880600  0.88199416  1.0
  Ni  Ni890  1  0.75693618  0.72213933  0.88199416  1.0
  Ni  Ni891  1  0.31249173  0.05547267  0.82643860  1.0
  Ni  Ni892  1  0.31249173  0.38880600  0.82643860  1.0
  Ni  Ni893  1  0.31249173  0.72213933  0.82643860  1.0
  Ni  Ni894  1  0.64582506  0.05547267  0.82643860  1.0
  Ni  Ni895  1  0.64582506  0.38880600  0.82643860  1.0
  Ni  Ni896  1  0.64582506  0.72213933  0.82643860  1.0
  Ni  Ni897  1  0.97915840  0.05547267  0.82643860  1.0
  Ni  Ni898  1  0.97915840  0.38880600  0.82643860  1.0
  Ni  Ni899  1  0.97915840  0.72213933  0.82643860  1.0
  Ni  Ni900  1  0.07169573  0.11119400  0.87270727  1.0
  Ni  Ni901  1  0.07169573  0.44452733  0.87270727  1.0
  Ni  Ni902  1  0.07169573  0.77786067  0.87270727  1.0
  Ni  Ni903  1  0.40502906  0.11119400  0.87270727  1.0
  Ni  Ni904  1  0.40502906  0.44452733  0.87270727  1.0
  Ni  Ni905  1  0.40502906  0.77786067  0.87270727  1.0
  Ni  Ni906  1  0.73836240  0.11119400  0.87270727  1.0
  Ni  Ni907  1  0.73836240  0.44452733  0.87270727  1.0
  Ni  Ni908  1  0.73836240  0.77786067  0.87270727  1.0
  Ni  Ni909  1  0.29391795  0.11119400  0.81715171  1.0
  Ni  Ni910  1  0.29391795  0.44452733  0.81715171  1.0
  Ni  Ni911  1  0.29391795  0.77786067  0.81715171  1.0
  Ni  Ni912  1  0.62725129  0.11119400  0.81715171  1.0
  Ni  Ni913  1  0.62725129  0.44452733  0.81715171  1.0
  Ni  Ni914  1  0.62725129  0.77786067  0.81715171  1.0
  Ni  Ni915  1  0.96058462  0.11119400  0.81715171  1.0
  Ni  Ni916  1  0.96058462  0.44452733  0.81715171  1.0
  Ni  Ni917  1  0.96058462  0.77786067  0.81715171  1.0
  Ni  Ni918  1  0.03471395  0.22213933  0.85421638  1.0
  Ni  Ni919  1  0.03471395  0.55547267  0.85421638  1.0
  Ni  Ni920  1  0.03471395  0.88880600  0.85421638  1.0
  Ni  Ni921  1  0.36804729  0.22213933  0.85421638  1.0
  Ni  Ni922  1  0.36804729  0.55547267  0.85421638  1.0
  Ni  Ni923  1  0.36804729  0.88880600  0.85421638  1.0
  Ni  Ni924  1  0.70138062  0.22213933  0.85421638  1.0
  Ni  Ni925  1  0.70138062  0.55547267  0.85421638  1.0
  Ni  Ni926  1  0.70138062  0.88880600  0.85421638  1.0
  Ni  Ni927  1  0.25693618  0.22213933  0.79866082  1.0
  Ni  Ni928  1  0.25693618  0.55547267  0.79866082  1.0
  Ni  Ni929  1  0.25693618  0.88880600  0.79866082  1.0
  Ni  Ni930  1  0.59026951  0.22213933  0.79866082  1.0
  Ni  Ni931  1  0.59026951  0.55547267  0.79866082  1.0
  Ni  Ni932  1  0.59026951  0.88880600  0.79866082  1.0
  Ni  Ni933  1  0.92360284  0.22213933  0.79866082  1.0
  Ni  Ni934  1  0.92360284  0.55547267  0.79866082  1.0
  Ni  Ni935  1  0.92360284  0.88880600  0.79866082  1.0
  Ni  Ni936  1  0.12728455  0.05553867  0.78939056  1.0
  Ni  Ni937  1  0.12728455  0.38887200  0.78939056  1.0
  Ni  Ni938  1  0.12728455  0.72220533  0.78939056  1.0
  Ni  Ni939  1  0.46061788  0.05553867  0.78939056  1.0
  Ni  Ni940  1  0.46061788  0.38887200  0.78939056  1.0
  Ni  Ni941  1  0.46061788  0.72220533  0.78939056  1.0
  Ni  Ni942  1  0.79395121  0.05553867  0.78939056  1.0
  Ni  Ni943  1  0.79395121  0.38887200  0.78939056  1.0
  Ni  Ni944  1  0.79395121  0.72220533  0.78939056  1.0
  Ni  Ni945  1  0.23839566  0.05553867  0.84494612  1.0
  Ni  Ni946  1  0.23839566  0.38887200  0.84494612  1.0
  Ni  Ni947  1  0.23839566  0.72220533  0.84494612  1.0
  Ni  Ni948  1  0.57172899  0.05553867  0.84494612  1.0
  Ni  Ni949  1  0.57172899  0.38887200  0.84494612  1.0
  Ni  Ni950  1  0.57172899  0.72220533  0.84494612  1.0
  Ni  Ni951  1  0.90506232  0.05553867  0.84494612  1.0
  Ni  Ni952  1  0.90506232  0.38887200  0.84494612  1.0
  Ni  Ni953  1  0.90506232  0.72220533  0.84494612  1.0
  Ni  Ni954  1  0.20134736  0.27779467  0.88197753  1.0
  Ni  Ni955  1  0.20134736  0.61112800  0.88197753  1.0
  Ni  Ni956  1  0.20134736  0.94446133  0.88197753  1.0
  Ni  Ni957  1  0.53468069  0.27779467  0.88197753  1.0
  Ni  Ni958  1  0.53468069  0.61112800  0.88197753  1.0
  Ni  Ni959  1  0.53468069  0.94446133  0.88197753  1.0
  Ni  Ni960  1  0.86801403  0.27779467  0.88197753  1.0
  Ni  Ni961  1  0.86801403  0.61112800  0.88197753  1.0
  Ni  Ni962  1  0.86801403  0.94446133  0.88197753  1.0
  Ni  Ni963  1  0.09023625  0.27779467  0.82642197  1.0
  Ni  Ni964  1  0.09023625  0.61112800  0.82642197  1.0
  Ni  Ni965  1  0.09023625  0.94446133  0.82642197  1.0
  Ni  Ni966  1  0.42356958  0.27779467  0.82642197  1.0
  Ni  Ni967  1  0.42356958  0.61112800  0.82642197  1.0
  Ni  Ni968  1  0.42356958  0.94446133  0.82642197  1.0
  Ni  Ni969  1  0.75690292  0.27779467  0.82642197  1.0
  Ni  Ni970  1  0.75690292  0.61112800  0.82642197  1.0
  Ni  Ni971  1  0.75690292  0.94446133  0.82642197  1.0
  Ni  Ni972  1  0.33098262  0.22222222  0.78012849  1.0
  Ni  Ni973  1  0.33098262  0.55555556  0.78012849  1.0
  Ni  Ni974  1  0.33098262  0.88888889  0.78012849  1.0
  Ni  Ni975  1  0.66431595  0.22222222  0.78012849  1.0
  Ni  Ni976  1  0.66431595  0.55555556  0.78012849  1.0
  Ni  Ni977  1  0.66431595  0.88888889  0.78012849  1.0
  Ni  Ni978  1  0.99764929  0.22222222  0.78012849  1.0
  Ni  Ni979  1  0.99764929  0.55555556  0.78012849  1.0
  Ni  Ni980  1  0.99764929  0.88888889  0.78012849  1.0
  Ni  Ni981  1  0.10876040  0.22222222  0.83568405  1.0
  Ni  Ni982  1  0.10876040  0.55555556  0.83568405  1.0
  Ni  Ni983  1  0.10876040  0.88888889  0.83568405  1.0
  Ni  Ni984  1  0.44209373  0.22222222  0.83568405  1.0
  Ni  Ni985  1  0.44209373  0.55555556  0.83568405  1.0
  Ni  Ni986  1  0.44209373  0.88888889  0.83568405  1.0
  Ni  Ni987  1  0.77542706  0.22222222  0.83568405  1.0
  Ni  Ni988  1  0.77542706  0.55555556  0.83568405  1.0
  Ni  Ni989  1  0.77542706  0.88888889  0.83568405  1.0
  Ni  Ni990  1  0.10875477  0.11112800  0.78012568  1.0
  Ni  Ni991  1  0.10875477  0.44446133  0.78012568  1.0
  Ni  Ni992  1  0.10875477  0.77779467  0.78012568  1.0
  Ni  Ni993  1  0.44208810  0.11112800  0.78012568  1.0
  Ni  Ni994  1  0.44208810  0.44446133  0.78012568  1.0
  Ni  Ni995  1  0.44208810  0.77779467  0.78012568  1.0
  Ni  Ni996  1  0.77542144  0.11112800  0.78012568  1.0
  Ni  Ni997  1  0.77542144  0.44446133  0.78012568  1.0
  Ni  Ni998  1  0.77542144  0.77779467  0.78012568  1.0
  Ni  Ni999  1  0.21986588  0.11112800  0.83568123  1.0
  Ni  Ni1000  1  0.21986588  0.44446133  0.83568123  1.0
  Ni  Ni1001  1  0.21986588  0.77779467  0.83568123  1.0
  Ni  Ni1002  1  0.55319921  0.11112800  0.83568123  1.0
  Ni  Ni1003  1  0.55319921  0.44446133  0.83568123  1.0
  Ni  Ni1004  1  0.55319921  0.77779467  0.83568123  1.0
  Ni  Ni1005  1  0.88653255  0.11112800  0.83568123  1.0
  Ni  Ni1006  1  0.88653255  0.44446133  0.83568123  1.0
  Ni  Ni1007  1  0.88653255  0.77779467  0.83568123  1.0
  Ni  Ni1008  1  0.33098262  0.00000000  0.66901738  1.0
  Ni  Ni1009  1  0.33098262  0.33333333  0.66901738  1.0
  Ni  Ni1010  1  0.33098262  0.66666667  0.66901738  1.0
  Ni  Ni1011  1  0.66431595  0.00000000  0.66901738  1.0
  Ni  Ni1012  1  0.66431595  0.33333333  0.66901738  1.0
  Ni  Ni1013  1  0.66431595  0.66666667  0.66901738  1.0
  Ni  Ni1014  1  0.99764929  0.00000000  0.66901738  1.0
  Ni  Ni1015  1  0.99764929  0.33333333  0.66901738  1.0
  Ni  Ni1016  1  0.99764929  0.66666667  0.66901738  1.0
  Ni  Ni1017  1  0.10876040  0.00000000  0.72457294  1.0
  Ni  Ni1018  1  0.10876040  0.33333333  0.72457294  1.0
  Ni  Ni1019  1  0.10876040  0.66666667  0.72457294  1.0
  Ni  Ni1020  1  0.44209373  0.00000000  0.72457294  1.0
  Ni  Ni1021  1  0.44209373  0.33333333  0.72457294  1.0
  Ni  Ni1022  1  0.44209373  0.66666667  0.72457294  1.0
  Ni  Ni1023  1  0.77542706  0.00000000  0.72457294  1.0
  Ni  Ni1024  1  0.77542706  0.33333333  0.72457294  1.0
  Ni  Ni1025  1  0.77542706  0.66666667  0.72457294  1.0
  Ni  Ni1026  1  0.16431595  0.16666667  0.75235071  1.0
  Ni  Ni1027  1  0.16431595  0.50000000  0.75235071  1.0
  Ni  Ni1028  1  0.16431595  0.83333333  0.75235071  1.0
  Ni  Ni1029  1  0.49764929  0.16666667  0.75235071  1.0
  Ni  Ni1030  1  0.49764929  0.50000000  0.75235071  1.0
  Ni  Ni1031  1  0.49764929  0.83333333  0.75235071  1.0
  Ni  Ni1032  1  0.83098262  0.16666667  0.75235071  1.0
  Ni  Ni1033  1  0.83098262  0.50000000  0.75235071  1.0
  Ni  Ni1034  1  0.83098262  0.83333333  0.75235071  1.0
  Ni  Ni1035  1  0.05320484  0.16666667  0.69679516  1.0
  Ni  Ni1036  1  0.05320484  0.50000000  0.69679516  1.0
  Ni  Ni1037  1  0.05320484  0.83333333  0.69679516  1.0
  Ni  Ni1038  1  0.38653818  0.16666667  0.69679516  1.0
  Ni  Ni1039  1  0.38653818  0.50000000  0.69679516  1.0
  Ni  Ni1040  1  0.38653818  0.83333333  0.69679516  1.0
  Ni  Ni1041  1  0.71987151  0.16666667  0.69679516  1.0
  Ni  Ni1042  1  0.71987151  0.50000000  0.69679516  1.0
  Ni  Ni1043  1  0.71987151  0.83333333  0.69679516  1.0
  Ni  Ni1044  1  0.11802640  0.25000000  0.70143827  1.0
  Ni  Ni1045  1  0.11802640  0.58333333  0.70143827  1.0
  Ni  Ni1046  1  0.11802640  0.91666667  0.70143827  1.0
  Ni  Ni1047  1  0.45135973  0.25000000  0.70143827  1.0
  Ni  Ni1048  1  0.45135973  0.58333333  0.70143827  1.0
  Ni  Ni1049  1  0.45135973  0.91666667  0.70143827  1.0
  Ni  Ni1050  1  0.78469306  0.25000000  0.70143827  1.0
  Ni  Ni1051  1  0.78469306  0.58333333  0.70143827  1.0
  Ni  Ni1052  1  0.78469306  0.91666667  0.70143827  1.0
  Ni  Ni1053  1  0.22913751  0.25000000  0.75699382  1.0
  Ni  Ni1054  1  0.22913751  0.58333333  0.75699382  1.0
  Ni  Ni1055  1  0.22913751  0.91666667  0.75699382  1.0
  Ni  Ni1056  1  0.56247084  0.25000000  0.75699382  1.0
  Ni  Ni1057  1  0.56247084  0.58333333  0.75699382  1.0
  Ni  Ni1058  1  0.56247084  0.91666667  0.75699382  1.0
  Ni  Ni1059  1  0.89580418  0.25000000  0.75699382  1.0
  Ni  Ni1060  1  0.89580418  0.58333333  0.75699382  1.0
  Ni  Ni1061  1  0.89580418  0.91666667  0.75699382  1.0
  Ni  Ni1062  1  0.00691529  0.25000000  0.72918571  1.0
  Ni  Ni1063  1  0.00691529  0.58333333  0.72918571  1.0
  Ni  Ni1064  1  0.00691529  0.91666667  0.72918571  1.0
  Ni  Ni1065  1  0.34024862  0.25000000  0.72918571  1.0
  Ni  Ni1066  1  0.34024862  0.58333333  0.72918571  1.0
  Ni  Ni1067  1  0.34024862  0.91666667  0.72918571  1.0
  Ni  Ni1068  1  0.67358195  0.25000000  0.72918571  1.0
  Ni  Ni1069  1  0.67358195  0.58333333  0.72918571  1.0
  Ni  Ni1070  1  0.67358195  0.91666667  0.72918571  1.0
  Ni  Ni1071  1  0.22913751  0.25000000  0.67363016  1.0
  Ni  Ni1072  1  0.22913751  0.58333333  0.67363016  1.0
  Ni  Ni1073  1  0.22913751  0.91666667  0.67363016  1.0
  Ni  Ni1074  1  0.56247084  0.25000000  0.67363016  1.0
  Ni  Ni1075  1  0.56247084  0.58333333  0.67363016  1.0
  Ni  Ni1076  1  0.56247084  0.91666667  0.67363016  1.0
  Ni  Ni1077  1  0.89580418  0.25000000  0.67363016  1.0
  Ni  Ni1078  1  0.89580418  0.58333333  0.67363016  1.0
  Ni  Ni1079  1  0.89580418  0.91666667  0.67363016  1.0
  Ni  Ni1080  1  0.06245062  0.25000000  0.67365038  1.0
  Ni  Ni1081  1  0.06245062  0.58333333  0.67365038  1.0
  Ni  Ni1082  1  0.06245062  0.91666667  0.67365038  1.0
  Ni  Ni1083  1  0.39578395  0.25000000  0.67365038  1.0
  Ni  Ni1084  1  0.39578395  0.58333333  0.67365038  1.0
  Ni  Ni1085  1  0.39578395  0.91666667  0.67365038  1.0
  Ni  Ni1086  1  0.72911729  0.25000000  0.67365038  1.0
  Ni  Ni1087  1  0.72911729  0.58333333  0.67365038  1.0
  Ni  Ni1088  1  0.72911729  0.91666667  0.67365038  1.0
  Ni  Ni1089  1  0.17356173  0.25000000  0.72920594  1.0
  Ni  Ni1090  1  0.17356173  0.58333333  0.72920594  1.0
  Ni  Ni1091  1  0.17356173  0.91666667  0.72920594  1.0
  Ni  Ni1092  1  0.50689506  0.25000000  0.72920594  1.0
  Ni  Ni1093  1  0.50689506  0.58333333  0.72920594  1.0
  Ni  Ni1094  1  0.50689506  0.91666667  0.72920594  1.0
  Ni  Ni1095  1  0.84022840  0.25000000  0.72920594  1.0
  Ni  Ni1096  1  0.84022840  0.58333333  0.72920594  1.0
  Ni  Ni1097  1  0.84022840  0.91666667  0.72920594  1.0
  Ni  Ni1098  1  0.09949440  0.08333333  0.74770760  1.0
  Ni  Ni1099  1  0.09949440  0.41666667  0.74770760  1.0
  Ni  Ni1100  1  0.09949440  0.75000000  0.74770760  1.0
  Ni  Ni1101  1  0.43282773  0.08333333  0.74770760  1.0
  Ni  Ni1102  1  0.43282773  0.41666667  0.74770760  1.0
  Ni  Ni1103  1  0.43282773  0.75000000  0.74770760  1.0
  Ni  Ni1104  1  0.76616106  0.08333333  0.74770760  1.0
  Ni  Ni1105  1  0.76616106  0.41666667  0.74770760  1.0
  Ni  Ni1106  1  0.76616106  0.75000000  0.74770760  1.0
  Ni  Ni1107  1  0.32171662  0.08333333  0.69215205  1.0
  Ni  Ni1108  1  0.32171662  0.41666667  0.69215205  1.0
  Ni  Ni1109  1  0.32171662  0.75000000  0.69215205  1.0
  Ni  Ni1110  1  0.65504995  0.08333333  0.69215205  1.0
  Ni  Ni1111  1  0.65504995  0.41666667  0.69215205  1.0
  Ni  Ni1112  1  0.65504995  0.75000000  0.69215205  1.0
  Ni  Ni1113  1  0.98838329  0.08333333  0.69215205  1.0
  Ni  Ni1114  1  0.98838329  0.41666667  0.69215205  1.0
  Ni  Ni1115  1  0.98838329  0.75000000  0.69215205  1.0
  Ni  Ni1116  1  0.21060551  0.08333333  0.71996016  1.0
  Ni  Ni1117  1  0.21060551  0.41666667  0.71996016  1.0
  Ni  Ni1118  1  0.21060551  0.75000000  0.71996016  1.0
  Ni  Ni1119  1  0.54393884  0.08333333  0.71996016  1.0
  Ni  Ni1120  1  0.54393884  0.41666667  0.71996016  1.0
  Ni  Ni1121  1  0.54393884  0.75000000  0.71996016  1.0
  Ni  Ni1122  1  0.87727218  0.08333333  0.71996016  1.0
  Ni  Ni1123  1  0.87727218  0.41666667  0.71996016  1.0
  Ni  Ni1124  1  0.87727218  0.75000000  0.71996016  1.0
  Ni  Ni1125  1  0.32171662  0.08333333  0.77551571  1.0
  Ni  Ni1126  1  0.32171662  0.41666667  0.77551571  1.0
  Ni  Ni1127  1  0.32171662  0.75000000  0.77551571  1.0
  Ni  Ni1128  1  0.65504995  0.08333333  0.77551571  1.0
  Ni  Ni1129  1  0.65504995  0.41666667  0.77551571  1.0
  Ni  Ni1130  1  0.65504995  0.75000000  0.77551571  1.0
  Ni  Ni1131  1  0.98838329  0.08333333  0.77551571  1.0
  Ni  Ni1132  1  0.98838329  0.41666667  0.77551571  1.0
  Ni  Ni1133  1  0.98838329  0.75000000  0.77551571  1.0
  Ni  Ni1134  1  0.15507018  0.08333333  0.77549549  1.0
  Ni  Ni1135  1  0.15507018  0.41666667  0.77549549  1.0
  Ni  Ni1136  1  0.15507018  0.75000000  0.77549549  1.0
  Ni  Ni1137  1  0.48840351  0.08333333  0.77549549  1.0
  Ni  Ni1138  1  0.48840351  0.41666667  0.77549549  1.0
  Ni  Ni1139  1  0.48840351  0.75000000  0.77549549  1.0
  Ni  Ni1140  1  0.82173684  0.08333333  0.77549549  1.0
  Ni  Ni1141  1  0.82173684  0.41666667  0.77549549  1.0
  Ni  Ni1142  1  0.82173684  0.75000000  0.77549549  1.0
  Ni  Ni1143  1  0.04395906  0.08333333  0.71993994  1.0
  Ni  Ni1144  1  0.04395906  0.41666667  0.71993994  1.0
  Ni  Ni1145  1  0.04395906  0.75000000  0.71993994  1.0
  Ni  Ni1146  1  0.37729240  0.08333333  0.71993994  1.0
  Ni  Ni1147  1  0.37729240  0.41666667  0.71993994  1.0
  Ni  Ni1148  1  0.37729240  0.75000000  0.71993994  1.0
  Ni  Ni1149  1  0.71062573  0.08333333  0.71993994  1.0
  Ni  Ni1150  1  0.71062573  0.41666667  0.71993994  1.0
  Ni  Ni1151  1  0.71062573  0.75000000  0.71993994  1.0
  Ni  Ni1152  1  0.09936318  0.30557267  0.69189816  1.0
  Ni  Ni1153  1  0.09936318  0.63890600  0.69189816  1.0
  Ni  Ni1154  1  0.09936318  0.97223933  0.69189816  1.0
  Ni  Ni1155  1  0.43269651  0.30557267  0.69189816  1.0
  Ni  Ni1156  1  0.43269651  0.63890600  0.69189816  1.0
  Ni  Ni1157  1  0.43269651  0.97223933  0.69189816  1.0
  Ni  Ni1158  1  0.76602984  0.30557267  0.69189816  1.0
  Ni  Ni1159  1  0.76602984  0.63890600  0.69189816  1.0
  Ni  Ni1160  1  0.76602984  0.97223933  0.69189816  1.0
  Ni  Ni1161  1  0.21047429  0.30557267  0.74745371  1.0
  Ni  Ni1162  1  0.21047429  0.63890600  0.74745371  1.0
  Ni  Ni1163  1  0.21047429  0.97223933  0.74745371  1.0
  Ni  Ni1164  1  0.54380762  0.30557267  0.74745371  1.0
  Ni  Ni1165  1  0.54380762  0.63890600  0.74745371  1.0
  Ni  Ni1166  1  0.54380762  0.97223933  0.74745371  1.0
  Ni  Ni1167  1  0.87714095  0.30557267  0.74745371  1.0
  Ni  Ni1168  1  0.87714095  0.63890600  0.74745371  1.0
  Ni  Ni1169  1  0.87714095  0.97223933  0.74745371  1.0
  Ni  Ni1170  1  0.32158540  0.30557267  0.72027110  1.0
  Ni  Ni1171  1  0.32158540  0.63890600  0.72027110  1.0
  Ni  Ni1172  1  0.32158540  0.97223933  0.72027110  1.0
  Ni  Ni1173  1  0.65491873  0.30557267  0.72027110  1.0
  Ni  Ni1174  1  0.65491873  0.63890600  0.72027110  1.0
  Ni  Ni1175  1  0.65491873  0.97223933  0.72027110  1.0
  Ni  Ni1176  1  0.98825206  0.30557267  0.72027110  1.0
  Ni  Ni1177  1  0.98825206  0.63890600  0.72027110  1.0
  Ni  Ni1178  1  0.98825206  0.97223933  0.72027110  1.0
  Ni  Ni1179  1  0.09936318  0.30557267  0.77582666  1.0
  Ni  Ni1180  1  0.09936318  0.63890600  0.77582666  1.0
  Ni  Ni1181  1  0.09936318  0.97223933  0.77582666  1.0
  Ni  Ni1182  1  0.43269651  0.30557267  0.77582666  1.0
  Ni  Ni1183  1  0.43269651  0.63890600  0.77582666  1.0
  Ni  Ni1184  1  0.43269651  0.97223933  0.77582666  1.0
  Ni  Ni1185  1  0.76602984  0.30557267  0.77582666  1.0
  Ni  Ni1186  1  0.76602984  0.63890600  0.77582666  1.0
  Ni  Ni1187  1  0.76602984  0.97223933  0.77582666  1.0
  Ni  Ni1188  1  0.26642662  0.30557267  0.77542988  1.0
  Ni  Ni1189  1  0.26642662  0.63890600  0.77542988  1.0
  Ni  Ni1190  1  0.26642662  0.97223933  0.77542988  1.0
  Ni  Ni1191  1  0.59975995  0.30557267  0.77542988  1.0
  Ni  Ni1192  1  0.59975995  0.63890600  0.77542988  1.0
  Ni  Ni1193  1  0.59975995  0.97223933  0.77542988  1.0
  Ni  Ni1194  1  0.93309329  0.30557267  0.77542988  1.0
  Ni  Ni1195  1  0.93309329  0.63890600  0.77542988  1.0
  Ni  Ni1196  1  0.93309329  0.97223933  0.77542988  1.0
  Ni  Ni1197  1  0.15531551  0.30557267  0.71987432  1.0
  Ni  Ni1198  1  0.15531551  0.63890600  0.71987432  1.0
  Ni  Ni1199  1  0.15531551  0.97223933  0.71987432  1.0
  Ni  Ni1200  1  0.48864884  0.30557267  0.71987432  1.0
  Ni  Ni1201  1  0.48864884  0.63890600  0.71987432  1.0
  Ni  Ni1202  1  0.48864884  0.97223933  0.71987432  1.0
  Ni  Ni1203  1  0.82198218  0.30557267  0.71987432  1.0
  Ni  Ni1204  1  0.82198218  0.63890600  0.71987432  1.0
  Ni  Ni1205  1  0.82198218  0.97223933  0.71987432  1.0
  Ni  Ni1206  1  0.11815762  0.02776067  0.75724771  1.0
  Ni  Ni1207  1  0.11815762  0.36109400  0.75724771  1.0
  Ni  Ni1208  1  0.11815762  0.69442733  0.75724771  1.0
  Ni  Ni1209  1  0.45149095  0.02776067  0.75724771  1.0
  Ni  Ni1210  1  0.45149095  0.36109400  0.75724771  1.0
  Ni  Ni1211  1  0.45149095  0.69442733  0.75724771  1.0
  Ni  Ni1212  1  0.78482429  0.02776067  0.75724771  1.0
  Ni  Ni1213  1  0.78482429  0.36109400  0.75724771  1.0
  Ni  Ni1214  1  0.78482429  0.69442733  0.75724771  1.0
  Ni  Ni1215  1  0.00704651  0.02776067  0.70169216  1.0
  Ni  Ni1216  1  0.00704651  0.36109400  0.70169216  1.0
  Ni  Ni1217  1  0.00704651  0.69442733  0.70169216  1.0
  Ni  Ni1218  1  0.34037984  0.02776067  0.70169216  1.0
  Ni  Ni1219  1  0.34037984  0.36109400  0.70169216  1.0
  Ni  Ni1220  1  0.34037984  0.69442733  0.70169216  1.0
  Ni  Ni1221  1  0.67371318  0.02776067  0.70169216  1.0
  Ni  Ni1222  1  0.67371318  0.36109400  0.70169216  1.0
  Ni  Ni1223  1  0.67371318  0.69442733  0.70169216  1.0
  Ni  Ni1224  1  0.22926873  0.02776067  0.72887477  1.0
  Ni  Ni1225  1  0.22926873  0.36109400  0.72887477  1.0
  Ni  Ni1226  1  0.22926873  0.69442733  0.72887477  1.0
  Ni  Ni1227  1  0.56260206  0.02776067  0.72887477  1.0
  Ni  Ni1228  1  0.56260206  0.36109400  0.72887477  1.0
  Ni  Ni1229  1  0.56260206  0.69442733  0.72887477  1.0
  Ni  Ni1230  1  0.89593540  0.02776067  0.72887477  1.0
  Ni  Ni1231  1  0.89593540  0.36109400  0.72887477  1.0
  Ni  Ni1232  1  0.89593540  0.69442733  0.72887477  1.0
  Ni  Ni1233  1  0.11815762  0.02776067  0.67331921  1.0
  Ni  Ni1234  1  0.11815762  0.36109400  0.67331921  1.0
  Ni  Ni1235  1  0.11815762  0.69442733  0.67331921  1.0
  Ni  Ni1236  1  0.45149095  0.02776067  0.67331921  1.0
  Ni  Ni1237  1  0.45149095  0.36109400  0.67331921  1.0
  Ni  Ni1238  1  0.45149095  0.69442733  0.67331921  1.0
  Ni  Ni1239  1  0.78482429  0.02776067  0.67331921  1.0
  Ni  Ni1240  1  0.78482429  0.36109400  0.67331921  1.0
  Ni  Ni1241  1  0.78482429  0.69442733  0.67331921  1.0
  Ni  Ni1242  1  0.28442751  0.02776067  0.67371599  1.0
  Ni  Ni1243  1  0.28442751  0.36109400  0.67371599  1.0
  Ni  Ni1244  1  0.28442751  0.69442733  0.67371599  1.0
  Ni  Ni1245  1  0.61776084  0.02776067  0.67371599  1.0
  Ni  Ni1246  1  0.61776084  0.36109400  0.67371599  1.0
  Ni  Ni1247  1  0.61776084  0.69442733  0.67371599  1.0
  Ni  Ni1248  1  0.95109418  0.02776067  0.67371599  1.0
  Ni  Ni1249  1  0.95109418  0.36109400  0.67371599  1.0
  Ni  Ni1250  1  0.95109418  0.69442733  0.67371599  1.0
  Ni  Ni1251  1  0.06220529  0.02776067  0.72927155  1.0
  Ni  Ni1252  1  0.06220529  0.36109400  0.72927155  1.0
  Ni  Ni1253  1  0.06220529  0.69442733  0.72927155  1.0
  Ni  Ni1254  1  0.39553862  0.02776067  0.72927155  1.0
  Ni  Ni1255  1  0.39553862  0.36109400  0.72927155  1.0
  Ni  Ni1256  1  0.39553862  0.69442733  0.72927155  1.0
  Ni  Ni1257  1  0.72887195  0.02776067  0.72927155  1.0
  Ni  Ni1258  1  0.72887195  0.36109400  0.72927155  1.0
  Ni  Ni1259  1  0.72887195  0.69442733  0.72927155  1.0
  Ni  Ni1260  1  0.08110918  0.13890600  0.73872349  1.0
  Ni  Ni1261  1  0.08110918  0.47223933  0.73872349  1.0
  Ni  Ni1262  1  0.08110918  0.80557267  0.73872349  1.0
  Ni  Ni1263  1  0.41444251  0.13890600  0.73872349  1.0
  Ni  Ni1264  1  0.41444251  0.47223933  0.73872349  1.0
  Ni  Ni1265  1  0.41444251  0.80557267  0.73872349  1.0
  Ni  Ni1266  1  0.74777584  0.13890600  0.73872349  1.0
  Ni  Ni1267  1  0.74777584  0.47223933  0.73872349  1.0
  Ni  Ni1268  1  0.74777584  0.80557267  0.73872349  1.0
  Ni  Ni1269  1  0.30333140  0.13890600  0.68316794  1.0
  Ni  Ni1270  1  0.30333140  0.47223933  0.68316794  1.0
  Ni  Ni1271  1  0.30333140  0.80557267  0.68316794  1.0
  Ni  Ni1272  1  0.63666473  0.13890600  0.68316794  1.0
  Ni  Ni1273  1  0.63666473  0.47223933  0.68316794  1.0
  Ni  Ni1274  1  0.63666473  0.80557267  0.68316794  1.0
  Ni  Ni1275  1  0.96999806  0.13890600  0.68316794  1.0
  Ni  Ni1276  1  0.96999806  0.47223933  0.68316794  1.0
  Ni  Ni1277  1  0.96999806  0.80557267  0.68316794  1.0
  Ni  Ni1278  1  0.19222029  0.13890600  0.71035055  1.0
  Ni  Ni1279  1  0.19222029  0.47223933  0.71035055  1.0
  Ni  Ni1280  1  0.19222029  0.80557267  0.71035055  1.0
  Ni  Ni1281  1  0.52555362  0.13890600  0.71035055  1.0
  Ni  Ni1282  1  0.52555362  0.47223933  0.71035055  1.0
  Ni  Ni1283  1  0.52555362  0.80557267  0.71035055  1.0
  Ni  Ni1284  1  0.85888695  0.13890600  0.71035055  1.0
  Ni  Ni1285  1  0.85888695  0.47223933  0.71035055  1.0
  Ni  Ni1286  1  0.85888695  0.80557267  0.71035055  1.0
  Ni  Ni1287  1  0.30333140  0.13890600  0.76590610  1.0
  Ni  Ni1288  1  0.30333140  0.47223933  0.76590610  1.0
  Ni  Ni1289  1  0.30333140  0.80557267  0.76590610  1.0
  Ni  Ni1290  1  0.63666473  0.13890600  0.76590610  1.0
  Ni  Ni1291  1  0.63666473  0.47223933  0.76590610  1.0
  Ni  Ni1292  1  0.63666473  0.80557267  0.76590610  1.0
  Ni  Ni1293  1  0.96999806  0.13890600  0.76590610  1.0
  Ni  Ni1294  1  0.96999806  0.47223933  0.76590610  1.0
  Ni  Ni1295  1  0.96999806  0.80557267  0.76590610  1.0
  Ni  Ni1296  1  0.13626795  0.13890600  0.76630288  1.0
  Ni  Ni1297  1  0.13626795  0.47223933  0.76630288  1.0
  Ni  Ni1298  1  0.13626795  0.80557267  0.76630288  1.0
  Ni  Ni1299  1  0.46960129  0.13890600  0.76630288  1.0
  Ni  Ni1300  1  0.46960129  0.47223933  0.76630288  1.0
  Ni  Ni1301  1  0.46960129  0.80557267  0.76630288  1.0
  Ni  Ni1302  1  0.80293462  0.13890600  0.76630288  1.0
  Ni  Ni1303  1  0.80293462  0.47223933  0.76630288  1.0
  Ni  Ni1304  1  0.80293462  0.80557267  0.76630288  1.0
  Ni  Ni1305  1  0.02515684  0.13890600  0.71074732  1.0
  Ni  Ni1306  1  0.02515684  0.47223933  0.71074732  1.0
  Ni  Ni1307  1  0.02515684  0.80557267  0.71074732  1.0
  Ni  Ni1308  1  0.35849018  0.13890600  0.71074732  1.0
  Ni  Ni1309  1  0.35849018  0.47223933  0.71074732  1.0
  Ni  Ni1310  1  0.35849018  0.80557267  0.71074732  1.0
  Ni  Ni1311  1  0.69182351  0.13890600  0.71074732  1.0
  Ni  Ni1312  1  0.69182351  0.47223933  0.71074732  1.0
  Ni  Ni1313  1  0.69182351  0.80557267  0.71074732  1.0
  Ni  Ni1314  1  0.13641162  0.19442733  0.71042238  1.0
  Ni  Ni1315  1  0.13641162  0.52776067  0.71042238  1.0
  Ni  Ni1316  1  0.13641162  0.86109400  0.71042238  1.0
  Ni  Ni1317  1  0.46974495  0.19442733  0.71042238  1.0
  Ni  Ni1318  1  0.46974495  0.52776067  0.71042238  1.0
  Ni  Ni1319  1  0.46974495  0.86109400  0.71042238  1.0
  Ni  Ni1320  1  0.80307829  0.19442733  0.71042238  1.0
  Ni  Ni1321  1  0.80307829  0.52776067  0.71042238  1.0
  Ni  Ni1322  1  0.80307829  0.86109400  0.71042238  1.0
  Ni  Ni1323  1  0.24752273  0.19442733  0.76597794  1.0
  Ni  Ni1324  1  0.24752273  0.52776067  0.76597794  1.0
  Ni  Ni1325  1  0.24752273  0.86109400  0.76597794  1.0
  Ni  Ni1326  1  0.58085606  0.19442733  0.76597794  1.0
  Ni  Ni1327  1  0.58085606  0.52776067  0.76597794  1.0
  Ni  Ni1328  1  0.58085606  0.86109400  0.76597794  1.0
  Ni  Ni1329  1  0.91418940  0.19442733  0.76597794  1.0
  Ni  Ni1330  1  0.91418940  0.52776067  0.76597794  1.0
  Ni  Ni1331  1  0.91418940  0.86109400  0.76597794  1.0
  Ni  Ni1332  1  0.02530051  0.19442733  0.73879532  1.0
  Ni  Ni1333  1  0.02530051  0.52776067  0.73879532  1.0
  Ni  Ni1334  1  0.02530051  0.86109400  0.73879532  1.0
  Ni  Ni1335  1  0.35863384  0.19442733  0.73879532  1.0
  Ni  Ni1336  1  0.35863384  0.52776067  0.73879532  1.0
  Ni  Ni1337  1  0.35863384  0.86109400  0.73879532  1.0
  Ni  Ni1338  1  0.69196718  0.19442733  0.73879532  1.0
  Ni  Ni1339  1  0.69196718  0.52776067  0.73879532  1.0
  Ni  Ni1340  1  0.69196718  0.86109400  0.73879532  1.0
  Ni  Ni1341  1  0.24752273  0.19442733  0.68323977  1.0
  Ni  Ni1342  1  0.24752273  0.52776067  0.68323977  1.0
  Ni  Ni1343  1  0.24752273  0.86109400  0.68323977  1.0
  Ni  Ni1344  1  0.58085606  0.19442733  0.68323977  1.0
  Ni  Ni1345  1  0.58085606  0.52776067  0.68323977  1.0
  Ni  Ni1346  1  0.58085606  0.86109400  0.68323977  1.0
  Ni  Ni1347  1  0.91418940  0.19442733  0.68323977  1.0
  Ni  Ni1348  1  0.91418940  0.52776067  0.68323977  1.0
  Ni  Ni1349  1  0.91418940  0.86109400  0.68323977  1.0
  Ni  Ni1350  1  0.08125284  0.19442733  0.68284299  1.0
  Ni  Ni1351  1  0.08125284  0.52776067  0.68284299  1.0
  Ni  Ni1352  1  0.08125284  0.86109400  0.68284299  1.0
  Ni  Ni1353  1  0.41458618  0.19442733  0.68284299  1.0
  Ni  Ni1354  1  0.41458618  0.52776067  0.68284299  1.0
  Ni  Ni1355  1  0.41458618  0.86109400  0.68284299  1.0
  Ni  Ni1356  1  0.74791951  0.19442733  0.68284299  1.0
  Ni  Ni1357  1  0.74791951  0.52776067  0.68284299  1.0
  Ni  Ni1358  1  0.74791951  0.86109400  0.68284299  1.0
  Ni  Ni1359  1  0.19236395  0.19442733  0.73839855  1.0
  Ni  Ni1360  1  0.19236395  0.52776067  0.73839855  1.0
  Ni  Ni1361  1  0.19236395  0.86109400  0.73839855  1.0
  Ni  Ni1362  1  0.52569729  0.19442733  0.73839855  1.0
  Ni  Ni1363  1  0.52569729  0.52776067  0.73839855  1.0
  Ni  Ni1364  1  0.52569729  0.86109400  0.73839855  1.0
  Ni  Ni1365  1  0.85903062  0.19442733  0.73839855  1.0
  Ni  Ni1366  1  0.85903062  0.52776067  0.73839855  1.0
  Ni  Ni1367  1  0.85903062  0.86109400  0.73839855  1.0
  Ni  Ni1368  1  0.12725129  0.27786067  0.73381838  1.0
  Ni  Ni1369  1  0.12725129  0.61119400  0.73381838  1.0
  Ni  Ni1370  1  0.12725129  0.94452733  0.73381838  1.0
  Ni  Ni1371  1  0.46058462  0.27786067  0.73381838  1.0
  Ni  Ni1372  1  0.46058462  0.61119400  0.73381838  1.0
  Ni  Ni1373  1  0.46058462  0.94452733  0.73381838  1.0
  Ni  Ni1374  1  0.79391795  0.27786067  0.73381838  1.0
  Ni  Ni1375  1  0.79391795  0.61119400  0.73381838  1.0
  Ni  Ni1376  1  0.79391795  0.94452733  0.73381838  1.0
  Ni  Ni1377  1  0.01614018  0.27786067  0.67826282  1.0
  Ni  Ni1378  1  0.01614018  0.61119400  0.67826282  1.0
  Ni  Ni1379  1  0.01614018  0.94452733  0.67826282  1.0
  Ni  Ni1380  1  0.34947351  0.27786067  0.67826282  1.0
  Ni  Ni1381  1  0.34947351  0.61119400  0.67826282  1.0
  Ni  Ni1382  1  0.34947351  0.94452733  0.67826282  1.0
  Ni  Ni1383  1  0.68280684  0.27786067  0.67826282  1.0
  Ni  Ni1384  1  0.68280684  0.61119400  0.67826282  1.0
  Ni  Ni1385  1  0.68280684  0.94452733  0.67826282  1.0
  Ni  Ni1386  1  0.20138062  0.05547267  0.77088305  1.0
  Ni  Ni1387  1  0.20138062  0.38880600  0.77088305  1.0
  Ni  Ni1388  1  0.20138062  0.72213933  0.77088305  1.0
  Ni  Ni1389  1  0.53471395  0.05547267  0.77088305  1.0
  Ni  Ni1390  1  0.53471395  0.38880600  0.77088305  1.0
  Ni  Ni1391  1  0.53471395  0.72213933  0.77088305  1.0
  Ni  Ni1392  1  0.86804729  0.05547267  0.77088305  1.0
  Ni  Ni1393  1  0.86804729  0.38880600  0.77088305  1.0
  Ni  Ni1394  1  0.86804729  0.72213933  0.77088305  1.0
  Ni  Ni1395  1  0.09026951  0.05547267  0.71532749  1.0
  Ni  Ni1396  1  0.09026951  0.38880600  0.71532749  1.0
  Ni  Ni1397  1  0.09026951  0.72213933  0.71532749  1.0
  Ni  Ni1398  1  0.42360284  0.05547267  0.71532749  1.0
  Ni  Ni1399  1  0.42360284  0.38880600  0.71532749  1.0
  Ni  Ni1400  1  0.42360284  0.72213933  0.71532749  1.0
  Ni  Ni1401  1  0.75693618  0.05547267  0.71532749  1.0
  Ni  Ni1402  1  0.75693618  0.38880600  0.71532749  1.0
  Ni  Ni1403  1  0.75693618  0.72213933  0.71532749  1.0
  Ni  Ni1404  1  0.18280684  0.11119400  0.76159616  1.0
  Ni  Ni1405  1  0.18280684  0.44452733  0.76159616  1.0
  Ni  Ni1406  1  0.18280684  0.77786067  0.76159616  1.0
  Ni  Ni1407  1  0.51614018  0.11119400  0.76159616  1.0
  Ni  Ni1408  1  0.51614018  0.44452733  0.76159616  1.0
  Ni  Ni1409  1  0.51614018  0.77786067  0.76159616  1.0
  Ni  Ni1410  1  0.84947351  0.11119400  0.76159616  1.0
  Ni  Ni1411  1  0.84947351  0.44452733  0.76159616  1.0
  Ni  Ni1412  1  0.84947351  0.77786067  0.76159616  1.0
  Ni  Ni1413  1  0.07169573  0.11119400  0.70604060  1.0
  Ni  Ni1414  1  0.07169573  0.44452733  0.70604060  1.0
  Ni  Ni1415  1  0.07169573  0.77786067  0.70604060  1.0
  Ni  Ni1416  1  0.40502906  0.11119400  0.70604060  1.0
  Ni  Ni1417  1  0.40502906  0.44452733  0.70604060  1.0
  Ni  Ni1418  1  0.40502906  0.77786067  0.70604060  1.0
  Ni  Ni1419  1  0.73836240  0.11119400  0.70604060  1.0
  Ni  Ni1420  1  0.73836240  0.44452733  0.70604060  1.0
  Ni  Ni1421  1  0.73836240  0.77786067  0.70604060  1.0
  Ni  Ni1422  1  0.14582506  0.22213933  0.74310527  1.0
  Ni  Ni1423  1  0.14582506  0.55547267  0.74310527  1.0
  Ni  Ni1424  1  0.14582506  0.88880600  0.74310527  1.0
  Ni  Ni1425  1  0.47915840  0.22213933  0.74310527  1.0
  Ni  Ni1426  1  0.47915840  0.55547267  0.74310527  1.0
  Ni  Ni1427  1  0.47915840  0.88880600  0.74310527  1.0
  Ni  Ni1428  1  0.81249173  0.22213933  0.74310527  1.0
  Ni  Ni1429  1  0.81249173  0.55547267  0.74310527  1.0
  Ni  Ni1430  1  0.81249173  0.88880600  0.74310527  1.0
  Ni  Ni1431  1  0.03471395  0.22213933  0.68754971  1.0
  Ni  Ni1432  1  0.03471395  0.55547267  0.68754971  1.0
  Ni  Ni1433  1  0.03471395  0.88880600  0.68754971  1.0
  Ni  Ni1434  1  0.36804729  0.22213933  0.68754971  1.0
  Ni  Ni1435  1  0.36804729  0.55547267  0.68754971  1.0
  Ni  Ni1436  1  0.36804729  0.88880600  0.68754971  1.0
  Ni  Ni1437  1  0.70138062  0.22213933  0.68754971  1.0
  Ni  Ni1438  1  0.70138062  0.55547267  0.68754971  1.0
  Ni  Ni1439  1  0.70138062  0.88880600  0.68754971  1.0
  Ni  Ni1440  1  0.23839566  0.05553867  0.67827945  1.0
  Ni  Ni1441  1  0.23839566  0.38887200  0.67827945  1.0
  Ni  Ni1442  1  0.23839566  0.72220533  0.67827945  1.0
  Ni  Ni1443  1  0.57172899  0.05553867  0.67827945  1.0
  Ni  Ni1444  1  0.57172899  0.38887200  0.67827945  1.0
  Ni  Ni1445  1  0.57172899  0.72220533  0.67827945  1.0
  Ni  Ni1446  1  0.90506232  0.05553867  0.67827945  1.0
  Ni  Ni1447  1  0.90506232  0.38887200  0.67827945  1.0
  Ni  Ni1448  1  0.90506232  0.72220533  0.67827945  1.0
  Ni  Ni1449  1  0.01617344  0.05553867  0.73383501  1.0
  Ni  Ni1450  1  0.01617344  0.38887200  0.73383501  1.0
  Ni  Ni1451  1  0.01617344  0.72220533  0.73383501  1.0
  Ni  Ni1452  1  0.34950677  0.05553867  0.73383501  1.0
  Ni  Ni1453  1  0.34950677  0.38887200  0.73383501  1.0
  Ni  Ni1454  1  0.34950677  0.72220533  0.73383501  1.0
  Ni  Ni1455  1  0.68284010  0.05553867  0.73383501  1.0
  Ni  Ni1456  1  0.68284010  0.38887200  0.73383501  1.0
  Ni  Ni1457  1  0.68284010  0.72220533  0.73383501  1.0
  Ni  Ni1458  1  0.31245847  0.27779467  0.77086642  1.0
  Ni  Ni1459  1  0.31245847  0.61112800  0.77086642  1.0
  Ni  Ni1460  1  0.31245847  0.94446133  0.77086642  1.0
  Ni  Ni1461  1  0.64579181  0.27779467  0.77086642  1.0
  Ni  Ni1462  1  0.64579181  0.61112800  0.77086642  1.0
  Ni  Ni1463  1  0.64579181  0.94446133  0.77086642  1.0
  Ni  Ni1464  1  0.97912514  0.27779467  0.77086642  1.0
  Ni  Ni1465  1  0.97912514  0.61112800  0.77086642  1.0
  Ni  Ni1466  1  0.97912514  0.94446133  0.77086642  1.0
  Ni  Ni1467  1  0.20134736  0.27779467  0.71531086  1.0
  Ni  Ni1468  1  0.20134736  0.61112800  0.71531086  1.0
  Ni  Ni1469  1  0.20134736  0.94446133  0.71531086  1.0
  Ni  Ni1470  1  0.53468069  0.27779467  0.71531086  1.0
  Ni  Ni1471  1  0.53468069  0.61112800  0.71531086  1.0
  Ni  Ni1472  1  0.53468069  0.94446133  0.71531086  1.0
  Ni  Ni1473  1  0.86801403  0.27779467  0.71531086  1.0
  Ni  Ni1474  1  0.86801403  0.61112800  0.71531086  1.0
  Ni  Ni1475  1  0.86801403  0.94446133  0.71531086  1.0
  Ni  Ni1476  1  0.10876040  0.22222222  0.66901738  1.0
  Ni  Ni1477  1  0.10876040  0.55555556  0.66901738  1.0
  Ni  Ni1478  1  0.10876040  0.88888889  0.66901738  1.0
  Ni  Ni1479  1  0.44209373  0.22222222  0.66901738  1.0
  Ni  Ni1480  1  0.44209373  0.55555556  0.66901738  1.0
  Ni  Ni1481  1  0.44209373  0.88888889  0.66901738  1.0
  Ni  Ni1482  1  0.77542706  0.22222222  0.66901738  1.0
  Ni  Ni1483  1  0.77542706  0.55555556  0.66901738  1.0
  Ni  Ni1484  1  0.77542706  0.88888889  0.66901738  1.0
  Ni  Ni1485  1  0.21987151  0.22222222  0.72457294  1.0
  Ni  Ni1486  1  0.21987151  0.55555556  0.72457294  1.0
  Ni  Ni1487  1  0.21987151  0.88888889  0.72457294  1.0
  Ni  Ni1488  1  0.55320484  0.22222222  0.72457294  1.0
  Ni  Ni1489  1  0.55320484  0.55555556  0.72457294  1.0
  Ni  Ni1490  1  0.55320484  0.88888889  0.72457294  1.0
  Ni  Ni1491  1  0.88653818  0.22222222  0.72457294  1.0
  Ni  Ni1492  1  0.88653818  0.55555556  0.72457294  1.0
  Ni  Ni1493  1  0.88653818  0.88888889  0.72457294  1.0
  Ni  Ni1494  1  0.21986588  0.11112800  0.66901456  1.0
  Ni  Ni1495  1  0.21986588  0.44446133  0.66901456  1.0
  Ni  Ni1496  1  0.21986588  0.77779467  0.66901456  1.0
  Ni  Ni1497  1  0.55319921  0.11112800  0.66901456  1.0
  Ni  Ni1498  1  0.55319921  0.44446133  0.66901456  1.0
  Ni  Ni1499  1  0.55319921  0.77779467  0.66901456  1.0
  Ni  Ni1500  1  0.88653255  0.11112800  0.66901456  1.0
  Ni  Ni1501  1  0.88653255  0.44446133  0.66901456  1.0
  Ni  Ni1502  1  0.88653255  0.77779467  0.66901456  1.0
  Ni  Ni1503  1  0.33097699  0.11112800  0.72457012  1.0
  Ni  Ni1504  1  0.33097699  0.44446133  0.72457012  1.0
  Ni  Ni1505  1  0.33097699  0.77779467  0.72457012  1.0
  Ni  Ni1506  1  0.66431032  0.11112800  0.72457012  1.0
  Ni  Ni1507  1  0.66431032  0.44446133  0.72457012  1.0
  Ni  Ni1508  1  0.66431032  0.77779467  0.72457012  1.0
  Ni  Ni1509  1  0.99764366  0.11112800  0.72457012  1.0
  Ni  Ni1510  1  0.99764366  0.44446133  0.72457012  1.0
  Ni  Ni1511  1  0.99764366  0.77779467  0.72457012  1.0
  Ni  Ni1512  1  0.10876040  0.33333333  0.55790627  1.0
  Ni  Ni1513  1  0.10876040  0.66666667  0.55790627  1.0
  Ni  Ni1514  1  0.10876040  0.00000000  0.55790627  1.0
  Ni  Ni1515  1  0.44209373  0.33333333  0.55790627  1.0
  Ni  Ni1516  1  0.44209373  0.66666667  0.55790627  1.0
  Ni  Ni1517  1  0.44209373  0.00000000  0.55790627  1.0
  Ni  Ni1518  1  0.77542706  0.33333333  0.55790627  1.0
  Ni  Ni1519  1  0.77542706  0.66666667  0.55790627  1.0
  Ni  Ni1520  1  0.77542706  0.00000000  0.55790627  1.0
  Ni  Ni1521  1  0.21987151  0.00000000  0.61346182  1.0
  Ni  Ni1522  1  0.21987151  0.33333333  0.61346182  1.0
  Ni  Ni1523  1  0.21987151  0.66666667  0.61346182  1.0
  Ni  Ni1524  1  0.55320484  0.00000000  0.61346182  1.0
  Ni  Ni1525  1  0.55320484  0.33333333  0.61346182  1.0
  Ni  Ni1526  1  0.55320484  0.66666667  0.61346182  1.0
  Ni  Ni1527  1  0.88653818  0.00000000  0.61346182  1.0
  Ni  Ni1528  1  0.88653818  0.33333333  0.61346182  1.0
  Ni  Ni1529  1  0.88653818  0.66666667  0.61346182  1.0
  Ni  Ni1530  1  0.27542706  0.16666667  0.64123960  1.0
  Ni  Ni1531  1  0.27542706  0.50000000  0.64123960  1.0
  Ni  Ni1532  1  0.27542706  0.83333333  0.64123960  1.0
  Ni  Ni1533  1  0.60876040  0.16666667  0.64123960  1.0
  Ni  Ni1534  1  0.60876040  0.50000000  0.64123960  1.0
  Ni  Ni1535  1  0.60876040  0.83333333  0.64123960  1.0
  Ni  Ni1536  1  0.94209373  0.16666667  0.64123960  1.0
  Ni  Ni1537  1  0.94209373  0.50000000  0.64123960  1.0
  Ni  Ni1538  1  0.94209373  0.83333333  0.64123960  1.0
  Ni  Ni1539  1  0.16431595  0.16666667  0.58568405  1.0
  Ni  Ni1540  1  0.16431595  0.50000000  0.58568405  1.0
  Ni  Ni1541  1  0.16431595  0.83333333  0.58568405  1.0
  Ni  Ni1542  1  0.49764929  0.16666667  0.58568405  1.0
  Ni  Ni1543  1  0.49764929  0.50000000  0.58568405  1.0
  Ni  Ni1544  1  0.49764929  0.83333333  0.58568405  1.0
  Ni  Ni1545  1  0.83098262  0.16666667  0.58568405  1.0
  Ni  Ni1546  1  0.83098262  0.50000000  0.58568405  1.0
  Ni  Ni1547  1  0.83098262  0.83333333  0.58568405  1.0
  Ni  Ni1548  1  0.22913751  0.25000000  0.59032716  1.0
  Ni  Ni1549  1  0.22913751  0.58333333  0.59032716  1.0
  Ni  Ni1550  1  0.22913751  0.91666667  0.59032716  1.0
  Ni  Ni1551  1  0.56247084  0.25000000  0.59032716  1.0
  Ni  Ni1552  1  0.56247084  0.58333333  0.59032716  1.0
  Ni  Ni1553  1  0.56247084  0.91666667  0.59032716  1.0
  Ni  Ni1554  1  0.89580418  0.25000000  0.59032716  1.0
  Ni  Ni1555  1  0.89580418  0.58333333  0.59032716  1.0
  Ni  Ni1556  1  0.89580418  0.91666667  0.59032716  1.0
  Ni  Ni1557  1  0.00691529  0.25000000  0.64588271  1.0
  Ni  Ni1558  1  0.00691529  0.58333333  0.64588271  1.0
  Ni  Ni1559  1  0.00691529  0.91666667  0.64588271  1.0
  Ni  Ni1560  1  0.34024862  0.25000000  0.64588271  1.0
  Ni  Ni1561  1  0.34024862  0.58333333  0.64588271  1.0
  Ni  Ni1562  1  0.34024862  0.91666667  0.64588271  1.0
  Ni  Ni1563  1  0.67358195  0.25000000  0.64588271  1.0
  Ni  Ni1564  1  0.67358195  0.58333333  0.64588271  1.0
  Ni  Ni1565  1  0.67358195  0.91666667  0.64588271  1.0
  Ni  Ni1566  1  0.11802640  0.25000000  0.61807460  1.0
  Ni  Ni1567  1  0.11802640  0.58333333  0.61807460  1.0
  Ni  Ni1568  1  0.11802640  0.91666667  0.61807460  1.0
  Ni  Ni1569  1  0.45135973  0.25000000  0.61807460  1.0
  Ni  Ni1570  1  0.45135973  0.58333333  0.61807460  1.0
  Ni  Ni1571  1  0.45135973  0.91666667  0.61807460  1.0
  Ni  Ni1572  1  0.78469306  0.25000000  0.61807460  1.0
  Ni  Ni1573  1  0.78469306  0.58333333  0.61807460  1.0
  Ni  Ni1574  1  0.78469306  0.91666667  0.61807460  1.0
  Ni  Ni1575  1  0.00691529  0.25000000  0.56251905  1.0
  Ni  Ni1576  1  0.00691529  0.58333333  0.56251905  1.0
  Ni  Ni1577  1  0.00691529  0.91666667  0.56251905  1.0
  Ni  Ni1578  1  0.34024862  0.25000000  0.56251905  1.0
  Ni  Ni1579  1  0.34024862  0.58333333  0.56251905  1.0
  Ni  Ni1580  1  0.34024862  0.91666667  0.56251905  1.0
  Ni  Ni1581  1  0.67358195  0.25000000  0.56251905  1.0
  Ni  Ni1582  1  0.67358195  0.58333333  0.56251905  1.0
  Ni  Ni1583  1  0.67358195  0.91666667  0.56251905  1.0
  Ni  Ni1584  1  0.17356173  0.25000000  0.56253927  1.0
  Ni  Ni1585  1  0.17356173  0.58333333  0.56253927  1.0
  Ni  Ni1586  1  0.17356173  0.91666667  0.56253927  1.0
  Ni  Ni1587  1  0.50689506  0.25000000  0.56253927  1.0
  Ni  Ni1588  1  0.50689506  0.58333333  0.56253927  1.0
  Ni  Ni1589  1  0.50689506  0.91666667  0.56253927  1.0
  Ni  Ni1590  1  0.84022840  0.25000000  0.56253927  1.0
  Ni  Ni1591  1  0.84022840  0.58333333  0.56253927  1.0
  Ni  Ni1592  1  0.84022840  0.91666667  0.56253927  1.0
  Ni  Ni1593  1  0.28467284  0.25000000  0.61809482  1.0
  Ni  Ni1594  1  0.28467284  0.58333333  0.61809482  1.0
  Ni  Ni1595  1  0.28467284  0.91666667  0.61809482  1.0
  Ni  Ni1596  1  0.61800618  0.25000000  0.61809482  1.0
  Ni  Ni1597  1  0.61800618  0.58333333  0.61809482  1.0
  Ni  Ni1598  1  0.61800618  0.91666667  0.61809482  1.0
  Ni  Ni1599  1  0.95133951  0.25000000  0.61809482  1.0
  Ni  Ni1600  1  0.95133951  0.58333333  0.61809482  1.0
  Ni  Ni1601  1  0.95133951  0.91666667  0.61809482  1.0
  Ni  Ni1602  1  0.21060551  0.08333333  0.63659649  1.0
  Ni  Ni1603  1  0.21060551  0.41666667  0.63659649  1.0
  Ni  Ni1604  1  0.21060551  0.75000000  0.63659649  1.0
  Ni  Ni1605  1  0.54393884  0.08333333  0.63659649  1.0
  Ni  Ni1606  1  0.54393884  0.41666667  0.63659649  1.0
  Ni  Ni1607  1  0.54393884  0.75000000  0.63659649  1.0
  Ni  Ni1608  1  0.87727218  0.08333333  0.63659649  1.0
  Ni  Ni1609  1  0.87727218  0.41666667  0.63659649  1.0
  Ni  Ni1610  1  0.87727218  0.75000000  0.63659649  1.0
  Ni  Ni1611  1  0.09949440  0.08333333  0.58104094  1.0
  Ni  Ni1612  1  0.09949440  0.41666667  0.58104094  1.0
  Ni  Ni1613  1  0.09949440  0.75000000  0.58104094  1.0
  Ni  Ni1614  1  0.43282773  0.08333333  0.58104094  1.0
  Ni  Ni1615  1  0.43282773  0.41666667  0.58104094  1.0
  Ni  Ni1616  1  0.43282773  0.75000000  0.58104094  1.0
  Ni  Ni1617  1  0.76616106  0.08333333  0.58104094  1.0
  Ni  Ni1618  1  0.76616106  0.41666667  0.58104094  1.0
  Ni  Ni1619  1  0.76616106  0.75000000  0.58104094  1.0
  Ni  Ni1620  1  0.32171662  0.08333333  0.60884905  1.0
  Ni  Ni1621  1  0.32171662  0.41666667  0.60884905  1.0
  Ni  Ni1622  1  0.32171662  0.75000000  0.60884905  1.0
  Ni  Ni1623  1  0.65504995  0.08333333  0.60884905  1.0
  Ni  Ni1624  1  0.65504995  0.41666667  0.60884905  1.0
  Ni  Ni1625  1  0.65504995  0.75000000  0.60884905  1.0
  Ni  Ni1626  1  0.98838329  0.08333333  0.60884905  1.0
  Ni  Ni1627  1  0.98838329  0.41666667  0.60884905  1.0
  Ni  Ni1628  1  0.98838329  0.75000000  0.60884905  1.0
  Ni  Ni1629  1  0.09949440  0.08333333  0.66440460  1.0
  Ni  Ni1630  1  0.09949440  0.41666667  0.66440460  1.0
  Ni  Ni1631  1  0.09949440  0.75000000  0.66440460  1.0
  Ni  Ni1632  1  0.43282773  0.08333333  0.66440460  1.0
  Ni  Ni1633  1  0.43282773  0.41666667  0.66440460  1.0
  Ni  Ni1634  1  0.43282773  0.75000000  0.66440460  1.0
  Ni  Ni1635  1  0.76616106  0.08333333  0.66440460  1.0
  Ni  Ni1636  1  0.76616106  0.41666667  0.66440460  1.0
  Ni  Ni1637  1  0.76616106  0.75000000  0.66440460  1.0
  Ni  Ni1638  1  0.26618129  0.08333333  0.66438438  1.0
  Ni  Ni1639  1  0.26618129  0.41666667  0.66438438  1.0
  Ni  Ni1640  1  0.26618129  0.75000000  0.66438438  1.0
  Ni  Ni1641  1  0.59951462  0.08333333  0.66438438  1.0
  Ni  Ni1642  1  0.59951462  0.41666667  0.66438438  1.0
  Ni  Ni1643  1  0.59951462  0.75000000  0.66438438  1.0
  Ni  Ni1644  1  0.93284795  0.08333333  0.66438438  1.0
  Ni  Ni1645  1  0.93284795  0.41666667  0.66438438  1.0
  Ni  Ni1646  1  0.93284795  0.75000000  0.66438438  1.0
  Ni  Ni1647  1  0.15507018  0.08333333  0.60882882  1.0
  Ni  Ni1648  1  0.15507018  0.41666667  0.60882882  1.0
  Ni  Ni1649  1  0.15507018  0.75000000  0.60882882  1.0
  Ni  Ni1650  1  0.48840351  0.08333333  0.60882882  1.0
  Ni  Ni1651  1  0.48840351  0.41666667  0.60882882  1.0
  Ni  Ni1652  1  0.48840351  0.75000000  0.60882882  1.0
  Ni  Ni1653  1  0.82173684  0.08333333  0.60882882  1.0
  Ni  Ni1654  1  0.82173684  0.41666667  0.60882882  1.0
  Ni  Ni1655  1  0.82173684  0.75000000  0.60882882  1.0
  Ni  Ni1656  1  0.21047429  0.30557267  0.58078705  1.0
  Ni  Ni1657  1  0.21047429  0.63890600  0.58078705  1.0
  Ni  Ni1658  1  0.21047429  0.97223933  0.58078705  1.0
  Ni  Ni1659  1  0.54380762  0.30557267  0.58078705  1.0
  Ni  Ni1660  1  0.54380762  0.63890600  0.58078705  1.0
  Ni  Ni1661  1  0.54380762  0.97223933  0.58078705  1.0
  Ni  Ni1662  1  0.87714095  0.30557267  0.58078705  1.0
  Ni  Ni1663  1  0.87714095  0.63890600  0.58078705  1.0
  Ni  Ni1664  1  0.87714095  0.97223933  0.58078705  1.0
  Ni  Ni1665  1  0.32158540  0.30557267  0.63634260  1.0
  Ni  Ni1666  1  0.32158540  0.63890600  0.63634260  1.0
  Ni  Ni1667  1  0.32158540  0.97223933  0.63634260  1.0
  Ni  Ni1668  1  0.65491873  0.30557267  0.63634260  1.0
  Ni  Ni1669  1  0.65491873  0.63890600  0.63634260  1.0
  Ni  Ni1670  1  0.65491873  0.97223933  0.63634260  1.0
  Ni  Ni1671  1  0.98825206  0.30557267  0.63634260  1.0
  Ni  Ni1672  1  0.98825206  0.63890600  0.63634260  1.0
  Ni  Ni1673  1  0.98825206  0.97223933  0.63634260  1.0
  Ni  Ni1674  1  0.09936318  0.30557267  0.60915999  1.0
  Ni  Ni1675  1  0.09936318  0.63890600  0.60915999  1.0
  Ni  Ni1676  1  0.09936318  0.97223933  0.60915999  1.0
  Ni  Ni1677  1  0.43269651  0.30557267  0.60915999  1.0
  Ni  Ni1678  1  0.43269651  0.63890600  0.60915999  1.0
  Ni  Ni1679  1  0.43269651  0.97223933  0.60915999  1.0
  Ni  Ni1680  1  0.76602984  0.30557267  0.60915999  1.0
  Ni  Ni1681  1  0.76602984  0.63890600  0.60915999  1.0
  Ni  Ni1682  1  0.76602984  0.97223933  0.60915999  1.0
  Ni  Ni1683  1  0.21047429  0.30557267  0.66471555  1.0
  Ni  Ni1684  1  0.21047429  0.63890600  0.66471555  1.0
  Ni  Ni1685  1  0.21047429  0.97223933  0.66471555  1.0
  Ni  Ni1686  1  0.54380762  0.30557267  0.66471555  1.0
  Ni  Ni1687  1  0.54380762  0.63890600  0.66471555  1.0
  Ni  Ni1688  1  0.54380762  0.97223933  0.66471555  1.0
  Ni  Ni1689  1  0.87714095  0.30557267  0.66471555  1.0
  Ni  Ni1690  1  0.87714095  0.63890600  0.66471555  1.0
  Ni  Ni1691  1  0.87714095  0.97223933  0.66471555  1.0
  Ni  Ni1692  1  0.04420440  0.30557267  0.66431877  1.0
  Ni  Ni1693  1  0.04420440  0.63890600  0.66431877  1.0
  Ni  Ni1694  1  0.04420440  0.97223933  0.66431877  1.0
  Ni  Ni1695  1  0.37753773  0.30557267  0.66431877  1.0
  Ni  Ni1696  1  0.37753773  0.63890600  0.66431877  1.0
  Ni  Ni1697  1  0.37753773  0.97223933  0.66431877  1.0
  Ni  Ni1698  1  0.71087106  0.30557267  0.66431877  1.0
  Ni  Ni1699  1  0.71087106  0.63890600  0.66431877  1.0
  Ni  Ni1700  1  0.71087106  0.97223933  0.66431877  1.0
  Ni  Ni1701  1  0.26642662  0.30557267  0.60876321  1.0
  Ni  Ni1702  1  0.26642662  0.63890600  0.60876321  1.0
  Ni  Ni1703  1  0.26642662  0.97223933  0.60876321  1.0
  Ni  Ni1704  1  0.59975995  0.30557267  0.60876321  1.0
  Ni  Ni1705  1  0.59975995  0.63890600  0.60876321  1.0
  Ni  Ni1706  1  0.59975995  0.97223933  0.60876321  1.0
  Ni  Ni1707  1  0.93309329  0.30557267  0.60876321  1.0
  Ni  Ni1708  1  0.93309329  0.63890600  0.60876321  1.0
  Ni  Ni1709  1  0.93309329  0.97223933  0.60876321  1.0
  Ni  Ni1710  1  0.22926873  0.02776067  0.64613660  1.0
  Ni  Ni1711  1  0.22926873  0.36109400  0.64613660  1.0
  Ni  Ni1712  1  0.22926873  0.69442733  0.64613660  1.0
  Ni  Ni1713  1  0.56260206  0.02776067  0.64613660  1.0
  Ni  Ni1714  1  0.56260206  0.36109400  0.64613660  1.0
  Ni  Ni1715  1  0.56260206  0.69442733  0.64613660  1.0
  Ni  Ni1716  1  0.89593540  0.02776067  0.64613660  1.0
  Ni  Ni1717  1  0.89593540  0.36109400  0.64613660  1.0
  Ni  Ni1718  1  0.89593540  0.69442733  0.64613660  1.0
  Ni  Ni1719  1  0.11815762  0.02776067  0.59058105  1.0
  Ni  Ni1720  1  0.11815762  0.36109400  0.59058105  1.0
  Ni  Ni1721  1  0.11815762  0.69442733  0.59058105  1.0
  Ni  Ni1722  1  0.45149095  0.02776067  0.59058105  1.0
  Ni  Ni1723  1  0.45149095  0.36109400  0.59058105  1.0
  Ni  Ni1724  1  0.45149095  0.69442733  0.59058105  1.0
  Ni  Ni1725  1  0.78482429  0.02776067  0.59058105  1.0
  Ni  Ni1726  1  0.78482429  0.36109400  0.59058105  1.0
  Ni  Ni1727  1  0.78482429  0.69442733  0.59058105  1.0
  Ni  Ni1728  1  0.00704651  0.02776067  0.61776366  1.0
  Ni  Ni1729  1  0.00704651  0.36109400  0.61776366  1.0
  Ni  Ni1730  1  0.00704651  0.69442733  0.61776366  1.0
  Ni  Ni1731  1  0.34037984  0.02776067  0.61776366  1.0
  Ni  Ni1732  1  0.34037984  0.36109400  0.61776366  1.0
  Ni  Ni1733  1  0.34037984  0.69442733  0.61776366  1.0
  Ni  Ni1734  1  0.67371318  0.02776067  0.61776366  1.0
  Ni  Ni1735  1  0.67371318  0.36109400  0.61776366  1.0
  Ni  Ni1736  1  0.67371318  0.69442733  0.61776366  1.0
  Ni  Ni1737  1  0.22926873  0.02776067  0.56220810  1.0
  Ni  Ni1738  1  0.22926873  0.36109400  0.56220810  1.0
  Ni  Ni1739  1  0.22926873  0.69442733  0.56220810  1.0
  Ni  Ni1740  1  0.56260206  0.02776067  0.56220810  1.0
  Ni  Ni1741  1  0.56260206  0.36109400  0.56220810  1.0
  Ni  Ni1742  1  0.56260206  0.69442733  0.56220810  1.0
  Ni  Ni1743  1  0.89593540  0.02776067  0.56220810  1.0
  Ni  Ni1744  1  0.89593540  0.36109400  0.56220810  1.0
  Ni  Ni1745  1  0.89593540  0.69442733  0.56220810  1.0
  Ni  Ni1746  1  0.06220529  0.02776067  0.56260488  1.0
  Ni  Ni1747  1  0.06220529  0.36109400  0.56260488  1.0
  Ni  Ni1748  1  0.06220529  0.69442733  0.56260488  1.0
  Ni  Ni1749  1  0.39553862  0.02776067  0.56260488  1.0
  Ni  Ni1750  1  0.39553862  0.36109400  0.56260488  1.0
  Ni  Ni1751  1  0.39553862  0.69442733  0.56260488  1.0
  Ni  Ni1752  1  0.72887195  0.02776067  0.56260488  1.0
  Ni  Ni1753  1  0.72887195  0.36109400  0.56260488  1.0
  Ni  Ni1754  1  0.72887195  0.69442733  0.56260488  1.0
  Ni  Ni1755  1  0.17331640  0.02776067  0.61816044  1.0
  Ni  Ni1756  1  0.17331640  0.36109400  0.61816044  1.0
  Ni  Ni1757  1  0.17331640  0.69442733  0.61816044  1.0
  Ni  Ni1758  1  0.50664973  0.02776067  0.61816044  1.0
  Ni  Ni1759  1  0.50664973  0.36109400  0.61816044  1.0
  Ni  Ni1760  1  0.50664973  0.69442733  0.61816044  1.0
  Ni  Ni1761  1  0.83998306  0.02776067  0.61816044  1.0
  Ni  Ni1762  1  0.83998306  0.36109400  0.61816044  1.0
  Ni  Ni1763  1  0.83998306  0.69442733  0.61816044  1.0
  Ni  Ni1764  1  0.19222029  0.13890600  0.62761238  1.0
  Ni  Ni1765  1  0.19222029  0.47223933  0.62761238  1.0
  Ni  Ni1766  1  0.19222029  0.80557267  0.62761238  1.0
  Ni  Ni1767  1  0.52555362  0.13890600  0.62761238  1.0
  Ni  Ni1768  1  0.52555362  0.47223933  0.62761238  1.0
  Ni  Ni1769  1  0.52555362  0.80557267  0.62761238  1.0
  Ni  Ni1770  1  0.85888695  0.13890600  0.62761238  1.0
  Ni  Ni1771  1  0.85888695  0.47223933  0.62761238  1.0
  Ni  Ni1772  1  0.85888695  0.80557267  0.62761238  1.0
  Ni  Ni1773  1  0.08110918  0.13890600  0.57205682  1.0
  Ni  Ni1774  1  0.08110918  0.47223933  0.57205682  1.0
  Ni  Ni1775  1  0.08110918  0.80557267  0.57205682  1.0
  Ni  Ni1776  1  0.41444251  0.13890600  0.57205682  1.0
  Ni  Ni1777  1  0.41444251  0.47223933  0.57205682  1.0
  Ni  Ni1778  1  0.41444251  0.80557267  0.57205682  1.0
  Ni  Ni1779  1  0.74777584  0.13890600  0.57205682  1.0
  Ni  Ni1780  1  0.74777584  0.47223933  0.57205682  1.0
  Ni  Ni1781  1  0.74777584  0.80557267  0.57205682  1.0
  Ni  Ni1782  1  0.30333140  0.13890600  0.59923944  1.0
  Ni  Ni1783  1  0.30333140  0.47223933  0.59923944  1.0
  Ni  Ni1784  1  0.30333140  0.80557267  0.59923944  1.0
  Ni  Ni1785  1  0.63666473  0.13890600  0.59923944  1.0
  Ni  Ni1786  1  0.63666473  0.47223933  0.59923944  1.0
  Ni  Ni1787  1  0.63666473  0.80557267  0.59923944  1.0
  Ni  Ni1788  1  0.96999806  0.13890600  0.59923944  1.0
  Ni  Ni1789  1  0.96999806  0.47223933  0.59923944  1.0
  Ni  Ni1790  1  0.96999806  0.80557267  0.59923944  1.0
  Ni  Ni1791  1  0.08110918  0.13890600  0.65479499  1.0
  Ni  Ni1792  1  0.08110918  0.47223933  0.65479499  1.0
  Ni  Ni1793  1  0.08110918  0.80557267  0.65479499  1.0
  Ni  Ni1794  1  0.41444251  0.13890600  0.65479499  1.0
  Ni  Ni1795  1  0.41444251  0.47223933  0.65479499  1.0
  Ni  Ni1796  1  0.41444251  0.80557267  0.65479499  1.0
  Ni  Ni1797  1  0.74777584  0.13890600  0.65479499  1.0
  Ni  Ni1798  1  0.74777584  0.47223933  0.65479499  1.0
  Ni  Ni1799  1  0.74777584  0.80557267  0.65479499  1.0
  Ni  Ni1800  1  0.24737906  0.13890600  0.65519177  1.0
  Ni  Ni1801  1  0.24737906  0.47223933  0.65519177  1.0
  Ni  Ni1802  1  0.24737906  0.80557267  0.65519177  1.0
  Ni  Ni1803  1  0.58071240  0.13890600  0.65519177  1.0
  Ni  Ni1804  1  0.58071240  0.47223933  0.65519177  1.0
  Ni  Ni1805  1  0.58071240  0.80557267  0.65519177  1.0
  Ni  Ni1806  1  0.91404573  0.13890600  0.65519177  1.0
  Ni  Ni1807  1  0.91404573  0.47223933  0.65519177  1.0
  Ni  Ni1808  1  0.91404573  0.80557267  0.65519177  1.0
  Ni  Ni1809  1  0.13626795  0.13890600  0.59963621  1.0
  Ni  Ni1810  1  0.13626795  0.47223933  0.59963621  1.0
  Ni  Ni1811  1  0.13626795  0.80557267  0.59963621  1.0
  Ni  Ni1812  1  0.46960129  0.13890600  0.59963621  1.0
  Ni  Ni1813  1  0.46960129  0.47223933  0.59963621  1.0
  Ni  Ni1814  1  0.46960129  0.80557267  0.59963621  1.0
  Ni  Ni1815  1  0.80293462  0.13890600  0.59963621  1.0
  Ni  Ni1816  1  0.80293462  0.47223933  0.59963621  1.0
  Ni  Ni1817  1  0.80293462  0.80557267  0.59963621  1.0
  Ni  Ni1818  1  0.24752273  0.19442733  0.59931127  1.0
  Ni  Ni1819  1  0.24752273  0.52776067  0.59931127  1.0
  Ni  Ni1820  1  0.24752273  0.86109400  0.59931127  1.0
  Ni  Ni1821  1  0.58085606  0.19442733  0.59931127  1.0
  Ni  Ni1822  1  0.58085606  0.52776067  0.59931127  1.0
  Ni  Ni1823  1  0.58085606  0.86109400  0.59931127  1.0
  Ni  Ni1824  1  0.91418940  0.19442733  0.59931127  1.0
  Ni  Ni1825  1  0.91418940  0.52776067  0.59931127  1.0
  Ni  Ni1826  1  0.91418940  0.86109400  0.59931127  1.0
  Ni  Ni1827  1  0.02530051  0.19442733  0.65486682  1.0
  Ni  Ni1828  1  0.02530051  0.52776067  0.65486682  1.0
  Ni  Ni1829  1  0.02530051  0.86109400  0.65486682  1.0
  Ni  Ni1830  1  0.35863384  0.19442733  0.65486682  1.0
  Ni  Ni1831  1  0.35863384  0.52776067  0.65486682  1.0
  Ni  Ni1832  1  0.35863384  0.86109400  0.65486682  1.0
  Ni  Ni1833  1  0.69196718  0.19442733  0.65486682  1.0
  Ni  Ni1834  1  0.69196718  0.52776067  0.65486682  1.0
  Ni  Ni1835  1  0.69196718  0.86109400  0.65486682  1.0
  Ni  Ni1836  1  0.13641162  0.19442733  0.62768421  1.0
  Ni  Ni1837  1  0.13641162  0.52776067  0.62768421  1.0
  Ni  Ni1838  1  0.13641162  0.86109400  0.62768421  1.0
  Ni  Ni1839  1  0.46974495  0.19442733  0.62768421  1.0
  Ni  Ni1840  1  0.46974495  0.52776067  0.62768421  1.0
  Ni  Ni1841  1  0.46974495  0.86109400  0.62768421  1.0
  Ni  Ni1842  1  0.80307829  0.19442733  0.62768421  1.0
  Ni  Ni1843  1  0.80307829  0.52776067  0.62768421  1.0
  Ni  Ni1844  1  0.80307829  0.86109400  0.62768421  1.0
  Ni  Ni1845  1  0.02530051  0.19442733  0.57212866  1.0
  Ni  Ni1846  1  0.02530051  0.52776067  0.57212866  1.0
  Ni  Ni1847  1  0.02530051  0.86109400  0.57212866  1.0
  Ni  Ni1848  1  0.35863384  0.19442733  0.57212866  1.0
  Ni  Ni1849  1  0.35863384  0.52776067  0.57212866  1.0
  Ni  Ni1850  1  0.35863384  0.86109400  0.57212866  1.0
  Ni  Ni1851  1  0.69196718  0.19442733  0.57212866  1.0
  Ni  Ni1852  1  0.69196718  0.52776067  0.57212866  1.0
  Ni  Ni1853  1  0.69196718  0.86109400  0.57212866  1.0
  Ni  Ni1854  1  0.19236395  0.19442733  0.57173188  1.0
  Ni  Ni1855  1  0.19236395  0.52776067  0.57173188  1.0
  Ni  Ni1856  1  0.19236395  0.86109400  0.57173188  1.0
  Ni  Ni1857  1  0.52569729  0.19442733  0.57173188  1.0
  Ni  Ni1858  1  0.52569729  0.52776067  0.57173188  1.0
  Ni  Ni1859  1  0.52569729  0.86109400  0.57173188  1.0
  Ni  Ni1860  1  0.85903062  0.19442733  0.57173188  1.0
  Ni  Ni1861  1  0.85903062  0.52776067  0.57173188  1.0
  Ni  Ni1862  1  0.85903062  0.86109400  0.57173188  1.0
  Ni  Ni1863  1  0.30347506  0.19442733  0.62728744  1.0
  Ni  Ni1864  1  0.30347506  0.52776067  0.62728744  1.0
  Ni  Ni1865  1  0.30347506  0.86109400  0.62728744  1.0
  Ni  Ni1866  1  0.63680840  0.19442733  0.62728744  1.0
  Ni  Ni1867  1  0.63680840  0.52776067  0.62728744  1.0
  Ni  Ni1868  1  0.63680840  0.86109400  0.62728744  1.0
  Ni  Ni1869  1  0.97014173  0.19442733  0.62728744  1.0
  Ni  Ni1870  1  0.97014173  0.52776067  0.62728744  1.0
  Ni  Ni1871  1  0.97014173  0.86109400  0.62728744  1.0
  Ni  Ni1872  1  0.23836240  0.27786067  0.62270727  1.0
  Ni  Ni1873  1  0.23836240  0.61119400  0.62270727  1.0
  Ni  Ni1874  1  0.23836240  0.94452733  0.62270727  1.0
  Ni  Ni1875  1  0.57169573  0.27786067  0.62270727  1.0
  Ni  Ni1876  1  0.57169573  0.61119400  0.62270727  1.0
  Ni  Ni1877  1  0.57169573  0.94452733  0.62270727  1.0
  Ni  Ni1878  1  0.90502906  0.27786067  0.62270727  1.0
  Ni  Ni1879  1  0.90502906  0.61119400  0.62270727  1.0
  Ni  Ni1880  1  0.90502906  0.94452733  0.62270727  1.0
  Ni  Ni1881  1  0.12725129  0.27786067  0.56715171  1.0
  Ni  Ni1882  1  0.12725129  0.61119400  0.56715171  1.0
  Ni  Ni1883  1  0.12725129  0.94452733  0.56715171  1.0
  Ni  Ni1884  1  0.46058462  0.27786067  0.56715171  1.0
  Ni  Ni1885  1  0.46058462  0.61119400  0.56715171  1.0
  Ni  Ni1886  1  0.46058462  0.94452733  0.56715171  1.0
  Ni  Ni1887  1  0.79391795  0.27786067  0.56715171  1.0
  Ni  Ni1888  1  0.79391795  0.61119400  0.56715171  1.0
  Ni  Ni1889  1  0.79391795  0.94452733  0.56715171  1.0
  Ni  Ni1890  1  0.31249173  0.05547267  0.65977194  1.0
  Ni  Ni1891  1  0.31249173  0.38880600  0.65977194  1.0
  Ni  Ni1892  1  0.31249173  0.72213933  0.65977194  1.0
  Ni  Ni1893  1  0.64582506  0.05547267  0.65977194  1.0
  Ni  Ni1894  1  0.64582506  0.38880600  0.65977194  1.0
  Ni  Ni1895  1  0.64582506  0.72213933  0.65977194  1.0
  Ni  Ni1896  1  0.97915840  0.05547267  0.65977194  1.0
  Ni  Ni1897  1  0.97915840  0.38880600  0.65977194  1.0
  Ni  Ni1898  1  0.97915840  0.72213933  0.65977194  1.0
  Ni  Ni1899  1  0.20138062  0.05547267  0.60421638  1.0
  Ni  Ni1900  1  0.20138062  0.38880600  0.60421638  1.0
  Ni  Ni1901  1  0.20138062  0.72213933  0.60421638  1.0
  Ni  Ni1902  1  0.53471395  0.05547267  0.60421638  1.0
  Ni  Ni1903  1  0.53471395  0.38880600  0.60421638  1.0
  Ni  Ni1904  1  0.53471395  0.72213933  0.60421638  1.0
  Ni  Ni1905  1  0.86804729  0.05547267  0.60421638  1.0
  Ni  Ni1906  1  0.86804729  0.38880600  0.60421638  1.0
  Ni  Ni1907  1  0.86804729  0.72213933  0.60421638  1.0
  Ni  Ni1908  1  0.29391795  0.11119400  0.65048505  1.0
  Ni  Ni1909  1  0.29391795  0.44452733  0.65048505  1.0
  Ni  Ni1910  1  0.29391795  0.77786067  0.65048505  1.0
  Ni  Ni1911  1  0.62725129  0.11119400  0.65048505  1.0
  Ni  Ni1912  1  0.62725129  0.44452733  0.65048505  1.0
  Ni  Ni1913  1  0.62725129  0.77786067  0.65048505  1.0
  Ni  Ni1914  1  0.96058462  0.11119400  0.65048505  1.0
  Ni  Ni1915  1  0.96058462  0.44452733  0.65048505  1.0
  Ni  Ni1916  1  0.96058462  0.77786067  0.65048505  1.0
  Ni  Ni1917  1  0.18280684  0.11119400  0.59492949  1.0
  Ni  Ni1918  1  0.18280684  0.44452733  0.59492949  1.0
  Ni  Ni1919  1  0.18280684  0.77786067  0.59492949  1.0
  Ni  Ni1920  1  0.51614018  0.11119400  0.59492949  1.0
  Ni  Ni1921  1  0.51614018  0.44452733  0.59492949  1.0
  Ni  Ni1922  1  0.51614018  0.77786067  0.59492949  1.0
  Ni  Ni1923  1  0.84947351  0.11119400  0.59492949  1.0
  Ni  Ni1924  1  0.84947351  0.44452733  0.59492949  1.0
  Ni  Ni1925  1  0.84947351  0.77786067  0.59492949  1.0
  Ni  Ni1926  1  0.25693618  0.22213933  0.63199416  1.0
  Ni  Ni1927  1  0.25693618  0.55547267  0.63199416  1.0
  Ni  Ni1928  1  0.25693618  0.88880600  0.63199416  1.0
  Ni  Ni1929  1  0.59026951  0.22213933  0.63199416  1.0
  Ni  Ni1930  1  0.59026951  0.55547267  0.63199416  1.0
  Ni  Ni1931  1  0.59026951  0.88880600  0.63199416  1.0
  Ni  Ni1932  1  0.92360284  0.22213933  0.63199416  1.0
  Ni  Ni1933  1  0.92360284  0.55547267  0.63199416  1.0
  Ni  Ni1934  1  0.92360284  0.88880600  0.63199416  1.0
  Ni  Ni1935  1  0.14582506  0.22213933  0.57643860  1.0
  Ni  Ni1936  1  0.14582506  0.55547267  0.57643860  1.0
  Ni  Ni1937  1  0.14582506  0.88880600  0.57643860  1.0
  Ni  Ni1938  1  0.47915840  0.22213933  0.57643860  1.0
  Ni  Ni1939  1  0.47915840  0.55547267  0.57643860  1.0
  Ni  Ni1940  1  0.47915840  0.88880600  0.57643860  1.0
  Ni  Ni1941  1  0.81249173  0.22213933  0.57643860  1.0
  Ni  Ni1942  1  0.81249173  0.55547267  0.57643860  1.0
  Ni  Ni1943  1  0.81249173  0.88880600  0.57643860  1.0
  Ni  Ni1944  1  0.01617344  0.05553867  0.56716834  1.0
  Ni  Ni1945  1  0.01617344  0.38887200  0.56716834  1.0
  Ni  Ni1946  1  0.01617344  0.72220533  0.56716834  1.0
  Ni  Ni1947  1  0.34950677  0.05553867  0.56716834  1.0
  Ni  Ni1948  1  0.34950677  0.38887200  0.56716834  1.0
  Ni  Ni1949  1  0.34950677  0.72220533  0.56716834  1.0
  Ni  Ni1950  1  0.68284010  0.05553867  0.56716834  1.0
  Ni  Ni1951  1  0.68284010  0.38887200  0.56716834  1.0
  Ni  Ni1952  1  0.68284010  0.72220533  0.56716834  1.0
  Ni  Ni1953  1  0.12728455  0.05553867  0.62272390  1.0
  Ni  Ni1954  1  0.12728455  0.38887200  0.62272390  1.0
  Ni  Ni1955  1  0.12728455  0.72220533  0.62272390  1.0
  Ni  Ni1956  1  0.46061788  0.05553867  0.62272390  1.0
  Ni  Ni1957  1  0.46061788  0.38887200  0.62272390  1.0
  Ni  Ni1958  1  0.46061788  0.72220533  0.62272390  1.0
  Ni  Ni1959  1  0.79395121  0.05553867  0.62272390  1.0
  Ni  Ni1960  1  0.79395121  0.38887200  0.62272390  1.0
  Ni  Ni1961  1  0.79395121  0.72220533  0.62272390  1.0
  Ni  Ni1962  1  0.09023625  0.27779467  0.65975531  1.0
  Ni  Ni1963  1  0.09023625  0.61112800  0.65975531  1.0
  Ni  Ni1964  1  0.09023625  0.94446133  0.65975531  1.0
  Ni  Ni1965  1  0.42356958  0.27779467  0.65975531  1.0
  Ni  Ni1966  1  0.42356958  0.61112800  0.65975531  1.0
  Ni  Ni1967  1  0.42356958  0.94446133  0.65975531  1.0
  Ni  Ni1968  1  0.75690292  0.27779467  0.65975531  1.0
  Ni  Ni1969  1  0.75690292  0.61112800  0.65975531  1.0
  Ni  Ni1970  1  0.75690292  0.94446133  0.65975531  1.0
  Ni  Ni1971  1  0.31245847  0.27779467  0.60419975  1.0
  Ni  Ni1972  1  0.31245847  0.61112800  0.60419975  1.0
  Ni  Ni1973  1  0.31245847  0.94446133  0.60419975  1.0
  Ni  Ni1974  1  0.64579181  0.27779467  0.60419975  1.0
  Ni  Ni1975  1  0.64579181  0.61112800  0.60419975  1.0
  Ni  Ni1976  1  0.64579181  0.94446133  0.60419975  1.0
  Ni  Ni1977  1  0.97912514  0.27779467  0.60419975  1.0
  Ni  Ni1978  1  0.97912514  0.61112800  0.60419975  1.0
  Ni  Ni1979  1  0.97912514  0.94446133  0.60419975  1.0
  Ni  Ni1980  1  0.21987151  0.22222222  0.55790627  1.0
  Ni  Ni1981  1  0.21987151  0.55555556  0.55790627  1.0
  Ni  Ni1982  1  0.21987151  0.88888889  0.55790627  1.0
  Ni  Ni1983  1  0.55320484  0.22222222  0.55790627  1.0
  Ni  Ni1984  1  0.55320484  0.55555556  0.55790627  1.0
  Ni  Ni1985  1  0.55320484  0.88888889  0.55790627  1.0
  Ni  Ni1986  1  0.88653818  0.22222222  0.55790627  1.0
  Ni  Ni1987  1  0.88653818  0.55555556  0.55790627  1.0
  Ni  Ni1988  1  0.88653818  0.88888889  0.55790627  1.0
  Ni  Ni1989  1  0.33098262  0.22222222  0.61346182  1.0
  Ni  Ni1990  1  0.33098262  0.55555556  0.61346182  1.0
  Ni  Ni1991  1  0.33098262  0.88888889  0.61346182  1.0
  Ni  Ni1992  1  0.66431595  0.22222222  0.61346182  1.0
  Ni  Ni1993  1  0.66431595  0.55555556  0.61346182  1.0
  Ni  Ni1994  1  0.66431595  0.88888889  0.61346182  1.0
  Ni  Ni1995  1  0.99764929  0.22222222  0.61346182  1.0
  Ni  Ni1996  1  0.99764929  0.55555556  0.61346182  1.0
  Ni  Ni1997  1  0.99764929  0.88888889  0.61346182  1.0
  Ni  Ni1998  1  0.33097699  0.11112800  0.55790345  1.0
  Ni  Ni1999  1  0.33097699  0.44446133  0.55790345  1.0
  Ni  Ni2000  1  0.33097699  0.77779467  0.55790345  1.0
  Ni  Ni2001  1  0.66431032  0.11112800  0.55790345  1.0
  Ni  Ni2002  1  0.66431032  0.44446133  0.55790345  1.0
  Ni  Ni2003  1  0.66431032  0.77779467  0.55790345  1.0
  Ni  Ni2004  1  0.99764366  0.11112800  0.55790345  1.0
  Ni  Ni2005  1  0.99764366  0.44446133  0.55790345  1.0
  Ni  Ni2006  1  0.99764366  0.77779467  0.55790345  1.0
  Ni  Ni2007  1  0.10875477  0.11112800  0.61345901  1.0
  Ni  Ni2008  1  0.10875477  0.44446133  0.61345901  1.0
  Ni  Ni2009  1  0.10875477  0.77779467  0.61345901  1.0
  Ni  Ni2010  1  0.44208810  0.11112800  0.61345901  1.0
  Ni  Ni2011  1  0.44208810  0.44446133  0.61345901  1.0
  Ni  Ni2012  1  0.44208810  0.77779467  0.61345901  1.0
  Ni  Ni2013  1  0.77542144  0.11112800  0.61345901  1.0
  Ni  Ni2014  1  0.77542144  0.44446133  0.61345901  1.0
  Ni  Ni2015  1  0.77542144  0.77779467  0.61345901  1.0
  Sc  Sc2016  1  0.14902099  0.32366267  0.96692545  1.0
  Sc  Sc2017  1  0.14902099  0.65699600  0.96692545  1.0
  Sc  Sc2018  1  0.14902099  0.99032933  0.96692545  1.0
  Sc  Sc2019  1  0.48235432  0.32366267  0.96692545  1.0
  Sc  Sc2020  1  0.48235432  0.65699600  0.96692545  1.0
  Sc  Sc2021  1  0.48235432  0.99032933  0.96692545  1.0
  Sc  Sc2022  1  0.81568766  0.32366267  0.96692545  1.0
  Sc  Sc2023  1  0.81568766  0.65699600  0.96692545  1.0
  Sc  Sc2024  1  0.81568766  0.99032933  0.96692545  1.0
  Sc  Sc2025  1  0.03790988  0.32366267  0.91136990  1.0
  Sc  Sc2026  1  0.03790988  0.65699600  0.91136990  1.0
  Sc  Sc2027  1  0.03790988  0.99032933  0.91136990  1.0
  Sc  Sc2028  1  0.37124321  0.32366267  0.91136990  1.0
  Sc  Sc2029  1  0.37124321  0.65699600  0.91136990  1.0
  Sc  Sc2030  1  0.37124321  0.99032933  0.91136990  1.0
  Sc  Sc2031  1  0.70457655  0.32366267  0.91136990  1.0
  Sc  Sc2032  1  0.70457655  0.65699600  0.91136990  1.0
  Sc  Sc2033  1  0.70457655  0.99032933  0.91136990  1.0
  Sc  Sc2034  1  0.29072203  0.00967067  0.92666486  1.0
  Sc  Sc2035  1  0.29072203  0.34300400  0.92666486  1.0
  Sc  Sc2036  1  0.29072203  0.67633733  0.92666486  1.0
  Sc  Sc2037  1  0.62405536  0.00967067  0.92666486  1.0
  Sc  Sc2038  1  0.62405536  0.34300400  0.92666486  1.0
  Sc  Sc2039  1  0.62405536  0.67633733  0.92666486  1.0
  Sc  Sc2040  1  0.95738869  0.00967067  0.92666486  1.0
  Sc  Sc2041  1  0.95738869  0.34300400  0.92666486  1.0
  Sc  Sc2042  1  0.95738869  0.67633733  0.92666486  1.0
  Sc  Sc2043  1  0.06849981  0.00967067  0.98222042  1.0
  Sc  Sc2044  1  0.06849981  0.34300400  0.98222042  1.0
  Sc  Sc2045  1  0.06849981  0.67633733  0.98222042  1.0
  Sc  Sc2046  1  0.40183314  0.00967067  0.98222042  1.0
  Sc  Sc2047  1  0.40183314  0.34300400  0.98222042  1.0
  Sc  Sc2048  1  0.40183314  0.67633733  0.98222042  1.0
  Sc  Sc2049  1  0.73516647  0.00967067  0.98222042  1.0
  Sc  Sc2050  1  0.73516647  0.34300400  0.98222042  1.0
  Sc  Sc2051  1  0.73516647  0.67633733  0.98222042  1.0
  Sc  Sc2052  1  0.24161358  0.15699600  0.90211064  1.0
  Sc  Sc2053  1  0.24161358  0.49032933  0.90211064  1.0
  Sc  Sc2054  1  0.24161358  0.82366267  0.90211064  1.0
  Sc  Sc2055  1  0.57494692  0.15699600  0.90211064  1.0
  Sc  Sc2056  1  0.57494692  0.49032933  0.90211064  1.0
  Sc  Sc2057  1  0.57494692  0.82366267  0.90211064  1.0
  Sc  Sc2058  1  0.90828025  0.15699600  0.90211064  1.0
  Sc  Sc2059  1  0.90828025  0.49032933  0.90211064  1.0
  Sc  Sc2060  1  0.90828025  0.82366267  0.90211064  1.0
  Sc  Sc2061  1  0.01939136  0.15699600  0.95766619  1.0
  Sc  Sc2062  1  0.01939136  0.49032933  0.95766619  1.0
  Sc  Sc2063  1  0.01939136  0.82366267  0.95766619  1.0
  Sc  Sc2064  1  0.35272469  0.15699600  0.95766619  1.0
  Sc  Sc2065  1  0.35272469  0.49032933  0.95766619  1.0
  Sc  Sc2066  1  0.35272469  0.82366267  0.95766619  1.0
  Sc  Sc2067  1  0.68605803  0.15699600  0.95766619  1.0
  Sc  Sc2068  1  0.68605803  0.49032933  0.95766619  1.0
  Sc  Sc2069  1  0.68605803  0.82366267  0.95766619  1.0
  Sc  Sc2070  1  0.19812944  0.17633733  0.99147968  1.0
  Sc  Sc2071  1  0.19812944  0.50967067  0.99147968  1.0
  Sc  Sc2072  1  0.19812944  0.84300400  0.99147968  1.0
  Sc  Sc2073  1  0.53146277  0.17633733  0.99147968  1.0
  Sc  Sc2074  1  0.53146277  0.50967067  0.99147968  1.0
  Sc  Sc2075  1  0.53146277  0.84300400  0.99147968  1.0
  Sc  Sc2076  1  0.86479610  0.17633733  0.99147968  1.0
  Sc  Sc2077  1  0.86479610  0.50967067  0.99147968  1.0
  Sc  Sc2078  1  0.86479610  0.84300400  0.99147968  1.0
  Sc  Sc2079  1  0.08701832  0.17633733  0.93592412  1.0
  Sc  Sc2080  1  0.08701832  0.50967067  0.93592412  1.0
  Sc  Sc2081  1  0.08701832  0.84300400  0.93592412  1.0
  Sc  Sc2082  1  0.42035166  0.17633733  0.93592412  1.0
  Sc  Sc2083  1  0.42035166  0.50967067  0.93592412  1.0
  Sc  Sc2084  1  0.42035166  0.84300400  0.93592412  1.0
  Sc  Sc2085  1  0.75368499  0.17633733  0.93592412  1.0
  Sc  Sc2086  1  0.75368499  0.50967067  0.93592412  1.0
  Sc  Sc2087  1  0.75368499  0.84300400  0.93592412  1.0
  Sc  Sc2088  1  0.16515277  0.27526733  0.97499134  1.0
  Sc  Sc2089  1  0.16515277  0.60860067  0.97499134  1.0
  Sc  Sc2090  1  0.16515277  0.94193400  0.97499134  1.0
  Sc  Sc2091  1  0.49848610  0.27526733  0.97499134  1.0
  Sc  Sc2092  1  0.49848610  0.60860067  0.97499134  1.0
  Sc  Sc2093  1  0.49848610  0.94193400  0.97499134  1.0
  Sc  Sc2094  1  0.83181944  0.27526733  0.97499134  1.0
  Sc  Sc2095  1  0.83181944  0.60860067  0.97499134  1.0
  Sc  Sc2096  1  0.83181944  0.94193400  0.97499134  1.0
  Sc  Sc2097  1  0.05404166  0.27526733  0.91943579  1.0
  Sc  Sc2098  1  0.05404166  0.60860067  0.91943579  1.0
  Sc  Sc2099  1  0.05404166  0.94193400  0.91943579  1.0
  Sc  Sc2100  1  0.38737499  0.27526733  0.91943579  1.0
  Sc  Sc2101  1  0.38737499  0.60860067  0.91943579  1.0
  Sc  Sc2102  1  0.38737499  0.94193400  0.91943579  1.0
  Sc  Sc2103  1  0.72070832  0.27526733  0.91943579  1.0
  Sc  Sc2104  1  0.72070832  0.60860067  0.91943579  1.0
  Sc  Sc2105  1  0.72070832  0.94193400  0.91943579  1.0
  Sc  Sc2106  1  0.27459025  0.05806600  0.91859897  1.0
  Sc  Sc2107  1  0.27459025  0.39139933  0.91859897  1.0
  Sc  Sc2108  1  0.27459025  0.72473267  0.91859897  1.0
  Sc  Sc2109  1  0.60792358  0.05806600  0.91859897  1.0
  Sc  Sc2110  1  0.60792358  0.39139933  0.91859897  1.0
  Sc  Sc2111  1  0.60792358  0.72473267  0.91859897  1.0
  Sc  Sc2112  1  0.94125692  0.05806600  0.91859897  1.0
  Sc  Sc2113  1  0.94125692  0.39139933  0.91859897  1.0
  Sc  Sc2114  1  0.94125692  0.72473267  0.91859897  1.0
  Sc  Sc2115  1  0.05236803  0.05806600  0.97415453  1.0
  Sc  Sc2116  1  0.05236803  0.39139933  0.97415453  1.0
  Sc  Sc2117  1  0.05236803  0.72473267  0.97415453  1.0
  Sc  Sc2118  1  0.38570136  0.05806600  0.97415453  1.0
  Sc  Sc2119  1  0.38570136  0.39139933  0.97415453  1.0
  Sc  Sc2120  1  0.38570136  0.72473267  0.97415453  1.0
  Sc  Sc2121  1  0.71903469  0.05806600  0.97415453  1.0
  Sc  Sc2122  1  0.71903469  0.39139933  0.97415453  1.0
  Sc  Sc2123  1  0.71903469  0.72473267  0.97415453  1.0
  Sc  Sc2124  1  0.25774536  0.10860067  0.91017653  1.0
  Sc  Sc2125  1  0.25774536  0.44193400  0.91017653  1.0
  Sc  Sc2126  1  0.25774536  0.77526733  0.91017653  1.0
  Sc  Sc2127  1  0.59107869  0.10860067  0.91017653  1.0
  Sc  Sc2128  1  0.59107869  0.44193400  0.91017653  1.0
  Sc  Sc2129  1  0.59107869  0.77526733  0.91017653  1.0
  Sc  Sc2130  1  0.92441203  0.10860067  0.91017653  1.0
  Sc  Sc2131  1  0.92441203  0.44193400  0.91017653  1.0
  Sc  Sc2132  1  0.92441203  0.77526733  0.91017653  1.0
  Sc  Sc2133  1  0.03552314  0.10860067  0.96573208  1.0
  Sc  Sc2134  1  0.03552314  0.44193400  0.96573208  1.0
  Sc  Sc2135  1  0.03552314  0.77526733  0.96573208  1.0
  Sc  Sc2136  1  0.36885647  0.10860067  0.96573208  1.0
  Sc  Sc2137  1  0.36885647  0.44193400  0.96573208  1.0
  Sc  Sc2138  1  0.36885647  0.77526733  0.96573208  1.0
  Sc  Sc2139  1  0.70218981  0.10860067  0.96573208  1.0
  Sc  Sc2140  1  0.70218981  0.44193400  0.96573208  1.0
  Sc  Sc2141  1  0.70218981  0.77526733  0.96573208  1.0
  Sc  Sc2142  1  0.18199766  0.22473267  0.98341379  1.0
  Sc  Sc2143  1  0.18199766  0.55806600  0.98341379  1.0
  Sc  Sc2144  1  0.18199766  0.89139933  0.98341379  1.0
  Sc  Sc2145  1  0.51533099  0.22473267  0.98341379  1.0
  Sc  Sc2146  1  0.51533099  0.55806600  0.98341379  1.0
  Sc  Sc2147  1  0.51533099  0.89139933  0.98341379  1.0
  Sc  Sc2148  1  0.84866432  0.22473267  0.98341379  1.0
  Sc  Sc2149  1  0.84866432  0.55806600  0.98341379  1.0
  Sc  Sc2150  1  0.84866432  0.89139933  0.98341379  1.0
  Sc  Sc2151  1  0.07088655  0.22473267  0.92785823  1.0
  Sc  Sc2152  1  0.07088655  0.55806600  0.92785823  1.0
  Sc  Sc2153  1  0.07088655  0.89139933  0.92785823  1.0
  Sc  Sc2154  1  0.40421988  0.22473267  0.92785823  1.0
  Sc  Sc2155  1  0.40421988  0.55806600  0.92785823  1.0
  Sc  Sc2156  1  0.40421988  0.89139933  0.92785823  1.0
  Sc  Sc2157  1  0.73755321  0.22473267  0.92785823  1.0
  Sc  Sc2158  1  0.73755321  0.55806600  0.92785823  1.0
  Sc  Sc2159  1  0.73755321  0.89139933  0.92785823  1.0
  Sc  Sc2160  1  0.26013210  0.32366267  0.85581434  1.0
  Sc  Sc2161  1  0.26013210  0.65699600  0.85581434  1.0
  Sc  Sc2162  1  0.26013210  0.99032933  0.85581434  1.0
  Sc  Sc2163  1  0.59346544  0.32366267  0.85581434  1.0
  Sc  Sc2164  1  0.59346544  0.65699600  0.85581434  1.0
  Sc  Sc2165  1  0.59346544  0.99032933  0.85581434  1.0
  Sc  Sc2166  1  0.92679877  0.32366267  0.85581434  1.0
  Sc  Sc2167  1  0.92679877  0.65699600  0.85581434  1.0
  Sc  Sc2168  1  0.92679877  0.99032933  0.85581434  1.0
  Sc  Sc2169  1  0.14902099  0.32366267  0.80025879  1.0
  Sc  Sc2170  1  0.14902099  0.65699600  0.80025879  1.0
  Sc  Sc2171  1  0.14902099  0.99032933  0.80025879  1.0
  Sc  Sc2172  1  0.48235432  0.32366267  0.80025879  1.0
  Sc  Sc2173  1  0.48235432  0.65699600  0.80025879  1.0
  Sc  Sc2174  1  0.48235432  0.99032933  0.80025879  1.0
  Sc  Sc2175  1  0.81568766  0.32366267  0.80025879  1.0
  Sc  Sc2176  1  0.81568766  0.65699600  0.80025879  1.0
  Sc  Sc2177  1  0.81568766  0.99032933  0.80025879  1.0
  Sc  Sc2178  1  0.06849981  0.00967067  0.81555375  1.0
  Sc  Sc2179  1  0.06849981  0.34300400  0.81555375  1.0
  Sc  Sc2180  1  0.06849981  0.67633733  0.81555375  1.0
  Sc  Sc2181  1  0.40183314  0.00967067  0.81555375  1.0
  Sc  Sc2182  1  0.40183314  0.34300400  0.81555375  1.0
  Sc  Sc2183  1  0.40183314  0.67633733  0.81555375  1.0
  Sc  Sc2184  1  0.73516647  0.00967067  0.81555375  1.0
  Sc  Sc2185  1  0.73516647  0.34300400  0.81555375  1.0
  Sc  Sc2186  1  0.73516647  0.67633733  0.81555375  1.0
  Sc  Sc2187  1  0.17961092  0.00967067  0.87110931  1.0
  Sc  Sc2188  1  0.17961092  0.34300400  0.87110931  1.0
  Sc  Sc2189  1  0.17961092  0.67633733  0.87110931  1.0
  Sc  Sc2190  1  0.51294425  0.00967067  0.87110931  1.0
  Sc  Sc2191  1  0.51294425  0.34300400  0.87110931  1.0
  Sc  Sc2192  1  0.51294425  0.67633733  0.87110931  1.0
  Sc  Sc2193  1  0.84627758  0.00967067  0.87110931  1.0
  Sc  Sc2194  1  0.84627758  0.34300400  0.87110931  1.0
  Sc  Sc2195  1  0.84627758  0.67633733  0.87110931  1.0
  Sc  Sc2196  1  0.01939136  0.15699600  0.79099953  1.0
  Sc  Sc2197  1  0.01939136  0.49032933  0.79099953  1.0
  Sc  Sc2198  1  0.01939136  0.82366267  0.79099953  1.0
  Sc  Sc2199  1  0.35272469  0.15699600  0.79099953  1.0
  Sc  Sc2200  1  0.35272469  0.49032933  0.79099953  1.0
  Sc  Sc2201  1  0.35272469  0.82366267  0.79099953  1.0
  Sc  Sc2202  1  0.68605803  0.15699600  0.79099953  1.0
  Sc  Sc2203  1  0.68605803  0.49032933  0.79099953  1.0
  Sc  Sc2204  1  0.68605803  0.82366267  0.79099953  1.0
  Sc  Sc2205  1  0.13050247  0.15699600  0.84655508  1.0
  Sc  Sc2206  1  0.13050247  0.49032933  0.84655508  1.0
  Sc  Sc2207  1  0.13050247  0.82366267  0.84655508  1.0
  Sc  Sc2208  1  0.46383581  0.15699600  0.84655508  1.0
  Sc  Sc2209  1  0.46383581  0.49032933  0.84655508  1.0
  Sc  Sc2210  1  0.46383581  0.82366267  0.84655508  1.0
  Sc  Sc2211  1  0.79716914  0.15699600  0.84655508  1.0
  Sc  Sc2212  1  0.79716914  0.49032933  0.84655508  1.0
  Sc  Sc2213  1  0.79716914  0.82366267  0.84655508  1.0
  Sc  Sc2214  1  0.30924055  0.17633733  0.88036856  1.0
  Sc  Sc2215  1  0.30924055  0.50967067  0.88036856  1.0
  Sc  Sc2216  1  0.30924055  0.84300400  0.88036856  1.0
  Sc  Sc2217  1  0.64257388  0.17633733  0.88036856  1.0
  Sc  Sc2218  1  0.64257388  0.50967067  0.88036856  1.0
  Sc  Sc2219  1  0.64257388  0.84300400  0.88036856  1.0
  Sc  Sc2220  1  0.97590721  0.17633733  0.88036856  1.0
  Sc  Sc2221  1  0.97590721  0.50967067  0.88036856  1.0
  Sc  Sc2222  1  0.97590721  0.84300400  0.88036856  1.0
  Sc  Sc2223  1  0.19812944  0.17633733  0.82481301  1.0
  Sc  Sc2224  1  0.19812944  0.50967067  0.82481301  1.0
  Sc  Sc2225  1  0.19812944  0.84300400  0.82481301  1.0
  Sc  Sc2226  1  0.53146277  0.17633733  0.82481301  1.0
  Sc  Sc2227  1  0.53146277  0.50967067  0.82481301  1.0
  Sc  Sc2228  1  0.53146277  0.84300400  0.82481301  1.0
  Sc  Sc2229  1  0.86479610  0.17633733  0.82481301  1.0
  Sc  Sc2230  1  0.86479610  0.50967067  0.82481301  1.0
  Sc  Sc2231  1  0.86479610  0.84300400  0.82481301  1.0
  Sc  Sc2232  1  0.27626388  0.27526733  0.86388023  1.0
  Sc  Sc2233  1  0.27626388  0.60860067  0.86388023  1.0
  Sc  Sc2234  1  0.27626388  0.94193400  0.86388023  1.0
  Sc  Sc2235  1  0.60959721  0.27526733  0.86388023  1.0
  Sc  Sc2236  1  0.60959721  0.60860067  0.86388023  1.0
  Sc  Sc2237  1  0.60959721  0.94193400  0.86388023  1.0
  Sc  Sc2238  1  0.94293055  0.27526733  0.86388023  1.0
  Sc  Sc2239  1  0.94293055  0.60860067  0.86388023  1.0
  Sc  Sc2240  1  0.94293055  0.94193400  0.86388023  1.0
  Sc  Sc2241  1  0.16515277  0.27526733  0.80832468  1.0
  Sc  Sc2242  1  0.16515277  0.60860067  0.80832468  1.0
  Sc  Sc2243  1  0.16515277  0.94193400  0.80832468  1.0
  Sc  Sc2244  1  0.49848610  0.27526733  0.80832468  1.0
  Sc  Sc2245  1  0.49848610  0.60860067  0.80832468  1.0
  Sc  Sc2246  1  0.49848610  0.94193400  0.80832468  1.0
  Sc  Sc2247  1  0.83181944  0.27526733  0.80832468  1.0
  Sc  Sc2248  1  0.83181944  0.60860067  0.80832468  1.0
  Sc  Sc2249  1  0.83181944  0.94193400  0.80832468  1.0
  Sc  Sc2250  1  0.05236803  0.05806600  0.80748786  1.0
  Sc  Sc2251  1  0.05236803  0.39139933  0.80748786  1.0
  Sc  Sc2252  1  0.05236803  0.72473267  0.80748786  1.0
  Sc  Sc2253  1  0.38570136  0.05806600  0.80748786  1.0
  Sc  Sc2254  1  0.38570136  0.39139933  0.80748786  1.0
  Sc  Sc2255  1  0.38570136  0.72473267  0.80748786  1.0
  Sc  Sc2256  1  0.71903469  0.05806600  0.80748786  1.0
  Sc  Sc2257  1  0.71903469  0.39139933  0.80748786  1.0
  Sc  Sc2258  1  0.71903469  0.72473267  0.80748786  1.0
  Sc  Sc2259  1  0.16347914  0.05806600  0.86304342  1.0
  Sc  Sc2260  1  0.16347914  0.39139933  0.86304342  1.0
  Sc  Sc2261  1  0.16347914  0.72473267  0.86304342  1.0
  Sc  Sc2262  1  0.49681247  0.05806600  0.86304342  1.0
  Sc  Sc2263  1  0.49681247  0.39139933  0.86304342  1.0
  Sc  Sc2264  1  0.49681247  0.72473267  0.86304342  1.0
  Sc  Sc2265  1  0.83014581  0.05806600  0.86304342  1.0
  Sc  Sc2266  1  0.83014581  0.39139933  0.86304342  1.0
  Sc  Sc2267  1  0.83014581  0.72473267  0.86304342  1.0
  Sc  Sc2268  1  0.03552314  0.10860067  0.79906542  1.0
  Sc  Sc2269  1  0.03552314  0.44193400  0.79906542  1.0
  Sc  Sc2270  1  0.03552314  0.77526733  0.79906542  1.0
  Sc  Sc2271  1  0.36885647  0.10860067  0.79906542  1.0
  Sc  Sc2272  1  0.36885647  0.44193400  0.79906542  1.0
  Sc  Sc2273  1  0.36885647  0.77526733  0.79906542  1.0
  Sc  Sc2274  1  0.70218981  0.10860067  0.79906542  1.0
  Sc  Sc2275  1  0.70218981  0.44193400  0.79906542  1.0
  Sc  Sc2276  1  0.70218981  0.77526733  0.79906542  1.0
  Sc  Sc2277  1  0.14663425  0.10860067  0.85462097  1.0
  Sc  Sc2278  1  0.14663425  0.44193400  0.85462097  1.0
  Sc  Sc2279  1  0.14663425  0.77526733  0.85462097  1.0
  Sc  Sc2280  1  0.47996758  0.10860067  0.85462097  1.0
  Sc  Sc2281  1  0.47996758  0.44193400  0.85462097  1.0
  Sc  Sc2282  1  0.47996758  0.77526733  0.85462097  1.0
  Sc  Sc2283  1  0.81330092  0.10860067  0.85462097  1.0
  Sc  Sc2284  1  0.81330092  0.44193400  0.85462097  1.0
  Sc  Sc2285  1  0.81330092  0.77526733  0.85462097  1.0
  Sc  Sc2286  1  0.29310877  0.22473267  0.87230268  1.0
  Sc  Sc2287  1  0.29310877  0.55806600  0.87230268  1.0
  Sc  Sc2288  1  0.29310877  0.89139933  0.87230268  1.0
  Sc  Sc2289  1  0.62644210  0.22473267  0.87230268  1.0
  Sc  Sc2290  1  0.62644210  0.55806600  0.87230268  1.0
  Sc  Sc2291  1  0.62644210  0.89139933  0.87230268  1.0
  Sc  Sc2292  1  0.95977544  0.22473267  0.87230268  1.0
  Sc  Sc2293  1  0.95977544  0.55806600  0.87230268  1.0
  Sc  Sc2294  1  0.95977544  0.89139933  0.87230268  1.0
  Sc  Sc2295  1  0.18199766  0.22473267  0.81674712  1.0
  Sc  Sc2296  1  0.18199766  0.55806600  0.81674712  1.0
  Sc  Sc2297  1  0.18199766  0.89139933  0.81674712  1.0
  Sc  Sc2298  1  0.51533099  0.22473267  0.81674712  1.0
  Sc  Sc2299  1  0.51533099  0.55806600  0.81674712  1.0
  Sc  Sc2300  1  0.51533099  0.89139933  0.81674712  1.0
  Sc  Sc2301  1  0.84866432  0.22473267  0.81674712  1.0
  Sc  Sc2302  1  0.84866432  0.55806600  0.81674712  1.0
  Sc  Sc2303  1  0.84866432  0.89139933  0.81674712  1.0
  Sc  Sc2304  1  0.03790988  0.32366267  0.74470323  1.0
  Sc  Sc2305  1  0.03790988  0.65699600  0.74470323  1.0
  Sc  Sc2306  1  0.03790988  0.99032933  0.74470323  1.0
  Sc  Sc2307  1  0.37124321  0.32366267  0.74470323  1.0
  Sc  Sc2308  1  0.37124321  0.65699600  0.74470323  1.0
  Sc  Sc2309  1  0.37124321  0.99032933  0.74470323  1.0
  Sc  Sc2310  1  0.70457655  0.32366267  0.74470323  1.0
  Sc  Sc2311  1  0.70457655  0.65699600  0.74470323  1.0
  Sc  Sc2312  1  0.70457655  0.99032933  0.74470323  1.0
  Sc  Sc2313  1  0.26013210  0.32366267  0.68914768  1.0
  Sc  Sc2314  1  0.26013210  0.65699600  0.68914768  1.0
  Sc  Sc2315  1  0.26013210  0.99032933  0.68914768  1.0
  Sc  Sc2316  1  0.59346544  0.32366267  0.68914768  1.0
  Sc  Sc2317  1  0.59346544  0.65699600  0.68914768  1.0
  Sc  Sc2318  1  0.59346544  0.99032933  0.68914768  1.0
  Sc  Sc2319  1  0.92679877  0.32366267  0.68914768  1.0
  Sc  Sc2320  1  0.92679877  0.65699600  0.68914768  1.0
  Sc  Sc2321  1  0.92679877  0.99032933  0.68914768  1.0
  Sc  Sc2322  1  0.17961092  0.00967067  0.70444264  1.0
  Sc  Sc2323  1  0.17961092  0.34300400  0.70444264  1.0
  Sc  Sc2324  1  0.17961092  0.67633733  0.70444264  1.0
  Sc  Sc2325  1  0.51294425  0.00967067  0.70444264  1.0
  Sc  Sc2326  1  0.51294425  0.34300400  0.70444264  1.0
  Sc  Sc2327  1  0.51294425  0.67633733  0.70444264  1.0
  Sc  Sc2328  1  0.84627758  0.00967067  0.70444264  1.0
  Sc  Sc2329  1  0.84627758  0.34300400  0.70444264  1.0
  Sc  Sc2330  1  0.84627758  0.67633733  0.70444264  1.0
  Sc  Sc2331  1  0.29072203  0.00967067  0.75999819  1.0
  Sc  Sc2332  1  0.29072203  0.34300400  0.75999819  1.0
  Sc  Sc2333  1  0.29072203  0.67633733  0.75999819  1.0
  Sc  Sc2334  1  0.62405536  0.00967067  0.75999819  1.0
  Sc  Sc2335  1  0.62405536  0.34300400  0.75999819  1.0
  Sc  Sc2336  1  0.62405536  0.67633733  0.75999819  1.0
  Sc  Sc2337  1  0.95738869  0.00967067  0.75999819  1.0
  Sc  Sc2338  1  0.95738869  0.34300400  0.75999819  1.0
  Sc  Sc2339  1  0.95738869  0.67633733  0.75999819  1.0
  Sc  Sc2340  1  0.13050247  0.15699600  0.67988842  1.0
  Sc  Sc2341  1  0.13050247  0.49032933  0.67988842  1.0
  Sc  Sc2342  1  0.13050247  0.82366267  0.67988842  1.0
  Sc  Sc2343  1  0.46383581  0.15699600  0.67988842  1.0
  Sc  Sc2344  1  0.46383581  0.49032933  0.67988842  1.0
  Sc  Sc2345  1  0.46383581  0.82366267  0.67988842  1.0
  Sc  Sc2346  1  0.79716914  0.15699600  0.67988842  1.0
  Sc  Sc2347  1  0.79716914  0.49032933  0.67988842  1.0
  Sc  Sc2348  1  0.79716914  0.82366267  0.67988842  1.0
  Sc  Sc2349  1  0.24161358  0.15699600  0.73544397  1.0
  Sc  Sc2350  1  0.24161358  0.49032933  0.73544397  1.0
  Sc  Sc2351  1  0.24161358  0.82366267  0.73544397  1.0
  Sc  Sc2352  1  0.57494692  0.15699600  0.73544397  1.0
  Sc  Sc2353  1  0.57494692  0.49032933  0.73544397  1.0
  Sc  Sc2354  1  0.57494692  0.82366267  0.73544397  1.0
  Sc  Sc2355  1  0.90828025  0.15699600  0.73544397  1.0
  Sc  Sc2356  1  0.90828025  0.49032933  0.73544397  1.0
  Sc  Sc2357  1  0.90828025  0.82366267  0.73544397  1.0
  Sc  Sc2358  1  0.08701832  0.17633733  0.76925745  1.0
  Sc  Sc2359  1  0.08701832  0.50967067  0.76925745  1.0
  Sc  Sc2360  1  0.08701832  0.84300400  0.76925745  1.0
  Sc  Sc2361  1  0.42035166  0.17633733  0.76925745  1.0
  Sc  Sc2362  1  0.42035166  0.50967067  0.76925745  1.0
  Sc  Sc2363  1  0.42035166  0.84300400  0.76925745  1.0
  Sc  Sc2364  1  0.75368499  0.17633733  0.76925745  1.0
  Sc  Sc2365  1  0.75368499  0.50967067  0.76925745  1.0
  Sc  Sc2366  1  0.75368499  0.84300400  0.76925745  1.0
  Sc  Sc2367  1  0.30924055  0.17633733  0.71370190  1.0
  Sc  Sc2368  1  0.30924055  0.50967067  0.71370190  1.0
  Sc  Sc2369  1  0.30924055  0.84300400  0.71370190  1.0
  Sc  Sc2370  1  0.64257388  0.17633733  0.71370190  1.0
  Sc  Sc2371  1  0.64257388  0.50967067  0.71370190  1.0
  Sc  Sc2372  1  0.64257388  0.84300400  0.71370190  1.0
  Sc  Sc2373  1  0.97590721  0.17633733  0.71370190  1.0
  Sc  Sc2374  1  0.97590721  0.50967067  0.71370190  1.0
  Sc  Sc2375  1  0.97590721  0.84300400  0.71370190  1.0
  Sc  Sc2376  1  0.05404166  0.27526733  0.75276912  1.0
  Sc  Sc2377  1  0.05404166  0.60860067  0.75276912  1.0
  Sc  Sc2378  1  0.05404166  0.94193400  0.75276912  1.0
  Sc  Sc2379  1  0.38737499  0.27526733  0.75276912  1.0
  Sc  Sc2380  1  0.38737499  0.60860067  0.75276912  1.0
  Sc  Sc2381  1  0.38737499  0.94193400  0.75276912  1.0
  Sc  Sc2382  1  0.72070832  0.27526733  0.75276912  1.0
  Sc  Sc2383  1  0.72070832  0.60860067  0.75276912  1.0
  Sc  Sc2384  1  0.72070832  0.94193400  0.75276912  1.0
  Sc  Sc2385  1  0.27626388  0.27526733  0.69721356  1.0
  Sc  Sc2386  1  0.27626388  0.60860067  0.69721356  1.0
  Sc  Sc2387  1  0.27626388  0.94193400  0.69721356  1.0
  Sc  Sc2388  1  0.60959721  0.27526733  0.69721356  1.0
  Sc  Sc2389  1  0.60959721  0.60860067  0.69721356  1.0
  Sc  Sc2390  1  0.60959721  0.94193400  0.69721356  1.0
  Sc  Sc2391  1  0.94293055  0.27526733  0.69721356  1.0
  Sc  Sc2392  1  0.94293055  0.60860067  0.69721356  1.0
  Sc  Sc2393  1  0.94293055  0.94193400  0.69721356  1.0
  Sc  Sc2394  1  0.16347914  0.05806600  0.69637675  1.0
  Sc  Sc2395  1  0.16347914  0.39139933  0.69637675  1.0
  Sc  Sc2396  1  0.16347914  0.72473267  0.69637675  1.0
  Sc  Sc2397  1  0.49681247  0.05806600  0.69637675  1.0
  Sc  Sc2398  1  0.49681247  0.39139933  0.69637675  1.0
  Sc  Sc2399  1  0.49681247  0.72473267  0.69637675  1.0
  Sc  Sc2400  1  0.83014581  0.05806600  0.69637675  1.0
  Sc  Sc2401  1  0.83014581  0.39139933  0.69637675  1.0
  Sc  Sc2402  1  0.83014581  0.72473267  0.69637675  1.0
  Sc  Sc2403  1  0.27459025  0.05806600  0.75193231  1.0
  Sc  Sc2404  1  0.27459025  0.39139933  0.75193231  1.0
  Sc  Sc2405  1  0.27459025  0.72473267  0.75193231  1.0
  Sc  Sc2406  1  0.60792358  0.05806600  0.75193231  1.0
  Sc  Sc2407  1  0.60792358  0.39139933  0.75193231  1.0
  Sc  Sc2408  1  0.60792358  0.72473267  0.75193231  1.0
  Sc  Sc2409  1  0.94125692  0.05806600  0.75193231  1.0
  Sc  Sc2410  1  0.94125692  0.39139933  0.75193231  1.0
  Sc  Sc2411  1  0.94125692  0.72473267  0.75193231  1.0
  Sc  Sc2412  1  0.14663425  0.10860067  0.68795431  1.0
  Sc  Sc2413  1  0.14663425  0.44193400  0.68795431  1.0
  Sc  Sc2414  1  0.14663425  0.77526733  0.68795431  1.0
  Sc  Sc2415  1  0.47996758  0.10860067  0.68795431  1.0
  Sc  Sc2416  1  0.47996758  0.44193400  0.68795431  1.0
  Sc  Sc2417  1  0.47996758  0.77526733  0.68795431  1.0
  Sc  Sc2418  1  0.81330092  0.10860067  0.68795431  1.0
  Sc  Sc2419  1  0.81330092  0.44193400  0.68795431  1.0
  Sc  Sc2420  1  0.81330092  0.77526733  0.68795431  1.0
  Sc  Sc2421  1  0.25774536  0.10860067  0.74350986  1.0
  Sc  Sc2422  1  0.25774536  0.44193400  0.74350986  1.0
  Sc  Sc2423  1  0.25774536  0.77526733  0.74350986  1.0
  Sc  Sc2424  1  0.59107869  0.10860067  0.74350986  1.0
  Sc  Sc2425  1  0.59107869  0.44193400  0.74350986  1.0
  Sc  Sc2426  1  0.59107869  0.77526733  0.74350986  1.0
  Sc  Sc2427  1  0.92441203  0.10860067  0.74350986  1.0
  Sc  Sc2428  1  0.92441203  0.44193400  0.74350986  1.0
  Sc  Sc2429  1  0.92441203  0.77526733  0.74350986  1.0
  Sc  Sc2430  1  0.07088655  0.22473267  0.76119156  1.0
  Sc  Sc2431  1  0.07088655  0.55806600  0.76119156  1.0
  Sc  Sc2432  1  0.07088655  0.89139933  0.76119156  1.0
  Sc  Sc2433  1  0.40421988  0.22473267  0.76119156  1.0
  Sc  Sc2434  1  0.40421988  0.55806600  0.76119156  1.0
  Sc  Sc2435  1  0.40421988  0.89139933  0.76119156  1.0
  Sc  Sc2436  1  0.73755321  0.22473267  0.76119156  1.0
  Sc  Sc2437  1  0.73755321  0.55806600  0.76119156  1.0
  Sc  Sc2438  1  0.73755321  0.89139933  0.76119156  1.0
  Sc  Sc2439  1  0.29310877  0.22473267  0.70563601  1.0
  Sc  Sc2440  1  0.29310877  0.55806600  0.70563601  1.0
  Sc  Sc2441  1  0.29310877  0.89139933  0.70563601  1.0
  Sc  Sc2442  1  0.62644210  0.22473267  0.70563601  1.0
  Sc  Sc2443  1  0.62644210  0.55806600  0.70563601  1.0
  Sc  Sc2444  1  0.62644210  0.89139933  0.70563601  1.0
  Sc  Sc2445  1  0.95977544  0.22473267  0.70563601  1.0
  Sc  Sc2446  1  0.95977544  0.55806600  0.70563601  1.0
  Sc  Sc2447  1  0.95977544  0.89139933  0.70563601  1.0
  Sc  Sc2448  1  0.14902099  0.32366267  0.63359212  1.0
  Sc  Sc2449  1  0.14902099  0.65699600  0.63359212  1.0
  Sc  Sc2450  1  0.14902099  0.99032933  0.63359212  1.0
  Sc  Sc2451  1  0.48235432  0.32366267  0.63359212  1.0
  Sc  Sc2452  1  0.48235432  0.65699600  0.63359212  1.0
  Sc  Sc2453  1  0.48235432  0.99032933  0.63359212  1.0
  Sc  Sc2454  1  0.81568766  0.32366267  0.63359212  1.0
  Sc  Sc2455  1  0.81568766  0.65699600  0.63359212  1.0
  Sc  Sc2456  1  0.81568766  0.99032933  0.63359212  1.0
  Sc  Sc2457  1  0.03790988  0.32366267  0.57803656  1.0
  Sc  Sc2458  1  0.03790988  0.65699600  0.57803656  1.0
  Sc  Sc2459  1  0.03790988  0.99032933  0.57803656  1.0
  Sc  Sc2460  1  0.37124321  0.32366267  0.57803656  1.0
  Sc  Sc2461  1  0.37124321  0.65699600  0.57803656  1.0
  Sc  Sc2462  1  0.37124321  0.99032933  0.57803656  1.0
  Sc  Sc2463  1  0.70457655  0.32366267  0.57803656  1.0
  Sc  Sc2464  1  0.70457655  0.65699600  0.57803656  1.0
  Sc  Sc2465  1  0.70457655  0.99032933  0.57803656  1.0
  Sc  Sc2466  1  0.29072203  0.00967067  0.59333153  1.0
  Sc  Sc2467  1  0.29072203  0.34300400  0.59333153  1.0
  Sc  Sc2468  1  0.29072203  0.67633733  0.59333153  1.0
  Sc  Sc2469  1  0.62405536  0.00967067  0.59333153  1.0
  Sc  Sc2470  1  0.62405536  0.34300400  0.59333153  1.0
  Sc  Sc2471  1  0.62405536  0.67633733  0.59333153  1.0
  Sc  Sc2472  1  0.95738869  0.00967067  0.59333153  1.0
  Sc  Sc2473  1  0.95738869  0.34300400  0.59333153  1.0
  Sc  Sc2474  1  0.95738869  0.67633733  0.59333153  1.0
  Sc  Sc2475  1  0.06849981  0.00967067  0.64888708  1.0
  Sc  Sc2476  1  0.06849981  0.34300400  0.64888708  1.0
  Sc  Sc2477  1  0.06849981  0.67633733  0.64888708  1.0
  Sc  Sc2478  1  0.40183314  0.00967067  0.64888708  1.0
  Sc  Sc2479  1  0.40183314  0.34300400  0.64888708  1.0
  Sc  Sc2480  1  0.40183314  0.67633733  0.64888708  1.0
  Sc  Sc2481  1  0.73516647  0.00967067  0.64888708  1.0
  Sc  Sc2482  1  0.73516647  0.34300400  0.64888708  1.0
  Sc  Sc2483  1  0.73516647  0.67633733  0.64888708  1.0
  Sc  Sc2484  1  0.24161358  0.15699600  0.56877731  1.0
  Sc  Sc2485  1  0.24161358  0.49032933  0.56877731  1.0
  Sc  Sc2486  1  0.24161358  0.82366267  0.56877731  1.0
  Sc  Sc2487  1  0.57494692  0.15699600  0.56877731  1.0
  Sc  Sc2488  1  0.57494692  0.49032933  0.56877731  1.0
  Sc  Sc2489  1  0.57494692  0.82366267  0.56877731  1.0
  Sc  Sc2490  1  0.90828025  0.15699600  0.56877731  1.0
  Sc  Sc2491  1  0.90828025  0.49032933  0.56877731  1.0
  Sc  Sc2492  1  0.90828025  0.82366267  0.56877731  1.0
  Sc  Sc2493  1  0.01939136  0.15699600  0.62433286  1.0
  Sc  Sc2494  1  0.01939136  0.49032933  0.62433286  1.0
  Sc  Sc2495  1  0.01939136  0.82366267  0.62433286  1.0
  Sc  Sc2496  1  0.35272469  0.15699600  0.62433286  1.0
  Sc  Sc2497  1  0.35272469  0.49032933  0.62433286  1.0
  Sc  Sc2498  1  0.35272469  0.82366267  0.62433286  1.0
  Sc  Sc2499  1  0.68605803  0.15699600  0.62433286  1.0
  Sc  Sc2500  1  0.68605803  0.49032933  0.62433286  1.0
  Sc  Sc2501  1  0.68605803  0.82366267  0.62433286  1.0
  Sc  Sc2502  1  0.19812944  0.17633733  0.65814634  1.0
  Sc  Sc2503  1  0.19812944  0.50967067  0.65814634  1.0
  Sc  Sc2504  1  0.19812944  0.84300400  0.65814634  1.0
  Sc  Sc2505  1  0.53146277  0.17633733  0.65814634  1.0
  Sc  Sc2506  1  0.53146277  0.50967067  0.65814634  1.0
  Sc  Sc2507  1  0.53146277  0.84300400  0.65814634  1.0
  Sc  Sc2508  1  0.86479610  0.17633733  0.65814634  1.0
  Sc  Sc2509  1  0.86479610  0.50967067  0.65814634  1.0
  Sc  Sc2510  1  0.86479610  0.84300400  0.65814634  1.0
  Sc  Sc2511  1  0.08701832  0.17633733  0.60259079  1.0
  Sc  Sc2512  1  0.08701832  0.50967067  0.60259079  1.0
  Sc  Sc2513  1  0.08701832  0.84300400  0.60259079  1.0
  Sc  Sc2514  1  0.42035166  0.17633733  0.60259079  1.0
  Sc  Sc2515  1  0.42035166  0.50967067  0.60259079  1.0
  Sc  Sc2516  1  0.42035166  0.84300400  0.60259079  1.0
  Sc  Sc2517  1  0.75368499  0.17633733  0.60259079  1.0
  Sc  Sc2518  1  0.75368499  0.50967067  0.60259079  1.0
  Sc  Sc2519  1  0.75368499  0.84300400  0.60259079  1.0
  Sc  Sc2520  1  0.16515277  0.27526733  0.64165801  1.0
  Sc  Sc2521  1  0.16515277  0.60860067  0.64165801  1.0
  Sc  Sc2522  1  0.16515277  0.94193400  0.64165801  1.0
  Sc  Sc2523  1  0.49848610  0.27526733  0.64165801  1.0
  Sc  Sc2524  1  0.49848610  0.60860067  0.64165801  1.0
  Sc  Sc2525  1  0.49848610  0.94193400  0.64165801  1.0
  Sc  Sc2526  1  0.83181944  0.27526733  0.64165801  1.0
  Sc  Sc2527  1  0.83181944  0.60860067  0.64165801  1.0
  Sc  Sc2528  1  0.83181944  0.94193400  0.64165801  1.0
  Sc  Sc2529  1  0.05404166  0.27526733  0.58610245  1.0
  Sc  Sc2530  1  0.05404166  0.60860067  0.58610245  1.0
  Sc  Sc2531  1  0.05404166  0.94193400  0.58610245  1.0
  Sc  Sc2532  1  0.38737499  0.27526733  0.58610245  1.0
  Sc  Sc2533  1  0.38737499  0.60860067  0.58610245  1.0
  Sc  Sc2534  1  0.38737499  0.94193400  0.58610245  1.0
  Sc  Sc2535  1  0.72070832  0.27526733  0.58610245  1.0
  Sc  Sc2536  1  0.72070832  0.60860067  0.58610245  1.0
  Sc  Sc2537  1  0.72070832  0.94193400  0.58610245  1.0
  Sc  Sc2538  1  0.27459025  0.05806600  0.58526564  1.0
  Sc  Sc2539  1  0.27459025  0.39139933  0.58526564  1.0
  Sc  Sc2540  1  0.27459025  0.72473267  0.58526564  1.0
  Sc  Sc2541  1  0.60792358  0.05806600  0.58526564  1.0
  Sc  Sc2542  1  0.60792358  0.39139933  0.58526564  1.0
  Sc  Sc2543  1  0.60792358  0.72473267  0.58526564  1.0
  Sc  Sc2544  1  0.94125692  0.05806600  0.58526564  1.0
  Sc  Sc2545  1  0.94125692  0.39139933  0.58526564  1.0
  Sc  Sc2546  1  0.94125692  0.72473267  0.58526564  1.0
  Sc  Sc2547  1  0.05236803  0.05806600  0.64082119  1.0
  Sc  Sc2548  1  0.05236803  0.39139933  0.64082119  1.0
  Sc  Sc2549  1  0.05236803  0.72473267  0.64082119  1.0
  Sc  Sc2550  1  0.38570136  0.05806600  0.64082119  1.0
  Sc  Sc2551  1  0.38570136  0.39139933  0.64082119  1.0
  Sc  Sc2552  1  0.38570136  0.72473267  0.64082119  1.0
  Sc  Sc2553  1  0.71903469  0.05806600  0.64082119  1.0
  Sc  Sc2554  1  0.71903469  0.39139933  0.64082119  1.0
  Sc  Sc2555  1  0.71903469  0.72473267  0.64082119  1.0
  Sc  Sc2556  1  0.25774536  0.10860067  0.57684319  1.0
  Sc  Sc2557  1  0.25774536  0.44193400  0.57684319  1.0
  Sc  Sc2558  1  0.25774536  0.77526733  0.57684319  1.0
  Sc  Sc2559  1  0.59107869  0.10860067  0.57684319  1.0
  Sc  Sc2560  1  0.59107869  0.44193400  0.57684319  1.0
  Sc  Sc2561  1  0.59107869  0.77526733  0.57684319  1.0
  Sc  Sc2562  1  0.92441203  0.10860067  0.57684319  1.0
  Sc  Sc2563  1  0.92441203  0.44193400  0.57684319  1.0
  Sc  Sc2564  1  0.92441203  0.77526733  0.57684319  1.0
  Sc  Sc2565  1  0.03552314  0.10860067  0.63239875  1.0
  Sc  Sc2566  1  0.03552314  0.44193400  0.63239875  1.0
  Sc  Sc2567  1  0.03552314  0.77526733  0.63239875  1.0
  Sc  Sc2568  1  0.36885647  0.10860067  0.63239875  1.0
  Sc  Sc2569  1  0.36885647  0.44193400  0.63239875  1.0
  Sc  Sc2570  1  0.36885647  0.77526733  0.63239875  1.0
  Sc  Sc2571  1  0.70218981  0.10860067  0.63239875  1.0
  Sc  Sc2572  1  0.70218981  0.44193400  0.63239875  1.0
  Sc  Sc2573  1  0.70218981  0.77526733  0.63239875  1.0
  Sc  Sc2574  1  0.18199766  0.22473267  0.65008045  1.0
  Sc  Sc2575  1  0.18199766  0.55806600  0.65008045  1.0
  Sc  Sc2576  1  0.18199766  0.89139933  0.65008045  1.0
  Sc  Sc2577  1  0.51533099  0.22473267  0.65008045  1.0
  Sc  Sc2578  1  0.51533099  0.55806600  0.65008045  1.0
  Sc  Sc2579  1  0.51533099  0.89139933  0.65008045  1.0
  Sc  Sc2580  1  0.84866432  0.22473267  0.65008045  1.0
  Sc  Sc2581  1  0.84866432  0.55806600  0.65008045  1.0
  Sc  Sc2582  1  0.84866432  0.89139933  0.65008045  1.0
  Sc  Sc2583  1  0.07088655  0.22473267  0.59452490  1.0
  Sc  Sc2584  1  0.07088655  0.55806600  0.59452490  1.0
  Sc  Sc2585  1  0.07088655  0.89139933  0.59452490  1.0
  Sc  Sc2586  1  0.40421988  0.22473267  0.59452490  1.0
  Sc  Sc2587  1  0.40421988  0.55806600  0.59452490  1.0
  Sc  Sc2588  1  0.40421988  0.89139933  0.59452490  1.0
  Sc  Sc2589  1  0.73755321  0.22473267  0.59452490  1.0
  Sc  Sc2590  1  0.73755321  0.55806600  0.59452490  1.0
  Sc  Sc2591  1  0.73755321  0.89139933  0.59452490  1.0
