# generated using pymatgen
data_Sc2Ni
_symmetry_space_group_name_H-M   'P 1'
_cell_length_a   44.42678739
_cell_length_b   44.42678739
_cell_length_c   59.84957454
_cell_angle_alpha   30.00000000
_cell_angle_beta   106.77865488
_cell_angle_gamma   99.59406823
_symmetry_Int_Tables_number   1
_chemical_formula_structural   Sc2Ni
_chemical_formula_sum   'Sc864 Ni432'
_cell_volume   55685.82132076
_cell_formula_units_Z   432
loop_
 _symmetry_equiv_pos_site_id
 _symmetry_equiv_pos_as_xyz
  1  'x, y, z'
loop_
 _atom_site_type_symbol
 _atom_site_label
 _atom_site_symmetry_multiplicity
 _atom_site_fract_x
 _atom_site_fract_y
 _atom_site_fract_z
 _atom_site_occupancy
  Sc  Sc0  1  0.22916667  0.31250000  0.08711752  1.0
  Sc  Sc1  1  0.22916667  0.64583333  0.08711752  1.0
  Sc  Sc2  1  0.22916667  0.97916667  0.08711752  1.0
  Sc  Sc3  1  0.56250000  0.31250000  0.08711752  1.0
  Sc  Sc4  1  0.56250000  0.64583333  0.08711752  1.0
  Sc  Sc5  1  0.56250000  0.97916667  0.08711752  1.0
  Sc  Sc6  1  0.89583333  0.31250000  0.08711752  1.0
  Sc  Sc7  1  0.89583333  0.64583333  0.08711752  1.0
  Sc  Sc8  1  0.89583333  0.97916667  0.08711752  1.0
  Sc  Sc9  1  0.06250000  0.14583333  0.01568895  1.0
  Sc  Sc10  1  0.06250000  0.47916667  0.01568895  1.0
  Sc  Sc11  1  0.06250000  0.81250000  0.01568895  1.0
  Sc  Sc12  1  0.39583333  0.14583333  0.01568895  1.0
  Sc  Sc13  1  0.39583333  0.47916667  0.01568895  1.0
  Sc  Sc14  1  0.39583333  0.81250000  0.01568895  1.0
  Sc  Sc15  1  0.72916667  0.14583333  0.01568895  1.0
  Sc  Sc16  1  0.72916667  0.47916667  0.01568895  1.0
  Sc  Sc17  1  0.72916667  0.81250000  0.01568895  1.0
  Sc  Sc18  1  0.22916667  0.31250000  0.01568895  1.0
  Sc  Sc19  1  0.22916667  0.64583333  0.01568895  1.0
  Sc  Sc20  1  0.22916667  0.97916667  0.01568895  1.0
  Sc  Sc21  1  0.56250000  0.31250000  0.01568895  1.0
  Sc  Sc22  1  0.56250000  0.64583333  0.01568895  1.0
  Sc  Sc23  1  0.56250000  0.97916667  0.01568895  1.0
  Sc  Sc24  1  0.89583333  0.31250000  0.01568895  1.0
  Sc  Sc25  1  0.89583333  0.64583333  0.01568895  1.0
  Sc  Sc26  1  0.89583333  0.97916667  0.01568895  1.0
  Sc  Sc27  1  0.06250000  0.14583333  0.08711752  1.0
  Sc  Sc28  1  0.06250000  0.47916667  0.08711752  1.0
  Sc  Sc29  1  0.06250000  0.81250000  0.08711752  1.0
  Sc  Sc30  1  0.39583333  0.14583333  0.08711752  1.0
  Sc  Sc31  1  0.39583333  0.47916667  0.08711752  1.0
  Sc  Sc32  1  0.39583333  0.81250000  0.08711752  1.0
  Sc  Sc33  1  0.72916667  0.14583333  0.08711752  1.0
  Sc  Sc34  1  0.72916667  0.47916667  0.08711752  1.0
  Sc  Sc35  1  0.72916667  0.81250000  0.08711752  1.0
  Sc  Sc36  1  0.22916667  0.14583333  0.01568895  1.0
  Sc  Sc37  1  0.22916667  0.47916667  0.01568895  1.0
  Sc  Sc38  1  0.22916667  0.81250000  0.01568895  1.0
  Sc  Sc39  1  0.56250000  0.14583333  0.01568895  1.0
  Sc  Sc40  1  0.56250000  0.47916667  0.01568895  1.0
  Sc  Sc41  1  0.56250000  0.81250000  0.01568895  1.0
  Sc  Sc42  1  0.89583333  0.14583333  0.01568895  1.0
  Sc  Sc43  1  0.89583333  0.47916667  0.01568895  1.0
  Sc  Sc44  1  0.89583333  0.81250000  0.01568895  1.0
  Sc  Sc45  1  0.06250000  0.31250000  0.08711752  1.0
  Sc  Sc46  1  0.06250000  0.64583333  0.08711752  1.0
  Sc  Sc47  1  0.06250000  0.97916667  0.08711752  1.0
  Sc  Sc48  1  0.39583333  0.31250000  0.08711752  1.0
  Sc  Sc49  1  0.39583333  0.64583333  0.08711752  1.0
  Sc  Sc50  1  0.39583333  0.97916667  0.08711752  1.0
  Sc  Sc51  1  0.72916667  0.31250000  0.08711752  1.0
  Sc  Sc52  1  0.72916667  0.64583333  0.08711752  1.0
  Sc  Sc53  1  0.72916667  0.97916667  0.08711752  1.0
  Sc  Sc54  1  0.31250000  0.22916667  0.12283180  1.0
  Sc  Sc55  1  0.31250000  0.56250000  0.12283180  1.0
  Sc  Sc56  1  0.31250000  0.89583333  0.12283180  1.0
  Sc  Sc57  1  0.64583333  0.22916667  0.12283180  1.0
  Sc  Sc58  1  0.64583333  0.56250000  0.12283180  1.0
  Sc  Sc59  1  0.64583333  0.89583333  0.12283180  1.0
  Sc  Sc60  1  0.97916667  0.22916667  0.12283180  1.0
  Sc  Sc61  1  0.97916667  0.56250000  0.12283180  1.0
  Sc  Sc62  1  0.97916667  0.89583333  0.12283180  1.0
  Sc  Sc63  1  0.14583333  0.06250000  0.05140323  1.0
  Sc  Sc64  1  0.14583333  0.39583333  0.05140323  1.0
  Sc  Sc65  1  0.14583333  0.72916667  0.05140323  1.0
  Sc  Sc66  1  0.47916667  0.06250000  0.05140323  1.0
  Sc  Sc67  1  0.47916667  0.39583333  0.05140323  1.0
  Sc  Sc68  1  0.47916667  0.72916667  0.05140323  1.0
  Sc  Sc69  1  0.81250000  0.06250000  0.05140323  1.0
  Sc  Sc70  1  0.81250000  0.39583333  0.05140323  1.0
  Sc  Sc71  1  0.81250000  0.72916667  0.05140323  1.0
  Sc  Sc72  1  0.32260675  0.15594008  0.07412313  1.0
  Sc  Sc73  1  0.32260675  0.48927342  0.07412313  1.0
  Sc  Sc74  1  0.32260675  0.82260675  0.07412313  1.0
  Sc  Sc75  1  0.65594008  0.15594008  0.07412313  1.0
  Sc  Sc76  1  0.65594008  0.48927342  0.07412313  1.0
  Sc  Sc77  1  0.65594008  0.82260675  0.07412313  1.0
  Sc  Sc78  1  0.98927342  0.15594008  0.07412313  1.0
  Sc  Sc79  1  0.98927342  0.48927342  0.07412313  1.0
  Sc  Sc80  1  0.98927342  0.82260675  0.07412313  1.0
  Sc  Sc81  1  0.15594008  0.32260675  0.00269455  1.0
  Sc  Sc82  1  0.15594008  0.65594008  0.00269455  1.0
  Sc  Sc83  1  0.15594008  0.98927342  0.00269455  1.0
  Sc  Sc84  1  0.48927342  0.32260675  0.00269455  1.0
  Sc  Sc85  1  0.48927342  0.65594008  0.00269455  1.0
  Sc  Sc86  1  0.48927342  0.98927342  0.00269455  1.0
  Sc  Sc87  1  0.82260675  0.32260675  0.00269455  1.0
  Sc  Sc88  1  0.82260675  0.65594008  0.00269455  1.0
  Sc  Sc89  1  0.82260675  0.98927342  0.00269455  1.0
  Sc  Sc90  1  0.26072658  0.09405992  0.01082620  1.0
  Sc  Sc91  1  0.26072658  0.42739325  0.01082620  1.0
  Sc  Sc92  1  0.26072658  0.76072658  0.01082620  1.0
  Sc  Sc93  1  0.59405992  0.09405992  0.01082620  1.0
  Sc  Sc94  1  0.59405992  0.42739325  0.01082620  1.0
  Sc  Sc95  1  0.59405992  0.76072658  0.01082620  1.0
  Sc  Sc96  1  0.92739325  0.09405992  0.01082620  1.0
  Sc  Sc97  1  0.92739325  0.42739325  0.01082620  1.0
  Sc  Sc98  1  0.92739325  0.76072658  0.01082620  1.0
  Sc  Sc99  1  0.09405992  0.26072658  0.08225477  1.0
  Sc  Sc100  1  0.09405992  0.59405992  0.08225477  1.0
  Sc  Sc101  1  0.09405992  0.92739325  0.08225477  1.0
  Sc  Sc102  1  0.42739325  0.26072658  0.08225477  1.0
  Sc  Sc103  1  0.42739325  0.59405992  0.08225477  1.0
  Sc  Sc104  1  0.42739325  0.92739325  0.08225477  1.0
  Sc  Sc105  1  0.76072658  0.26072658  0.08225477  1.0
  Sc  Sc106  1  0.76072658  0.59405992  0.08225477  1.0
  Sc  Sc107  1  0.76072658  0.92739325  0.08225477  1.0
  Sc  Sc108  1  0.26072658  0.09405992  0.10064320  1.0
  Sc  Sc109  1  0.26072658  0.42739325  0.10064320  1.0
  Sc  Sc110  1  0.26072658  0.76072658  0.10064320  1.0
  Sc  Sc111  1  0.59405992  0.09405992  0.10064320  1.0
  Sc  Sc112  1  0.59405992  0.42739325  0.10064320  1.0
  Sc  Sc113  1  0.59405992  0.76072658  0.10064320  1.0
  Sc  Sc114  1  0.92739325  0.09405992  0.10064320  1.0
  Sc  Sc115  1  0.92739325  0.42739325  0.10064320  1.0
  Sc  Sc116  1  0.92739325  0.76072658  0.10064320  1.0
  Sc  Sc117  1  0.09405992  0.26072658  0.02921462  1.0
  Sc  Sc118  1  0.09405992  0.59405992  0.02921462  1.0
  Sc  Sc119  1  0.09405992  0.92739325  0.02921463  1.0
  Sc  Sc120  1  0.42739325  0.26072658  0.02921462  1.0
  Sc  Sc121  1  0.42739325  0.59405992  0.02921462  1.0
  Sc  Sc122  1  0.42739325  0.92739325  0.02921462  1.0
  Sc  Sc123  1  0.76072658  0.26072658  0.02921463  1.0
  Sc  Sc124  1  0.76072658  0.59405992  0.02921462  1.0
  Sc  Sc125  1  0.76072658  0.92739325  0.02921462  1.0
  Sc  Sc126  1  0.32260675  0.03217975  0.03734627  1.0
  Sc  Sc127  1  0.32260675  0.36551308  0.03734627  1.0
  Sc  Sc128  1  0.32260675  0.69884642  0.03734627  1.0
  Sc  Sc129  1  0.65594008  0.03217975  0.03734627  1.0
  Sc  Sc130  1  0.65594008  0.36551308  0.03734627  1.0
  Sc  Sc131  1  0.65594008  0.69884642  0.03734627  1.0
  Sc  Sc132  1  0.98927342  0.03217975  0.03734627  1.0
  Sc  Sc133  1  0.98927342  0.36551308  0.03734627  1.0
  Sc  Sc134  1  0.98927342  0.69884642  0.03734627  1.0
  Sc  Sc135  1  0.15594008  0.19884642  0.10877484  1.0
  Sc  Sc136  1  0.15594008  0.53217975  0.10877484  1.0
  Sc  Sc137  1  0.15594008  0.86551308  0.10877484  1.0
  Sc  Sc138  1  0.48927342  0.19884642  0.10877484  1.0
  Sc  Sc139  1  0.48927342  0.53217975  0.10877484  1.0
  Sc  Sc140  1  0.48927342  0.86551308  0.10877484  1.0
  Sc  Sc141  1  0.82260675  0.19884642  0.10877484  1.0
  Sc  Sc142  1  0.82260675  0.53217975  0.10877484  1.0
  Sc  Sc143  1  0.82260675  0.86551308  0.10877484  1.0
  Sc  Sc144  1  0.32260675  0.15594008  0.12716327  1.0
  Sc  Sc145  1  0.32260675  0.48927342  0.12716327  1.0
  Sc  Sc146  1  0.32260675  0.82260675  0.12716327  1.0
  Sc  Sc147  1  0.65594008  0.15594008  0.12716327  1.0
  Sc  Sc148  1  0.65594008  0.48927342  0.12716327  1.0
  Sc  Sc149  1  0.65594008  0.82260675  0.12716327  1.0
  Sc  Sc150  1  0.98927342  0.15594008  0.12716327  1.0
  Sc  Sc151  1  0.98927342  0.48927342  0.12716327  1.0
  Sc  Sc152  1  0.98927342  0.82260675  0.12716327  1.0
  Sc  Sc153  1  0.15594008  0.32260675  0.05573470  1.0
  Sc  Sc154  1  0.15594008  0.65594008  0.05573470  1.0
  Sc  Sc155  1  0.15594008  0.98927342  0.05573470  1.0
  Sc  Sc156  1  0.48927342  0.32260675  0.05573470  1.0
  Sc  Sc157  1  0.48927342  0.65594008  0.05573470  1.0
  Sc  Sc158  1  0.48927342  0.98927342  0.05573470  1.0
  Sc  Sc159  1  0.82260675  0.32260675  0.05573470  1.0
  Sc  Sc160  1  0.82260675  0.65594008  0.05573470  1.0
  Sc  Sc161  1  0.82260675  0.98927342  0.05573470  1.0
  Sc  Sc162  1  0.26072658  0.21782025  0.04760305  1.0
  Sc  Sc163  1  0.26072658  0.55115358  0.04760305  1.0
  Sc  Sc164  1  0.26072658  0.88448692  0.04760305  1.0
  Sc  Sc165  1  0.59405992  0.21782025  0.04760305  1.0
  Sc  Sc166  1  0.59405992  0.55115358  0.04760305  1.0
  Sc  Sc167  1  0.59405992  0.88448692  0.04760305  1.0
  Sc  Sc168  1  0.92739325  0.21782025  0.04760305  1.0
  Sc  Sc169  1  0.92739325  0.55115358  0.04760305  1.0
  Sc  Sc170  1  0.92739325  0.88448692  0.04760305  1.0
  Sc  Sc171  1  0.09405992  0.05115358  0.11903162  1.0
  Sc  Sc172  1  0.09405992  0.38448692  0.11903162  1.0
  Sc  Sc173  1  0.09405992  0.71782025  0.11903162  1.0
  Sc  Sc174  1  0.42739325  0.05115358  0.11903162  1.0
  Sc  Sc175  1  0.42739325  0.38448692  0.11903162  1.0
  Sc  Sc176  1  0.42739325  0.71782025  0.11903163  1.0
  Sc  Sc177  1  0.76072658  0.05115358  0.11903163  1.0
  Sc  Sc178  1  0.76072658  0.38448692  0.11903162  1.0
  Sc  Sc179  1  0.76072658  0.71782025  0.11903163  1.0
  Sc  Sc180  1  0.19760675  0.19760675  0.07359184  1.0
  Sc  Sc181  1  0.19760675  0.53094008  0.07359184  1.0
  Sc  Sc182  1  0.19760675  0.86427342  0.07359184  1.0
  Sc  Sc183  1  0.53094008  0.19760675  0.07359184  1.0
  Sc  Sc184  1  0.53094008  0.53094008  0.07359184  1.0
  Sc  Sc185  1  0.53094008  0.86427342  0.07359184  1.0
  Sc  Sc186  1  0.86427342  0.19760675  0.07359184  1.0
  Sc  Sc187  1  0.86427342  0.53094008  0.07359184  1.0
  Sc  Sc188  1  0.86427342  0.86427342  0.07359184  1.0
  Sc  Sc189  1  0.03094008  0.03094008  0.00216327  1.0
  Sc  Sc190  1  0.03094008  0.36427342  0.00216327  1.0
  Sc  Sc191  1  0.03094008  0.69760675  0.00216327  1.0
  Sc  Sc192  1  0.36427342  0.03094008  0.00216327  1.0
  Sc  Sc193  1  0.36427342  0.36427342  0.00216327  1.0
  Sc  Sc194  1  0.36427342  0.69760675  0.00216327  1.0
  Sc  Sc195  1  0.69760675  0.03094008  0.00216327  1.0
  Sc  Sc196  1  0.69760675  0.36427342  0.00216327  1.0
  Sc  Sc197  1  0.69760675  0.69760675  0.00216327  1.0
  Sc  Sc198  1  0.30239325  0.30239325  0.11850034  1.0
  Sc  Sc199  1  0.30239325  0.63572658  0.11850034  1.0
  Sc  Sc200  1  0.30239325  0.96905992  0.11850034  1.0
  Sc  Sc201  1  0.63572658  0.30239325  0.11850034  1.0
  Sc  Sc202  1  0.63572658  0.63572658  0.11850034  1.0
  Sc  Sc203  1  0.63572658  0.96905992  0.11850034  1.0
  Sc  Sc204  1  0.96905992  0.30239325  0.11850034  1.0
  Sc  Sc205  1  0.96905992  0.63572658  0.11850034  1.0
  Sc  Sc206  1  0.96905992  0.96905992  0.11850034  1.0
  Sc  Sc207  1  0.13572658  0.13572658  0.04707177  1.0
  Sc  Sc208  1  0.13572658  0.46905992  0.04707177  1.0
  Sc  Sc209  1  0.13572658  0.80239325  0.04707177  1.0
  Sc  Sc210  1  0.46905992  0.13572658  0.04707177  1.0
  Sc  Sc211  1  0.46905992  0.46905992  0.04707177  1.0
  Sc  Sc212  1  0.46905992  0.80239325  0.04707177  1.0
  Sc  Sc213  1  0.80239325  0.13572658  0.04707177  1.0
  Sc  Sc214  1  0.80239325  0.46905992  0.04707177  1.0
  Sc  Sc215  1  0.80239325  0.80239325  0.04707177  1.0
  Sc  Sc216  1  0.30239325  0.30239325  0.02868334  1.0
  Sc  Sc217  1  0.30239325  0.63572658  0.02868334  1.0
  Sc  Sc218  1  0.30239325  0.96905992  0.02868334  1.0
  Sc  Sc219  1  0.63572658  0.30239325  0.02868334  1.0
  Sc  Sc220  1  0.63572658  0.63572658  0.02868334  1.0
  Sc  Sc221  1  0.63572658  0.96905992  0.02868334  1.0
  Sc  Sc222  1  0.96905992  0.30239325  0.02868334  1.0
  Sc  Sc223  1  0.96905992  0.63572658  0.02868334  1.0
  Sc  Sc224  1  0.96905992  0.96905992  0.02868334  1.0
  Sc  Sc225  1  0.13572658  0.13572658  0.10011191  1.0
  Sc  Sc226  1  0.13572658  0.46905992  0.10011191  1.0
  Sc  Sc227  1  0.13572658  0.80239325  0.10011191  1.0
  Sc  Sc228  1  0.46905992  0.13572658  0.10011191  1.0
  Sc  Sc229  1  0.46905992  0.46905992  0.10011191  1.0
  Sc  Sc230  1  0.46905992  0.80239325  0.10011191  1.0
  Sc  Sc231  1  0.80239325  0.13572658  0.10011191  1.0
  Sc  Sc232  1  0.80239325  0.46905992  0.10011191  1.0
  Sc  Sc233  1  0.80239325  0.80239325  0.10011191  1.0
  Sc  Sc234  1  0.30239325  0.09282025  0.06546020  1.0
  Sc  Sc235  1  0.30239325  0.42615358  0.06546020  1.0
  Sc  Sc236  1  0.30239325  0.75948692  0.06546020  1.0
  Sc  Sc237  1  0.63572658  0.09282025  0.06546020  1.0
  Sc  Sc238  1  0.63572658  0.42615358  0.06546020  1.0
  Sc  Sc239  1  0.63572658  0.75948692  0.06546020  1.0
  Sc  Sc240  1  0.96905992  0.09282025  0.06546020  1.0
  Sc  Sc241  1  0.96905992  0.42615358  0.06546020  1.0
  Sc  Sc242  1  0.96905992  0.75948692  0.06546020  1.0
  Sc  Sc243  1  0.13572658  0.25948692  0.13688877  1.0
  Sc  Sc244  1  0.13572658  0.59282025  0.13688877  1.0
  Sc  Sc245  1  0.13572658  0.92615358  0.13688877  1.0
  Sc  Sc246  1  0.46905992  0.25948692  0.13688877  1.0
  Sc  Sc247  1  0.46905992  0.59282025  0.13688877  1.0
  Sc  Sc248  1  0.46905992  0.92615358  0.13688877  1.0
  Sc  Sc249  1  0.80239325  0.25948692  0.13688877  1.0
  Sc  Sc250  1  0.80239325  0.59282025  0.13688877  1.0
  Sc  Sc251  1  0.80239325  0.92615358  0.13688877  1.0
  Sc  Sc252  1  0.19760675  0.19760675  0.02055170  1.0
  Sc  Sc253  1  0.19760675  0.53094008  0.02055170  1.0
  Sc  Sc254  1  0.19760675  0.86427342  0.02055170  1.0
  Sc  Sc255  1  0.53094008  0.19760675  0.02055170  1.0
  Sc  Sc256  1  0.53094008  0.53094008  0.02055170  1.0
  Sc  Sc257  1  0.53094008  0.86427342  0.02055170  1.0
  Sc  Sc258  1  0.86427342  0.19760675  0.02055170  1.0
  Sc  Sc259  1  0.86427342  0.53094008  0.02055170  1.0
  Sc  Sc260  1  0.86427342  0.86427342  0.02055170  1.0
  Sc  Sc261  1  0.03094008  0.03094008  0.09198027  1.0
  Sc  Sc262  1  0.03094008  0.36427342  0.09198027  1.0
  Sc  Sc263  1  0.03094008  0.69760675  0.09198027  1.0
  Sc  Sc264  1  0.36427342  0.03094008  0.09198027  1.0
  Sc  Sc265  1  0.36427342  0.36427342  0.09198027  1.0
  Sc  Sc266  1  0.36427342  0.69760675  0.09198027  1.0
  Sc  Sc267  1  0.69760675  0.03094008  0.09198027  1.0
  Sc  Sc268  1  0.69760675  0.36427342  0.09198027  1.0
  Sc  Sc269  1  0.69760675  0.69760675  0.09198027  1.0
  Sc  Sc270  1  0.19760675  0.07384642  0.12663198  1.0
  Sc  Sc271  1  0.19760675  0.40717975  0.12663198  1.0
  Sc  Sc272  1  0.19760675  0.74051308  0.12663198  1.0
  Sc  Sc273  1  0.53094008  0.07384642  0.12663198  1.0
  Sc  Sc274  1  0.53094008  0.40717975  0.12663198  1.0
  Sc  Sc275  1  0.53094008  0.74051308  0.12663198  1.0
  Sc  Sc276  1  0.86427342  0.07384642  0.12663198  1.0
  Sc  Sc277  1  0.86427342  0.40717975  0.12663198  1.0
  Sc  Sc278  1  0.86427342  0.74051308  0.12663198  1.0
  Sc  Sc279  1  0.03094008  0.24051308  0.05520341  1.0
  Sc  Sc280  1  0.03094008  0.57384642  0.05520341  1.0
  Sc  Sc281  1  0.03094008  0.90717975  0.05520341  1.0
  Sc  Sc282  1  0.36427342  0.24051308  0.05520341  1.0
  Sc  Sc283  1  0.36427342  0.57384642  0.05520341  1.0
  Sc  Sc284  1  0.36427342  0.90717975  0.05520341  1.0
  Sc  Sc285  1  0.69760675  0.24051308  0.05520341  1.0
  Sc  Sc286  1  0.69760675  0.57384642  0.05520341  1.0
  Sc  Sc287  1  0.69760675  0.90717975  0.05520341  1.0
  Ni  Ni288  1  0.19382844  0.08518133  0.07197257  1.0
  Ni  Ni289  1  0.19382844  0.41851466  0.07197257  1.0
  Ni  Ni290  1  0.19382844  0.75184800  0.07197257  1.0
  Ni  Ni291  1  0.52716178  0.08518133  0.07197257  1.0
  Ni  Ni292  1  0.52716178  0.41851466  0.07197257  1.0
  Ni  Ni293  1  0.52716178  0.75184800  0.07197257  1.0
  Ni  Ni294  1  0.86049511  0.08518133  0.07197257  1.0
  Ni  Ni295  1  0.86049511  0.41851466  0.07197257  1.0
  Ni  Ni296  1  0.86049511  0.75184800  0.07197257  1.0
  Ni  Ni297  1  0.02716178  0.25184800  0.00054399  1.0
  Ni  Ni298  1  0.02716178  0.58518133  0.00054399  1.0
  Ni  Ni299  1  0.02716178  0.91851466  0.00054399  1.0
  Ni  Ni300  1  0.36049511  0.25184800  0.00054399  1.0
  Ni  Ni301  1  0.36049511  0.58518133  0.00054399  1.0
  Ni  Ni302  1  0.36049511  0.91851466  0.00054399  1.0
  Ni  Ni303  1  0.69382844  0.25184800  0.00054399  1.0
  Ni  Ni304  1  0.69382844  0.58518133  0.00054399  1.0
  Ni  Ni305  1  0.69382844  0.91851466  0.00054399  1.0
  Ni  Ni306  1  0.19382844  0.08518133  0.02224152  1.0
  Ni  Ni307  1  0.19382844  0.41851466  0.02224152  1.0
  Ni  Ni308  1  0.19382844  0.75184800  0.02224152  1.0
  Ni  Ni309  1  0.52716178  0.08518133  0.02224152  1.0
  Ni  Ni310  1  0.52716178  0.41851466  0.02224152  1.0
  Ni  Ni311  1  0.52716178  0.75184800  0.02224152  1.0
  Ni  Ni312  1  0.86049511  0.08518133  0.02224152  1.0
  Ni  Ni313  1  0.86049511  0.41851466  0.02224152  1.0
  Ni  Ni314  1  0.86049511  0.75184800  0.02224152  1.0
  Ni  Ni315  1  0.02716178  0.25184800  0.09367009  1.0
  Ni  Ni316  1  0.02716178  0.58518133  0.09367009  1.0
  Ni  Ni317  1  0.02716178  0.91851466  0.09367009  1.0
  Ni  Ni318  1  0.36049511  0.25184800  0.09367009  1.0
  Ni  Ni319  1  0.36049511  0.58518133  0.09367009  1.0
  Ni  Ni320  1  0.36049511  0.91851466  0.09367009  1.0
  Ni  Ni321  1  0.69382844  0.25184800  0.09367009  1.0
  Ni  Ni322  1  0.69382844  0.58518133  0.09367009  1.0
  Ni  Ni323  1  0.69382844  0.91851466  0.09367009  1.0
  Ni  Ni324  1  0.19382844  0.30247555  0.12170361  1.0
  Ni  Ni325  1  0.19382845  0.63580889  0.12170361  1.0
  Ni  Ni326  1  0.19382844  0.96914222  0.12170361  1.0
  Ni  Ni327  1  0.52716178  0.30247555  0.12170361  1.0
  Ni  Ni328  1  0.52716178  0.63580889  0.12170361  1.0
  Ni  Ni329  1  0.52716178  0.96914222  0.12170361  1.0
  Ni  Ni330  1  0.86049511  0.30247555  0.12170361  1.0
  Ni  Ni331  1  0.86049511  0.63580889  0.12170361  1.0
  Ni  Ni332  1  0.86049511  0.96914222  0.12170361  1.0
  Ni  Ni333  1  0.02716178  0.13580889  0.05027504  1.0
  Ni  Ni334  1  0.02716178  0.46914222  0.05027504  1.0
  Ni  Ni335  1  0.02716178  0.80247555  0.05027504  1.0
  Ni  Ni336  1  0.36049511  0.13580889  0.05027504  1.0
  Ni  Ni337  1  0.36049511  0.46914222  0.05027504  1.0
  Ni  Ni338  1  0.36049511  0.80247555  0.05027504  1.0
  Ni  Ni339  1  0.69382844  0.13580889  0.05027504  1.0
  Ni  Ni340  1  0.69382845  0.46914222  0.05027504  1.0
  Ni  Ni341  1  0.69382844  0.80247555  0.05027504  1.0
  Ni  Ni342  1  0.25184800  0.02716178  0.09683809  1.0
  Ni  Ni343  1  0.25184800  0.36049511  0.09683809  1.0
  Ni  Ni344  1  0.25184800  0.69382844  0.09683809  1.0
  Ni  Ni345  1  0.58518133  0.02716178  0.09683809  1.0
  Ni  Ni346  1  0.58518133  0.36049511  0.09683809  1.0
  Ni  Ni347  1  0.58518133  0.69382844  0.09683809  1.0
  Ni  Ni348  1  0.91851467  0.02716178  0.09683809  1.0
  Ni  Ni349  1  0.91851467  0.36049511  0.09683809  1.0
  Ni  Ni350  1  0.91851467  0.69382844  0.09683809  1.0
  Ni  Ni351  1  0.08518133  0.19382844  0.02540952  1.0
  Ni  Ni352  1  0.08518133  0.52716178  0.02540952  1.0
  Ni  Ni353  1  0.08518133  0.86049511  0.02540952  1.0
  Ni  Ni354  1  0.41851467  0.19382844  0.02540952  1.0
  Ni  Ni355  1  0.41851467  0.52716178  0.02540952  1.0
  Ni  Ni356  1  0.41851467  0.86049511  0.02540952  1.0
  Ni  Ni357  1  0.75184800  0.19382844  0.02540952  1.0
  Ni  Ni358  1  0.75184800  0.52716178  0.02540952  1.0
  Ni  Ni359  1  0.75184800  0.86049511  0.02540952  1.0
  Ni  Ni360  1  0.26450489  0.20648533  0.10226247  1.0
  Ni  Ni361  1  0.26450489  0.53981867  0.10226247  1.0
  Ni  Ni362  1  0.26450489  0.87315200  0.10226247  1.0
  Ni  Ni363  1  0.59783822  0.20648533  0.10226247  1.0
  Ni  Ni364  1  0.59783822  0.53981867  0.10226247  1.0
  Ni  Ni365  1  0.59783822  0.87315200  0.10226247  1.0
  Ni  Ni366  1  0.93117156  0.20648533  0.10226247  1.0
  Ni  Ni367  1  0.93117155  0.53981867  0.10226247  1.0
  Ni  Ni368  1  0.93117155  0.87315200  0.10226247  1.0
  Ni  Ni369  1  0.09783822  0.03981867  0.03083390  1.0
  Ni  Ni370  1  0.09783822  0.37315200  0.03083390  1.0
  Ni  Ni371  1  0.09783822  0.70648533  0.03083390  1.0
  Ni  Ni372  1  0.43117156  0.03981867  0.03083390  1.0
  Ni  Ni373  1  0.43117155  0.37315200  0.03083390  1.0
  Ni  Ni374  1  0.43117156  0.70648533  0.03083390  1.0
  Ni  Ni375  1  0.76450489  0.03981867  0.03083390  1.0
  Ni  Ni376  1  0.76450489  0.37315200  0.03083390  1.0
  Ni  Ni377  1  0.76450489  0.70648533  0.03083390  1.0
  Ni  Ni378  1  0.26450489  0.20648533  0.00913637  1.0
  Ni  Ni379  1  0.26450489  0.53981867  0.00913637  1.0
  Ni  Ni380  1  0.26450489  0.87315200  0.00913637  1.0
  Ni  Ni381  1  0.59783822  0.20648533  0.00913637  1.0
  Ni  Ni382  1  0.59783822  0.53981867  0.00913637  1.0
  Ni  Ni383  1  0.59783822  0.87315200  0.00913637  1.0
  Ni  Ni384  1  0.93117156  0.20648533  0.00913637  1.0
  Ni  Ni385  1  0.93117155  0.53981867  0.00913637  1.0
  Ni  Ni386  1  0.93117155  0.87315200  0.00913637  1.0
  Ni  Ni387  1  0.09783822  0.03981867  0.08056495  1.0
  Ni  Ni388  1  0.09783822  0.37315200  0.08056495  1.0
  Ni  Ni389  1  0.09783822  0.70648533  0.08056495  1.0
  Ni  Ni390  1  0.43117156  0.03981867  0.08056495  1.0
  Ni  Ni391  1  0.43117155  0.37315200  0.08056495  1.0
  Ni  Ni392  1  0.43117156  0.70648533  0.08056495  1.0
  Ni  Ni393  1  0.76450489  0.03981867  0.08056495  1.0
  Ni  Ni394  1  0.76450489  0.37315200  0.08056495  1.0
  Ni  Ni395  1  0.76450489  0.70648533  0.08056495  1.0
  Ni  Ni396  1  0.20648533  0.26450489  0.07739695  1.0
  Ni  Ni397  1  0.20648533  0.59783822  0.07739695  1.0
  Ni  Ni398  1  0.20648533  0.93117156  0.07739695  1.0
  Ni  Ni399  1  0.53981867  0.26450489  0.07739695  1.0
  Ni  Ni400  1  0.53981867  0.59783822  0.07739695  1.0
  Ni  Ni401  1  0.53981867  0.93117156  0.07739695  1.0
  Ni  Ni402  1  0.87315200  0.26450489  0.07739695  1.0
  Ni  Ni403  1  0.87315200  0.59783822  0.07739695  1.0
  Ni  Ni404  1  0.87315200  0.93117156  0.07739695  1.0
  Ni  Ni405  1  0.03981867  0.09783822  0.00596837  1.0
  Ni  Ni406  1  0.03981867  0.43117156  0.00596838  1.0
  Ni  Ni407  1  0.03981867  0.76450489  0.00596838  1.0
  Ni  Ni408  1  0.37315200  0.09783822  0.00596838  1.0
  Ni  Ni409  1  0.37315200  0.43117156  0.00596838  1.0
  Ni  Ni410  1  0.37315200  0.76450489  0.00596838  1.0
  Ni  Ni411  1  0.70648533  0.09783822  0.00596838  1.0
  Ni  Ni412  1  0.70648533  0.43117156  0.00596838  1.0
  Ni  Ni413  1  0.70648533  0.76450489  0.00596838  1.0
  Ni  Ni414  1  0.26450489  0.32252444  0.05253142  1.0
  Ni  Ni415  1  0.26450489  0.65585778  0.05253142  1.0
  Ni  Ni416  1  0.26450489  0.98919111  0.05253142  1.0
  Ni  Ni417  1  0.59783822  0.32252444  0.05253142  1.0
  Ni  Ni418  1  0.59783822  0.65585778  0.05253142  1.0
  Ni  Ni419  1  0.59783822  0.98919111  0.05253142  1.0
  Ni  Ni420  1  0.93117156  0.32252444  0.05253142  1.0
  Ni  Ni421  1  0.93117155  0.65585778  0.05253142  1.0
  Ni  Ni422  1  0.93117155  0.98919111  0.05253142  1.0
  Ni  Ni423  1  0.09783822  0.15585778  0.12395999  1.0
  Ni  Ni424  1  0.09783822  0.48919111  0.12395999  1.0
  Ni  Ni425  1  0.09783822  0.82252444  0.12395999  1.0
  Ni  Ni426  1  0.43117155  0.15585778  0.12395999  1.0
  Ni  Ni427  1  0.43117156  0.48919111  0.12395999  1.0
  Ni  Ni428  1  0.43117155  0.82252444  0.12395999  1.0
  Ni  Ni429  1  0.76450489  0.15585778  0.12395999  1.0
  Ni  Ni430  1  0.76450489  0.48919111  0.12395999  1.0
  Ni  Ni431  1  0.76450489  0.82252444  0.12395999  1.0
  Sc  Sc432  1  0.22916667  0.31250000  0.22997466  1.0
  Sc  Sc433  1  0.22916667  0.64583333  0.22997466  1.0
  Sc  Sc434  1  0.22916667  0.97916667  0.22997466  1.0
  Sc  Sc435  1  0.56250000  0.31250000  0.22997466  1.0
  Sc  Sc436  1  0.56250000  0.64583333  0.22997466  1.0
  Sc  Sc437  1  0.56250000  0.97916667  0.22997466  1.0
  Sc  Sc438  1  0.89583333  0.31250000  0.22997466  1.0
  Sc  Sc439  1  0.89583333  0.64583333  0.22997466  1.0
  Sc  Sc440  1  0.89583333  0.97916667  0.22997466  1.0
  Sc  Sc441  1  0.06250000  0.14583333  0.15854609  1.0
  Sc  Sc442  1  0.06250000  0.47916667  0.15854609  1.0
  Sc  Sc443  1  0.06250000  0.81250000  0.15854609  1.0
  Sc  Sc444  1  0.39583333  0.14583333  0.15854609  1.0
  Sc  Sc445  1  0.39583333  0.47916667  0.15854609  1.0
  Sc  Sc446  1  0.39583333  0.81250000  0.15854609  1.0
  Sc  Sc447  1  0.72916667  0.14583333  0.15854609  1.0
  Sc  Sc448  1  0.72916667  0.47916667  0.15854609  1.0
  Sc  Sc449  1  0.72916667  0.81250000  0.15854609  1.0
  Sc  Sc450  1  0.22916667  0.31250000  0.15854609  1.0
  Sc  Sc451  1  0.22916667  0.64583333  0.15854609  1.0
  Sc  Sc452  1  0.22916667  0.97916667  0.15854609  1.0
  Sc  Sc453  1  0.56250000  0.31250000  0.15854609  1.0
  Sc  Sc454  1  0.56250000  0.64583333  0.15854609  1.0
  Sc  Sc455  1  0.56250000  0.97916667  0.15854609  1.0
  Sc  Sc456  1  0.89583333  0.31250000  0.15854609  1.0
  Sc  Sc457  1  0.89583333  0.64583333  0.15854609  1.0
  Sc  Sc458  1  0.89583333  0.97916667  0.15854609  1.0
  Sc  Sc459  1  0.06250000  0.14583333  0.22997466  1.0
  Sc  Sc460  1  0.06250000  0.47916667  0.22997466  1.0
  Sc  Sc461  1  0.06250000  0.81250000  0.22997466  1.0
  Sc  Sc462  1  0.39583333  0.14583333  0.22997466  1.0
  Sc  Sc463  1  0.39583333  0.47916667  0.22997466  1.0
  Sc  Sc464  1  0.39583333  0.81250000  0.22997466  1.0
  Sc  Sc465  1  0.72916667  0.14583333  0.22997466  1.0
  Sc  Sc466  1  0.72916667  0.47916667  0.22997466  1.0
  Sc  Sc467  1  0.72916667  0.81250000  0.22997466  1.0
  Sc  Sc468  1  0.22916667  0.14583333  0.15854609  1.0
  Sc  Sc469  1  0.22916667  0.47916667  0.15854609  1.0
  Sc  Sc470  1  0.22916667  0.81250000  0.15854609  1.0
  Sc  Sc471  1  0.56250000  0.14583333  0.15854609  1.0
  Sc  Sc472  1  0.56250000  0.47916667  0.15854609  1.0
  Sc  Sc473  1  0.56250000  0.81250000  0.15854609  1.0
  Sc  Sc474  1  0.89583333  0.14583333  0.15854609  1.0
  Sc  Sc475  1  0.89583333  0.47916667  0.15854609  1.0
  Sc  Sc476  1  0.89583333  0.81250000  0.15854609  1.0
  Sc  Sc477  1  0.06250000  0.31250000  0.22997466  1.0
  Sc  Sc478  1  0.06250000  0.64583333  0.22997466  1.0
  Sc  Sc479  1  0.06250000  0.97916667  0.22997466  1.0
  Sc  Sc480  1  0.39583333  0.31250000  0.22997466  1.0
  Sc  Sc481  1  0.39583333  0.64583333  0.22997466  1.0
  Sc  Sc482  1  0.39583333  0.97916667  0.22997466  1.0
  Sc  Sc483  1  0.72916667  0.31250000  0.22997466  1.0
  Sc  Sc484  1  0.72916667  0.64583333  0.22997466  1.0
  Sc  Sc485  1  0.72916667  0.97916667  0.22997466  1.0
  Sc  Sc486  1  0.31250000  0.22916667  0.26568895  1.0
  Sc  Sc487  1  0.31250000  0.56250000  0.26568895  1.0
  Sc  Sc488  1  0.31250000  0.89583333  0.26568895  1.0
  Sc  Sc489  1  0.64583333  0.22916667  0.26568895  1.0
  Sc  Sc490  1  0.64583333  0.56250000  0.26568895  1.0
  Sc  Sc491  1  0.64583333  0.89583333  0.26568895  1.0
  Sc  Sc492  1  0.97916667  0.22916667  0.26568895  1.0
  Sc  Sc493  1  0.97916667  0.56250000  0.26568895  1.0
  Sc  Sc494  1  0.97916667  0.89583333  0.26568895  1.0
  Sc  Sc495  1  0.14583333  0.06250000  0.19426037  1.0
  Sc  Sc496  1  0.14583333  0.39583333  0.19426037  1.0
  Sc  Sc497  1  0.14583333  0.72916667  0.19426037  1.0
  Sc  Sc498  1  0.47916667  0.06250000  0.19426037  1.0
  Sc  Sc499  1  0.47916667  0.39583333  0.19426037  1.0
  Sc  Sc500  1  0.47916667  0.72916667  0.19426037  1.0
  Sc  Sc501  1  0.81250000  0.06250000  0.19426037  1.0
  Sc  Sc502  1  0.81250000  0.39583333  0.19426037  1.0
  Sc  Sc503  1  0.81250000  0.72916667  0.19426037  1.0
  Sc  Sc504  1  0.32260675  0.15594008  0.21698027  1.0
  Sc  Sc505  1  0.32260675  0.48927342  0.21698027  1.0
  Sc  Sc506  1  0.32260675  0.82260675  0.21698027  1.0
  Sc  Sc507  1  0.65594008  0.15594008  0.21698027  1.0
  Sc  Sc508  1  0.65594008  0.48927342  0.21698027  1.0
  Sc  Sc509  1  0.65594008  0.82260675  0.21698027  1.0
  Sc  Sc510  1  0.98927342  0.15594008  0.21698027  1.0
  Sc  Sc511  1  0.98927342  0.48927342  0.21698027  1.0
  Sc  Sc512  1  0.98927342  0.82260675  0.21698027  1.0
  Sc  Sc513  1  0.15594008  0.32260675  0.14555170  1.0
  Sc  Sc514  1  0.15594008  0.65594008  0.14555170  1.0
  Sc  Sc515  1  0.15594008  0.98927342  0.14555170  1.0
  Sc  Sc516  1  0.48927342  0.32260675  0.14555170  1.0
  Sc  Sc517  1  0.48927342  0.65594008  0.14555170  1.0
  Sc  Sc518  1  0.48927342  0.98927342  0.14555170  1.0
  Sc  Sc519  1  0.82260675  0.32260675  0.14555170  1.0
  Sc  Sc520  1  0.82260675  0.65594008  0.14555170  1.0
  Sc  Sc521  1  0.82260675  0.98927342  0.14555170  1.0
  Sc  Sc522  1  0.26072658  0.09405992  0.15368334  1.0
  Sc  Sc523  1  0.26072658  0.42739325  0.15368334  1.0
  Sc  Sc524  1  0.26072658  0.76072658  0.15368334  1.0
  Sc  Sc525  1  0.59405992  0.09405992  0.15368334  1.0
  Sc  Sc526  1  0.59405992  0.42739325  0.15368334  1.0
  Sc  Sc527  1  0.59405992  0.76072658  0.15368334  1.0
  Sc  Sc528  1  0.92739325  0.09405992  0.15368334  1.0
  Sc  Sc529  1  0.92739325  0.42739325  0.15368334  1.0
  Sc  Sc530  1  0.92739325  0.76072658  0.15368334  1.0
  Sc  Sc531  1  0.09405992  0.26072658  0.22511191  1.0
  Sc  Sc532  1  0.09405992  0.59405992  0.22511191  1.0
  Sc  Sc533  1  0.09405992  0.92739325  0.22511191  1.0
  Sc  Sc534  1  0.42739325  0.26072658  0.22511191  1.0
  Sc  Sc535  1  0.42739325  0.59405992  0.22511191  1.0
  Sc  Sc536  1  0.42739325  0.92739325  0.22511191  1.0
  Sc  Sc537  1  0.76072658  0.26072658  0.22511191  1.0
  Sc  Sc538  1  0.76072658  0.59405992  0.22511191  1.0
  Sc  Sc539  1  0.76072658  0.92739325  0.22511191  1.0
  Sc  Sc540  1  0.26072658  0.09405992  0.24350034  1.0
  Sc  Sc541  1  0.26072658  0.42739325  0.24350034  1.0
  Sc  Sc542  1  0.26072658  0.76072658  0.24350034  1.0
  Sc  Sc543  1  0.59405992  0.09405992  0.24350034  1.0
  Sc  Sc544  1  0.59405992  0.42739325  0.24350034  1.0
  Sc  Sc545  1  0.59405992  0.76072658  0.24350034  1.0
  Sc  Sc546  1  0.92739325  0.09405992  0.24350034  1.0
  Sc  Sc547  1  0.92739325  0.42739325  0.24350034  1.0
  Sc  Sc548  1  0.92739325  0.76072658  0.24350034  1.0
  Sc  Sc549  1  0.09405992  0.26072658  0.17207177  1.0
  Sc  Sc550  1  0.09405992  0.59405992  0.17207177  1.0
  Sc  Sc551  1  0.09405992  0.92739325  0.17207177  1.0
  Sc  Sc552  1  0.42739325  0.26072658  0.17207177  1.0
  Sc  Sc553  1  0.42739325  0.59405992  0.17207177  1.0
  Sc  Sc554  1  0.42739325  0.92739325  0.17207177  1.0
  Sc  Sc555  1  0.76072658  0.26072658  0.17207177  1.0
  Sc  Sc556  1  0.76072658  0.59405992  0.17207177  1.0
  Sc  Sc557  1  0.76072658  0.92739325  0.17207177  1.0
  Sc  Sc558  1  0.32260675  0.03217975  0.18020341  1.0
  Sc  Sc559  1  0.32260675  0.36551308  0.18020341  1.0
  Sc  Sc560  1  0.32260675  0.69884642  0.18020341  1.0
  Sc  Sc561  1  0.65594008  0.03217975  0.18020341  1.0
  Sc  Sc562  1  0.65594008  0.36551308  0.18020341  1.0
  Sc  Sc563  1  0.65594008  0.69884642  0.18020341  1.0
  Sc  Sc564  1  0.98927342  0.03217975  0.18020341  1.0
  Sc  Sc565  1  0.98927342  0.36551308  0.18020341  1.0
  Sc  Sc566  1  0.98927342  0.69884642  0.18020341  1.0
  Sc  Sc567  1  0.15594008  0.19884642  0.25163198  1.0
  Sc  Sc568  1  0.15594008  0.53217975  0.25163198  1.0
  Sc  Sc569  1  0.15594008  0.86551308  0.25163198  1.0
  Sc  Sc570  1  0.48927342  0.19884642  0.25163198  1.0
  Sc  Sc571  1  0.48927342  0.53217975  0.25163198  1.0
  Sc  Sc572  1  0.48927342  0.86551308  0.25163198  1.0
  Sc  Sc573  1  0.82260675  0.19884642  0.25163198  1.0
  Sc  Sc574  1  0.82260675  0.53217975  0.25163198  1.0
  Sc  Sc575  1  0.82260675  0.86551308  0.25163198  1.0
  Sc  Sc576  1  0.32260675  0.15594008  0.27002041  1.0
  Sc  Sc577  1  0.32260675  0.48927342  0.27002041  1.0
  Sc  Sc578  1  0.32260675  0.82260675  0.27002041  1.0
  Sc  Sc579  1  0.65594008  0.15594008  0.27002041  1.0
  Sc  Sc580  1  0.65594008  0.48927342  0.27002041  1.0
  Sc  Sc581  1  0.65594008  0.82260675  0.27002041  1.0
  Sc  Sc582  1  0.98927342  0.15594008  0.27002041  1.0
  Sc  Sc583  1  0.98927342  0.48927342  0.27002041  1.0
  Sc  Sc584  1  0.98927342  0.82260675  0.27002041  1.0
  Sc  Sc585  1  0.15594008  0.32260675  0.19859184  1.0
  Sc  Sc586  1  0.15594008  0.65594008  0.19859184  1.0
  Sc  Sc587  1  0.15594008  0.98927342  0.19859184  1.0
  Sc  Sc588  1  0.48927342  0.32260675  0.19859184  1.0
  Sc  Sc589  1  0.48927342  0.65594008  0.19859184  1.0
  Sc  Sc590  1  0.48927342  0.98927342  0.19859184  1.0
  Sc  Sc591  1  0.82260675  0.32260675  0.19859184  1.0
  Sc  Sc592  1  0.82260675  0.65594008  0.19859184  1.0
  Sc  Sc593  1  0.82260675  0.98927342  0.19859184  1.0
  Sc  Sc594  1  0.26072658  0.21782025  0.19046020  1.0
  Sc  Sc595  1  0.26072658  0.55115358  0.19046020  1.0
  Sc  Sc596  1  0.26072658  0.88448692  0.19046020  1.0
  Sc  Sc597  1  0.59405992  0.21782025  0.19046020  1.0
  Sc  Sc598  1  0.59405992  0.55115358  0.19046020  1.0
  Sc  Sc599  1  0.59405992  0.88448692  0.19046020  1.0
  Sc  Sc600  1  0.92739325  0.21782025  0.19046020  1.0
  Sc  Sc601  1  0.92739325  0.55115358  0.19046020  1.0
  Sc  Sc602  1  0.92739325  0.88448692  0.19046020  1.0
  Sc  Sc603  1  0.09405992  0.05115358  0.26188877  1.0
  Sc  Sc604  1  0.09405992  0.38448692  0.26188877  1.0
  Sc  Sc605  1  0.09405992  0.71782025  0.26188877  1.0
  Sc  Sc606  1  0.42739325  0.05115358  0.26188877  1.0
  Sc  Sc607  1  0.42739325  0.38448692  0.26188877  1.0
  Sc  Sc608  1  0.42739325  0.71782025  0.26188877  1.0
  Sc  Sc609  1  0.76072658  0.05115358  0.26188877  1.0
  Sc  Sc610  1  0.76072658  0.38448692  0.26188877  1.0
  Sc  Sc611  1  0.76072658  0.71782025  0.26188877  1.0
  Sc  Sc612  1  0.19760675  0.19760675  0.21644898  1.0
  Sc  Sc613  1  0.19760675  0.53094008  0.21644898  1.0
  Sc  Sc614  1  0.19760675  0.86427342  0.21644898  1.0
  Sc  Sc615  1  0.53094008  0.19760675  0.21644898  1.0
  Sc  Sc616  1  0.53094008  0.53094008  0.21644898  1.0
  Sc  Sc617  1  0.53094008  0.86427342  0.21644898  1.0
  Sc  Sc618  1  0.86427342  0.19760675  0.21644898  1.0
  Sc  Sc619  1  0.86427342  0.53094008  0.21644898  1.0
  Sc  Sc620  1  0.86427342  0.86427342  0.21644898  1.0
  Sc  Sc621  1  0.03094008  0.03094008  0.14502041  1.0
  Sc  Sc622  1  0.03094008  0.36427342  0.14502041  1.0
  Sc  Sc623  1  0.03094008  0.69760675  0.14502041  1.0
  Sc  Sc624  1  0.36427342  0.03094008  0.14502041  1.0
  Sc  Sc625  1  0.36427342  0.36427342  0.14502041  1.0
  Sc  Sc626  1  0.36427342  0.69760675  0.14502041  1.0
  Sc  Sc627  1  0.69760675  0.03094008  0.14502041  1.0
  Sc  Sc628  1  0.69760675  0.36427342  0.14502041  1.0
  Sc  Sc629  1  0.69760675  0.69760675  0.14502041  1.0
  Sc  Sc630  1  0.30239325  0.30239325  0.26135748  1.0
  Sc  Sc631  1  0.30239325  0.63572658  0.26135748  1.0
  Sc  Sc632  1  0.30239325  0.96905992  0.26135748  1.0
  Sc  Sc633  1  0.63572658  0.30239325  0.26135748  1.0
  Sc  Sc634  1  0.63572658  0.63572658  0.26135748  1.0
  Sc  Sc635  1  0.63572658  0.96905992  0.26135748  1.0
  Sc  Sc636  1  0.96905992  0.30239325  0.26135748  1.0
  Sc  Sc637  1  0.96905992  0.63572658  0.26135748  1.0
  Sc  Sc638  1  0.96905992  0.96905992  0.26135748  1.0
  Sc  Sc639  1  0.13572658  0.13572658  0.18992891  1.0
  Sc  Sc640  1  0.13572658  0.46905992  0.18992891  1.0
  Sc  Sc641  1  0.13572658  0.80239325  0.18992891  1.0
  Sc  Sc642  1  0.46905992  0.13572658  0.18992891  1.0
  Sc  Sc643  1  0.46905992  0.46905992  0.18992891  1.0
  Sc  Sc644  1  0.46905992  0.80239325  0.18992891  1.0
  Sc  Sc645  1  0.80239325  0.13572658  0.18992891  1.0
  Sc  Sc646  1  0.80239325  0.46905992  0.18992891  1.0
  Sc  Sc647  1  0.80239325  0.80239325  0.18992891  1.0
  Sc  Sc648  1  0.30239325  0.30239325  0.17154048  1.0
  Sc  Sc649  1  0.30239325  0.63572658  0.17154048  1.0
  Sc  Sc650  1  0.30239325  0.96905992  0.17154048  1.0
  Sc  Sc651  1  0.63572658  0.30239325  0.17154048  1.0
  Sc  Sc652  1  0.63572658  0.63572658  0.17154048  1.0
  Sc  Sc653  1  0.63572658  0.96905992  0.17154048  1.0
  Sc  Sc654  1  0.96905992  0.30239325  0.17154048  1.0
  Sc  Sc655  1  0.96905992  0.63572658  0.17154048  1.0
  Sc  Sc656  1  0.96905992  0.96905992  0.17154048  1.0
  Sc  Sc657  1  0.13572658  0.13572658  0.24296905  1.0
  Sc  Sc658  1  0.13572658  0.46905992  0.24296905  1.0
  Sc  Sc659  1  0.13572658  0.80239325  0.24296905  1.0
  Sc  Sc660  1  0.46905992  0.13572658  0.24296905  1.0
  Sc  Sc661  1  0.46905992  0.46905992  0.24296905  1.0
  Sc  Sc662  1  0.46905992  0.80239325  0.24296905  1.0
  Sc  Sc663  1  0.80239325  0.13572658  0.24296905  1.0
  Sc  Sc664  1  0.80239325  0.46905992  0.24296905  1.0
  Sc  Sc665  1  0.80239325  0.80239325  0.24296905  1.0
  Sc  Sc666  1  0.30239325  0.09282025  0.20831734  1.0
  Sc  Sc667  1  0.30239325  0.42615358  0.20831734  1.0
  Sc  Sc668  1  0.30239325  0.75948692  0.20831734  1.0
  Sc  Sc669  1  0.63572658  0.09282025  0.20831734  1.0
  Sc  Sc670  1  0.63572658  0.42615358  0.20831734  1.0
  Sc  Sc671  1  0.63572658  0.75948692  0.20831734  1.0
  Sc  Sc672  1  0.96905992  0.09282025  0.20831734  1.0
  Sc  Sc673  1  0.96905992  0.42615358  0.20831734  1.0
  Sc  Sc674  1  0.96905992  0.75948692  0.20831734  1.0
  Sc  Sc675  1  0.13572658  0.25948692  0.27974591  1.0
  Sc  Sc676  1  0.13572658  0.59282025  0.27974591  1.0
  Sc  Sc677  1  0.13572658  0.92615358  0.27974591  1.0
  Sc  Sc678  1  0.46905992  0.25948692  0.27974591  1.0
  Sc  Sc679  1  0.46905992  0.59282025  0.27974591  1.0
  Sc  Sc680  1  0.46905992  0.92615358  0.27974591  1.0
  Sc  Sc681  1  0.80239325  0.25948692  0.27974591  1.0
  Sc  Sc682  1  0.80239325  0.59282025  0.27974591  1.0
  Sc  Sc683  1  0.80239325  0.92615358  0.27974591  1.0
  Sc  Sc684  1  0.19760675  0.19760675  0.16340884  1.0
  Sc  Sc685  1  0.19760675  0.53094008  0.16340884  1.0
  Sc  Sc686  1  0.19760675  0.86427342  0.16340884  1.0
  Sc  Sc687  1  0.53094008  0.19760675  0.16340884  1.0
  Sc  Sc688  1  0.53094008  0.53094008  0.16340884  1.0
  Sc  Sc689  1  0.53094008  0.86427342  0.16340884  1.0
  Sc  Sc690  1  0.86427342  0.19760675  0.16340884  1.0
  Sc  Sc691  1  0.86427342  0.53094008  0.16340884  1.0
  Sc  Sc692  1  0.86427342  0.86427342  0.16340884  1.0
  Sc  Sc693  1  0.03094008  0.03094008  0.23483741  1.0
  Sc  Sc694  1  0.03094008  0.36427342  0.23483741  1.0
  Sc  Sc695  1  0.03094008  0.69760675  0.23483741  1.0
  Sc  Sc696  1  0.36427342  0.03094008  0.23483741  1.0
  Sc  Sc697  1  0.36427342  0.36427342  0.23483741  1.0
  Sc  Sc698  1  0.36427342  0.69760675  0.23483741  1.0
  Sc  Sc699  1  0.69760675  0.03094008  0.23483741  1.0
  Sc  Sc700  1  0.69760675  0.36427342  0.23483741  1.0
  Sc  Sc701  1  0.69760675  0.69760675  0.23483741  1.0
  Sc  Sc702  1  0.19760675  0.07384642  0.26948913  1.0
  Sc  Sc703  1  0.19760675  0.40717975  0.26948912  1.0
  Sc  Sc704  1  0.19760675  0.74051308  0.26948913  1.0
  Sc  Sc705  1  0.53094008  0.07384642  0.26948913  1.0
  Sc  Sc706  1  0.53094008  0.40717975  0.26948912  1.0
  Sc  Sc707  1  0.53094008  0.74051308  0.26948913  1.0
  Sc  Sc708  1  0.86427342  0.07384642  0.26948913  1.0
  Sc  Sc709  1  0.86427342  0.40717975  0.26948912  1.0
  Sc  Sc710  1  0.86427342  0.74051308  0.26948913  1.0
  Sc  Sc711  1  0.03094008  0.24051308  0.19806055  1.0
  Sc  Sc712  1  0.03094008  0.57384642  0.19806055  1.0
  Sc  Sc713  1  0.03094008  0.90717975  0.19806055  1.0
  Sc  Sc714  1  0.36427342  0.24051308  0.19806055  1.0
  Sc  Sc715  1  0.36427342  0.57384642  0.19806055  1.0
  Sc  Sc716  1  0.36427342  0.90717975  0.19806055  1.0
  Sc  Sc717  1  0.69760675  0.24051308  0.19806055  1.0
  Sc  Sc718  1  0.69760675  0.57384642  0.19806055  1.0
  Sc  Sc719  1  0.69760675  0.90717975  0.19806055  1.0
  Ni  Ni720  1  0.19382844  0.08518133  0.21482971  1.0
  Ni  Ni721  1  0.19382844  0.41851466  0.21482971  1.0
  Ni  Ni722  1  0.19382844  0.75184800  0.21482971  1.0
  Ni  Ni723  1  0.52716178  0.08518133  0.21482971  1.0
  Ni  Ni724  1  0.52716178  0.41851466  0.21482971  1.0
  Ni  Ni725  1  0.52716178  0.75184800  0.21482971  1.0
  Ni  Ni726  1  0.86049511  0.08518133  0.21482971  1.0
  Ni  Ni727  1  0.86049511  0.41851466  0.21482971  1.0
  Ni  Ni728  1  0.86049511  0.75184800  0.21482971  1.0
  Ni  Ni729  1  0.02716178  0.25184800  0.14340114  1.0
  Ni  Ni730  1  0.02716178  0.58518133  0.14340114  1.0
  Ni  Ni731  1  0.02716178  0.91851466  0.14340114  1.0
  Ni  Ni732  1  0.36049511  0.25184800  0.14340114  1.0
  Ni  Ni733  1  0.36049511  0.58518133  0.14340114  1.0
  Ni  Ni734  1  0.36049511  0.91851466  0.14340114  1.0
  Ni  Ni735  1  0.69382844  0.25184800  0.14340114  1.0
  Ni  Ni736  1  0.69382844  0.58518133  0.14340114  1.0
  Ni  Ni737  1  0.69382844  0.91851466  0.14340114  1.0
  Ni  Ni738  1  0.19382844  0.08518133  0.16509866  1.0
  Ni  Ni739  1  0.19382844  0.41851466  0.16509866  1.0
  Ni  Ni740  1  0.19382844  0.75184800  0.16509866  1.0
  Ni  Ni741  1  0.52716178  0.08518133  0.16509866  1.0
  Ni  Ni742  1  0.52716178  0.41851466  0.16509866  1.0
  Ni  Ni743  1  0.52716178  0.75184800  0.16509866  1.0
  Ni  Ni744  1  0.86049511  0.08518133  0.16509866  1.0
  Ni  Ni745  1  0.86049511  0.41851466  0.16509866  1.0
  Ni  Ni746  1  0.86049511  0.75184800  0.16509866  1.0
  Ni  Ni747  1  0.02716178  0.25184800  0.23652723  1.0
  Ni  Ni748  1  0.02716178  0.58518133  0.23652723  1.0
  Ni  Ni749  1  0.02716178  0.91851466  0.23652723  1.0
  Ni  Ni750  1  0.36049511  0.25184800  0.23652723  1.0
  Ni  Ni751  1  0.36049511  0.58518133  0.23652723  1.0
  Ni  Ni752  1  0.36049511  0.91851466  0.23652723  1.0
  Ni  Ni753  1  0.69382844  0.25184800  0.23652723  1.0
  Ni  Ni754  1  0.69382844  0.58518133  0.23652723  1.0
  Ni  Ni755  1  0.69382844  0.91851466  0.23652723  1.0
  Ni  Ni756  1  0.19382844  0.30247555  0.26456076  1.0
  Ni  Ni757  1  0.19382845  0.63580889  0.26456076  1.0
  Ni  Ni758  1  0.19382844  0.96914222  0.26456076  1.0
  Ni  Ni759  1  0.52716178  0.30247555  0.26456076  1.0
  Ni  Ni760  1  0.52716178  0.63580889  0.26456076  1.0
  Ni  Ni761  1  0.52716178  0.96914222  0.26456076  1.0
  Ni  Ni762  1  0.86049511  0.30247555  0.26456076  1.0
  Ni  Ni763  1  0.86049511  0.63580889  0.26456076  1.0
  Ni  Ni764  1  0.86049511  0.96914222  0.26456076  1.0
  Ni  Ni765  1  0.02716178  0.13580889  0.19313218  1.0
  Ni  Ni766  1  0.02716178  0.46914222  0.19313218  1.0
  Ni  Ni767  1  0.02716178  0.80247555  0.19313218  1.0
  Ni  Ni768  1  0.36049511  0.13580889  0.19313218  1.0
  Ni  Ni769  1  0.36049511  0.46914222  0.19313218  1.0
  Ni  Ni770  1  0.36049511  0.80247555  0.19313218  1.0
  Ni  Ni771  1  0.69382844  0.13580889  0.19313218  1.0
  Ni  Ni772  1  0.69382845  0.46914222  0.19313218  1.0
  Ni  Ni773  1  0.69382844  0.80247555  0.19313218  1.0
  Ni  Ni774  1  0.25184800  0.02716178  0.23969523  1.0
  Ni  Ni775  1  0.25184800  0.36049511  0.23969523  1.0
  Ni  Ni776  1  0.25184800  0.69382844  0.23969523  1.0
  Ni  Ni777  1  0.58518133  0.02716178  0.23969523  1.0
  Ni  Ni778  1  0.58518133  0.36049511  0.23969523  1.0
  Ni  Ni779  1  0.58518133  0.69382844  0.23969523  1.0
  Ni  Ni780  1  0.91851467  0.02716178  0.23969523  1.0
  Ni  Ni781  1  0.91851467  0.36049511  0.23969523  1.0
  Ni  Ni782  1  0.91851467  0.69382844  0.23969523  1.0
  Ni  Ni783  1  0.08518133  0.19382844  0.16826666  1.0
  Ni  Ni784  1  0.08518133  0.52716178  0.16826666  1.0
  Ni  Ni785  1  0.08518133  0.86049511  0.16826666  1.0
  Ni  Ni786  1  0.41851467  0.19382844  0.16826666  1.0
  Ni  Ni787  1  0.41851467  0.52716178  0.16826666  1.0
  Ni  Ni788  1  0.41851467  0.86049511  0.16826666  1.0
  Ni  Ni789  1  0.75184800  0.19382844  0.16826666  1.0
  Ni  Ni790  1  0.75184800  0.52716178  0.16826666  1.0
  Ni  Ni791  1  0.75184800  0.86049511  0.16826666  1.0
  Ni  Ni792  1  0.26450489  0.20648533  0.24511961  1.0
  Ni  Ni793  1  0.26450489  0.53981867  0.24511961  1.0
  Ni  Ni794  1  0.26450489  0.87315200  0.24511961  1.0
  Ni  Ni795  1  0.59783822  0.20648533  0.24511961  1.0
  Ni  Ni796  1  0.59783822  0.53981867  0.24511961  1.0
  Ni  Ni797  1  0.59783822  0.87315200  0.24511961  1.0
  Ni  Ni798  1  0.93117156  0.20648533  0.24511961  1.0
  Ni  Ni799  1  0.93117155  0.53981867  0.24511961  1.0
  Ni  Ni800  1  0.93117155  0.87315200  0.24511961  1.0
  Ni  Ni801  1  0.09783822  0.03981867  0.17369104  1.0
  Ni  Ni802  1  0.09783822  0.37315200  0.17369104  1.0
  Ni  Ni803  1  0.09783822  0.70648533  0.17369104  1.0
  Ni  Ni804  1  0.43117156  0.03981867  0.17369104  1.0
  Ni  Ni805  1  0.43117155  0.37315200  0.17369104  1.0
  Ni  Ni806  1  0.43117156  0.70648533  0.17369104  1.0
  Ni  Ni807  1  0.76450489  0.03981867  0.17369104  1.0
  Ni  Ni808  1  0.76450489  0.37315200  0.17369104  1.0
  Ni  Ni809  1  0.76450489  0.70648533  0.17369104  1.0
  Ni  Ni810  1  0.26450489  0.20648533  0.15199352  1.0
  Ni  Ni811  1  0.26450489  0.53981867  0.15199352  1.0
  Ni  Ni812  1  0.26450489  0.87315200  0.15199352  1.0
  Ni  Ni813  1  0.59783822  0.20648533  0.15199352  1.0
  Ni  Ni814  1  0.59783822  0.53981867  0.15199352  1.0
  Ni  Ni815  1  0.59783822  0.87315200  0.15199352  1.0
  Ni  Ni816  1  0.93117156  0.20648533  0.15199352  1.0
  Ni  Ni817  1  0.93117155  0.53981867  0.15199352  1.0
  Ni  Ni818  1  0.93117155  0.87315200  0.15199352  1.0
  Ni  Ni819  1  0.09783822  0.03981867  0.22342209  1.0
  Ni  Ni820  1  0.09783822  0.37315200  0.22342209  1.0
  Ni  Ni821  1  0.09783822  0.70648533  0.22342209  1.0
  Ni  Ni822  1  0.43117156  0.03981867  0.22342209  1.0
  Ni  Ni823  1  0.43117155  0.37315200  0.22342209  1.0
  Ni  Ni824  1  0.43117156  0.70648533  0.22342209  1.0
  Ni  Ni825  1  0.76450489  0.03981867  0.22342209  1.0
  Ni  Ni826  1  0.76450489  0.37315200  0.22342209  1.0
  Ni  Ni827  1  0.76450489  0.70648533  0.22342209  1.0
  Ni  Ni828  1  0.20648533  0.26450489  0.22025409  1.0
  Ni  Ni829  1  0.20648533  0.59783822  0.22025409  1.0
  Ni  Ni830  1  0.20648533  0.93117156  0.22025409  1.0
  Ni  Ni831  1  0.53981867  0.26450489  0.22025409  1.0
  Ni  Ni832  1  0.53981867  0.59783822  0.22025409  1.0
  Ni  Ni833  1  0.53981867  0.93117156  0.22025409  1.0
  Ni  Ni834  1  0.87315200  0.26450489  0.22025409  1.0
  Ni  Ni835  1  0.87315200  0.59783822  0.22025409  1.0
  Ni  Ni836  1  0.87315200  0.93117156  0.22025409  1.0
  Ni  Ni837  1  0.03981867  0.09783822  0.14882552  1.0
  Ni  Ni838  1  0.03981867  0.43117156  0.14882552  1.0
  Ni  Ni839  1  0.03981867  0.76450489  0.14882552  1.0
  Ni  Ni840  1  0.37315200  0.09783822  0.14882552  1.0
  Ni  Ni841  1  0.37315200  0.43117156  0.14882552  1.0
  Ni  Ni842  1  0.37315200  0.76450489  0.14882552  1.0
  Ni  Ni843  1  0.70648533  0.09783822  0.14882552  1.0
  Ni  Ni844  1  0.70648533  0.43117156  0.14882552  1.0
  Ni  Ni845  1  0.70648533  0.76450489  0.14882552  1.0
  Ni  Ni846  1  0.26450489  0.32252444  0.19538857  1.0
  Ni  Ni847  1  0.26450489  0.65585778  0.19538857  1.0
  Ni  Ni848  1  0.26450489  0.98919111  0.19538857  1.0
  Ni  Ni849  1  0.59783822  0.32252444  0.19538857  1.0
  Ni  Ni850  1  0.59783822  0.65585778  0.19538857  1.0
  Ni  Ni851  1  0.59783822  0.98919111  0.19538857  1.0
  Ni  Ni852  1  0.93117156  0.32252444  0.19538857  1.0
  Ni  Ni853  1  0.93117155  0.65585778  0.19538857  1.0
  Ni  Ni854  1  0.93117155  0.98919111  0.19538857  1.0
  Ni  Ni855  1  0.09783822  0.15585778  0.26681714  1.0
  Ni  Ni856  1  0.09783822  0.48919111  0.26681714  1.0
  Ni  Ni857  1  0.09783822  0.82252444  0.26681714  1.0
  Ni  Ni858  1  0.43117155  0.15585778  0.26681714  1.0
  Ni  Ni859  1  0.43117156  0.48919111  0.26681714  1.0
  Ni  Ni860  1  0.43117155  0.82252444  0.26681714  1.0
  Ni  Ni861  1  0.76450489  0.15585778  0.26681714  1.0
  Ni  Ni862  1  0.76450489  0.48919111  0.26681714  1.0
  Ni  Ni863  1  0.76450489  0.82252444  0.26681714  1.0
  Sc  Sc864  1  0.22916667  0.31250000  0.37283180  1.0
  Sc  Sc865  1  0.22916667  0.64583333  0.37283180  1.0
  Sc  Sc866  1  0.22916667  0.97916667  0.37283180  1.0
  Sc  Sc867  1  0.56250000  0.31250000  0.37283180  1.0
  Sc  Sc868  1  0.56250000  0.64583333  0.37283180  1.0
  Sc  Sc869  1  0.56250000  0.97916667  0.37283180  1.0
  Sc  Sc870  1  0.89583333  0.31250000  0.37283180  1.0
  Sc  Sc871  1  0.89583333  0.64583333  0.37283180  1.0
  Sc  Sc872  1  0.89583333  0.97916667  0.37283180  1.0
  Sc  Sc873  1  0.06250000  0.14583333  0.30140323  1.0
  Sc  Sc874  1  0.06250000  0.47916667  0.30140323  1.0
  Sc  Sc875  1  0.06250000  0.81250000  0.30140323  1.0
  Sc  Sc876  1  0.39583333  0.14583333  0.30140323  1.0
  Sc  Sc877  1  0.39583333  0.47916667  0.30140323  1.0
  Sc  Sc878  1  0.39583333  0.81250000  0.30140323  1.0
  Sc  Sc879  1  0.72916667  0.14583333  0.30140323  1.0
  Sc  Sc880  1  0.72916667  0.47916667  0.30140323  1.0
  Sc  Sc881  1  0.72916667  0.81250000  0.30140323  1.0
  Sc  Sc882  1  0.22916667  0.31250000  0.30140323  1.0
  Sc  Sc883  1  0.22916667  0.64583333  0.30140323  1.0
  Sc  Sc884  1  0.22916667  0.97916667  0.30140323  1.0
  Sc  Sc885  1  0.56250000  0.31250000  0.30140323  1.0
  Sc  Sc886  1  0.56250000  0.64583333  0.30140323  1.0
  Sc  Sc887  1  0.56250000  0.97916667  0.30140323  1.0
  Sc  Sc888  1  0.89583333  0.31250000  0.30140323  1.0
  Sc  Sc889  1  0.89583333  0.64583333  0.30140323  1.0
  Sc  Sc890  1  0.89583333  0.97916667  0.30140323  1.0
  Sc  Sc891  1  0.06250000  0.14583333  0.37283180  1.0
  Sc  Sc892  1  0.06250000  0.47916667  0.37283180  1.0
  Sc  Sc893  1  0.06250000  0.81250000  0.37283180  1.0
  Sc  Sc894  1  0.39583333  0.14583333  0.37283180  1.0
  Sc  Sc895  1  0.39583333  0.47916667  0.37283180  1.0
  Sc  Sc896  1  0.39583333  0.81250000  0.37283180  1.0
  Sc  Sc897  1  0.72916667  0.14583333  0.37283180  1.0
  Sc  Sc898  1  0.72916667  0.47916667  0.37283180  1.0
  Sc  Sc899  1  0.72916667  0.81250000  0.37283180  1.0
  Sc  Sc900  1  0.22916667  0.14583333  0.30140323  1.0
  Sc  Sc901  1  0.22916667  0.47916667  0.30140323  1.0
  Sc  Sc902  1  0.22916667  0.81250000  0.30140323  1.0
  Sc  Sc903  1  0.56250000  0.14583333  0.30140323  1.0
  Sc  Sc904  1  0.56250000  0.47916667  0.30140323  1.0
  Sc  Sc905  1  0.56250000  0.81250000  0.30140323  1.0
  Sc  Sc906  1  0.89583333  0.14583333  0.30140323  1.0
  Sc  Sc907  1  0.89583333  0.47916667  0.30140323  1.0
  Sc  Sc908  1  0.89583333  0.81250000  0.30140323  1.0
  Sc  Sc909  1  0.06250000  0.31250000  0.37283180  1.0
  Sc  Sc910  1  0.06250000  0.64583333  0.37283180  1.0
  Sc  Sc911  1  0.06250000  0.97916667  0.37283180  1.0
  Sc  Sc912  1  0.39583333  0.31250000  0.37283180  1.0
  Sc  Sc913  1  0.39583333  0.64583333  0.37283180  1.0
  Sc  Sc914  1  0.39583333  0.97916667  0.37283180  1.0
  Sc  Sc915  1  0.72916667  0.31250000  0.37283180  1.0
  Sc  Sc916  1  0.72916667  0.64583333  0.37283180  1.0
  Sc  Sc917  1  0.72916667  0.97916667  0.37283180  1.0
  Sc  Sc918  1  0.31250000  0.22916667  0.40854609  1.0
  Sc  Sc919  1  0.31250000  0.56250000  0.40854609  1.0
  Sc  Sc920  1  0.31250000  0.89583333  0.40854609  1.0
  Sc  Sc921  1  0.64583333  0.22916667  0.40854609  1.0
  Sc  Sc922  1  0.64583333  0.56250000  0.40854609  1.0
  Sc  Sc923  1  0.64583333  0.89583333  0.40854609  1.0
  Sc  Sc924  1  0.97916667  0.22916667  0.40854609  1.0
  Sc  Sc925  1  0.97916667  0.56250000  0.40854609  1.0
  Sc  Sc926  1  0.97916667  0.89583333  0.40854609  1.0
  Sc  Sc927  1  0.14583333  0.06250000  0.33711752  1.0
  Sc  Sc928  1  0.14583333  0.39583333  0.33711752  1.0
  Sc  Sc929  1  0.14583333  0.72916667  0.33711752  1.0
  Sc  Sc930  1  0.47916667  0.06250000  0.33711752  1.0
  Sc  Sc931  1  0.47916667  0.39583333  0.33711752  1.0
  Sc  Sc932  1  0.47916667  0.72916667  0.33711752  1.0
  Sc  Sc933  1  0.81250000  0.06250000  0.33711752  1.0
  Sc  Sc934  1  0.81250000  0.39583333  0.33711752  1.0
  Sc  Sc935  1  0.81250000  0.72916667  0.33711752  1.0
  Sc  Sc936  1  0.32260675  0.15594008  0.35983741  1.0
  Sc  Sc937  1  0.32260675  0.48927342  0.35983741  1.0
  Sc  Sc938  1  0.32260675  0.82260675  0.35983741  1.0
  Sc  Sc939  1  0.65594008  0.15594008  0.35983741  1.0
  Sc  Sc940  1  0.65594008  0.48927342  0.35983741  1.0
  Sc  Sc941  1  0.65594008  0.82260675  0.35983741  1.0
  Sc  Sc942  1  0.98927342  0.15594008  0.35983741  1.0
  Sc  Sc943  1  0.98927342  0.48927342  0.35983741  1.0
  Sc  Sc944  1  0.98927342  0.82260675  0.35983741  1.0
  Sc  Sc945  1  0.15594008  0.32260675  0.28840884  1.0
  Sc  Sc946  1  0.15594008  0.65594008  0.28840884  1.0
  Sc  Sc947  1  0.15594008  0.98927342  0.28840884  1.0
  Sc  Sc948  1  0.48927342  0.32260675  0.28840884  1.0
  Sc  Sc949  1  0.48927342  0.65594008  0.28840884  1.0
  Sc  Sc950  1  0.48927342  0.98927342  0.28840884  1.0
  Sc  Sc951  1  0.82260675  0.32260675  0.28840884  1.0
  Sc  Sc952  1  0.82260675  0.65594008  0.28840884  1.0
  Sc  Sc953  1  0.82260675  0.98927342  0.28840884  1.0
  Sc  Sc954  1  0.26072658  0.09405992  0.29654048  1.0
  Sc  Sc955  1  0.26072658  0.42739325  0.29654048  1.0
  Sc  Sc956  1  0.26072658  0.76072658  0.29654048  1.0
  Sc  Sc957  1  0.59405992  0.09405992  0.29654048  1.0
  Sc  Sc958  1  0.59405992  0.42739325  0.29654048  1.0
  Sc  Sc959  1  0.59405992  0.76072658  0.29654048  1.0
  Sc  Sc960  1  0.92739325  0.09405992  0.29654048  1.0
  Sc  Sc961  1  0.92739325  0.42739325  0.29654048  1.0
  Sc  Sc962  1  0.92739325  0.76072658  0.29654048  1.0
  Sc  Sc963  1  0.09405992  0.26072658  0.36796905  1.0
  Sc  Sc964  1  0.09405992  0.59405992  0.36796905  1.0
  Sc  Sc965  1  0.09405992  0.92739325  0.36796905  1.0
  Sc  Sc966  1  0.42739325  0.26072658  0.36796905  1.0
  Sc  Sc967  1  0.42739325  0.59405992  0.36796905  1.0
  Sc  Sc968  1  0.42739325  0.92739325  0.36796905  1.0
  Sc  Sc969  1  0.76072658  0.26072658  0.36796905  1.0
  Sc  Sc970  1  0.76072658  0.59405992  0.36796905  1.0
  Sc  Sc971  1  0.76072658  0.92739325  0.36796905  1.0
  Sc  Sc972  1  0.26072658  0.09405992  0.38635748  1.0
  Sc  Sc973  1  0.26072658  0.42739325  0.38635748  1.0
  Sc  Sc974  1  0.26072658  0.76072658  0.38635748  1.0
  Sc  Sc975  1  0.59405992  0.09405992  0.38635748  1.0
  Sc  Sc976  1  0.59405992  0.42739325  0.38635748  1.0
  Sc  Sc977  1  0.59405992  0.76072658  0.38635748  1.0
  Sc  Sc978  1  0.92739325  0.09405992  0.38635748  1.0
  Sc  Sc979  1  0.92739325  0.42739325  0.38635748  1.0
  Sc  Sc980  1  0.92739325  0.76072658  0.38635748  1.0
  Sc  Sc981  1  0.09405992  0.26072658  0.31492891  1.0
  Sc  Sc982  1  0.09405992  0.59405992  0.31492891  1.0
  Sc  Sc983  1  0.09405992  0.92739325  0.31492891  1.0
  Sc  Sc984  1  0.42739325  0.26072658  0.31492891  1.0
  Sc  Sc985  1  0.42739325  0.59405992  0.31492891  1.0
  Sc  Sc986  1  0.42739325  0.92739325  0.31492891  1.0
  Sc  Sc987  1  0.76072658  0.26072658  0.31492891  1.0
  Sc  Sc988  1  0.76072658  0.59405992  0.31492891  1.0
  Sc  Sc989  1  0.76072658  0.92739325  0.31492891  1.0
  Sc  Sc990  1  0.32260675  0.03217975  0.32306055  1.0
  Sc  Sc991  1  0.32260675  0.36551308  0.32306055  1.0
  Sc  Sc992  1  0.32260675  0.69884642  0.32306055  1.0
  Sc  Sc993  1  0.65594008  0.03217975  0.32306055  1.0
  Sc  Sc994  1  0.65594008  0.36551308  0.32306055  1.0
  Sc  Sc995  1  0.65594008  0.69884642  0.32306055  1.0
  Sc  Sc996  1  0.98927342  0.03217975  0.32306055  1.0
  Sc  Sc997  1  0.98927342  0.36551308  0.32306055  1.0
  Sc  Sc998  1  0.98927342  0.69884642  0.32306055  1.0
  Sc  Sc999  1  0.15594008  0.19884642  0.39448912  1.0
  Sc  Sc1000  1  0.15594008  0.53217975  0.39448912  1.0
  Sc  Sc1001  1  0.15594008  0.86551308  0.39448913  1.0
  Sc  Sc1002  1  0.48927342  0.19884642  0.39448912  1.0
  Sc  Sc1003  1  0.48927342  0.53217975  0.39448912  1.0
  Sc  Sc1004  1  0.48927342  0.86551308  0.39448913  1.0
  Sc  Sc1005  1  0.82260675  0.19884642  0.39448912  1.0
  Sc  Sc1006  1  0.82260675  0.53217975  0.39448912  1.0
  Sc  Sc1007  1  0.82260675  0.86551308  0.39448912  1.0
  Sc  Sc1008  1  0.32260675  0.15594008  0.41287755  1.0
  Sc  Sc1009  1  0.32260675  0.48927342  0.41287755  1.0
  Sc  Sc1010  1  0.32260675  0.82260675  0.41287755  1.0
  Sc  Sc1011  1  0.65594008  0.15594008  0.41287755  1.0
  Sc  Sc1012  1  0.65594008  0.48927342  0.41287755  1.0
  Sc  Sc1013  1  0.65594008  0.82260675  0.41287755  1.0
  Sc  Sc1014  1  0.98927342  0.15594008  0.41287755  1.0
  Sc  Sc1015  1  0.98927342  0.48927342  0.41287755  1.0
  Sc  Sc1016  1  0.98927342  0.82260675  0.41287755  1.0
  Sc  Sc1017  1  0.15594008  0.32260675  0.34144898  1.0
  Sc  Sc1018  1  0.15594008  0.65594008  0.34144898  1.0
  Sc  Sc1019  1  0.15594008  0.98927342  0.34144898  1.0
  Sc  Sc1020  1  0.48927342  0.32260675  0.34144898  1.0
  Sc  Sc1021  1  0.48927342  0.65594008  0.34144898  1.0
  Sc  Sc1022  1  0.48927342  0.98927342  0.34144898  1.0
  Sc  Sc1023  1  0.82260675  0.32260675  0.34144898  1.0
  Sc  Sc1024  1  0.82260675  0.65594008  0.34144898  1.0
  Sc  Sc1025  1  0.82260675  0.98927342  0.34144898  1.0
  Sc  Sc1026  1  0.26072658  0.21782025  0.33331734  1.0
  Sc  Sc1027  1  0.26072658  0.55115358  0.33331734  1.0
  Sc  Sc1028  1  0.26072658  0.88448692  0.33331734  1.0
  Sc  Sc1029  1  0.59405992  0.21782025  0.33331734  1.0
  Sc  Sc1030  1  0.59405992  0.55115358  0.33331734  1.0
  Sc  Sc1031  1  0.59405992  0.88448692  0.33331734  1.0
  Sc  Sc1032  1  0.92739325  0.21782025  0.33331734  1.0
  Sc  Sc1033  1  0.92739325  0.55115358  0.33331734  1.0
  Sc  Sc1034  1  0.92739325  0.88448692  0.33331734  1.0
  Sc  Sc1035  1  0.09405992  0.05115358  0.40474591  1.0
  Sc  Sc1036  1  0.09405992  0.38448692  0.40474591  1.0
  Sc  Sc1037  1  0.09405992  0.71782025  0.40474591  1.0
  Sc  Sc1038  1  0.42739325  0.05115358  0.40474591  1.0
  Sc  Sc1039  1  0.42739325  0.38448692  0.40474591  1.0
  Sc  Sc1040  1  0.42739325  0.71782025  0.40474591  1.0
  Sc  Sc1041  1  0.76072658  0.05115358  0.40474591  1.0
  Sc  Sc1042  1  0.76072658  0.38448692  0.40474591  1.0
  Sc  Sc1043  1  0.76072658  0.71782025  0.40474591  1.0
  Sc  Sc1044  1  0.19760675  0.19760675  0.35930613  1.0
  Sc  Sc1045  1  0.19760675  0.53094008  0.35930613  1.0
  Sc  Sc1046  1  0.19760675  0.86427342  0.35930613  1.0
  Sc  Sc1047  1  0.53094008  0.19760675  0.35930613  1.0
  Sc  Sc1048  1  0.53094008  0.53094008  0.35930613  1.0
  Sc  Sc1049  1  0.53094008  0.86427342  0.35930613  1.0
  Sc  Sc1050  1  0.86427342  0.19760675  0.35930613  1.0
  Sc  Sc1051  1  0.86427342  0.53094008  0.35930613  1.0
  Sc  Sc1052  1  0.86427342  0.86427342  0.35930613  1.0
  Sc  Sc1053  1  0.03094008  0.03094008  0.28787755  1.0
  Sc  Sc1054  1  0.03094008  0.36427342  0.28787755  1.0
  Sc  Sc1055  1  0.03094008  0.69760675  0.28787755  1.0
  Sc  Sc1056  1  0.36427342  0.03094008  0.28787755  1.0
  Sc  Sc1057  1  0.36427342  0.36427342  0.28787755  1.0
  Sc  Sc1058  1  0.36427342  0.69760675  0.28787755  1.0
  Sc  Sc1059  1  0.69760675  0.03094008  0.28787755  1.0
  Sc  Sc1060  1  0.69760675  0.36427342  0.28787755  1.0
  Sc  Sc1061  1  0.69760675  0.69760675  0.28787755  1.0
  Sc  Sc1062  1  0.30239325  0.30239325  0.40421462  1.0
  Sc  Sc1063  1  0.30239325  0.63572658  0.40421462  1.0
  Sc  Sc1064  1  0.30239325  0.96905992  0.40421463  1.0
  Sc  Sc1065  1  0.63572658  0.30239325  0.40421463  1.0
  Sc  Sc1066  1  0.63572658  0.63572658  0.40421462  1.0
  Sc  Sc1067  1  0.63572658  0.96905992  0.40421463  1.0
  Sc  Sc1068  1  0.96905992  0.30239325  0.40421463  1.0
  Sc  Sc1069  1  0.96905992  0.63572658  0.40421463  1.0
  Sc  Sc1070  1  0.96905992  0.96905992  0.40421463  1.0
  Sc  Sc1071  1  0.13572658  0.13572658  0.33278605  1.0
  Sc  Sc1072  1  0.13572658  0.46905992  0.33278605  1.0
  Sc  Sc1073  1  0.13572658  0.80239325  0.33278605  1.0
  Sc  Sc1074  1  0.46905992  0.13572658  0.33278605  1.0
  Sc  Sc1075  1  0.46905992  0.46905992  0.33278605  1.0
  Sc  Sc1076  1  0.46905992  0.80239325  0.33278605  1.0
  Sc  Sc1077  1  0.80239325  0.13572658  0.33278605  1.0
  Sc  Sc1078  1  0.80239325  0.46905992  0.33278605  1.0
  Sc  Sc1079  1  0.80239325  0.80239325  0.33278605  1.0
  Sc  Sc1080  1  0.30239325  0.30239325  0.31439763  1.0
  Sc  Sc1081  1  0.30239325  0.63572658  0.31439762  1.0
  Sc  Sc1082  1  0.30239325  0.96905992  0.31439763  1.0
  Sc  Sc1083  1  0.63572658  0.30239325  0.31439763  1.0
  Sc  Sc1084  1  0.63572658  0.63572658  0.31439762  1.0
  Sc  Sc1085  1  0.63572658  0.96905992  0.31439763  1.0
  Sc  Sc1086  1  0.96905992  0.30239325  0.31439763  1.0
  Sc  Sc1087  1  0.96905992  0.63572658  0.31439763  1.0
  Sc  Sc1088  1  0.96905992  0.96905992  0.31439763  1.0
  Sc  Sc1089  1  0.13572658  0.13572658  0.38582620  1.0
  Sc  Sc1090  1  0.13572658  0.46905992  0.38582620  1.0
  Sc  Sc1091  1  0.13572658  0.80239325  0.38582620  1.0
  Sc  Sc1092  1  0.46905992  0.13572658  0.38582620  1.0
  Sc  Sc1093  1  0.46905992  0.46905992  0.38582620  1.0
  Sc  Sc1094  1  0.46905992  0.80239325  0.38582620  1.0
  Sc  Sc1095  1  0.80239325  0.13572658  0.38582620  1.0
  Sc  Sc1096  1  0.80239325  0.46905992  0.38582620  1.0
  Sc  Sc1097  1  0.80239325  0.80239325  0.38582620  1.0
  Sc  Sc1098  1  0.30239325  0.09282025  0.35117448  1.0
  Sc  Sc1099  1  0.30239325  0.42615358  0.35117448  1.0
  Sc  Sc1100  1  0.30239325  0.75948692  0.35117448  1.0
  Sc  Sc1101  1  0.63572658  0.09282025  0.35117448  1.0
  Sc  Sc1102  1  0.63572658  0.42615358  0.35117448  1.0
  Sc  Sc1103  1  0.63572658  0.75948692  0.35117448  1.0
  Sc  Sc1104  1  0.96905992  0.09282025  0.35117448  1.0
  Sc  Sc1105  1  0.96905992  0.42615358  0.35117448  1.0
  Sc  Sc1106  1  0.96905992  0.75948692  0.35117448  1.0
  Sc  Sc1107  1  0.13572658  0.25948692  0.42260305  1.0
  Sc  Sc1108  1  0.13572658  0.59282025  0.42260305  1.0
  Sc  Sc1109  1  0.13572658  0.92615358  0.42260305  1.0
  Sc  Sc1110  1  0.46905992  0.25948692  0.42260305  1.0
  Sc  Sc1111  1  0.46905992  0.59282025  0.42260305  1.0
  Sc  Sc1112  1  0.46905992  0.92615358  0.42260305  1.0
  Sc  Sc1113  1  0.80239325  0.25948692  0.42260305  1.0
  Sc  Sc1114  1  0.80239325  0.59282025  0.42260305  1.0
  Sc  Sc1115  1  0.80239325  0.92615358  0.42260305  1.0
  Sc  Sc1116  1  0.19760675  0.19760675  0.30626598  1.0
  Sc  Sc1117  1  0.19760675  0.53094008  0.30626598  1.0
  Sc  Sc1118  1  0.19760675  0.86427342  0.30626598  1.0
  Sc  Sc1119  1  0.53094008  0.19760675  0.30626598  1.0
  Sc  Sc1120  1  0.53094008  0.53094008  0.30626598  1.0
  Sc  Sc1121  1  0.53094008  0.86427342  0.30626598  1.0
  Sc  Sc1122  1  0.86427342  0.19760675  0.30626598  1.0
  Sc  Sc1123  1  0.86427342  0.53094008  0.30626598  1.0
  Sc  Sc1124  1  0.86427342  0.86427342  0.30626598  1.0
  Sc  Sc1125  1  0.03094008  0.03094008  0.37769455  1.0
  Sc  Sc1126  1  0.03094008  0.36427342  0.37769455  1.0
  Sc  Sc1127  1  0.03094008  0.69760675  0.37769455  1.0
  Sc  Sc1128  1  0.36427342  0.03094008  0.37769455  1.0
  Sc  Sc1129  1  0.36427342  0.36427342  0.37769455  1.0
  Sc  Sc1130  1  0.36427342  0.69760675  0.37769455  1.0
  Sc  Sc1131  1  0.69760675  0.03094008  0.37769455  1.0
  Sc  Sc1132  1  0.69760675  0.36427342  0.37769455  1.0
  Sc  Sc1133  1  0.69760675  0.69760675  0.37769455  1.0
  Sc  Sc1134  1  0.19760675  0.07384642  0.41234627  1.0
  Sc  Sc1135  1  0.19760675  0.40717975  0.41234627  1.0
  Sc  Sc1136  1  0.19760675  0.74051308  0.41234627  1.0
  Sc  Sc1137  1  0.53094008  0.07384642  0.41234627  1.0
  Sc  Sc1138  1  0.53094008  0.40717975  0.41234627  1.0
  Sc  Sc1139  1  0.53094008  0.74051308  0.41234627  1.0
  Sc  Sc1140  1  0.86427342  0.07384642  0.41234627  1.0
  Sc  Sc1141  1  0.86427342  0.40717975  0.41234627  1.0
  Sc  Sc1142  1  0.86427342  0.74051308  0.41234627  1.0
  Sc  Sc1143  1  0.03094008  0.24051308  0.34091770  1.0
  Sc  Sc1144  1  0.03094008  0.57384642  0.34091770  1.0
  Sc  Sc1145  1  0.03094008  0.90717975  0.34091770  1.0
  Sc  Sc1146  1  0.36427342  0.24051308  0.34091770  1.0
  Sc  Sc1147  1  0.36427342  0.57384642  0.34091770  1.0
  Sc  Sc1148  1  0.36427342  0.90717975  0.34091770  1.0
  Sc  Sc1149  1  0.69760675  0.24051308  0.34091770  1.0
  Sc  Sc1150  1  0.69760675  0.57384642  0.34091770  1.0
  Sc  Sc1151  1  0.69760675  0.90717975  0.34091770  1.0
  Ni  Ni1152  1  0.19382844  0.08518133  0.35768685  1.0
  Ni  Ni1153  1  0.19382844  0.41851466  0.35768685  1.0
  Ni  Ni1154  1  0.19382844  0.75184800  0.35768685  1.0
  Ni  Ni1155  1  0.52716178  0.08518133  0.35768685  1.0
  Ni  Ni1156  1  0.52716178  0.41851466  0.35768685  1.0
  Ni  Ni1157  1  0.52716178  0.75184800  0.35768685  1.0
  Ni  Ni1158  1  0.86049511  0.08518133  0.35768685  1.0
  Ni  Ni1159  1  0.86049511  0.41851466  0.35768685  1.0
  Ni  Ni1160  1  0.86049511  0.75184800  0.35768685  1.0
  Ni  Ni1161  1  0.02716178  0.25184800  0.28625828  1.0
  Ni  Ni1162  1  0.02716178  0.58518133  0.28625828  1.0
  Ni  Ni1163  1  0.02716178  0.91851466  0.28625828  1.0
  Ni  Ni1164  1  0.36049511  0.25184800  0.28625828  1.0
  Ni  Ni1165  1  0.36049511  0.58518133  0.28625828  1.0
  Ni  Ni1166  1  0.36049511  0.91851466  0.28625828  1.0
  Ni  Ni1167  1  0.69382844  0.25184800  0.28625828  1.0
  Ni  Ni1168  1  0.69382844  0.58518133  0.28625828  1.0
  Ni  Ni1169  1  0.69382844  0.91851466  0.28625828  1.0
  Ni  Ni1170  1  0.19382844  0.08518133  0.30795580  1.0
  Ni  Ni1171  1  0.19382844  0.41851466  0.30795580  1.0
  Ni  Ni1172  1  0.19382844  0.75184800  0.30795580  1.0
  Ni  Ni1173  1  0.52716178  0.08518133  0.30795580  1.0
  Ni  Ni1174  1  0.52716178  0.41851466  0.30795580  1.0
  Ni  Ni1175  1  0.52716178  0.75184800  0.30795580  1.0
  Ni  Ni1176  1  0.86049511  0.08518133  0.30795580  1.0
  Ni  Ni1177  1  0.86049511  0.41851466  0.30795580  1.0
  Ni  Ni1178  1  0.86049511  0.75184800  0.30795580  1.0
  Ni  Ni1179  1  0.02716178  0.25184800  0.37938438  1.0
  Ni  Ni1180  1  0.02716178  0.58518133  0.37938438  1.0
  Ni  Ni1181  1  0.02716178  0.91851466  0.37938438  1.0
  Ni  Ni1182  1  0.36049511  0.25184800  0.37938438  1.0
  Ni  Ni1183  1  0.36049511  0.58518133  0.37938438  1.0
  Ni  Ni1184  1  0.36049511  0.91851466  0.37938438  1.0
  Ni  Ni1185  1  0.69382844  0.25184800  0.37938438  1.0
  Ni  Ni1186  1  0.69382844  0.58518133  0.37938438  1.0
  Ni  Ni1187  1  0.69382844  0.91851466  0.37938438  1.0
  Ni  Ni1188  1  0.19382844  0.30247555  0.40741790  1.0
  Ni  Ni1189  1  0.19382845  0.63580889  0.40741790  1.0
  Ni  Ni1190  1  0.19382844  0.96914222  0.40741790  1.0
  Ni  Ni1191  1  0.52716178  0.30247555  0.40741790  1.0
  Ni  Ni1192  1  0.52716178  0.63580889  0.40741790  1.0
  Ni  Ni1193  1  0.52716178  0.96914222  0.40741790  1.0
  Ni  Ni1194  1  0.86049511  0.30247555  0.40741790  1.0
  Ni  Ni1195  1  0.86049511  0.63580889  0.40741790  1.0
  Ni  Ni1196  1  0.86049511  0.96914222  0.40741790  1.0
  Ni  Ni1197  1  0.02716178  0.13580889  0.33598933  1.0
  Ni  Ni1198  1  0.02716178  0.46914222  0.33598933  1.0
  Ni  Ni1199  1  0.02716178  0.80247555  0.33598933  1.0
  Ni  Ni1200  1  0.36049511  0.13580889  0.33598933  1.0
  Ni  Ni1201  1  0.36049511  0.46914222  0.33598933  1.0
  Ni  Ni1202  1  0.36049511  0.80247555  0.33598933  1.0
  Ni  Ni1203  1  0.69382844  0.13580889  0.33598933  1.0
  Ni  Ni1204  1  0.69382845  0.46914222  0.33598933  1.0
  Ni  Ni1205  1  0.69382844  0.80247555  0.33598933  1.0
  Ni  Ni1206  1  0.25184800  0.02716178  0.38255238  1.0
  Ni  Ni1207  1  0.25184800  0.36049511  0.38255238  1.0
  Ni  Ni1208  1  0.25184800  0.69382844  0.38255238  1.0
  Ni  Ni1209  1  0.58518133  0.02716178  0.38255238  1.0
  Ni  Ni1210  1  0.58518133  0.36049511  0.38255238  1.0
  Ni  Ni1211  1  0.58518133  0.69382844  0.38255238  1.0
  Ni  Ni1212  1  0.91851467  0.02716178  0.38255238  1.0
  Ni  Ni1213  1  0.91851467  0.36049511  0.38255238  1.0
  Ni  Ni1214  1  0.91851467  0.69382844  0.38255238  1.0
  Ni  Ni1215  1  0.08518133  0.19382844  0.31112380  1.0
  Ni  Ni1216  1  0.08518133  0.52716178  0.31112380  1.0
  Ni  Ni1217  1  0.08518133  0.86049511  0.31112380  1.0
  Ni  Ni1218  1  0.41851467  0.19382844  0.31112380  1.0
  Ni  Ni1219  1  0.41851467  0.52716178  0.31112380  1.0
  Ni  Ni1220  1  0.41851467  0.86049511  0.31112380  1.0
  Ni  Ni1221  1  0.75184800  0.19382844  0.31112380  1.0
  Ni  Ni1222  1  0.75184800  0.52716178  0.31112380  1.0
  Ni  Ni1223  1  0.75184800  0.86049511  0.31112380  1.0
  Ni  Ni1224  1  0.26450489  0.20648533  0.38797676  1.0
  Ni  Ni1225  1  0.26450489  0.53981867  0.38797676  1.0
  Ni  Ni1226  1  0.26450489  0.87315200  0.38797676  1.0
  Ni  Ni1227  1  0.59783822  0.20648533  0.38797676  1.0
  Ni  Ni1228  1  0.59783822  0.53981867  0.38797676  1.0
  Ni  Ni1229  1  0.59783822  0.87315200  0.38797676  1.0
  Ni  Ni1230  1  0.93117156  0.20648533  0.38797676  1.0
  Ni  Ni1231  1  0.93117155  0.53981867  0.38797676  1.0
  Ni  Ni1232  1  0.93117155  0.87315200  0.38797676  1.0
  Ni  Ni1233  1  0.09783822  0.03981867  0.31654818  1.0
  Ni  Ni1234  1  0.09783822  0.37315200  0.31654818  1.0
  Ni  Ni1235  1  0.09783822  0.70648533  0.31654818  1.0
  Ni  Ni1236  1  0.43117156  0.03981867  0.31654818  1.0
  Ni  Ni1237  1  0.43117155  0.37315200  0.31654818  1.0
  Ni  Ni1238  1  0.43117156  0.70648533  0.31654818  1.0
  Ni  Ni1239  1  0.76450489  0.03981867  0.31654818  1.0
  Ni  Ni1240  1  0.76450489  0.37315200  0.31654818  1.0
  Ni  Ni1241  1  0.76450489  0.70648533  0.31654818  1.0
  Ni  Ni1242  1  0.26450489  0.20648533  0.29485066  1.0
  Ni  Ni1243  1  0.26450489  0.53981867  0.29485066  1.0
  Ni  Ni1244  1  0.26450489  0.87315200  0.29485066  1.0
  Ni  Ni1245  1  0.59783822  0.20648533  0.29485066  1.0
  Ni  Ni1246  1  0.59783822  0.53981867  0.29485066  1.0
  Ni  Ni1247  1  0.59783822  0.87315200  0.29485066  1.0
  Ni  Ni1248  1  0.93117156  0.20648533  0.29485066  1.0
  Ni  Ni1249  1  0.93117155  0.53981867  0.29485066  1.0
  Ni  Ni1250  1  0.93117155  0.87315200  0.29485066  1.0
  Ni  Ni1251  1  0.09783822  0.03981867  0.36627923  1.0
  Ni  Ni1252  1  0.09783822  0.37315200  0.36627923  1.0
  Ni  Ni1253  1  0.09783822  0.70648533  0.36627923  1.0
  Ni  Ni1254  1  0.43117156  0.03981867  0.36627923  1.0
  Ni  Ni1255  1  0.43117155  0.37315200  0.36627923  1.0
  Ni  Ni1256  1  0.43117156  0.70648533  0.36627923  1.0
  Ni  Ni1257  1  0.76450489  0.03981867  0.36627923  1.0
  Ni  Ni1258  1  0.76450489  0.37315200  0.36627923  1.0
  Ni  Ni1259  1  0.76450489  0.70648533  0.36627923  1.0
  Ni  Ni1260  1  0.20648533  0.26450489  0.36311123  1.0
  Ni  Ni1261  1  0.20648533  0.59783822  0.36311123  1.0
  Ni  Ni1262  1  0.20648533  0.93117156  0.36311123  1.0
  Ni  Ni1263  1  0.53981867  0.26450489  0.36311123  1.0
  Ni  Ni1264  1  0.53981867  0.59783822  0.36311123  1.0
  Ni  Ni1265  1  0.53981867  0.93117156  0.36311123  1.0
  Ni  Ni1266  1  0.87315200  0.26450489  0.36311123  1.0
  Ni  Ni1267  1  0.87315200  0.59783822  0.36311123  1.0
  Ni  Ni1268  1  0.87315200  0.93117156  0.36311123  1.0
  Ni  Ni1269  1  0.03981867  0.09783822  0.29168266  1.0
  Ni  Ni1270  1  0.03981867  0.43117156  0.29168266  1.0
  Ni  Ni1271  1  0.03981867  0.76450489  0.29168266  1.0
  Ni  Ni1272  1  0.37315200  0.09783822  0.29168266  1.0
  Ni  Ni1273  1  0.37315200  0.43117156  0.29168266  1.0
  Ni  Ni1274  1  0.37315200  0.76450489  0.29168266  1.0
  Ni  Ni1275  1  0.70648533  0.09783822  0.29168266  1.0
  Ni  Ni1276  1  0.70648533  0.43117156  0.29168266  1.0
  Ni  Ni1277  1  0.70648533  0.76450489  0.29168266  1.0
  Ni  Ni1278  1  0.26450489  0.32252444  0.33824571  1.0
  Ni  Ni1279  1  0.26450489  0.65585778  0.33824571  1.0
  Ni  Ni1280  1  0.26450489  0.98919111  0.33824571  1.0
  Ni  Ni1281  1  0.59783822  0.32252444  0.33824571  1.0
  Ni  Ni1282  1  0.59783822  0.65585778  0.33824571  1.0
  Ni  Ni1283  1  0.59783822  0.98919111  0.33824571  1.0
  Ni  Ni1284  1  0.93117156  0.32252444  0.33824571  1.0
  Ni  Ni1285  1  0.93117155  0.65585778  0.33824571  1.0
  Ni  Ni1286  1  0.93117155  0.98919111  0.33824571  1.0
  Ni  Ni1287  1  0.09783822  0.15585778  0.40967428  1.0
  Ni  Ni1288  1  0.09783822  0.48919111  0.40967428  1.0
  Ni  Ni1289  1  0.09783822  0.82252444  0.40967428  1.0
  Ni  Ni1290  1  0.43117155  0.15585778  0.40967428  1.0
  Ni  Ni1291  1  0.43117156  0.48919111  0.40967428  1.0
  Ni  Ni1292  1  0.43117155  0.82252444  0.40967428  1.0
  Ni  Ni1293  1  0.76450489  0.15585778  0.40967428  1.0
  Ni  Ni1294  1  0.76450489  0.48919111  0.40967428  1.0
  Ni  Ni1295  1  0.76450489  0.82252444  0.40967428  1.0
