# generated using pymatgen
data_Sc2Ni
_symmetry_space_group_name_H-M   'P 1'
_cell_length_a   25.64981766
_cell_length_b   36.27432001
_cell_length_c   34.19975688
_cell_angle_alpha   90.00000000
_cell_angle_beta   90.00000000
_cell_angle_gamma   90.00000000
_symmetry_Int_Tables_number   1
_chemical_formula_structural   Sc2Ni
_chemical_formula_sum   'Sc576 Ni288'
_cell_volume   31820.46932615
_cell_formula_units_Z   288
loop_
 _symmetry_equiv_pos_site_id
 _symmetry_equiv_pos_as_xyz
  1  'x, y, z'
loop_
 _atom_site_type_symbol
 _atom_site_label
 _atom_site_symmetry_multiplicity
 _atom_site_fract_x
 _atom_site_fract_y
 _atom_site_fract_z
 _atom_site_occupancy
  Ni  Ni0  1  0.00000000  0.27900978  0.85324267  1.0
  Ni  Ni1  1  0.00000000  0.61234311  0.85324267  1.0
  Ni  Ni2  1  0.00000000  0.94567644  0.85324267  1.0
  Ni  Ni3  1  0.33333333  0.27900978  0.85324267  1.0
  Ni  Ni4  1  0.33333333  0.61234311  0.85324267  1.0
  Ni  Ni5  1  0.33333333  0.94567644  0.85324267  1.0
  Ni  Ni6  1  0.66666667  0.27900978  0.85324267  1.0
  Ni  Ni7  1  0.66666667  0.61234311  0.85324267  1.0
  Ni  Ni8  1  0.66666667  0.94567644  0.85324267  1.0
  Ni  Ni9  1  0.16666667  0.11234311  0.97824267  1.0
  Ni  Ni10  1  0.16666667  0.44567644  0.97824267  1.0
  Ni  Ni11  1  0.16666667  0.77900978  0.97824267  1.0
  Ni  Ni12  1  0.50000000  0.11234311  0.97824267  1.0
  Ni  Ni13  1  0.50000000  0.44567644  0.97824267  1.0
  Ni  Ni14  1  0.50000000  0.77900978  0.97824267  1.0
  Ni  Ni15  1  0.83333333  0.11234311  0.97824267  1.0
  Ni  Ni16  1  0.83333333  0.44567644  0.97824267  1.0
  Ni  Ni17  1  0.83333333  0.77900978  0.97824267  1.0
  Ni  Ni18  1  0.27531378  0.22099022  0.89675734  1.0
  Ni  Ni19  1  0.27531378  0.55432356  0.89675734  1.0
  Ni  Ni20  1  0.27531378  0.88765689  0.89675734  1.0
  Ni  Ni21  1  0.60864711  0.22099022  0.89675734  1.0
  Ni  Ni22  1  0.60864711  0.55432356  0.89675734  1.0
  Ni  Ni23  1  0.60864711  0.88765689  0.89675734  1.0
  Ni  Ni24  1  0.94198044  0.22099022  0.89675734  1.0
  Ni  Ni25  1  0.94198044  0.55432356  0.89675734  1.0
  Ni  Ni26  1  0.94198045  0.88765689  0.89675734  1.0
  Ni  Ni27  1  0.10864711  0.05432356  0.77175734  1.0
  Ni  Ni28  1  0.10864711  0.38765689  0.77175734  1.0
  Ni  Ni29  1  0.10864711  0.72099022  0.77175734  1.0
  Ni  Ni30  1  0.44198045  0.05432356  0.77175734  1.0
  Ni  Ni31  1  0.44198045  0.38765689  0.77175734  1.0
  Ni  Ni32  1  0.44198044  0.72099022  0.77175734  1.0
  Ni  Ni33  1  0.77531378  0.05432356  0.77175734  1.0
  Ni  Ni34  1  0.77531378  0.38765689  0.77175734  1.0
  Ni  Ni35  1  0.77531378  0.72099022  0.77175734  1.0
  Ni  Ni36  1  0.00000000  0.27900978  0.94027200  1.0
  Ni  Ni37  1  0.00000000  0.61234311  0.94027200  1.0
  Ni  Ni38  1  0.00000000  0.94567644  0.94027200  1.0
  Ni  Ni39  1  0.33333333  0.27900978  0.94027200  1.0
  Ni  Ni40  1  0.33333333  0.61234311  0.94027200  1.0
  Ni  Ni41  1  0.33333333  0.94567644  0.94027200  1.0
  Ni  Ni42  1  0.66666667  0.27900978  0.94027200  1.0
  Ni  Ni43  1  0.66666667  0.61234311  0.94027200  1.0
  Ni  Ni44  1  0.66666667  0.94567644  0.94027200  1.0
  Ni  Ni45  1  0.16666667  0.11234311  0.81527200  1.0
  Ni  Ni46  1  0.16666667  0.44567644  0.81527200  1.0
  Ni  Ni47  1  0.16666667  0.77900978  0.81527200  1.0
  Ni  Ni48  1  0.50000000  0.11234311  0.81527200  1.0
  Ni  Ni49  1  0.50000000  0.44567644  0.81527200  1.0
  Ni  Ni50  1  0.50000000  0.77900978  0.81527200  1.0
  Ni  Ni51  1  0.83333333  0.11234311  0.81527200  1.0
  Ni  Ni52  1  0.83333333  0.44567644  0.81527200  1.0
  Ni  Ni53  1  0.83333333  0.77900978  0.81527200  1.0
  Ni  Ni54  1  0.05801956  0.22099022  0.89675734  1.0
  Ni  Ni55  1  0.05801956  0.55432356  0.89675734  1.0
  Ni  Ni56  1  0.05801956  0.88765689  0.89675734  1.0
  Ni  Ni57  1  0.39135289  0.22099022  0.89675734  1.0
  Ni  Ni58  1  0.39135289  0.55432356  0.89675734  1.0
  Ni  Ni59  1  0.39135289  0.88765689  0.89675734  1.0
  Ni  Ni60  1  0.72468622  0.22099022  0.89675734  1.0
  Ni  Ni61  1  0.72468622  0.55432356  0.89675734  1.0
  Ni  Ni62  1  0.72468622  0.88765689  0.89675734  1.0
  Ni  Ni63  1  0.22468622  0.05432356  0.77175734  1.0
  Ni  Ni64  1  0.22468622  0.38765689  0.77175734  1.0
  Ni  Ni65  1  0.22468622  0.72099022  0.77175734  1.0
  Ni  Ni66  1  0.55801956  0.05432356  0.77175734  1.0
  Ni  Ni67  1  0.55801956  0.38765689  0.77175734  1.0
  Ni  Ni68  1  0.55801956  0.72099022  0.77175734  1.0
  Ni  Ni69  1  0.89135289  0.05432356  0.77175734  1.0
  Ni  Ni70  1  0.89135289  0.38765689  0.77175734  1.0
  Ni  Ni71  1  0.89135289  0.72099022  0.77175734  1.0
  Ni  Ni72  1  0.33333333  0.13765689  0.81527200  1.0
  Ni  Ni73  1  0.33333333  0.47099022  0.81527200  1.0
  Ni  Ni74  1  0.33333333  0.80432356  0.81527200  1.0
  Ni  Ni75  1  0.66666667  0.13765689  0.81527200  1.0
  Ni  Ni76  1  0.66666667  0.47099022  0.81527200  1.0
  Ni  Ni77  1  0.66666667  0.80432356  0.81527200  1.0
  Ni  Ni78  1  1.00000000  0.13765689  0.81527200  1.0
  Ni  Ni79  1  1.00000000  0.47099022  0.81527200  1.0
  Ni  Ni80  1  0.00000000  0.80432356  0.81527200  1.0
  Ni  Ni81  1  0.16666667  0.30432356  0.94027200  1.0
  Ni  Ni82  1  0.16666667  0.63765689  0.94027200  1.0
  Ni  Ni83  1  0.16666667  0.97099022  0.94027200  1.0
  Ni  Ni84  1  0.50000000  0.30432356  0.94027200  1.0
  Ni  Ni85  1  0.50000000  0.63765689  0.94027200  1.0
  Ni  Ni86  1  0.50000000  0.97099022  0.94027200  1.0
  Ni  Ni87  1  0.83333333  0.30432356  0.94027200  1.0
  Ni  Ni88  1  0.83333333  0.63765689  0.94027200  1.0
  Ni  Ni89  1  0.83333333  0.97099022  0.94027200  1.0
  Ni  Ni90  1  0.05801956  0.19567645  0.77175733  1.0
  Ni  Ni91  1  0.05801956  0.52900978  0.77175733  1.0
  Ni  Ni92  1  0.05801956  0.86234311  0.77175733  1.0
  Ni  Ni93  1  0.39135289  0.19567645  0.77175733  1.0
  Ni  Ni94  1  0.39135289  0.52900978  0.77175733  1.0
  Ni  Ni95  1  0.39135289  0.86234311  0.77175733  1.0
  Ni  Ni96  1  0.72468622  0.19567645  0.77175733  1.0
  Ni  Ni97  1  0.72468622  0.52900978  0.77175733  1.0
  Ni  Ni98  1  0.72468622  0.86234311  0.77175733  1.0
  Ni  Ni99  1  0.22468622  0.02900978  0.89675733  1.0
  Ni  Ni100  1  0.22468622  0.36234311  0.89675733  1.0
  Ni  Ni101  1  0.22468622  0.69567645  0.89675733  1.0
  Ni  Ni102  1  0.55801956  0.02900978  0.89675733  1.0
  Ni  Ni103  1  0.55801956  0.36234311  0.89675733  1.0
  Ni  Ni104  1  0.55801956  0.69567645  0.89675733  1.0
  Ni  Ni105  1  0.89135289  0.02900978  0.89675733  1.0
  Ni  Ni106  1  0.89135289  0.36234311  0.89675733  1.0
  Ni  Ni107  1  0.89135289  0.69567645  0.89675733  1.0
  Ni  Ni108  1  0.27531378  0.19567645  0.77175733  1.0
  Ni  Ni109  1  0.27531378  0.52900978  0.77175733  1.0
  Ni  Ni110  1  0.27531378  0.86234311  0.77175733  1.0
  Ni  Ni111  1  0.60864711  0.19567645  0.77175733  1.0
  Ni  Ni112  1  0.60864711  0.52900978  0.77175733  1.0
  Ni  Ni113  1  0.60864711  0.86234311  0.77175733  1.0
  Ni  Ni114  1  0.94198045  0.19567645  0.77175733  1.0
  Ni  Ni115  1  0.94198045  0.52900978  0.77175733  1.0
  Ni  Ni116  1  0.94198045  0.86234311  0.77175733  1.0
  Ni  Ni117  1  0.10864711  0.02900978  0.89675733  1.0
  Ni  Ni118  1  0.10864711  0.36234311  0.89675733  1.0
  Ni  Ni119  1  0.10864711  0.69567645  0.89675733  1.0
  Ni  Ni120  1  0.44198045  0.02900978  0.89675733  1.0
  Ni  Ni121  1  0.44198045  0.36234311  0.89675733  1.0
  Ni  Ni122  1  0.44198045  0.69567645  0.89675733  1.0
  Ni  Ni123  1  0.77531378  0.02900978  0.89675733  1.0
  Ni  Ni124  1  0.77531378  0.36234311  0.89675733  1.0
  Ni  Ni125  1  0.77531378  0.69567645  0.89675733  1.0
  Ni  Ni126  1  0.00000000  0.13765689  0.97824267  1.0
  Ni  Ni127  1  0.00000000  0.47099022  0.97824267  1.0
  Ni  Ni128  1  0.00000000  0.80432356  0.97824267  1.0
  Ni  Ni129  1  0.33333333  0.13765689  0.97824267  1.0
  Ni  Ni130  1  0.33333333  0.47099022  0.97824267  1.0
  Ni  Ni131  1  0.33333333  0.80432356  0.97824267  1.0
  Ni  Ni132  1  0.66666667  0.13765689  0.97824267  1.0
  Ni  Ni133  1  0.66666667  0.47099022  0.97824267  1.0
  Ni  Ni134  1  0.66666667  0.80432356  0.97824267  1.0
  Ni  Ni135  1  0.16666667  0.30432356  0.85324267  1.0
  Ni  Ni136  1  0.16666667  0.63765689  0.85324267  1.0
  Ni  Ni137  1  0.16666667  0.97099022  0.85324267  1.0
  Ni  Ni138  1  0.50000000  0.30432356  0.85324267  1.0
  Ni  Ni139  1  0.50000000  0.63765689  0.85324267  1.0
  Ni  Ni140  1  0.50000000  0.97099022  0.85324267  1.0
  Ni  Ni141  1  0.83333333  0.30432356  0.85324267  1.0
  Ni  Ni142  1  0.83333333  0.63765689  0.85324267  1.0
  Ni  Ni143  1  0.83333333  0.97099022  0.85324267  1.0
  Ni  Ni144  1  0.00000000  0.27900978  0.60324267  1.0
  Ni  Ni145  1  0.00000000  0.61234311  0.60324267  1.0
  Ni  Ni146  1  0.00000000  0.94567644  0.60324267  1.0
  Ni  Ni147  1  0.33333333  0.27900978  0.60324267  1.0
  Ni  Ni148  1  0.33333333  0.61234311  0.60324267  1.0
  Ni  Ni149  1  0.33333333  0.94567644  0.60324267  1.0
  Ni  Ni150  1  0.66666667  0.27900978  0.60324267  1.0
  Ni  Ni151  1  0.66666667  0.61234311  0.60324267  1.0
  Ni  Ni152  1  0.66666667  0.94567644  0.60324267  1.0
  Ni  Ni153  1  0.16666667  0.11234311  0.72824267  1.0
  Ni  Ni154  1  0.16666667  0.44567644  0.72824267  1.0
  Ni  Ni155  1  0.16666667  0.77900978  0.72824267  1.0
  Ni  Ni156  1  0.50000000  0.11234311  0.72824267  1.0
  Ni  Ni157  1  0.50000000  0.44567644  0.72824267  1.0
  Ni  Ni158  1  0.50000000  0.77900978  0.72824267  1.0
  Ni  Ni159  1  0.83333333  0.11234311  0.72824267  1.0
  Ni  Ni160  1  0.83333333  0.44567644  0.72824267  1.0
  Ni  Ni161  1  0.83333333  0.77900978  0.72824267  1.0
  Ni  Ni162  1  0.27531378  0.22099022  0.64675734  1.0
  Ni  Ni163  1  0.27531378  0.55432356  0.64675734  1.0
  Ni  Ni164  1  0.27531378  0.88765689  0.64675734  1.0
  Ni  Ni165  1  0.60864711  0.22099022  0.64675734  1.0
  Ni  Ni166  1  0.60864711  0.55432356  0.64675734  1.0
  Ni  Ni167  1  0.60864711  0.88765689  0.64675734  1.0
  Ni  Ni168  1  0.94198044  0.22099022  0.64675734  1.0
  Ni  Ni169  1  0.94198044  0.55432356  0.64675734  1.0
  Ni  Ni170  1  0.94198045  0.88765689  0.64675734  1.0
  Ni  Ni171  1  0.10864711  0.05432356  0.52175734  1.0
  Ni  Ni172  1  0.10864711  0.38765689  0.52175734  1.0
  Ni  Ni173  1  0.10864711  0.72099022  0.52175734  1.0
  Ni  Ni174  1  0.44198044  0.05432356  0.52175734  1.0
  Ni  Ni175  1  0.44198045  0.38765689  0.52175734  1.0
  Ni  Ni176  1  0.44198044  0.72099022  0.52175734  1.0
  Ni  Ni177  1  0.77531378  0.05432356  0.52175734  1.0
  Ni  Ni178  1  0.77531378  0.38765689  0.52175734  1.0
  Ni  Ni179  1  0.77531378  0.72099022  0.52175734  1.0
  Ni  Ni180  1  0.00000000  0.27900978  0.69027200  1.0
  Ni  Ni181  1  0.00000000  0.61234311  0.69027200  1.0
  Ni  Ni182  1  0.00000000  0.94567644  0.69027200  1.0
  Ni  Ni183  1  0.33333333  0.27900978  0.69027200  1.0
  Ni  Ni184  1  0.33333333  0.61234311  0.69027200  1.0
  Ni  Ni185  1  0.33333333  0.94567644  0.69027200  1.0
  Ni  Ni186  1  0.66666667  0.27900978  0.69027200  1.0
  Ni  Ni187  1  0.66666667  0.61234311  0.69027200  1.0
  Ni  Ni188  1  0.66666667  0.94567644  0.69027200  1.0
  Ni  Ni189  1  0.16666667  0.11234311  0.56527200  1.0
  Ni  Ni190  1  0.16666667  0.44567644  0.56527200  1.0
  Ni  Ni191  1  0.16666667  0.77900978  0.56527200  1.0
  Ni  Ni192  1  0.50000000  0.11234311  0.56527200  1.0
  Ni  Ni193  1  0.50000000  0.44567644  0.56527200  1.0
  Ni  Ni194  1  0.50000000  0.77900978  0.56527200  1.0
  Ni  Ni195  1  0.83333333  0.11234311  0.56527200  1.0
  Ni  Ni196  1  0.83333333  0.44567644  0.56527200  1.0
  Ni  Ni197  1  0.83333333  0.77900978  0.56527200  1.0
  Ni  Ni198  1  0.05801956  0.22099022  0.64675734  1.0
  Ni  Ni199  1  0.05801956  0.55432356  0.64675734  1.0
  Ni  Ni200  1  0.05801956  0.88765689  0.64675734  1.0
  Ni  Ni201  1  0.39135289  0.22099022  0.64675734  1.0
  Ni  Ni202  1  0.39135289  0.55432356  0.64675734  1.0
  Ni  Ni203  1  0.39135289  0.88765689  0.64675734  1.0
  Ni  Ni204  1  0.72468622  0.22099022  0.64675734  1.0
  Ni  Ni205  1  0.72468622  0.55432356  0.64675734  1.0
  Ni  Ni206  1  0.72468622  0.88765689  0.64675734  1.0
  Ni  Ni207  1  0.22468622  0.05432356  0.52175734  1.0
  Ni  Ni208  1  0.22468622  0.38765689  0.52175734  1.0
  Ni  Ni209  1  0.22468622  0.72099022  0.52175734  1.0
  Ni  Ni210  1  0.55801956  0.05432356  0.52175734  1.0
  Ni  Ni211  1  0.55801956  0.38765689  0.52175734  1.0
  Ni  Ni212  1  0.55801956  0.72099022  0.52175734  1.0
  Ni  Ni213  1  0.89135289  0.05432356  0.52175734  1.0
  Ni  Ni214  1  0.89135289  0.38765689  0.52175734  1.0
  Ni  Ni215  1  0.89135289  0.72099022  0.52175734  1.0
  Ni  Ni216  1  0.00000000  0.13765689  0.56527200  1.0
  Ni  Ni217  1  0.00000000  0.47099022  0.56527200  1.0
  Ni  Ni218  1  0.00000000  0.80432356  0.56527200  1.0
  Ni  Ni219  1  0.33333333  0.13765689  0.56527200  1.0
  Ni  Ni220  1  0.33333333  0.47099022  0.56527200  1.0
  Ni  Ni221  1  0.33333333  0.80432356  0.56527200  1.0
  Ni  Ni222  1  0.66666667  0.13765689  0.56527200  1.0
  Ni  Ni223  1  0.66666667  0.47099022  0.56527200  1.0
  Ni  Ni224  1  0.66666667  0.80432356  0.56527200  1.0
  Ni  Ni225  1  0.16666667  0.30432356  0.69027200  1.0
  Ni  Ni226  1  0.16666667  0.63765689  0.69027200  1.0
  Ni  Ni227  1  0.16666667  0.97099022  0.69027200  1.0
  Ni  Ni228  1  0.50000000  0.30432356  0.69027200  1.0
  Ni  Ni229  1  0.50000000  0.63765689  0.69027200  1.0
  Ni  Ni230  1  0.50000000  0.97099022  0.69027200  1.0
  Ni  Ni231  1  0.83333333  0.30432356  0.69027200  1.0
  Ni  Ni232  1  0.83333333  0.63765689  0.69027200  1.0
  Ni  Ni233  1  0.83333333  0.97099022  0.69027200  1.0
  Ni  Ni234  1  0.05801956  0.19567645  0.52175733  1.0
  Ni  Ni235  1  0.05801956  0.52900978  0.52175733  1.0
  Ni  Ni236  1  0.05801956  0.86234311  0.52175733  1.0
  Ni  Ni237  1  0.39135289  0.19567645  0.52175733  1.0
  Ni  Ni238  1  0.39135289  0.52900978  0.52175733  1.0
  Ni  Ni239  1  0.39135289  0.86234311  0.52175733  1.0
  Ni  Ni240  1  0.72468622  0.19567645  0.52175733  1.0
  Ni  Ni241  1  0.72468622  0.52900978  0.52175733  1.0
  Ni  Ni242  1  0.72468622  0.86234311  0.52175733  1.0
  Ni  Ni243  1  0.22468622  0.02900978  0.64675733  1.0
  Ni  Ni244  1  0.22468622  0.36234311  0.64675733  1.0
  Ni  Ni245  1  0.22468622  0.69567645  0.64675733  1.0
  Ni  Ni246  1  0.55801956  0.02900978  0.64675733  1.0
  Ni  Ni247  1  0.55801956  0.36234311  0.64675733  1.0
  Ni  Ni248  1  0.55801956  0.69567645  0.64675733  1.0
  Ni  Ni249  1  0.89135289  0.02900978  0.64675733  1.0
  Ni  Ni250  1  0.89135289  0.36234311  0.64675733  1.0
  Ni  Ni251  1  0.89135289  0.69567645  0.64675733  1.0
  Ni  Ni252  1  0.27531378  0.19567645  0.52175733  1.0
  Ni  Ni253  1  0.27531378  0.52900978  0.52175733  1.0
  Ni  Ni254  1  0.27531378  0.86234311  0.52175733  1.0
  Ni  Ni255  1  0.60864711  0.19567645  0.52175733  1.0
  Ni  Ni256  1  0.60864711  0.52900978  0.52175733  1.0
  Ni  Ni257  1  0.60864711  0.86234311  0.52175733  1.0
  Ni  Ni258  1  0.94198045  0.19567645  0.52175733  1.0
  Ni  Ni259  1  0.94198045  0.52900978  0.52175733  1.0
  Ni  Ni260  1  0.94198045  0.86234311  0.52175733  1.0
  Ni  Ni261  1  0.10864711  0.02900978  0.64675733  1.0
  Ni  Ni262  1  0.10864711  0.36234311  0.64675733  1.0
  Ni  Ni263  1  0.10864711  0.69567645  0.64675733  1.0
  Ni  Ni264  1  0.44198045  0.02900978  0.64675733  1.0
  Ni  Ni265  1  0.44198045  0.36234311  0.64675733  1.0
  Ni  Ni266  1  0.44198045  0.69567645  0.64675733  1.0
  Ni  Ni267  1  0.77531378  0.02900978  0.64675733  1.0
  Ni  Ni268  1  0.77531378  0.36234311  0.64675733  1.0
  Ni  Ni269  1  0.77531378  0.69567645  0.64675733  1.0
  Ni  Ni270  1  0.00000000  0.13765689  0.72824267  1.0
  Ni  Ni271  1  0.00000000  0.47099022  0.72824267  1.0
  Ni  Ni272  1  0.00000000  0.80432356  0.72824267  1.0
  Ni  Ni273  1  0.33333333  0.13765689  0.72824267  1.0
  Ni  Ni274  1  0.33333333  0.47099022  0.72824267  1.0
  Ni  Ni275  1  0.33333333  0.80432356  0.72824267  1.0
  Ni  Ni276  1  0.66666667  0.13765689  0.72824267  1.0
  Ni  Ni277  1  0.66666667  0.47099022  0.72824267  1.0
  Ni  Ni278  1  0.66666667  0.80432356  0.72824267  1.0
  Ni  Ni279  1  0.16666667  0.30432356  0.60324267  1.0
  Ni  Ni280  1  0.16666667  0.63765689  0.60324267  1.0
  Ni  Ni281  1  0.16666667  0.97099022  0.60324267  1.0
  Ni  Ni282  1  0.50000000  0.30432356  0.60324267  1.0
  Ni  Ni283  1  0.50000000  0.63765689  0.60324267  1.0
  Ni  Ni284  1  0.50000000  0.97099022  0.60324267  1.0
  Ni  Ni285  1  0.83333333  0.30432356  0.60324267  1.0
  Ni  Ni286  1  0.83333333  0.63765689  0.60324267  1.0
  Ni  Ni287  1  0.83333333  0.97099022  0.60324267  1.0
  Sc  Sc288  1  0.00000000  0.20833333  0.95925733  1.0
  Sc  Sc289  1  0.00000000  0.54166667  0.95925733  1.0
  Sc  Sc290  1  0.00000000  0.87500000  0.95925733  1.0
  Sc  Sc291  1  0.33333333  0.20833333  0.95925733  1.0
  Sc  Sc292  1  0.33333333  0.54166667  0.95925733  1.0
  Sc  Sc293  1  0.33333333  0.87500000  0.95925733  1.0
  Sc  Sc294  1  0.66666667  0.20833333  0.95925733  1.0
  Sc  Sc295  1  0.66666667  0.54166667  0.95925733  1.0
  Sc  Sc296  1  0.66666667  0.87500000  0.95925733  1.0
  Sc  Sc297  1  0.16666667  0.04166667  0.83425733  1.0
  Sc  Sc298  1  0.16666667  0.37500000  0.83425733  1.0
  Sc  Sc299  1  0.16666667  0.70833333  0.83425733  1.0
  Sc  Sc300  1  0.50000000  0.04166667  0.83425733  1.0
  Sc  Sc301  1  0.50000000  0.37500000  0.83425733  1.0
  Sc  Sc302  1  0.50000000  0.70833333  0.83425733  1.0
  Sc  Sc303  1  0.83333333  0.04166667  0.83425733  1.0
  Sc  Sc304  1  0.83333333  0.37500000  0.83425733  1.0
  Sc  Sc305  1  0.83333333  0.70833333  0.83425733  1.0
  Sc  Sc306  1  0.25000000  0.12500000  0.77175733  1.0
  Sc  Sc307  1  0.25000000  0.45833333  0.77175733  1.0
  Sc  Sc308  1  0.25000000  0.79166667  0.77175733  1.0
  Sc  Sc309  1  0.58333333  0.12500000  0.77175733  1.0
  Sc  Sc310  1  0.58333333  0.45833333  0.77175733  1.0
  Sc  Sc311  1  0.58333333  0.79166667  0.77175733  1.0
  Sc  Sc312  1  0.91666667  0.12500000  0.77175733  1.0
  Sc  Sc313  1  0.91666667  0.45833333  0.77175733  1.0
  Sc  Sc314  1  0.91666667  0.79166667  0.77175733  1.0
  Sc  Sc315  1  0.08333333  0.29166667  0.89675733  1.0
  Sc  Sc316  1  0.08333333  0.62500000  0.89675733  1.0
  Sc  Sc317  1  0.08333333  0.95833333  0.89675733  1.0
  Sc  Sc318  1  0.41666667  0.29166667  0.89675733  1.0
  Sc  Sc319  1  0.41666667  0.62500000  0.89675733  1.0
  Sc  Sc320  1  0.41666667  0.95833333  0.89675733  1.0
  Sc  Sc321  1  0.75000000  0.29166667  0.89675733  1.0
  Sc  Sc322  1  0.75000000  0.62500000  0.89675733  1.0
  Sc  Sc323  1  0.75000000  0.95833333  0.89675733  1.0
  Sc  Sc324  1  0.33333333  0.20833333  0.83425733  1.0
  Sc  Sc325  1  0.33333333  0.54166667  0.83425733  1.0
  Sc  Sc326  1  0.33333333  0.87500000  0.83425733  1.0
  Sc  Sc327  1  0.66666667  0.20833333  0.83425733  1.0
  Sc  Sc328  1  0.66666667  0.54166667  0.83425733  1.0
  Sc  Sc329  1  0.66666667  0.87500000  0.83425733  1.0
  Sc  Sc330  1  0.00000000  0.20833333  0.83425733  1.0
  Sc  Sc331  1  0.00000000  0.54166667  0.83425733  1.0
  Sc  Sc332  1  0.00000000  0.87500000  0.83425733  1.0
  Sc  Sc333  1  0.16666667  0.04166667  0.95925733  1.0
  Sc  Sc334  1  0.16666667  0.37500000  0.95925733  1.0
  Sc  Sc335  1  0.16666667  0.70833333  0.95925733  1.0
  Sc  Sc336  1  0.50000000  0.04166667  0.95925733  1.0
  Sc  Sc337  1  0.50000000  0.37500000  0.95925733  1.0
  Sc  Sc338  1  0.50000000  0.70833333  0.95925733  1.0
  Sc  Sc339  1  0.83333333  0.04166667  0.95925733  1.0
  Sc  Sc340  1  0.83333333  0.37500000  0.95925733  1.0
  Sc  Sc341  1  0.83333333  0.70833333  0.95925733  1.0
  Sc  Sc342  1  0.08333333  0.12500000  0.77175733  1.0
  Sc  Sc343  1  0.08333333  0.45833333  0.77175733  1.0
  Sc  Sc344  1  0.08333333  0.79166667  0.77175733  1.0
  Sc  Sc345  1  0.41666667  0.12500000  0.77175733  1.0
  Sc  Sc346  1  0.41666667  0.45833333  0.77175733  1.0
  Sc  Sc347  1  0.41666667  0.79166667  0.77175733  1.0
  Sc  Sc348  1  0.75000000  0.12500000  0.77175733  1.0
  Sc  Sc349  1  0.75000000  0.45833333  0.77175733  1.0
  Sc  Sc350  1  0.75000000  0.79166667  0.77175733  1.0
  Sc  Sc351  1  0.25000000  0.29166667  0.89675733  1.0
  Sc  Sc352  1  0.25000000  0.62500000  0.89675733  1.0
  Sc  Sc353  1  0.25000000  0.95833333  0.89675733  1.0
  Sc  Sc354  1  0.58333333  0.29166667  0.89675733  1.0
  Sc  Sc355  1  0.58333333  0.62500000  0.89675733  1.0
  Sc  Sc356  1  0.58333333  0.95833333  0.89675733  1.0
  Sc  Sc357  1  0.91666667  0.29166667  0.89675733  1.0
  Sc  Sc358  1  0.91666667  0.62500000  0.89675733  1.0
  Sc  Sc359  1  0.91666667  0.95833333  0.89675733  1.0
  Sc  Sc360  1  0.00000000  0.02145317  0.89675733  1.0
  Sc  Sc361  1  0.00000000  0.35478650  0.89675733  1.0
  Sc  Sc362  1  0.00000000  0.68811983  0.89675733  1.0
  Sc  Sc363  1  0.33333333  0.02145317  0.89675733  1.0
  Sc  Sc364  1  0.33333333  0.35478650  0.89675733  1.0
  Sc  Sc365  1  0.33333333  0.68811983  0.89675733  1.0
  Sc  Sc366  1  0.66666667  0.02145317  0.89675733  1.0
  Sc  Sc367  1  0.66666667  0.35478650  0.89675733  1.0
  Sc  Sc368  1  0.66666667  0.68811983  0.89675733  1.0
  Sc  Sc369  1  0.16666667  0.18811983  0.77175733  1.0
  Sc  Sc370  1  0.16666667  0.52145317  0.77175733  1.0
  Sc  Sc371  1  0.16666667  0.85478650  0.77175733  1.0
  Sc  Sc372  1  0.50000000  0.18811983  0.77175733  1.0
  Sc  Sc373  1  0.50000000  0.52145317  0.77175733  1.0
  Sc  Sc374  1  0.50000000  0.85478650  0.77175733  1.0
  Sc  Sc375  1  0.83333333  0.18811983  0.77175733  1.0
  Sc  Sc376  1  0.83333333  0.52145317  0.77175733  1.0
  Sc  Sc377  1  0.83333333  0.85478650  0.77175733  1.0
  Sc  Sc378  1  0.33333333  0.14521350  0.89675733  1.0
  Sc  Sc379  1  0.33333333  0.47854683  0.89675733  1.0
  Sc  Sc380  1  0.33333333  0.81188017  0.89675733  1.0
  Sc  Sc381  1  0.66666667  0.14521350  0.89675733  1.0
  Sc  Sc382  1  0.66666667  0.47854683  0.89675733  1.0
  Sc  Sc383  1  0.66666667  0.81188017  0.89675733  1.0
  Sc  Sc384  1  0.00000000  0.14521350  0.89675733  1.0
  Sc  Sc385  1  0.00000000  0.47854683  0.89675733  1.0
  Sc  Sc386  1  0.00000000  0.81188017  0.89675733  1.0
  Sc  Sc387  1  0.16666667  0.31188017  0.77175733  1.0
  Sc  Sc388  1  0.16666667  0.64521350  0.77175733  1.0
  Sc  Sc389  1  0.16666667  0.97854683  0.77175733  1.0
  Sc  Sc390  1  0.50000000  0.31188017  0.77175733  1.0
  Sc  Sc391  1  0.50000000  0.64521350  0.77175733  1.0
  Sc  Sc392  1  0.50000000  0.97854683  0.77175733  1.0
  Sc  Sc393  1  0.83333333  0.31188017  0.77175733  1.0
  Sc  Sc394  1  0.83333333  0.64521350  0.77175733  1.0
  Sc  Sc395  1  0.83333333  0.97854683  0.77175733  1.0
  Sc  Sc396  1  0.27145317  0.08333333  0.94316746  1.0
  Sc  Sc397  1  0.27145317  0.41666667  0.94316746  1.0
  Sc  Sc398  1  0.27145317  0.75000000  0.94316746  1.0
  Sc  Sc399  1  0.60478650  0.08333333  0.94316746  1.0
  Sc  Sc400  1  0.60478650  0.41666667  0.94316746  1.0
  Sc  Sc401  1  0.60478650  0.75000000  0.94316746  1.0
  Sc  Sc402  1  0.93811983  0.08333333  0.94316746  1.0
  Sc  Sc403  1  0.93811983  0.41666667  0.94316746  1.0
  Sc  Sc404  1  0.93811983  0.75000000  0.94316746  1.0
  Sc  Sc405  1  0.10478650  0.25000000  0.81816746  1.0
  Sc  Sc406  1  0.10478650  0.58333333  0.81816746  1.0
  Sc  Sc407  1  0.10478650  0.91666667  0.81816746  1.0
  Sc  Sc408  1  0.43811983  0.25000000  0.81816746  1.0
  Sc  Sc409  1  0.43811983  0.58333333  0.81816746  1.0
  Sc  Sc410  1  0.43811983  0.91666667  0.81816746  1.0
  Sc  Sc411  1  0.77145317  0.25000000  0.81816746  1.0
  Sc  Sc412  1  0.77145317  0.58333333  0.81816746  1.0
  Sc  Sc413  1  0.77145317  0.91666667  0.81816746  1.0
  Sc  Sc414  1  0.06188017  0.08333333  0.94316746  1.0
  Sc  Sc415  1  0.06188017  0.41666667  0.94316746  1.0
  Sc  Sc416  1  0.06188017  0.75000000  0.94316746  1.0
  Sc  Sc417  1  0.39521350  0.08333333  0.94316746  1.0
  Sc  Sc418  1  0.39521350  0.41666667  0.94316746  1.0
  Sc  Sc419  1  0.39521350  0.75000000  0.94316746  1.0
  Sc  Sc420  1  0.72854683  0.08333333  0.94316746  1.0
  Sc  Sc421  1  0.72854683  0.41666667  0.94316746  1.0
  Sc  Sc422  1  0.72854683  0.75000000  0.94316746  1.0
  Sc  Sc423  1  0.22854683  0.25000000  0.81816746  1.0
  Sc  Sc424  1  0.22854683  0.58333333  0.81816746  1.0
  Sc  Sc425  1  0.22854683  0.91666667  0.81816746  1.0
  Sc  Sc426  1  0.56188017  0.25000000  0.81816746  1.0
  Sc  Sc427  1  0.56188017  0.58333333  0.81816746  1.0
  Sc  Sc428  1  0.56188017  0.91666667  0.81816746  1.0
  Sc  Sc429  1  0.89521350  0.25000000  0.81816746  1.0
  Sc  Sc430  1  0.89521350  0.58333333  0.81816746  1.0
  Sc  Sc431  1  0.89521350  0.91666667  0.81816746  1.0
  Sc  Sc432  1  0.06188017  0.08333333  0.85034721  1.0
  Sc  Sc433  1  0.06188017  0.41666667  0.85034721  1.0
  Sc  Sc434  1  0.06188017  0.75000000  0.85034721  1.0
  Sc  Sc435  1  0.39521350  0.08333333  0.85034721  1.0
  Sc  Sc436  1  0.39521350  0.41666667  0.85034721  1.0
  Sc  Sc437  1  0.39521350  0.75000000  0.85034721  1.0
  Sc  Sc438  1  0.72854683  0.08333333  0.85034721  1.0
  Sc  Sc439  1  0.72854683  0.41666667  0.85034721  1.0
  Sc  Sc440  1  0.72854683  0.75000000  0.85034721  1.0
  Sc  Sc441  1  0.22854683  0.25000000  0.97534721  1.0
  Sc  Sc442  1  0.22854683  0.58333333  0.97534721  1.0
  Sc  Sc443  1  0.22854683  0.91666667  0.97534721  1.0
  Sc  Sc444  1  0.56188017  0.25000000  0.97534721  1.0
  Sc  Sc445  1  0.56188017  0.58333333  0.97534721  1.0
  Sc  Sc446  1  0.56188017  0.91666667  0.97534721  1.0
  Sc  Sc447  1  0.89521350  0.25000000  0.97534721  1.0
  Sc  Sc448  1  0.89521350  0.58333333  0.97534721  1.0
  Sc  Sc449  1  0.89521350  0.91666667  0.97534721  1.0
  Sc  Sc450  1  0.27145317  0.08333333  0.85034721  1.0
  Sc  Sc451  1  0.27145317  0.41666667  0.85034721  1.0
  Sc  Sc452  1  0.27145317  0.75000000  0.85034721  1.0
  Sc  Sc453  1  0.60478650  0.08333333  0.85034721  1.0
  Sc  Sc454  1  0.60478650  0.41666667  0.85034721  1.0
  Sc  Sc455  1  0.60478650  0.75000000  0.85034721  1.0
  Sc  Sc456  1  0.93811983  0.08333333  0.85034721  1.0
  Sc  Sc457  1  0.93811983  0.41666667  0.85034721  1.0
  Sc  Sc458  1  0.93811983  0.75000000  0.85034721  1.0
  Sc  Sc459  1  0.10478650  0.25000000  0.97534721  1.0
  Sc  Sc460  1  0.10478650  0.58333333  0.97534721  1.0
  Sc  Sc461  1  0.10478650  0.91666667  0.97534721  1.0
  Sc  Sc462  1  0.43811983  0.25000000  0.97534721  1.0
  Sc  Sc463  1  0.43811983  0.58333333  0.97534721  1.0
  Sc  Sc464  1  0.43811983  0.91666667  0.97534721  1.0
  Sc  Sc465  1  0.77145317  0.25000000  0.97534721  1.0
  Sc  Sc466  1  0.77145317  0.58333333  0.97534721  1.0
  Sc  Sc467  1  0.77145317  0.91666667  0.97534721  1.0
  Sc  Sc468  1  0.22854683  0.16666667  0.85034721  1.0
  Sc  Sc469  1  0.22854683  0.50000000  0.85034721  1.0
  Sc  Sc470  1  0.22854683  0.83333333  0.85034721  1.0
  Sc  Sc471  1  0.56188017  0.16666667  0.85034721  1.0
  Sc  Sc472  1  0.56188017  0.50000000  0.85034721  1.0
  Sc  Sc473  1  0.56188017  0.83333333  0.85034721  1.0
  Sc  Sc474  1  0.89521350  0.16666667  0.85034721  1.0
  Sc  Sc475  1  0.89521350  0.50000000  0.85034721  1.0
  Sc  Sc476  1  0.89521350  0.83333333  0.85034721  1.0
  Sc  Sc477  1  0.06188017  0.00000000  0.97534721  1.0
  Sc  Sc478  1  0.06188017  0.33333333  0.97534721  1.0
  Sc  Sc479  1  0.06188017  0.66666667  0.97534721  1.0
  Sc  Sc480  1  0.39521350  0.00000000  0.97534721  1.0
  Sc  Sc481  1  0.39521350  0.33333333  0.97534721  1.0
  Sc  Sc482  1  0.39521350  0.66666667  0.97534721  1.0
  Sc  Sc483  1  0.72854683  0.00000000  0.97534721  1.0
  Sc  Sc484  1  0.72854683  0.33333333  0.97534721  1.0
  Sc  Sc485  1  0.72854683  0.66666667  0.97534721  1.0
  Sc  Sc486  1  0.10478650  0.16666667  0.94316746  1.0
  Sc  Sc487  1  0.10478650  0.50000000  0.94316746  1.0
  Sc  Sc488  1  0.10478650  0.83333333  0.94316746  1.0
  Sc  Sc489  1  0.43811983  0.16666667  0.94316746  1.0
  Sc  Sc490  1  0.43811983  0.50000000  0.94316746  1.0
  Sc  Sc491  1  0.43811983  0.83333333  0.94316746  1.0
  Sc  Sc492  1  0.77145317  0.16666667  0.94316746  1.0
  Sc  Sc493  1  0.77145317  0.50000000  0.94316746  1.0
  Sc  Sc494  1  0.77145317  0.83333333  0.94316746  1.0
  Sc  Sc495  1  0.27145317  0.00000000  0.81816746  1.0
  Sc  Sc496  1  0.27145317  0.33333333  0.81816746  1.0
  Sc  Sc497  1  0.27145317  0.66666667  0.81816746  1.0
  Sc  Sc498  1  0.60478650  0.00000000  0.81816746  1.0
  Sc  Sc499  1  0.60478650  0.33333333  0.81816746  1.0
  Sc  Sc500  1  0.60478650  0.66666667  0.81816746  1.0
  Sc  Sc501  1  0.93811983  0.00000000  0.81816746  1.0
  Sc  Sc502  1  0.93811983  0.33333333  0.81816746  1.0
  Sc  Sc503  1  0.93811983  0.66666667  0.81816746  1.0
  Sc  Sc504  1  0.00000000  0.06188017  0.77175733  1.0
  Sc  Sc505  1  0.00000000  0.39521350  0.77175733  1.0
  Sc  Sc506  1  0.00000000  0.72854683  0.77175733  1.0
  Sc  Sc507  1  0.33333333  0.06188017  0.77175733  1.0
  Sc  Sc508  1  0.33333333  0.39521350  0.77175733  1.0
  Sc  Sc509  1  0.33333333  0.72854683  0.77175733  1.0
  Sc  Sc510  1  0.66666667  0.06188017  0.77175733  1.0
  Sc  Sc511  1  0.66666667  0.39521350  0.77175733  1.0
  Sc  Sc512  1  0.66666667  0.72854683  0.77175733  1.0
  Sc  Sc513  1  0.16666667  0.22854683  0.89675733  1.0
  Sc  Sc514  1  0.16666667  0.56188017  0.89675733  1.0
  Sc  Sc515  1  0.16666667  0.89521350  0.89675733  1.0
  Sc  Sc516  1  0.50000000  0.22854683  0.89675733  1.0
  Sc  Sc517  1  0.50000000  0.56188017  0.89675733  1.0
  Sc  Sc518  1  0.50000000  0.89521350  0.89675733  1.0
  Sc  Sc519  1  0.83333333  0.22854683  0.89675733  1.0
  Sc  Sc520  1  0.83333333  0.56188017  0.89675733  1.0
  Sc  Sc521  1  0.83333333  0.89521350  0.89675733  1.0
  Sc  Sc522  1  0.10478650  0.16666667  0.85034721  1.0
  Sc  Sc523  1  0.10478650  0.50000000  0.85034721  1.0
  Sc  Sc524  1  0.10478650  0.83333333  0.85034721  1.0
  Sc  Sc525  1  0.43811983  0.16666667  0.85034721  1.0
  Sc  Sc526  1  0.43811983  0.50000000  0.85034721  1.0
  Sc  Sc527  1  0.43811983  0.83333333  0.85034721  1.0
  Sc  Sc528  1  0.77145317  0.16666667  0.85034721  1.0
  Sc  Sc529  1  0.77145317  0.50000000  0.85034721  1.0
  Sc  Sc530  1  0.77145317  0.83333333  0.85034721  1.0
  Sc  Sc531  1  0.27145317  0.00000000  0.97534721  1.0
  Sc  Sc532  1  0.27145317  0.33333333  0.97534721  1.0
  Sc  Sc533  1  0.27145317  0.66666667  0.97534721  1.0
  Sc  Sc534  1  0.60478650  0.00000000  0.97534721  1.0
  Sc  Sc535  1  0.60478650  0.33333333  0.97534721  1.0
  Sc  Sc536  1  0.60478650  0.66666667  0.97534721  1.0
  Sc  Sc537  1  0.93811983  0.00000000  0.97534721  1.0
  Sc  Sc538  1  0.93811983  0.33333333  0.97534721  1.0
  Sc  Sc539  1  0.93811983  0.66666667  0.97534721  1.0
  Sc  Sc540  1  0.00000000  0.27145317  0.77175733  1.0
  Sc  Sc541  1  0.00000000  0.60478650  0.77175733  1.0
  Sc  Sc542  1  0.00000000  0.93811983  0.77175733  1.0
  Sc  Sc543  1  0.33333333  0.27145317  0.77175733  1.0
  Sc  Sc544  1  0.33333333  0.60478650  0.77175733  1.0
  Sc  Sc545  1  0.33333333  0.93811983  0.77175733  1.0
  Sc  Sc546  1  0.66666667  0.27145317  0.77175733  1.0
  Sc  Sc547  1  0.66666667  0.60478650  0.77175733  1.0
  Sc  Sc548  1  0.66666667  0.93811983  0.77175733  1.0
  Sc  Sc549  1  0.16666667  0.10478650  0.89675733  1.0
  Sc  Sc550  1  0.16666667  0.43811983  0.89675733  1.0
  Sc  Sc551  1  0.16666667  0.77145317  0.89675733  1.0
  Sc  Sc552  1  0.50000000  0.10478650  0.89675733  1.0
  Sc  Sc553  1  0.50000000  0.43811983  0.89675733  1.0
  Sc  Sc554  1  0.50000000  0.77145317  0.89675733  1.0
  Sc  Sc555  1  0.83333333  0.10478650  0.89675733  1.0
  Sc  Sc556  1  0.83333333  0.43811983  0.89675733  1.0
  Sc  Sc557  1  0.83333333  0.77145317  0.89675733  1.0
  Sc  Sc558  1  0.22854683  0.16666667  0.94316746  1.0
  Sc  Sc559  1  0.22854683  0.50000000  0.94316746  1.0
  Sc  Sc560  1  0.22854683  0.83333333  0.94316746  1.0
  Sc  Sc561  1  0.56188017  0.16666667  0.94316746  1.0
  Sc  Sc562  1  0.56188017  0.50000000  0.94316746  1.0
  Sc  Sc563  1  0.56188017  0.83333333  0.94316746  1.0
  Sc  Sc564  1  0.89521350  0.16666667  0.94316746  1.0
  Sc  Sc565  1  0.89521350  0.50000000  0.94316746  1.0
  Sc  Sc566  1  0.89521350  0.83333333  0.94316746  1.0
  Sc  Sc567  1  0.06188017  0.00000000  0.81816746  1.0
  Sc  Sc568  1  0.06188017  0.33333333  0.81816746  1.0
  Sc  Sc569  1  0.06188017  0.66666667  0.81816746  1.0
  Sc  Sc570  1  0.39521350  0.00000000  0.81816746  1.0
  Sc  Sc571  1  0.39521350  0.33333333  0.81816746  1.0
  Sc  Sc572  1  0.39521350  0.66666667  0.81816746  1.0
  Sc  Sc573  1  0.72854683  0.00000000  0.81816746  1.0
  Sc  Sc574  1  0.72854683  0.33333333  0.81816746  1.0
  Sc  Sc575  1  0.72854683  0.66666667  0.81816746  1.0
  Sc  Sc576  1  0.00000000  0.20833333  0.70925733  1.0
  Sc  Sc577  1  0.00000000  0.54166667  0.70925733  1.0
  Sc  Sc578  1  0.00000000  0.87500000  0.70925733  1.0
  Sc  Sc579  1  0.33333333  0.20833333  0.70925733  1.0
  Sc  Sc580  1  0.33333333  0.54166667  0.70925733  1.0
  Sc  Sc581  1  0.33333333  0.87500000  0.70925733  1.0
  Sc  Sc582  1  0.66666667  0.20833333  0.70925733  1.0
  Sc  Sc583  1  0.66666667  0.54166667  0.70925733  1.0
  Sc  Sc584  1  0.66666667  0.87500000  0.70925733  1.0
  Sc  Sc585  1  0.16666667  0.04166667  0.58425733  1.0
  Sc  Sc586  1  0.16666667  0.37500000  0.58425733  1.0
  Sc  Sc587  1  0.16666667  0.70833333  0.58425733  1.0
  Sc  Sc588  1  0.50000000  0.04166667  0.58425733  1.0
  Sc  Sc589  1  0.50000000  0.37500000  0.58425733  1.0
  Sc  Sc590  1  0.50000000  0.70833333  0.58425733  1.0
  Sc  Sc591  1  0.83333333  0.04166667  0.58425733  1.0
  Sc  Sc592  1  0.83333333  0.37500000  0.58425733  1.0
  Sc  Sc593  1  0.83333333  0.70833333  0.58425733  1.0
  Sc  Sc594  1  0.25000000  0.12500000  0.52175733  1.0
  Sc  Sc595  1  0.25000000  0.45833333  0.52175733  1.0
  Sc  Sc596  1  0.25000000  0.79166667  0.52175733  1.0
  Sc  Sc597  1  0.58333333  0.12500000  0.52175733  1.0
  Sc  Sc598  1  0.58333333  0.45833333  0.52175733  1.0
  Sc  Sc599  1  0.58333333  0.79166667  0.52175733  1.0
  Sc  Sc600  1  0.91666667  0.12500000  0.52175733  1.0
  Sc  Sc601  1  0.91666667  0.45833333  0.52175733  1.0
  Sc  Sc602  1  0.91666667  0.79166667  0.52175733  1.0
  Sc  Sc603  1  0.08333333  0.29166667  0.64675733  1.0
  Sc  Sc604  1  0.08333333  0.62500000  0.64675733  1.0
  Sc  Sc605  1  0.08333333  0.95833333  0.64675733  1.0
  Sc  Sc606  1  0.41666667  0.29166667  0.64675733  1.0
  Sc  Sc607  1  0.41666667  0.62500000  0.64675733  1.0
  Sc  Sc608  1  0.41666667  0.95833333  0.64675733  1.0
  Sc  Sc609  1  0.75000000  0.29166667  0.64675733  1.0
  Sc  Sc610  1  0.75000000  0.62500000  0.64675733  1.0
  Sc  Sc611  1  0.75000000  0.95833333  0.64675733  1.0
  Sc  Sc612  1  0.00000000  0.20833333  0.58425733  1.0
  Sc  Sc613  1  0.00000000  0.54166667  0.58425733  1.0
  Sc  Sc614  1  0.00000000  0.87500000  0.58425733  1.0
  Sc  Sc615  1  0.33333333  0.20833333  0.58425733  1.0
  Sc  Sc616  1  0.33333333  0.54166667  0.58425733  1.0
  Sc  Sc617  1  0.33333333  0.87500000  0.58425733  1.0
  Sc  Sc618  1  0.66666667  0.20833333  0.58425733  1.0
  Sc  Sc619  1  0.66666667  0.54166667  0.58425733  1.0
  Sc  Sc620  1  0.66666667  0.87500000  0.58425733  1.0
  Sc  Sc621  1  0.16666667  0.04166667  0.70925733  1.0
  Sc  Sc622  1  0.16666667  0.37500000  0.70925733  1.0
  Sc  Sc623  1  0.16666667  0.70833333  0.70925733  1.0
  Sc  Sc624  1  0.50000000  0.04166667  0.70925733  1.0
  Sc  Sc625  1  0.50000000  0.37500000  0.70925733  1.0
  Sc  Sc626  1  0.50000000  0.70833333  0.70925733  1.0
  Sc  Sc627  1  0.83333333  0.04166667  0.70925733  1.0
  Sc  Sc628  1  0.83333333  0.37500000  0.70925733  1.0
  Sc  Sc629  1  0.83333333  0.70833333  0.70925733  1.0
  Sc  Sc630  1  0.08333333  0.12500000  0.52175733  1.0
  Sc  Sc631  1  0.08333333  0.45833333  0.52175733  1.0
  Sc  Sc632  1  0.08333333  0.79166667  0.52175733  1.0
  Sc  Sc633  1  0.41666667  0.12500000  0.52175733  1.0
  Sc  Sc634  1  0.41666667  0.45833333  0.52175733  1.0
  Sc  Sc635  1  0.41666667  0.79166667  0.52175733  1.0
  Sc  Sc636  1  0.75000000  0.12500000  0.52175733  1.0
  Sc  Sc637  1  0.75000000  0.45833333  0.52175733  1.0
  Sc  Sc638  1  0.75000000  0.79166667  0.52175733  1.0
  Sc  Sc639  1  0.25000000  0.29166667  0.64675733  1.0
  Sc  Sc640  1  0.25000000  0.62500000  0.64675733  1.0
  Sc  Sc641  1  0.25000000  0.95833333  0.64675733  1.0
  Sc  Sc642  1  0.58333333  0.29166667  0.64675733  1.0
  Sc  Sc643  1  0.58333333  0.62500000  0.64675733  1.0
  Sc  Sc644  1  0.58333333  0.95833333  0.64675733  1.0
  Sc  Sc645  1  0.91666667  0.29166667  0.64675733  1.0
  Sc  Sc646  1  0.91666667  0.62500000  0.64675733  1.0
  Sc  Sc647  1  0.91666667  0.95833333  0.64675733  1.0
  Sc  Sc648  1  0.00000000  0.02145317  0.64675733  1.0
  Sc  Sc649  1  0.00000000  0.35478650  0.64675733  1.0
  Sc  Sc650  1  0.00000000  0.68811983  0.64675733  1.0
  Sc  Sc651  1  0.33333333  0.02145317  0.64675733  1.0
  Sc  Sc652  1  0.33333333  0.35478650  0.64675733  1.0
  Sc  Sc653  1  0.33333333  0.68811983  0.64675733  1.0
  Sc  Sc654  1  0.66666667  0.02145317  0.64675733  1.0
  Sc  Sc655  1  0.66666667  0.35478650  0.64675733  1.0
  Sc  Sc656  1  0.66666667  0.68811983  0.64675733  1.0
  Sc  Sc657  1  0.16666667  0.18811983  0.52175733  1.0
  Sc  Sc658  1  0.16666667  0.52145317  0.52175733  1.0
  Sc  Sc659  1  0.16666667  0.85478650  0.52175733  1.0
  Sc  Sc660  1  0.50000000  0.18811983  0.52175733  1.0
  Sc  Sc661  1  0.50000000  0.52145317  0.52175733  1.0
  Sc  Sc662  1  0.50000000  0.85478650  0.52175733  1.0
  Sc  Sc663  1  0.83333333  0.18811983  0.52175733  1.0
  Sc  Sc664  1  0.83333333  0.52145317  0.52175733  1.0
  Sc  Sc665  1  0.83333333  0.85478650  0.52175733  1.0
  Sc  Sc666  1  0.33333333  0.14521350  0.64675733  1.0
  Sc  Sc667  1  0.33333333  0.47854683  0.64675733  1.0
  Sc  Sc668  1  0.33333333  0.81188017  0.64675733  1.0
  Sc  Sc669  1  0.66666667  0.14521350  0.64675733  1.0
  Sc  Sc670  1  0.66666667  0.47854683  0.64675733  1.0
  Sc  Sc671  1  0.66666667  0.81188017  0.64675733  1.0
  Sc  Sc672  1  1.00000000  0.14521350  0.64675733  1.0
  Sc  Sc673  1  1.00000000  0.47854683  0.64675733  1.0
  Sc  Sc674  1  0.00000000  0.81188017  0.64675733  1.0
  Sc  Sc675  1  0.16666667  0.31188017  0.52175733  1.0
  Sc  Sc676  1  0.16666667  0.64521350  0.52175733  1.0
  Sc  Sc677  1  0.16666667  0.97854683  0.52175733  1.0
  Sc  Sc678  1  0.50000000  0.31188017  0.52175733  1.0
  Sc  Sc679  1  0.50000000  0.64521350  0.52175733  1.0
  Sc  Sc680  1  0.50000000  0.97854683  0.52175733  1.0
  Sc  Sc681  1  0.83333333  0.31188017  0.52175733  1.0
  Sc  Sc682  1  0.83333333  0.64521350  0.52175733  1.0
  Sc  Sc683  1  0.83333333  0.97854683  0.52175733  1.0
  Sc  Sc684  1  0.27145317  0.08333333  0.69316746  1.0
  Sc  Sc685  1  0.27145317  0.41666667  0.69316746  1.0
  Sc  Sc686  1  0.27145317  0.75000000  0.69316746  1.0
  Sc  Sc687  1  0.60478650  0.08333333  0.69316746  1.0
  Sc  Sc688  1  0.60478650  0.41666667  0.69316746  1.0
  Sc  Sc689  1  0.60478650  0.75000000  0.69316746  1.0
  Sc  Sc690  1  0.93811983  0.08333333  0.69316746  1.0
  Sc  Sc691  1  0.93811983  0.41666667  0.69316746  1.0
  Sc  Sc692  1  0.93811983  0.75000000  0.69316746  1.0
  Sc  Sc693  1  0.10478650  0.25000000  0.56816746  1.0
  Sc  Sc694  1  0.10478650  0.58333333  0.56816746  1.0
  Sc  Sc695  1  0.10478650  0.91666667  0.56816746  1.0
  Sc  Sc696  1  0.43811983  0.25000000  0.56816746  1.0
  Sc  Sc697  1  0.43811983  0.58333333  0.56816746  1.0
  Sc  Sc698  1  0.43811983  0.91666667  0.56816746  1.0
  Sc  Sc699  1  0.77145317  0.25000000  0.56816746  1.0
  Sc  Sc700  1  0.77145317  0.58333333  0.56816746  1.0
  Sc  Sc701  1  0.77145317  0.91666667  0.56816746  1.0
  Sc  Sc702  1  0.06188017  0.08333333  0.69316746  1.0
  Sc  Sc703  1  0.06188017  0.41666667  0.69316746  1.0
  Sc  Sc704  1  0.06188017  0.75000000  0.69316746  1.0
  Sc  Sc705  1  0.39521350  0.08333333  0.69316746  1.0
  Sc  Sc706  1  0.39521350  0.41666667  0.69316746  1.0
  Sc  Sc707  1  0.39521350  0.75000000  0.69316746  1.0
  Sc  Sc708  1  0.72854683  0.08333333  0.69316746  1.0
  Sc  Sc709  1  0.72854683  0.41666667  0.69316746  1.0
  Sc  Sc710  1  0.72854683  0.75000000  0.69316746  1.0
  Sc  Sc711  1  0.22854683  0.25000000  0.56816746  1.0
  Sc  Sc712  1  0.22854683  0.58333333  0.56816746  1.0
  Sc  Sc713  1  0.22854683  0.91666667  0.56816746  1.0
  Sc  Sc714  1  0.56188017  0.25000000  0.56816746  1.0
  Sc  Sc715  1  0.56188017  0.58333333  0.56816746  1.0
  Sc  Sc716  1  0.56188017  0.91666667  0.56816746  1.0
  Sc  Sc717  1  0.89521350  0.25000000  0.56816746  1.0
  Sc  Sc718  1  0.89521350  0.58333333  0.56816746  1.0
  Sc  Sc719  1  0.89521350  0.91666667  0.56816746  1.0
  Sc  Sc720  1  0.06188017  0.08333333  0.60034721  1.0
  Sc  Sc721  1  0.06188017  0.41666667  0.60034721  1.0
  Sc  Sc722  1  0.06188017  0.75000000  0.60034721  1.0
  Sc  Sc723  1  0.39521350  0.08333333  0.60034721  1.0
  Sc  Sc724  1  0.39521350  0.41666667  0.60034721  1.0
  Sc  Sc725  1  0.39521350  0.75000000  0.60034721  1.0
  Sc  Sc726  1  0.72854683  0.08333333  0.60034721  1.0
  Sc  Sc727  1  0.72854683  0.41666667  0.60034721  1.0
  Sc  Sc728  1  0.72854683  0.75000000  0.60034721  1.0
  Sc  Sc729  1  0.22854683  0.25000000  0.72534721  1.0
  Sc  Sc730  1  0.22854683  0.58333333  0.72534721  1.0
  Sc  Sc731  1  0.22854683  0.91666667  0.72534721  1.0
  Sc  Sc732  1  0.56188017  0.25000000  0.72534721  1.0
  Sc  Sc733  1  0.56188017  0.58333333  0.72534721  1.0
  Sc  Sc734  1  0.56188017  0.91666667  0.72534721  1.0
  Sc  Sc735  1  0.89521350  0.25000000  0.72534721  1.0
  Sc  Sc736  1  0.89521350  0.58333333  0.72534721  1.0
  Sc  Sc737  1  0.89521350  0.91666667  0.72534721  1.0
  Sc  Sc738  1  0.27145317  0.08333333  0.60034721  1.0
  Sc  Sc739  1  0.27145317  0.41666667  0.60034721  1.0
  Sc  Sc740  1  0.27145317  0.75000000  0.60034721  1.0
  Sc  Sc741  1  0.60478650  0.08333333  0.60034721  1.0
  Sc  Sc742  1  0.60478650  0.41666667  0.60034721  1.0
  Sc  Sc743  1  0.60478650  0.75000000  0.60034721  1.0
  Sc  Sc744  1  0.93811983  0.08333333  0.60034721  1.0
  Sc  Sc745  1  0.93811983  0.41666667  0.60034721  1.0
  Sc  Sc746  1  0.93811983  0.75000000  0.60034721  1.0
  Sc  Sc747  1  0.10478650  0.25000000  0.72534721  1.0
  Sc  Sc748  1  0.10478650  0.58333333  0.72534721  1.0
  Sc  Sc749  1  0.10478650  0.91666667  0.72534721  1.0
  Sc  Sc750  1  0.43811983  0.25000000  0.72534721  1.0
  Sc  Sc751  1  0.43811983  0.58333333  0.72534721  1.0
  Sc  Sc752  1  0.43811983  0.91666667  0.72534721  1.0
  Sc  Sc753  1  0.77145317  0.25000000  0.72534721  1.0
  Sc  Sc754  1  0.77145317  0.58333333  0.72534721  1.0
  Sc  Sc755  1  0.77145317  0.91666667  0.72534721  1.0
  Sc  Sc756  1  0.22854683  0.16666667  0.60034721  1.0
  Sc  Sc757  1  0.22854683  0.50000000  0.60034721  1.0
  Sc  Sc758  1  0.22854683  0.83333333  0.60034721  1.0
  Sc  Sc759  1  0.56188017  0.16666667  0.60034721  1.0
  Sc  Sc760  1  0.56188017  0.50000000  0.60034721  1.0
  Sc  Sc761  1  0.56188017  0.83333333  0.60034721  1.0
  Sc  Sc762  1  0.89521350  0.16666667  0.60034721  1.0
  Sc  Sc763  1  0.89521350  0.50000000  0.60034721  1.0
  Sc  Sc764  1  0.89521350  0.83333333  0.60034721  1.0
  Sc  Sc765  1  0.06188017  0.00000000  0.72534721  1.0
  Sc  Sc766  1  0.06188017  0.33333333  0.72534721  1.0
  Sc  Sc767  1  0.06188017  0.66666667  0.72534721  1.0
  Sc  Sc768  1  0.39521350  0.00000000  0.72534721  1.0
  Sc  Sc769  1  0.39521350  0.33333333  0.72534721  1.0
  Sc  Sc770  1  0.39521350  0.66666667  0.72534721  1.0
  Sc  Sc771  1  0.72854683  0.00000000  0.72534721  1.0
  Sc  Sc772  1  0.72854683  0.33333333  0.72534721  1.0
  Sc  Sc773  1  0.72854683  0.66666667  0.72534721  1.0
  Sc  Sc774  1  0.10478650  0.16666667  0.69316746  1.0
  Sc  Sc775  1  0.10478650  0.50000000  0.69316746  1.0
  Sc  Sc776  1  0.10478650  0.83333333  0.69316746  1.0
  Sc  Sc777  1  0.43811983  0.16666667  0.69316746  1.0
  Sc  Sc778  1  0.43811983  0.50000000  0.69316746  1.0
  Sc  Sc779  1  0.43811983  0.83333333  0.69316746  1.0
  Sc  Sc780  1  0.77145317  0.16666667  0.69316746  1.0
  Sc  Sc781  1  0.77145317  0.50000000  0.69316746  1.0
  Sc  Sc782  1  0.77145317  0.83333333  0.69316746  1.0
  Sc  Sc783  1  0.27145317  0.00000000  0.56816746  1.0
  Sc  Sc784  1  0.27145317  0.33333333  0.56816746  1.0
  Sc  Sc785  1  0.27145317  0.66666667  0.56816746  1.0
  Sc  Sc786  1  0.60478650  0.00000000  0.56816746  1.0
  Sc  Sc787  1  0.60478650  0.33333333  0.56816746  1.0
  Sc  Sc788  1  0.60478650  0.66666667  0.56816746  1.0
  Sc  Sc789  1  0.93811983  0.00000000  0.56816746  1.0
  Sc  Sc790  1  0.93811983  0.33333333  0.56816746  1.0
  Sc  Sc791  1  0.93811983  0.66666667  0.56816746  1.0
  Sc  Sc792  1  0.00000000  0.06188017  0.52175733  1.0
  Sc  Sc793  1  0.00000000  0.39521350  0.52175733  1.0
  Sc  Sc794  1  0.00000000  0.72854683  0.52175733  1.0
  Sc  Sc795  1  0.33333333  0.06188017  0.52175733  1.0
  Sc  Sc796  1  0.33333333  0.39521350  0.52175733  1.0
  Sc  Sc797  1  0.33333333  0.72854683  0.52175733  1.0
  Sc  Sc798  1  0.66666667  0.06188017  0.52175733  1.0
  Sc  Sc799  1  0.66666667  0.39521350  0.52175733  1.0
  Sc  Sc800  1  0.66666667  0.72854683  0.52175733  1.0
  Sc  Sc801  1  0.16666667  0.22854683  0.64675733  1.0
  Sc  Sc802  1  0.16666667  0.56188017  0.64675733  1.0
  Sc  Sc803  1  0.16666667  0.89521350  0.64675733  1.0
  Sc  Sc804  1  0.50000000  0.22854683  0.64675733  1.0
  Sc  Sc805  1  0.50000000  0.56188017  0.64675733  1.0
  Sc  Sc806  1  0.50000000  0.89521350  0.64675733  1.0
  Sc  Sc807  1  0.83333333  0.22854683  0.64675733  1.0
  Sc  Sc808  1  0.83333333  0.56188017  0.64675733  1.0
  Sc  Sc809  1  0.83333333  0.89521350  0.64675733  1.0
  Sc  Sc810  1  0.10478650  0.16666667  0.60034721  1.0
  Sc  Sc811  1  0.10478650  0.50000000  0.60034721  1.0
  Sc  Sc812  1  0.10478650  0.83333333  0.60034721  1.0
  Sc  Sc813  1  0.43811983  0.16666667  0.60034721  1.0
  Sc  Sc814  1  0.43811983  0.50000000  0.60034721  1.0
  Sc  Sc815  1  0.43811983  0.83333333  0.60034721  1.0
  Sc  Sc816  1  0.77145317  0.16666667  0.60034721  1.0
  Sc  Sc817  1  0.77145317  0.50000000  0.60034721  1.0
  Sc  Sc818  1  0.77145317  0.83333333  0.60034721  1.0
  Sc  Sc819  1  0.27145317  0.00000000  0.72534721  1.0
  Sc  Sc820  1  0.27145317  0.33333333  0.72534721  1.0
  Sc  Sc821  1  0.27145317  0.66666667  0.72534721  1.0
  Sc  Sc822  1  0.60478650  0.00000000  0.72534721  1.0
  Sc  Sc823  1  0.60478650  0.33333333  0.72534721  1.0
  Sc  Sc824  1  0.60478650  0.66666667  0.72534721  1.0
  Sc  Sc825  1  0.93811983  0.00000000  0.72534721  1.0
  Sc  Sc826  1  0.93811983  0.33333333  0.72534721  1.0
  Sc  Sc827  1  0.93811983  0.66666667  0.72534721  1.0
  Sc  Sc828  1  0.00000000  0.27145317  0.52175733  1.0
  Sc  Sc829  1  0.00000000  0.60478650  0.52175733  1.0
  Sc  Sc830  1  0.00000000  0.93811983  0.52175733  1.0
  Sc  Sc831  1  0.33333333  0.27145317  0.52175733  1.0
  Sc  Sc832  1  0.33333333  0.60478650  0.52175733  1.0
  Sc  Sc833  1  0.33333333  0.93811983  0.52175733  1.0
  Sc  Sc834  1  0.66666667  0.27145317  0.52175733  1.0
  Sc  Sc835  1  0.66666667  0.60478650  0.52175733  1.0
  Sc  Sc836  1  0.66666667  0.93811983  0.52175733  1.0
  Sc  Sc837  1  0.16666667  0.10478650  0.64675733  1.0
  Sc  Sc838  1  0.16666667  0.43811983  0.64675733  1.0
  Sc  Sc839  1  0.16666667  0.77145317  0.64675733  1.0
  Sc  Sc840  1  0.50000000  0.10478650  0.64675733  1.0
  Sc  Sc841  1  0.50000000  0.43811983  0.64675733  1.0
  Sc  Sc842  1  0.50000000  0.77145317  0.64675733  1.0
  Sc  Sc843  1  0.83333333  0.10478650  0.64675733  1.0
  Sc  Sc844  1  0.83333333  0.43811983  0.64675733  1.0
  Sc  Sc845  1  0.83333333  0.77145317  0.64675733  1.0
  Sc  Sc846  1  0.22854683  0.16666667  0.69316746  1.0
  Sc  Sc847  1  0.22854683  0.50000000  0.69316746  1.0
  Sc  Sc848  1  0.22854683  0.83333333  0.69316746  1.0
  Sc  Sc849  1  0.56188017  0.16666667  0.69316746  1.0
  Sc  Sc850  1  0.56188017  0.50000000  0.69316746  1.0
  Sc  Sc851  1  0.56188017  0.83333333  0.69316746  1.0
  Sc  Sc852  1  0.89521350  0.16666667  0.69316746  1.0
  Sc  Sc853  1  0.89521350  0.50000000  0.69316746  1.0
  Sc  Sc854  1  0.89521350  0.83333333  0.69316746  1.0
  Sc  Sc855  1  0.06188017  0.00000000  0.56816746  1.0
  Sc  Sc856  1  0.06188017  0.33333333  0.56816746  1.0
  Sc  Sc857  1  0.06188017  0.66666667  0.56816746  1.0
  Sc  Sc858  1  0.39521350  0.00000000  0.56816746  1.0
  Sc  Sc859  1  0.39521350  0.33333333  0.56816746  1.0
  Sc  Sc860  1  0.39521350  0.66666667  0.56816746  1.0
  Sc  Sc861  1  0.72854683  0.00000000  0.56816746  1.0
  Sc  Sc862  1  0.72854683  0.33333333  0.56816746  1.0
  Sc  Sc863  1  0.72854683  0.66666667  0.56816746  1.0
