# generated using pymatgen
data_Sc2Ni
_symmetry_space_group_name_H-M   'P 1'
_cell_length_a   25.64981766
_cell_length_b   62.82896526
_cell_length_c   35.25230250
_cell_angle_alpha   101.42175366
_cell_angle_beta   90.00000000
_cell_angle_gamma   90.00000000
_symmetry_Int_Tables_number   1
_chemical_formula_structural   Sc2Ni
_chemical_formula_sum   'Sc864 Ni432'
_cell_volume   55685.82132076
_cell_formula_units_Z   432
loop_
 _symmetry_equiv_pos_site_id
 _symmetry_equiv_pos_as_xyz
  1  'x, y, z'
loop_
 _atom_site_type_symbol
 _atom_site_label
 _atom_site_symmetry_multiplicity
 _atom_site_fract_x
 _atom_site_fract_y
 _atom_site_fract_z
 _atom_site_occupancy
  Ni  Ni0  1  0.33333333  0.29854827  0.13366293  1.0
  Ni  Ni1  1  0.33333333  0.63188160  0.13366293  1.0
  Ni  Ni2  1  0.33333333  0.96521494  0.13366293  1.0
  Ni  Ni3  1  0.66666667  0.29854827  0.13366293  1.0
  Ni  Ni4  1  0.66666667  0.63188160  0.13366293  1.0
  Ni  Ni5  1  0.66666667  0.96521494  0.13366293  1.0
  Ni  Ni6  1  1.00000000  0.29854827  0.13366293  1.0
  Ni  Ni7  1  0.00000000  0.63188160  0.13366293  1.0
  Ni  Ni8  1  1.00000000  0.96521494  0.13366293  1.0
  Ni  Ni9  1  0.16666667  0.17950065  0.06223436  1.0
  Ni  Ni10  1  0.16666667  0.51283399  0.06223436  1.0
  Ni  Ni11  1  0.16666667  0.84616732  0.06223436  1.0
  Ni  Ni12  1  0.50000000  0.17950065  0.06223436  1.0
  Ni  Ni13  1  0.50000000  0.51283399  0.06223436  1.0
  Ni  Ni14  1  0.50000000  0.84616732  0.06223436  1.0
  Ni  Ni15  1  0.83333333  0.17950065  0.06223436  1.0
  Ni  Ni16  1  0.83333333  0.51283399  0.06223436  1.0
  Ni  Ni17  1  0.83333333  0.84616732  0.06223436  1.0
  Ni  Ni18  1  0.27531378  0.10189557  0.01567131  1.0
  Ni  Ni19  1  0.27531378  0.43522891  0.01567131  1.0
  Ni  Ni20  1  0.27531378  0.76856224  0.01567131  1.0
  Ni  Ni21  1  0.60864711  0.10189557  0.01567131  1.0
  Ni  Ni22  1  0.60864711  0.43522891  0.01567131  1.0
  Ni  Ni23  1  0.60864711  0.76856224  0.01567131  1.0
  Ni  Ni24  1  0.94198044  0.10189557  0.01567131  1.0
  Ni  Ni25  1  0.94198045  0.43522891  0.01567131  1.0
  Ni  Ni26  1  0.94198044  0.76856224  0.01567131  1.0
  Ni  Ni27  1  0.10864711  0.22094319  0.08709988  1.0
  Ni  Ni28  1  0.10864711  0.55427652  0.08709988  1.0
  Ni  Ni29  1  0.10864711  0.88760986  0.08709988  1.0
  Ni  Ni30  1  0.44198044  0.22094319  0.08709988  1.0
  Ni  Ni31  1  0.44198044  0.55427652  0.08709988  1.0
  Ni  Ni32  1  0.44198045  0.88760986  0.08709988  1.0
  Ni  Ni33  1  0.77531378  0.22094319  0.08709988  1.0
  Ni  Ni34  1  0.77531378  0.55427652  0.08709988  1.0
  Ni  Ni35  1  0.77531378  0.88760986  0.08709988  1.0
  Ni  Ni36  1  0.33333333  0.33170230  0.08393188  1.0
  Ni  Ni37  1  0.33333333  0.66503564  0.08393188  1.0
  Ni  Ni38  1  0.33333333  0.99836897  0.08393188  1.0
  Ni  Ni39  1  0.66666667  0.33170230  0.08393188  1.0
  Ni  Ni40  1  0.66666667  0.66503564  0.08393188  1.0
  Ni  Ni41  1  0.66666667  0.99836897  0.08393188  1.0
  Ni  Ni42  1  1.00000000  0.33170230  0.08393188  1.0
  Ni  Ni43  1  1.00000000  0.66503564  0.08393188  1.0
  Ni  Ni44  1  1.00000000  0.99836897  0.08393188  1.0
  Ni  Ni45  1  0.16666667  0.21265468  0.01250331  1.0
  Ni  Ni46  1  0.16666667  0.54598802  0.01250331  1.0
  Ni  Ni47  1  0.16666667  0.87932135  0.01250331  1.0
  Ni  Ni48  1  0.50000000  0.21265468  0.01250331  1.0
  Ni  Ni49  1  0.50000000  0.54598802  0.01250331  1.0
  Ni  Ni50  1  0.50000000  0.87932135  0.01250331  1.0
  Ni  Ni51  1  0.83333333  0.21265468  0.01250331  1.0
  Ni  Ni52  1  0.83333333  0.54598802  0.01250331  1.0
  Ni  Ni53  1  0.83333333  0.87932135  0.01250331  1.0
  Ni  Ni54  1  0.05801955  0.10189557  0.01567131  1.0
  Ni  Ni55  1  0.05801955  0.43522891  0.01567131  1.0
  Ni  Ni56  1  0.05801955  0.76856224  0.01567131  1.0
  Ni  Ni57  1  0.39135289  0.10189557  0.01567131  1.0
  Ni  Ni58  1  0.39135289  0.43522891  0.01567131  1.0
  Ni  Ni59  1  0.39135289  0.76856224  0.01567131  1.0
  Ni  Ni60  1  0.72468622  0.10189557  0.01567131  1.0
  Ni  Ni61  1  0.72468622  0.43522891  0.01567131  1.0
  Ni  Ni62  1  0.72468622  0.76856224  0.01567131  1.0
  Ni  Ni63  1  0.22468622  0.22094319  0.08709988  1.0
  Ni  Ni64  1  0.22468622  0.55427652  0.08709988  1.0
  Ni  Ni65  1  0.22468622  0.88760986  0.08709988  1.0
  Ni  Ni66  1  0.55801956  0.22094319  0.08709988  1.0
  Ni  Ni67  1  0.55801956  0.55427652  0.08709988  1.0
  Ni  Ni68  1  0.55801956  0.88760986  0.08709988  1.0
  Ni  Ni69  1  0.89135289  0.22094319  0.08709988  1.0
  Ni  Ni70  1  0.89135289  0.55427652  0.08709988  1.0
  Ni  Ni71  1  0.89135289  0.88760986  0.08709988  1.0
  Ni  Ni72  1  0.33333333  0.10656782  0.13366293  1.0
  Ni  Ni73  1  0.33333333  0.43990116  0.13366293  1.0
  Ni  Ni74  1  0.33333333  0.77323449  0.13366293  1.0
  Ni  Ni75  1  0.66666667  0.10656782  0.13366293  1.0
  Ni  Ni76  1  0.66666667  0.43990116  0.13366293  1.0
  Ni  Ni77  1  0.66666667  0.77323449  0.13366293  1.0
  Ni  Ni78  1  0.00000000  0.10656782  0.13366293  1.0
  Ni  Ni79  1  0.00000000  0.43990116  0.13366293  1.0
  Ni  Ni80  1  1.00000000  0.77323449  0.13366293  1.0
  Ni  Ni81  1  0.16666667  0.32085354  0.06223436  1.0
  Ni  Ni82  1  0.16666667  0.65418687  0.06223436  1.0
  Ni  Ni83  1  0.16666667  0.98752021  0.06223436  1.0
  Ni  Ni84  1  0.50000000  0.32085354  0.06223436  1.0
  Ni  Ni85  1  0.50000000  0.65418687  0.06223436  1.0
  Ni  Ni86  1  0.50000000  0.98752021  0.06223436  1.0
  Ni  Ni87  1  0.83333333  0.32085354  0.06223436  1.0
  Ni  Ni88  1  0.83333333  0.65418687  0.06223436  1.0
  Ni  Ni89  1  0.83333333  0.98752021  0.06223436  1.0
  Ni  Ni90  1  0.05801955  0.06512529  0.10879741  1.0
  Ni  Ni91  1  0.05801955  0.39845862  0.10879741  1.0
  Ni  Ni92  1  0.05801956  0.73179195  0.10879741  1.0
  Ni  Ni93  1  0.39135289  0.06512529  0.10879741  1.0
  Ni  Ni94  1  0.39135289  0.39845862  0.10879741  1.0
  Ni  Ni95  1  0.39135289  0.73179195  0.10879741  1.0
  Ni  Ni96  1  0.72468622  0.06512529  0.10879741  1.0
  Ni  Ni97  1  0.72468622  0.39845862  0.10879741  1.0
  Ni  Ni98  1  0.72468622  0.73179195  0.10879741  1.0
  Ni  Ni99  1  0.22468622  0.27941100  0.03736883  1.0
  Ni  Ni100  1  0.22468622  0.61274433  0.03736883  1.0
  Ni  Ni101  1  0.22468622  0.94607767  0.03736883  1.0
  Ni  Ni102  1  0.55801956  0.27941100  0.03736883  1.0
  Ni  Ni103  1  0.55801956  0.61274433  0.03736883  1.0
  Ni  Ni104  1  0.55801956  0.94607767  0.03736883  1.0
  Ni  Ni105  1  0.89135289  0.27941100  0.03736883  1.0
  Ni  Ni106  1  0.89135289  0.61274433  0.03736883  1.0
  Ni  Ni107  1  0.89135289  0.94607767  0.03736883  1.0
  Ni  Ni108  1  0.27531378  0.06512528  0.10879740  1.0
  Ni  Ni109  1  0.27531378  0.39845862  0.10879740  1.0
  Ni  Ni110  1  0.27531378  0.73179195  0.10879740  1.0
  Ni  Ni111  1  0.60864711  0.06512528  0.10879740  1.0
  Ni  Ni112  1  0.60864711  0.39845862  0.10879740  1.0
  Ni  Ni113  1  0.60864711  0.73179195  0.10879740  1.0
  Ni  Ni114  1  0.94198045  0.06512528  0.10879740  1.0
  Ni  Ni115  1  0.94198045  0.39845862  0.10879740  1.0
  Ni  Ni116  1  0.94198044  0.73179195  0.10879740  1.0
  Ni  Ni117  1  0.10864711  0.27941100  0.03736883  1.0
  Ni  Ni118  1  0.10864711  0.61274433  0.03736883  1.0
  Ni  Ni119  1  0.10864711  0.94607767  0.03736883  1.0
  Ni  Ni120  1  0.44198045  0.27941100  0.03736883  1.0
  Ni  Ni121  1  0.44198045  0.61274433  0.03736883  1.0
  Ni  Ni122  1  0.44198045  0.94607767  0.03736883  1.0
  Ni  Ni123  1  0.77531378  0.27941100  0.03736883  1.0
  Ni  Ni124  1  0.77531378  0.61274433  0.03736883  1.0
  Ni  Ni125  1  0.77531378  0.94607767  0.03736883  1.0
  Ni  Ni126  1  0.00000000  0.16865189  0.04053683  1.0
  Ni  Ni127  1  0.00000000  0.50198522  0.04053683  1.0
  Ni  Ni128  1  0.00000000  0.83531855  0.04053683  1.0
  Ni  Ni129  1  0.33333333  0.16865189  0.04053683  1.0
  Ni  Ni130  1  0.33333333  0.50198522  0.04053683  1.0
  Ni  Ni131  1  0.33333333  0.83531855  0.04053683  1.0
  Ni  Ni132  1  0.66666667  0.16865189  0.04053683  1.0
  Ni  Ni133  1  0.66666667  0.50198522  0.04053683  1.0
  Ni  Ni134  1  0.66666667  0.83531855  0.04053683  1.0
  Ni  Ni135  1  0.16666667  0.28769951  0.11196540  1.0
  Ni  Ni136  1  0.16666667  0.62103284  0.11196540  1.0
  Ni  Ni137  1  0.16666667  0.95436617  0.11196540  1.0
  Ni  Ni138  1  0.50000000  0.28769951  0.11196540  1.0
  Ni  Ni139  1  0.50000000  0.62103284  0.11196540  1.0
  Ni  Ni140  1  0.50000000  0.95436617  0.11196540  1.0
  Ni  Ni141  1  0.83333333  0.28769951  0.11196540  1.0
  Ni  Ni142  1  0.83333333  0.62103284  0.11196540  1.0
  Ni  Ni143  1  0.83333333  0.95436617  0.11196540  1.0
  Ni  Ni144  1  0.00000000  0.20331018  0.27652007  1.0
  Ni  Ni145  1  0.00000000  0.53664351  0.27652007  1.0
  Ni  Ni146  1  0.00000000  0.86997684  0.27652007  1.0
  Ni  Ni147  1  0.33333333  0.20331018  0.27652007  1.0
  Ni  Ni148  1  0.33333333  0.53664351  0.27652007  1.0
  Ni  Ni149  1  0.33333333  0.86997684  0.27652007  1.0
  Ni  Ni150  1  0.66666667  0.20331018  0.27652007  1.0
  Ni  Ni151  1  0.66666667  0.53664351  0.27652007  1.0
  Ni  Ni152  1  0.66666667  0.86997684  0.27652007  1.0
  Ni  Ni153  1  0.16666667  0.08426256  0.20509150  1.0
  Ni  Ni154  1  0.16666667  0.41759589  0.20509150  1.0
  Ni  Ni155  1  0.16666667  0.75092922  0.20509150  1.0
  Ni  Ni156  1  0.50000000  0.08426256  0.20509150  1.0
  Ni  Ni157  1  0.50000000  0.41759589  0.20509150  1.0
  Ni  Ni158  1  0.50000000  0.75092922  0.20509150  1.0
  Ni  Ni159  1  0.83333333  0.08426256  0.20509150  1.0
  Ni  Ni160  1  0.83333333  0.41759589  0.20509150  1.0
  Ni  Ni161  1  0.83333333  0.75092922  0.20509150  1.0
  Ni  Ni162  1  0.27531378  0.00665748  0.15852845  1.0
  Ni  Ni163  1  0.27531378  0.33999081  0.15852845  1.0
  Ni  Ni164  1  0.27531378  0.67332414  0.15852845  1.0
  Ni  Ni165  1  0.60864711  0.00665748  0.15852845  1.0
  Ni  Ni166  1  0.60864711  0.33999081  0.15852845  1.0
  Ni  Ni167  1  0.60864711  0.67332414  0.15852845  1.0
  Ni  Ni168  1  0.94198044  0.00665748  0.15852845  1.0
  Ni  Ni169  1  0.94198044  0.33999081  0.15852845  1.0
  Ni  Ni170  1  0.94198044  0.67332414  0.15852845  1.0
  Ni  Ni171  1  0.10864711  0.12570510  0.22995702  1.0
  Ni  Ni172  1  0.10864711  0.45903843  0.22995702  1.0
  Ni  Ni173  1  0.10864711  0.79237176  0.22995702  1.0
  Ni  Ni174  1  0.44198044  0.12570510  0.22995702  1.0
  Ni  Ni175  1  0.44198044  0.45903843  0.22995702  1.0
  Ni  Ni176  1  0.44198045  0.79237176  0.22995702  1.0
  Ni  Ni177  1  0.77531378  0.12570510  0.22995702  1.0
  Ni  Ni178  1  0.77531378  0.45903843  0.22995702  1.0
  Ni  Ni179  1  0.77531378  0.79237176  0.22995702  1.0
  Ni  Ni180  1  0.33333333  0.23646421  0.22678902  1.0
  Ni  Ni181  1  0.33333333  0.56979754  0.22678902  1.0
  Ni  Ni182  1  0.33333333  0.90313087  0.22678902  1.0
  Ni  Ni183  1  0.66666667  0.23646421  0.22678902  1.0
  Ni  Ni184  1  0.66666667  0.56979754  0.22678902  1.0
  Ni  Ni185  1  0.66666667  0.90313087  0.22678902  1.0
  Ni  Ni186  1  1.00000000  0.23646421  0.22678902  1.0
  Ni  Ni187  1  1.00000000  0.56979754  0.22678902  1.0
  Ni  Ni188  1  1.00000000  0.90313087  0.22678902  1.0
  Ni  Ni189  1  0.16666667  0.11741659  0.15536045  1.0
  Ni  Ni190  1  0.16666667  0.45074992  0.15536045  1.0
  Ni  Ni191  1  0.16666667  0.78408325  0.15536045  1.0
  Ni  Ni192  1  0.50000000  0.11741659  0.15536045  1.0
  Ni  Ni193  1  0.50000000  0.45074992  0.15536045  1.0
  Ni  Ni194  1  0.50000000  0.78408325  0.15536045  1.0
  Ni  Ni195  1  0.83333333  0.11741659  0.15536045  1.0
  Ni  Ni196  1  0.83333333  0.45074992  0.15536045  1.0
  Ni  Ni197  1  0.83333333  0.78408325  0.15536045  1.0
  Ni  Ni198  1  0.05801955  0.00665748  0.15852845  1.0
  Ni  Ni199  1  0.05801955  0.33999081  0.15852845  1.0
  Ni  Ni200  1  0.05801955  0.67332414  0.15852845  1.0
  Ni  Ni201  1  0.39135289  0.00665748  0.15852845  1.0
  Ni  Ni202  1  0.39135289  0.33999081  0.15852845  1.0
  Ni  Ni203  1  0.39135289  0.67332414  0.15852845  1.0
  Ni  Ni204  1  0.72468622  0.00665748  0.15852845  1.0
  Ni  Ni205  1  0.72468622  0.33999081  0.15852845  1.0
  Ni  Ni206  1  0.72468622  0.67332414  0.15852845  1.0
  Ni  Ni207  1  0.22468622  0.12570510  0.22995702  1.0
  Ni  Ni208  1  0.22468622  0.45903843  0.22995702  1.0
  Ni  Ni209  1  0.22468622  0.79237176  0.22995702  1.0
  Ni  Ni210  1  0.55801956  0.12570510  0.22995702  1.0
  Ni  Ni211  1  0.55801956  0.45903843  0.22995702  1.0
  Ni  Ni212  1  0.55801956  0.79237176  0.22995702  1.0
  Ni  Ni213  1  0.89135289  0.12570510  0.22995702  1.0
  Ni  Ni214  1  0.89135289  0.45903843  0.22995702  1.0
  Ni  Ni215  1  0.89135289  0.79237176  0.22995702  1.0
  Ni  Ni216  1  0.00000000  0.01132973  0.27652007  1.0
  Ni  Ni217  1  0.00000000  0.34466306  0.27652007  1.0
  Ni  Ni218  1  0.00000000  0.67799640  0.27652007  1.0
  Ni  Ni219  1  0.33333333  0.01132973  0.27652007  1.0
  Ni  Ni220  1  0.33333333  0.34466306  0.27652007  1.0
  Ni  Ni221  1  0.33333333  0.67799640  0.27652007  1.0
  Ni  Ni222  1  0.66666667  0.01132973  0.27652007  1.0
  Ni  Ni223  1  0.66666667  0.34466306  0.27652007  1.0
  Ni  Ni224  1  0.66666667  0.67799640  0.27652007  1.0
  Ni  Ni225  1  0.16666667  0.22561544  0.20509150  1.0
  Ni  Ni226  1  0.16666667  0.55894878  0.20509150  1.0
  Ni  Ni227  1  0.16666667  0.89228211  0.20509150  1.0
  Ni  Ni228  1  0.50000000  0.22561544  0.20509150  1.0
  Ni  Ni229  1  0.50000000  0.55894878  0.20509150  1.0
  Ni  Ni230  1  0.50000000  0.89228211  0.20509150  1.0
  Ni  Ni231  1  0.83333333  0.22561544  0.20509150  1.0
  Ni  Ni232  1  0.83333333  0.55894878  0.20509150  1.0
  Ni  Ni233  1  0.83333333  0.89228211  0.20509150  1.0
  Ni  Ni234  1  0.05801955  0.30322052  0.25165455  1.0
  Ni  Ni235  1  0.05801955  0.63655386  0.25165455  1.0
  Ni  Ni236  1  0.05801955  0.96988719  0.25165455  1.0
  Ni  Ni237  1  0.39135289  0.30322052  0.25165455  1.0
  Ni  Ni238  1  0.39135289  0.63655386  0.25165455  1.0
  Ni  Ni239  1  0.39135289  0.96988719  0.25165455  1.0
  Ni  Ni240  1  0.72468622  0.30322052  0.25165455  1.0
  Ni  Ni241  1  0.72468622  0.63655386  0.25165455  1.0
  Ni  Ni242  1  0.72468622  0.96988719  0.25165455  1.0
  Ni  Ni243  1  0.22468622  0.18417290  0.18022598  1.0
  Ni  Ni244  1  0.22468622  0.51750624  0.18022598  1.0
  Ni  Ni245  1  0.22468622  0.85083957  0.18022598  1.0
  Ni  Ni246  1  0.55801956  0.18417290  0.18022598  1.0
  Ni  Ni247  1  0.55801956  0.51750624  0.18022598  1.0
  Ni  Ni248  1  0.55801956  0.85083957  0.18022598  1.0
  Ni  Ni249  1  0.89135289  0.18417290  0.18022598  1.0
  Ni  Ni250  1  0.89135289  0.51750624  0.18022598  1.0
  Ni  Ni251  1  0.89135289  0.85083957  0.18022598  1.0
  Ni  Ni252  1  0.27531378  0.30322052  0.25165455  1.0
  Ni  Ni253  1  0.27531378  0.63655386  0.25165455  1.0
  Ni  Ni254  1  0.27531378  0.96988719  0.25165455  1.0
  Ni  Ni255  1  0.60864711  0.30322052  0.25165455  1.0
  Ni  Ni256  1  0.60864711  0.63655386  0.25165455  1.0
  Ni  Ni257  1  0.60864711  0.96988719  0.25165455  1.0
  Ni  Ni258  1  0.94198044  0.30322052  0.25165455  1.0
  Ni  Ni259  1  0.94198045  0.63655386  0.25165455  1.0
  Ni  Ni260  1  0.94198044  0.96988719  0.25165455  1.0
  Ni  Ni261  1  0.10864711  0.18417290  0.18022598  1.0
  Ni  Ni262  1  0.10864711  0.51750624  0.18022598  1.0
  Ni  Ni263  1  0.10864711  0.85083957  0.18022598  1.0
  Ni  Ni264  1  0.44198044  0.18417290  0.18022598  1.0
  Ni  Ni265  1  0.44198044  0.51750624  0.18022598  1.0
  Ni  Ni266  1  0.44198045  0.85083957  0.18022598  1.0
  Ni  Ni267  1  0.77531378  0.18417290  0.18022598  1.0
  Ni  Ni268  1  0.77531378  0.51750624  0.18022598  1.0
  Ni  Ni269  1  0.77531378  0.85083957  0.18022598  1.0
  Ni  Ni270  1  0.33333333  0.07341379  0.18339398  1.0
  Ni  Ni271  1  0.33333333  0.40674713  0.18339398  1.0
  Ni  Ni272  1  0.33333333  0.74008046  0.18339398  1.0
  Ni  Ni273  1  0.66666667  0.07341379  0.18339398  1.0
  Ni  Ni274  1  0.66666667  0.40674713  0.18339398  1.0
  Ni  Ni275  1  0.66666667  0.74008046  0.18339398  1.0
  Ni  Ni276  1  0.00000000  0.07341379  0.18339398  1.0
  Ni  Ni277  1  0.00000000  0.40674713  0.18339398  1.0
  Ni  Ni278  1  1.00000000  0.74008046  0.18339398  1.0
  Ni  Ni279  1  0.16666667  0.19246141  0.25482255  1.0
  Ni  Ni280  1  0.16666667  0.52579475  0.25482255  1.0
  Ni  Ni281  1  0.16666667  0.85912808  0.25482255  1.0
  Ni  Ni282  1  0.50000000  0.19246141  0.25482255  1.0
  Ni  Ni283  1  0.50000000  0.52579475  0.25482255  1.0
  Ni  Ni284  1  0.50000000  0.85912808  0.25482255  1.0
  Ni  Ni285  1  0.83333333  0.19246141  0.25482255  1.0
  Ni  Ni286  1  0.83333333  0.52579475  0.25482255  1.0
  Ni  Ni287  1  0.83333333  0.85912808  0.25482255  1.0
  Ni  Ni288  1  0.33333333  0.10807208  0.41937721  1.0
  Ni  Ni289  1  0.33333333  0.44140541  0.41937721  1.0
  Ni  Ni290  1  0.33333333  0.77473875  0.41937721  1.0
  Ni  Ni291  1  0.66666667  0.10807208  0.41937721  1.0
  Ni  Ni292  1  0.66666667  0.44140541  0.41937721  1.0
  Ni  Ni293  1  0.66666667  0.77473875  0.41937721  1.0
  Ni  Ni294  1  1.00000000  0.10807208  0.41937721  1.0
  Ni  Ni295  1  0.00000000  0.44140541  0.41937721  1.0
  Ni  Ni296  1  1.00000000  0.77473875  0.41937721  1.0
  Ni  Ni297  1  0.16666667  0.32235779  0.34794864  1.0
  Ni  Ni298  1  0.16666667  0.65569113  0.34794864  1.0
  Ni  Ni299  1  0.16666667  0.98902446  0.34794864  1.0
  Ni  Ni300  1  0.50000000  0.32235779  0.34794864  1.0
  Ni  Ni301  1  0.50000000  0.65569113  0.34794864  1.0
  Ni  Ni302  1  0.50000000  0.98902446  0.34794864  1.0
  Ni  Ni303  1  0.83333333  0.32235779  0.34794864  1.0
  Ni  Ni304  1  0.83333333  0.65569113  0.34794864  1.0
  Ni  Ni305  1  0.83333333  0.98902446  0.34794864  1.0
  Ni  Ni306  1  0.27531378  0.24475272  0.30138559  1.0
  Ni  Ni307  1  0.27531378  0.57808605  0.30138559  1.0
  Ni  Ni308  1  0.27531378  0.91141938  0.30138559  1.0
  Ni  Ni309  1  0.60864711  0.24475272  0.30138559  1.0
  Ni  Ni310  1  0.60864711  0.57808605  0.30138559  1.0
  Ni  Ni311  1  0.60864711  0.91141938  0.30138559  1.0
  Ni  Ni312  1  0.94198044  0.24475272  0.30138559  1.0
  Ni  Ni313  1  0.94198045  0.57808605  0.30138559  1.0
  Ni  Ni314  1  0.94198044  0.91141938  0.30138559  1.0
  Ni  Ni315  1  0.10864711  0.03046700  0.37281417  1.0
  Ni  Ni316  1  0.10864711  0.36380033  0.37281417  1.0
  Ni  Ni317  1  0.10864711  0.69713367  0.37281417  1.0
  Ni  Ni318  1  0.44198045  0.03046700  0.37281417  1.0
  Ni  Ni319  1  0.44198045  0.36380033  0.37281417  1.0
  Ni  Ni320  1  0.44198045  0.69713367  0.37281417  1.0
  Ni  Ni321  1  0.77531378  0.03046700  0.37281417  1.0
  Ni  Ni322  1  0.77531378  0.36380033  0.37281417  1.0
  Ni  Ni323  1  0.77531378  0.69713367  0.37281417  1.0
  Ni  Ni324  1  0.33333333  0.14122611  0.36964617  1.0
  Ni  Ni325  1  0.33333333  0.47455945  0.36964617  1.0
  Ni  Ni326  1  0.33333333  0.80789278  0.36964617  1.0
  Ni  Ni327  1  0.66666667  0.14122611  0.36964617  1.0
  Ni  Ni328  1  0.66666667  0.47455945  0.36964617  1.0
  Ni  Ni329  1  0.66666667  0.80789278  0.36964617  1.0
  Ni  Ni330  1  0.00000000  0.14122611  0.36964617  1.0
  Ni  Ni331  1  0.00000000  0.47455945  0.36964617  1.0
  Ni  Ni332  1  1.00000000  0.80789278  0.36964617  1.0
  Ni  Ni333  1  0.16666667  0.02217849  0.29821760  1.0
  Ni  Ni334  1  0.16666667  0.35551183  0.29821760  1.0
  Ni  Ni335  1  0.16666667  0.68884516  0.29821760  1.0
  Ni  Ni336  1  0.50000000  0.02217849  0.29821760  1.0
  Ni  Ni337  1  0.50000000  0.35551183  0.29821760  1.0
  Ni  Ni338  1  0.50000000  0.68884516  0.29821760  1.0
  Ni  Ni339  1  0.83333333  0.02217849  0.29821760  1.0
  Ni  Ni340  1  0.83333333  0.35551183  0.29821760  1.0
  Ni  Ni341  1  0.83333333  0.68884516  0.29821760  1.0
  Ni  Ni342  1  0.05801955  0.24475272  0.30138559  1.0
  Ni  Ni343  1  0.05801955  0.57808605  0.30138559  1.0
  Ni  Ni344  1  0.05801955  0.91141938  0.30138559  1.0
  Ni  Ni345  1  0.39135289  0.24475272  0.30138559  1.0
  Ni  Ni346  1  0.39135289  0.57808605  0.30138559  1.0
  Ni  Ni347  1  0.39135289  0.91141938  0.30138559  1.0
  Ni  Ni348  1  0.72468622  0.24475272  0.30138559  1.0
  Ni  Ni349  1  0.72468622  0.57808605  0.30138559  1.0
  Ni  Ni350  1  0.72468622  0.91141938  0.30138559  1.0
  Ni  Ni351  1  0.22468622  0.03046700  0.37281417  1.0
  Ni  Ni352  1  0.22468622  0.36380033  0.37281417  1.0
  Ni  Ni353  1  0.22468622  0.69713367  0.37281417  1.0
  Ni  Ni354  1  0.55801956  0.03046700  0.37281417  1.0
  Ni  Ni355  1  0.55801956  0.36380033  0.37281417  1.0
  Ni  Ni356  1  0.55801956  0.69713367  0.37281417  1.0
  Ni  Ni357  1  0.89135289  0.03046700  0.37281417  1.0
  Ni  Ni358  1  0.89135289  0.36380033  0.37281417  1.0
  Ni  Ni359  1  0.89135289  0.69713367  0.37281417  1.0
  Ni  Ni360  1  0.33333333  0.24942497  0.41937721  1.0
  Ni  Ni361  1  0.33333333  0.58275830  0.41937721  1.0
  Ni  Ni362  1  0.33333333  0.91609163  0.41937721  1.0
  Ni  Ni363  1  0.66666667  0.24942497  0.41937721  1.0
  Ni  Ni364  1  0.66666667  0.58275830  0.41937721  1.0
  Ni  Ni365  1  0.66666667  0.91609163  0.41937721  1.0
  Ni  Ni366  1  1.00000000  0.24942497  0.41937721  1.0
  Ni  Ni367  1  1.00000000  0.58275830  0.41937721  1.0
  Ni  Ni368  1  1.00000000  0.91609163  0.41937721  1.0
  Ni  Ni369  1  0.16666667  0.13037735  0.34794864  1.0
  Ni  Ni370  1  0.16666667  0.46371068  0.34794864  1.0
  Ni  Ni371  1  0.16666667  0.79704401  0.34794864  1.0
  Ni  Ni372  1  0.50000000  0.13037735  0.34794864  1.0
  Ni  Ni373  1  0.50000000  0.46371068  0.34794864  1.0
  Ni  Ni374  1  0.50000000  0.79704401  0.34794864  1.0
  Ni  Ni375  1  0.83333333  0.13037735  0.34794864  1.0
  Ni  Ni376  1  0.83333333  0.46371068  0.34794864  1.0
  Ni  Ni377  1  0.83333333  0.79704401  0.34794864  1.0
  Ni  Ni378  1  0.05801955  0.20798243  0.39451169  1.0
  Ni  Ni379  1  0.05801955  0.54131576  0.39451169  1.0
  Ni  Ni380  1  0.05801955  0.87464909  0.39451169  1.0
  Ni  Ni381  1  0.39135289  0.20798243  0.39451169  1.0
  Ni  Ni382  1  0.39135289  0.54131576  0.39451169  1.0
  Ni  Ni383  1  0.39135289  0.87464909  0.39451169  1.0
  Ni  Ni384  1  0.72468622  0.20798243  0.39451169  1.0
  Ni  Ni385  1  0.72468622  0.54131576  0.39451169  1.0
  Ni  Ni386  1  0.72468622  0.87464909  0.39451169  1.0
  Ni  Ni387  1  0.22468622  0.08893481  0.32308312  1.0
  Ni  Ni388  1  0.22468622  0.42226814  0.32308312  1.0
  Ni  Ni389  1  0.22468622  0.75560148  0.32308312  1.0
  Ni  Ni390  1  0.55801956  0.08893481  0.32308312  1.0
  Ni  Ni391  1  0.55801956  0.42226814  0.32308312  1.0
  Ni  Ni392  1  0.55801956  0.75560148  0.32308312  1.0
  Ni  Ni393  1  0.89135289  0.08893481  0.32308312  1.0
  Ni  Ni394  1  0.89135289  0.42226814  0.32308312  1.0
  Ni  Ni395  1  0.89135289  0.75560148  0.32308312  1.0
  Ni  Ni396  1  0.27531378  0.20798243  0.39451169  1.0
  Ni  Ni397  1  0.27531378  0.54131576  0.39451169  1.0
  Ni  Ni398  1  0.27531378  0.87464909  0.39451169  1.0
  Ni  Ni399  1  0.60864711  0.20798243  0.39451169  1.0
  Ni  Ni400  1  0.60864711  0.54131576  0.39451169  1.0
  Ni  Ni401  1  0.60864711  0.87464909  0.39451169  1.0
  Ni  Ni402  1  0.94198044  0.20798243  0.39451169  1.0
  Ni  Ni403  1  0.94198045  0.54131576  0.39451169  1.0
  Ni  Ni404  1  0.94198044  0.87464909  0.39451169  1.0
  Ni  Ni405  1  0.10864711  0.08893481  0.32308312  1.0
  Ni  Ni406  1  0.10864711  0.42226814  0.32308312  1.0
  Ni  Ni407  1  0.10864711  0.75560148  0.32308312  1.0
  Ni  Ni408  1  0.44198044  0.08893481  0.32308312  1.0
  Ni  Ni409  1  0.44198044  0.42226814  0.32308312  1.0
  Ni  Ni410  1  0.44198045  0.75560148  0.32308312  1.0
  Ni  Ni411  1  0.77531378  0.08893481  0.32308312  1.0
  Ni  Ni412  1  0.77531378  0.42226814  0.32308312  1.0
  Ni  Ni413  1  0.77531378  0.75560148  0.32308312  1.0
  Ni  Ni414  1  0.33333333  0.31150903  0.32625112  1.0
  Ni  Ni415  1  0.33333333  0.64484236  0.32625112  1.0
  Ni  Ni416  1  0.33333333  0.97817570  0.32625112  1.0
  Ni  Ni417  1  0.66666667  0.31150903  0.32625112  1.0
  Ni  Ni418  1  0.66666667  0.64484236  0.32625112  1.0
  Ni  Ni419  1  0.66666667  0.97817570  0.32625112  1.0
  Ni  Ni420  1  1.00000000  0.31150903  0.32625112  1.0
  Ni  Ni421  1  1.00000000  0.64484236  0.32625112  1.0
  Ni  Ni422  1  1.00000000  0.97817570  0.32625112  1.0
  Ni  Ni423  1  0.16666667  0.09722332  0.39767969  1.0
  Ni  Ni424  1  0.16666667  0.43055665  0.39767969  1.0
  Ni  Ni425  1  0.16666667  0.76388998  0.39767969  1.0
  Ni  Ni426  1  0.50000000  0.09722332  0.39767969  1.0
  Ni  Ni427  1  0.50000000  0.43055665  0.39767969  1.0
  Ni  Ni428  1  0.50000000  0.76388998  0.39767969  1.0
  Ni  Ni429  1  0.83333333  0.09722332  0.39767969  1.0
  Ni  Ni430  1  0.83333333  0.43055665  0.39767969  1.0
  Ni  Ni431  1  0.83333333  0.76388998  0.39767969  1.0
  Sc  Sc432  1  0.33333333  0.03589138  0.13366293  1.0
  Sc  Sc433  1  0.33333333  0.36922471  0.13366293  1.0
  Sc  Sc434  1  0.33333333  0.70255805  0.13366293  1.0
  Sc  Sc435  1  0.66666667  0.03589138  0.13366293  1.0
  Sc  Sc436  1  0.66666667  0.36922471  0.13366293  1.0
  Sc  Sc437  1  0.66666667  0.70255805  0.13366293  1.0
  Sc  Sc438  1  1.00000000  0.03589138  0.13366293  1.0
  Sc  Sc439  1  1.00000000  0.36922471  0.13366293  1.0
  Sc  Sc440  1  1.00000000  0.70255805  0.13366293  1.0
  Sc  Sc441  1  0.16666667  0.25017710  0.06223436  1.0
  Sc  Sc442  1  0.16666667  0.58351043  0.06223436  1.0
  Sc  Sc443  1  0.16666667  0.91684376  0.06223436  1.0
  Sc  Sc444  1  0.50000000  0.25017710  0.06223436  1.0
  Sc  Sc445  1  0.50000000  0.58351043  0.06223436  1.0
  Sc  Sc446  1  0.50000000  0.91684376  0.06223436  1.0
  Sc  Sc447  1  0.83333333  0.25017710  0.06223436  1.0
  Sc  Sc448  1  0.83333333  0.58351043  0.06223436  1.0
  Sc  Sc449  1  0.83333333  0.91684376  0.06223436  1.0
  Sc  Sc450  1  0.25000000  0.19065329  0.02652007  1.0
  Sc  Sc451  1  0.25000000  0.52398662  0.02652007  1.0
  Sc  Sc452  1  0.25000000  0.85731995  0.02652007  1.0
  Sc  Sc453  1  0.58333333  0.19065329  0.02652007  1.0
  Sc  Sc454  1  0.58333333  0.52398662  0.02652007  1.0
  Sc  Sc455  1  0.58333333  0.85731995  0.02652007  1.0
  Sc  Sc456  1  0.91666667  0.19065329  0.02652007  1.0
  Sc  Sc457  1  0.91666667  0.52398662  0.02652007  1.0
  Sc  Sc458  1  0.91666667  0.85731995  0.02652007  1.0
  Sc  Sc459  1  0.08333333  0.30970090  0.09794864  1.0
  Sc  Sc460  1  0.08333333  0.64303424  0.09794864  1.0
  Sc  Sc461  1  0.08333333  0.97636757  0.09794864  1.0
  Sc  Sc462  1  0.41666667  0.30970090  0.09794864  1.0
  Sc  Sc463  1  0.41666667  0.64303424  0.09794864  1.0
  Sc  Sc464  1  0.41666667  0.97636757  0.09794864  1.0
  Sc  Sc465  1  0.75000000  0.30970090  0.09794864  1.0
  Sc  Sc466  1  0.75000000  0.64303424  0.09794864  1.0
  Sc  Sc467  1  0.75000000  0.97636757  0.09794864  1.0
  Sc  Sc468  1  0.33333333  0.08351043  0.06223436  1.0
  Sc  Sc469  1  0.33333333  0.41684376  0.06223436  1.0
  Sc  Sc470  1  0.33333333  0.75017710  0.06223436  1.0
  Sc  Sc471  1  0.66666667  0.08351043  0.06223436  1.0
  Sc  Sc472  1  0.66666667  0.41684376  0.06223436  1.0
  Sc  Sc473  1  0.66666667  0.75017710  0.06223436  1.0
  Sc  Sc474  1  1.00000000  0.08351043  0.06223436  1.0
  Sc  Sc475  1  0.00000000  0.41684376  0.06223436  1.0
  Sc  Sc476  1  1.00000000  0.75017710  0.06223436  1.0
  Sc  Sc477  1  0.16666667  0.20255805  0.13366293  1.0
  Sc  Sc478  1  0.16666667  0.53589138  0.13366293  1.0
  Sc  Sc479  1  0.16666667  0.86922471  0.13366293  1.0
  Sc  Sc480  1  0.50000000  0.20255805  0.13366293  1.0
  Sc  Sc481  1  0.50000000  0.53589138  0.13366293  1.0
  Sc  Sc482  1  0.50000000  0.86922471  0.13366293  1.0
  Sc  Sc483  1  0.83333333  0.20255805  0.13366293  1.0
  Sc  Sc484  1  0.83333333  0.53589138  0.13366293  1.0
  Sc  Sc485  1  0.83333333  0.86922471  0.13366293  1.0
  Sc  Sc486  1  0.08333333  0.19065329  0.02652007  1.0
  Sc  Sc487  1  0.08333333  0.52398662  0.02652007  1.0
  Sc  Sc488  1  0.08333333  0.85731995  0.02652007  1.0
  Sc  Sc489  1  0.41666667  0.19065329  0.02652007  1.0
  Sc  Sc490  1  0.41666667  0.52398662  0.02652007  1.0
  Sc  Sc491  1  0.41666667  0.85731995  0.02652007  1.0
  Sc  Sc492  1  0.75000000  0.19065329  0.02652007  1.0
  Sc  Sc493  1  0.75000000  0.52398662  0.02652007  1.0
  Sc  Sc494  1  0.75000000  0.85731995  0.02652007  1.0
  Sc  Sc495  1  0.25000000  0.30970090  0.09794864  1.0
  Sc  Sc496  1  0.25000000  0.64303424  0.09794864  1.0
  Sc  Sc497  1  0.25000000  0.97636757  0.09794864  1.0
  Sc  Sc498  1  0.58333333  0.30970090  0.09794864  1.0
  Sc  Sc499  1  0.58333333  0.64303424  0.09794864  1.0
  Sc  Sc500  1  0.58333333  0.97636757  0.09794864  1.0
  Sc  Sc501  1  0.91666667  0.30970090  0.09794864  1.0
  Sc  Sc502  1  0.91666667  0.64303424  0.09794864  1.0
  Sc  Sc503  1  0.91666667  0.97636757  0.09794864  1.0
  Sc  Sc504  1  0.00000000  0.28264955  0.04384593  1.0
  Sc  Sc505  1  0.00000000  0.61598288  0.04384593  1.0
  Sc  Sc506  1  0.00000000  0.94931621  0.04384593  1.0
  Sc  Sc507  1  0.33333333  0.28264955  0.04384593  1.0
  Sc  Sc508  1  0.33333333  0.61598288  0.04384593  1.0
  Sc  Sc509  1  0.33333333  0.94931621  0.04384593  1.0
  Sc  Sc510  1  0.66666667  0.28264955  0.04384593  1.0
  Sc  Sc511  1  0.66666667  0.61598288  0.04384593  1.0
  Sc  Sc512  1  0.66666667  0.94931621  0.04384593  1.0
  Sc  Sc513  1  0.16666667  0.06836383  0.11527450  1.0
  Sc  Sc514  1  0.16666667  0.40169717  0.11527450  1.0
  Sc  Sc515  1  0.16666667  0.73503050  0.11527450  1.0
  Sc  Sc516  1  0.50000000  0.06836383  0.11527450  1.0
  Sc  Sc517  1  0.50000000  0.40169717  0.11527450  1.0
  Sc  Sc518  1  0.50000000  0.73503050  0.11527450  1.0
  Sc  Sc519  1  0.83333333  0.06836383  0.11527450  1.0
  Sc  Sc520  1  0.83333333  0.40169717  0.11527450  1.0
  Sc  Sc521  1  0.83333333  0.73503050  0.11527450  1.0
  Sc  Sc522  1  0.00000000  0.13437131  0.08062279  1.0
  Sc  Sc523  1  0.00000000  0.46770464  0.08062279  1.0
  Sc  Sc524  1  0.00000000  0.80103798  0.08062279  1.0
  Sc  Sc525  1  0.33333333  0.13437131  0.08062279  1.0
  Sc  Sc526  1  0.33333333  0.46770464  0.08062279  1.0
  Sc  Sc527  1  0.33333333  0.80103798  0.08062279  1.0
  Sc  Sc528  1  0.66666667  0.13437131  0.08062279  1.0
  Sc  Sc529  1  0.66666667  0.46770464  0.08062279  1.0
  Sc  Sc530  1  0.66666667  0.80103798  0.08062279  1.0
  Sc  Sc531  1  0.16666667  0.01532369  0.00919421  1.0
  Sc  Sc532  1  0.16666667  0.34865702  0.00919421  1.0
  Sc  Sc533  1  0.16666667  0.68199036  0.00919421  1.0
  Sc  Sc534  1  0.50000000  0.01532369  0.00919421  1.0
  Sc  Sc535  1  0.50000000  0.34865702  0.00919421  1.0
  Sc  Sc536  1  0.50000000  0.68199036  0.00919421  1.0
  Sc  Sc537  1  0.83333333  0.01532369  0.00919421  1.0
  Sc  Sc538  1  0.83333333  0.34865702  0.00919421  1.0
  Sc  Sc539  1  0.83333333  0.68199036  0.00919421  1.0
  Sc  Sc540  1  0.27145317  0.17857143  0.10714286  1.0
  Sc  Sc541  1  0.27145317  0.51190476  0.10714286  1.0
  Sc  Sc542  1  0.27145317  0.84523810  0.10714286  1.0
  Sc  Sc543  1  0.60478650  0.17857143  0.10714286  1.0
  Sc  Sc544  1  0.60478650  0.51190476  0.10714286  1.0
  Sc  Sc545  1  0.60478650  0.84523810  0.10714286  1.0
  Sc  Sc546  1  0.93811983  0.17857143  0.10714286  1.0
  Sc  Sc547  1  0.93811983  0.51190476  0.10714286  1.0
  Sc  Sc548  1  0.93811983  0.84523810  0.10714286  1.0
  Sc  Sc549  1  0.10478650  0.05952381  0.03571429  1.0
  Sc  Sc550  1  0.10478650  0.39285714  0.03571429  1.0
  Sc  Sc551  1  0.10478650  0.72619048  0.03571429  1.0
  Sc  Sc552  1  0.43811983  0.05952381  0.03571429  1.0
  Sc  Sc553  1  0.43811983  0.39285714  0.03571429  1.0
  Sc  Sc554  1  0.43811983  0.72619048  0.03571429  1.0
  Sc  Sc555  1  0.77145317  0.05952381  0.03571429  1.0
  Sc  Sc556  1  0.77145317  0.39285714  0.03571429  1.0
  Sc  Sc557  1  0.77145317  0.72619048  0.03571429  1.0
  Sc  Sc558  1  0.06188017  0.17857143  0.10714286  1.0
  Sc  Sc559  1  0.06188017  0.51190476  0.10714286  1.0
  Sc  Sc560  1  0.06188017  0.84523810  0.10714286  1.0
  Sc  Sc561  1  0.39521350  0.17857143  0.10714286  1.0
  Sc  Sc562  1  0.39521350  0.51190476  0.10714286  1.0
  Sc  Sc563  1  0.39521350  0.84523810  0.10714286  1.0
  Sc  Sc564  1  0.72854683  0.17857143  0.10714286  1.0
  Sc  Sc565  1  0.72854683  0.51190476  0.10714286  1.0
  Sc  Sc566  1  0.72854683  0.84523810  0.10714286  1.0
  Sc  Sc567  1  0.22854683  0.05952381  0.03571429  1.0
  Sc  Sc568  1  0.22854683  0.39285714  0.03571429  1.0
  Sc  Sc569  1  0.22854683  0.72619048  0.03571429  1.0
  Sc  Sc570  1  0.56188017  0.05952381  0.03571429  1.0
  Sc  Sc571  1  0.56188017  0.39285714  0.03571429  1.0
  Sc  Sc572  1  0.56188017  0.72619048  0.03571429  1.0
  Sc  Sc573  1  0.89521350  0.05952381  0.03571429  1.0
  Sc  Sc574  1  0.89521350  0.39285714  0.03571429  1.0
  Sc  Sc575  1  0.89521350  0.72619048  0.03571429  1.0
  Sc  Sc576  1  0.06188017  0.23844943  0.01732586  1.0
  Sc  Sc577  1  0.06188017  0.57178276  0.01732586  1.0
  Sc  Sc578  1  0.06188017  0.90511610  0.01732586  1.0
  Sc  Sc579  1  0.39521350  0.23844943  0.01732586  1.0
  Sc  Sc580  1  0.39521350  0.57178276  0.01732586  1.0
  Sc  Sc581  1  0.39521350  0.90511610  0.01732586  1.0
  Sc  Sc582  1  0.72854683  0.23844943  0.01732586  1.0
  Sc  Sc583  1  0.72854683  0.57178276  0.01732586  1.0
  Sc  Sc584  1  0.72854683  0.90511610  0.01732586  1.0
  Sc  Sc585  1  0.22854683  0.02416371  0.08875443  1.0
  Sc  Sc586  1  0.22854683  0.35749705  0.08875443  1.0
  Sc  Sc587  1  0.22854683  0.69083038  0.08875443  1.0
  Sc  Sc588  1  0.56188017  0.02416371  0.08875443  1.0
  Sc  Sc589  1  0.56188017  0.35749705  0.08875443  1.0
  Sc  Sc590  1  0.56188017  0.69083038  0.08875443  1.0
  Sc  Sc591  1  0.89521350  0.02416371  0.08875443  1.0
  Sc  Sc592  1  0.89521350  0.35749705  0.08875443  1.0
  Sc  Sc593  1  0.89521350  0.69083038  0.08875443  1.0
  Sc  Sc594  1  0.27145317  0.23844943  0.01732586  1.0
  Sc  Sc595  1  0.27145317  0.57178276  0.01732586  1.0
  Sc  Sc596  1  0.27145317  0.90511610  0.01732586  1.0
  Sc  Sc597  1  0.60478650  0.23844943  0.01732586  1.0
  Sc  Sc598  1  0.60478650  0.57178276  0.01732586  1.0
  Sc  Sc599  1  0.60478650  0.90511610  0.01732586  1.0
  Sc  Sc600  1  0.93811983  0.23844943  0.01732586  1.0
  Sc  Sc601  1  0.93811983  0.57178276  0.01732586  1.0
  Sc  Sc602  1  0.93811983  0.90511610  0.01732586  1.0
  Sc  Sc603  1  0.10478650  0.02416371  0.08875443  1.0
  Sc  Sc604  1  0.10478650  0.35749705  0.08875443  1.0
  Sc  Sc605  1  0.10478650  0.69083038  0.08875443  1.0
  Sc  Sc606  1  0.43811983  0.02416371  0.08875443  1.0
  Sc  Sc607  1  0.43811983  0.35749705  0.08875443  1.0
  Sc  Sc608  1  0.43811983  0.69083038  0.08875443  1.0
  Sc  Sc609  1  0.77145317  0.02416371  0.08875443  1.0
  Sc  Sc610  1  0.77145317  0.35749705  0.08875443  1.0
  Sc  Sc611  1  0.77145317  0.69083038  0.08875443  1.0
  Sc  Sc612  1  0.22854683  0.10749705  0.08875443  1.0
  Sc  Sc613  1  0.22854683  0.44083038  0.08875443  1.0
  Sc  Sc614  1  0.22854683  0.77416371  0.08875443  1.0
  Sc  Sc615  1  0.56188017  0.10749705  0.08875443  1.0
  Sc  Sc616  1  0.56188017  0.44083038  0.08875443  1.0
  Sc  Sc617  1  0.56188017  0.77416371  0.08875443  1.0
  Sc  Sc618  1  0.89521350  0.10749705  0.08875443  1.0
  Sc  Sc619  1  0.89521350  0.44083038  0.08875443  1.0
  Sc  Sc620  1  0.89521350  0.77416371  0.08875443  1.0
  Sc  Sc621  1  0.06188017  0.32178276  0.01732586  1.0
  Sc  Sc622  1  0.06188017  0.65511610  0.01732586  1.0
  Sc  Sc623  1  0.06188017  0.98844943  0.01732586  1.0
  Sc  Sc624  1  0.39521350  0.32178276  0.01732586  1.0
  Sc  Sc625  1  0.39521350  0.65511610  0.01732586  1.0
  Sc  Sc626  1  0.39521350  0.98844943  0.01732586  1.0
  Sc  Sc627  1  0.72854683  0.32178276  0.01732586  1.0
  Sc  Sc628  1  0.72854683  0.65511610  0.01732586  1.0
  Sc  Sc629  1  0.72854683  0.98844943  0.01732586  1.0
  Sc  Sc630  1  0.10478650  0.14285714  0.03571429  1.0
  Sc  Sc631  1  0.10478650  0.47619048  0.03571429  1.0
  Sc  Sc632  1  0.10478650  0.80952381  0.03571429  1.0
  Sc  Sc633  1  0.43811983  0.14285714  0.03571429  1.0
  Sc  Sc634  1  0.43811983  0.47619048  0.03571429  1.0
  Sc  Sc635  1  0.43811983  0.80952381  0.03571429  1.0
  Sc  Sc636  1  0.77145317  0.14285714  0.03571429  1.0
  Sc  Sc637  1  0.77145317  0.47619048  0.03571429  1.0
  Sc  Sc638  1  0.77145317  0.80952381  0.03571429  1.0
  Sc  Sc639  1  0.27145317  0.26190476  0.10714286  1.0
  Sc  Sc640  1  0.27145317  0.59523810  0.10714286  1.0
  Sc  Sc641  1  0.27145317  0.92857143  0.10714286  1.0
  Sc  Sc642  1  0.60478650  0.26190476  0.10714286  1.0
  Sc  Sc643  1  0.60478650  0.59523810  0.10714286  1.0
  Sc  Sc644  1  0.60478650  0.92857143  0.10714286  1.0
  Sc  Sc645  1  0.93811983  0.26190476  0.10714286  1.0
  Sc  Sc646  1  0.93811983  0.59523810  0.10714286  1.0
  Sc  Sc647  1  0.93811983  0.92857143  0.10714286  1.0
  Sc  Sc648  1  0.00000000  0.21770464  0.08062279  1.0
  Sc  Sc649  1  0.00000000  0.55103798  0.08062279  1.0
  Sc  Sc650  1  0.00000000  0.88437131  0.08062279  1.0
  Sc  Sc651  1  0.33333333  0.21770464  0.08062279  1.0
  Sc  Sc652  1  0.33333333  0.55103798  0.08062279  1.0
  Sc  Sc653  1  0.33333333  0.88437131  0.08062279  1.0
  Sc  Sc654  1  0.66666667  0.21770464  0.08062279  1.0
  Sc  Sc655  1  0.66666667  0.55103798  0.08062279  1.0
  Sc  Sc656  1  0.66666667  0.88437131  0.08062279  1.0
  Sc  Sc657  1  0.16666667  0.09865702  0.00919421  1.0
  Sc  Sc658  1  0.16666667  0.43199036  0.00919421  1.0
  Sc  Sc659  1  0.16666667  0.76532369  0.00919421  1.0
  Sc  Sc660  1  0.50000000  0.09865702  0.00919421  1.0
  Sc  Sc661  1  0.50000000  0.43199036  0.00919421  1.0
  Sc  Sc662  1  0.50000000  0.76532369  0.00919421  1.0
  Sc  Sc663  1  0.83333333  0.09865702  0.00919421  1.0
  Sc  Sc664  1  0.83333333  0.43199036  0.00919421  1.0
  Sc  Sc665  1  0.83333333  0.76532369  0.00919421  1.0
  Sc  Sc666  1  0.10478650  0.10749705  0.08875443  1.0
  Sc  Sc667  1  0.10478650  0.44083038  0.08875443  1.0
  Sc  Sc668  1  0.10478650  0.77416371  0.08875443  1.0
  Sc  Sc669  1  0.43811983  0.10749705  0.08875443  1.0
  Sc  Sc670  1  0.43811983  0.44083038  0.08875443  1.0
  Sc  Sc671  1  0.43811983  0.77416371  0.08875443  1.0
  Sc  Sc672  1  0.77145317  0.10749705  0.08875443  1.0
  Sc  Sc673  1  0.77145317  0.44083038  0.08875443  1.0
  Sc  Sc674  1  0.77145317  0.77416371  0.08875443  1.0
  Sc  Sc675  1  0.27145317  0.32178276  0.01732586  1.0
  Sc  Sc676  1  0.27145317  0.65511610  0.01732586  1.0
  Sc  Sc677  1  0.27145317  0.98844943  0.01732586  1.0
  Sc  Sc678  1  0.60478650  0.32178276  0.01732586  1.0
  Sc  Sc679  1  0.60478650  0.65511610  0.01732586  1.0
  Sc  Sc680  1  0.60478650  0.98844943  0.01732586  1.0
  Sc  Sc681  1  0.93811983  0.32178276  0.01732586  1.0
  Sc  Sc682  1  0.93811983  0.65511610  0.01732586  1.0
  Sc  Sc683  1  0.93811983  0.98844943  0.01732586  1.0
  Sc  Sc684  1  0.33333333  0.03264955  0.04384593  1.0
  Sc  Sc685  1  0.33333333  0.36598288  0.04384593  1.0
  Sc  Sc686  1  0.33333333  0.69931621  0.04384593  1.0
  Sc  Sc687  1  0.66666667  0.03264955  0.04384593  1.0
  Sc  Sc688  1  0.66666667  0.36598288  0.04384593  1.0
  Sc  Sc689  1  0.66666667  0.69931621  0.04384593  1.0
  Sc  Sc690  1  1.00000000  0.03264955  0.04384593  1.0
  Sc  Sc691  1  1.00000000  0.36598288  0.04384593  1.0
  Sc  Sc692  1  1.00000000  0.69931621  0.04384593  1.0
  Sc  Sc693  1  0.16666667  0.15169717  0.11527450  1.0
  Sc  Sc694  1  0.16666667  0.48503050  0.11527450  1.0
  Sc  Sc695  1  0.16666667  0.81836383  0.11527450  1.0
  Sc  Sc696  1  0.50000000  0.15169717  0.11527450  1.0
  Sc  Sc697  1  0.50000000  0.48503050  0.11527450  1.0
  Sc  Sc698  1  0.50000000  0.81836383  0.11527450  1.0
  Sc  Sc699  1  0.83333333  0.15169717  0.11527450  1.0
  Sc  Sc700  1  0.83333333  0.48503050  0.11527450  1.0
  Sc  Sc701  1  0.83333333  0.81836383  0.11527450  1.0
  Sc  Sc702  1  0.22854683  0.14285714  0.03571429  1.0
  Sc  Sc703  1  0.22854683  0.47619048  0.03571429  1.0
  Sc  Sc704  1  0.22854683  0.80952381  0.03571429  1.0
  Sc  Sc705  1  0.56188017  0.14285714  0.03571429  1.0
  Sc  Sc706  1  0.56188017  0.47619048  0.03571429  1.0
  Sc  Sc707  1  0.56188017  0.80952381  0.03571429  1.0
  Sc  Sc708  1  0.89521350  0.14285714  0.03571429  1.0
  Sc  Sc709  1  0.89521350  0.47619048  0.03571429  1.0
  Sc  Sc710  1  0.89521350  0.80952381  0.03571429  1.0
  Sc  Sc711  1  0.06188017  0.26190476  0.10714286  1.0
  Sc  Sc712  1  0.06188017  0.59523810  0.10714286  1.0
  Sc  Sc713  1  0.06188017  0.92857143  0.10714286  1.0
  Sc  Sc714  1  0.39521350  0.26190476  0.10714286  1.0
  Sc  Sc715  1  0.39521350  0.59523810  0.10714286  1.0
  Sc  Sc716  1  0.39521350  0.92857143  0.10714286  1.0
  Sc  Sc717  1  0.72854683  0.26190476  0.10714286  1.0
  Sc  Sc718  1  0.72854683  0.59523810  0.10714286  1.0
  Sc  Sc719  1  0.72854683  0.92857143  0.10714286  1.0
  Sc  Sc720  1  0.33333333  0.27398662  0.27652007  1.0
  Sc  Sc721  1  0.33333333  0.60731995  0.27652007  1.0
  Sc  Sc722  1  0.33333333  0.94065329  0.27652007  1.0
  Sc  Sc723  1  0.66666667  0.27398662  0.27652007  1.0
  Sc  Sc724  1  0.66666667  0.60731995  0.27652007  1.0
  Sc  Sc725  1  0.66666667  0.94065329  0.27652007  1.0
  Sc  Sc726  1  1.00000000  0.27398662  0.27652007  1.0
  Sc  Sc727  1  0.00000000  0.60731995  0.27652007  1.0
  Sc  Sc728  1  1.00000000  0.94065329  0.27652007  1.0
  Sc  Sc729  1  0.16666667  0.15493900  0.20509150  1.0
  Sc  Sc730  1  0.16666667  0.48827233  0.20509150  1.0
  Sc  Sc731  1  0.16666667  0.82160567  0.20509150  1.0
  Sc  Sc732  1  0.50000000  0.15493900  0.20509150  1.0
  Sc  Sc733  1  0.50000000  0.48827233  0.20509150  1.0
  Sc  Sc734  1  0.50000000  0.82160567  0.20509150  1.0
  Sc  Sc735  1  0.83333333  0.15493900  0.20509150  1.0
  Sc  Sc736  1  0.83333333  0.48827233  0.20509150  1.0
  Sc  Sc737  1  0.83333333  0.82160567  0.20509150  1.0
  Sc  Sc738  1  0.25000000  0.09541519  0.16937721  1.0
  Sc  Sc739  1  0.25000000  0.42874852  0.16937721  1.0
  Sc  Sc740  1  0.25000000  0.76208186  0.16937721  1.0
  Sc  Sc741  1  0.58333333  0.09541519  0.16937721  1.0
  Sc  Sc742  1  0.58333333  0.42874852  0.16937721  1.0
  Sc  Sc743  1  0.58333333  0.76208186  0.16937721  1.0
  Sc  Sc744  1  0.91666667  0.09541519  0.16937721  1.0
  Sc  Sc745  1  0.91666667  0.42874852  0.16937721  1.0
  Sc  Sc746  1  0.91666667  0.76208186  0.16937721  1.0
  Sc  Sc747  1  0.08333333  0.21446281  0.24080579  1.0
  Sc  Sc748  1  0.08333333  0.54779614  0.24080579  1.0
  Sc  Sc749  1  0.08333333  0.88112948  0.24080579  1.0
  Sc  Sc750  1  0.41666667  0.21446281  0.24080579  1.0
  Sc  Sc751  1  0.41666667  0.54779614  0.24080579  1.0
  Sc  Sc752  1  0.41666667  0.88112948  0.24080579  1.0
  Sc  Sc753  1  0.75000000  0.21446281  0.24080579  1.0
  Sc  Sc754  1  0.75000000  0.54779614  0.24080579  1.0
  Sc  Sc755  1  0.75000000  0.88112948  0.24080579  1.0
  Sc  Sc756  1  0.33333333  0.32160567  0.20509150  1.0
  Sc  Sc757  1  0.33333333  0.65493900  0.20509150  1.0
  Sc  Sc758  1  0.33333333  0.98827233  0.20509150  1.0
  Sc  Sc759  1  0.66666667  0.32160567  0.20509150  1.0
  Sc  Sc760  1  0.66666667  0.65493900  0.20509150  1.0
  Sc  Sc761  1  0.66666667  0.98827233  0.20509150  1.0
  Sc  Sc762  1  1.00000000  0.32160567  0.20509150  1.0
  Sc  Sc763  1  1.00000000  0.65493900  0.20509150  1.0
  Sc  Sc764  1  1.00000000  0.98827233  0.20509150  1.0
  Sc  Sc765  1  0.16666667  0.10731995  0.27652007  1.0
  Sc  Sc766  1  0.16666667  0.44065329  0.27652007  1.0
  Sc  Sc767  1  0.16666667  0.77398662  0.27652007  1.0
  Sc  Sc768  1  0.50000000  0.10731995  0.27652007  1.0
  Sc  Sc769  1  0.50000000  0.44065329  0.27652007  1.0
  Sc  Sc770  1  0.50000000  0.77398662  0.27652007  1.0
  Sc  Sc771  1  0.83333333  0.10731995  0.27652007  1.0
  Sc  Sc772  1  0.83333333  0.44065329  0.27652007  1.0
  Sc  Sc773  1  0.83333333  0.77398662  0.27652007  1.0
  Sc  Sc774  1  0.08333333  0.09541519  0.16937721  1.0
  Sc  Sc775  1  0.08333333  0.42874852  0.16937721  1.0
  Sc  Sc776  1  0.08333333  0.76208186  0.16937721  1.0
  Sc  Sc777  1  0.41666667  0.09541519  0.16937721  1.0
  Sc  Sc778  1  0.41666667  0.42874852  0.16937721  1.0
  Sc  Sc779  1  0.41666667  0.76208186  0.16937721  1.0
  Sc  Sc780  1  0.75000000  0.09541519  0.16937721  1.0
  Sc  Sc781  1  0.75000000  0.42874852  0.16937721  1.0
  Sc  Sc782  1  0.75000000  0.76208186  0.16937721  1.0
  Sc  Sc783  1  0.25000000  0.21446281  0.24080579  1.0
  Sc  Sc784  1  0.25000000  0.54779614  0.24080579  1.0
  Sc  Sc785  1  0.25000000  0.88112948  0.24080579  1.0
  Sc  Sc786  1  0.58333333  0.21446281  0.24080579  1.0
  Sc  Sc787  1  0.58333333  0.54779614  0.24080579  1.0
  Sc  Sc788  1  0.58333333  0.88112948  0.24080579  1.0
  Sc  Sc789  1  0.91666667  0.21446281  0.24080579  1.0
  Sc  Sc790  1  0.91666667  0.54779614  0.24080579  1.0
  Sc  Sc791  1  0.91666667  0.88112948  0.24080579  1.0
  Sc  Sc792  1  0.00000000  0.18741145  0.18670307  1.0
  Sc  Sc793  1  0.00000000  0.52074479  0.18670307  1.0
  Sc  Sc794  1  0.00000000  0.85407812  0.18670307  1.0
  Sc  Sc795  1  0.33333333  0.18741145  0.18670307  1.0
  Sc  Sc796  1  0.33333333  0.52074479  0.18670307  1.0
  Sc  Sc797  1  0.33333333  0.85407812  0.18670307  1.0
  Sc  Sc798  1  0.66666667  0.18741145  0.18670307  1.0
  Sc  Sc799  1  0.66666667  0.52074479  0.18670307  1.0
  Sc  Sc800  1  0.66666667  0.85407812  0.18670307  1.0
  Sc  Sc801  1  0.16666667  0.30645907  0.25813164  1.0
  Sc  Sc802  1  0.16666667  0.63979240  0.25813164  1.0
  Sc  Sc803  1  0.16666667  0.97312574  0.25813164  1.0
  Sc  Sc804  1  0.50000000  0.30645907  0.25813164  1.0
  Sc  Sc805  1  0.50000000  0.63979240  0.25813164  1.0
  Sc  Sc806  1  0.50000000  0.97312574  0.25813164  1.0
  Sc  Sc807  1  0.83333333  0.30645907  0.25813164  1.0
  Sc  Sc808  1  0.83333333  0.63979240  0.25813164  1.0
  Sc  Sc809  1  0.83333333  0.97312574  0.25813164  1.0
  Sc  Sc810  1  0.00000000  0.03913321  0.22347993  1.0
  Sc  Sc811  1  0.00000000  0.37246655  0.22347993  1.0
  Sc  Sc812  1  0.00000000  0.70579988  0.22347993  1.0
  Sc  Sc813  1  0.33333333  0.03913321  0.22347993  1.0
  Sc  Sc814  1  0.33333333  0.37246655  0.22347993  1.0
  Sc  Sc815  1  0.33333333  0.70579988  0.22347993  1.0
  Sc  Sc816  1  0.66666667  0.03913321  0.22347993  1.0
  Sc  Sc817  1  0.66666667  0.37246655  0.22347993  1.0
  Sc  Sc818  1  0.66666667  0.70579988  0.22347993  1.0
  Sc  Sc819  1  0.16666667  0.25341893  0.15205136  1.0
  Sc  Sc820  1  0.16666667  0.58675226  0.15205136  1.0
  Sc  Sc821  1  0.16666667  0.92008560  0.15205136  1.0
  Sc  Sc822  1  0.50000000  0.25341893  0.15205136  1.0
  Sc  Sc823  1  0.50000000  0.58675226  0.15205136  1.0
  Sc  Sc824  1  0.50000000  0.92008560  0.15205136  1.0
  Sc  Sc825  1  0.83333333  0.25341893  0.15205136  1.0
  Sc  Sc826  1  0.83333333  0.58675226  0.15205136  1.0
  Sc  Sc827  1  0.83333333  0.92008560  0.15205136  1.0
  Sc  Sc828  1  0.27145317  0.08333333  0.25000000  1.0
  Sc  Sc829  1  0.27145317  0.41666667  0.25000000  1.0
  Sc  Sc830  1  0.27145317  0.75000000  0.25000000  1.0
  Sc  Sc831  1  0.60478650  0.08333333  0.25000000  1.0
  Sc  Sc832  1  0.60478650  0.41666667  0.25000000  1.0
  Sc  Sc833  1  0.60478650  0.75000000  0.25000000  1.0
  Sc  Sc834  1  0.93811983  0.08333333  0.25000000  1.0
  Sc  Sc835  1  0.93811983  0.41666667  0.25000000  1.0
  Sc  Sc836  1  0.93811983  0.75000000  0.25000000  1.0
  Sc  Sc837  1  0.10478650  0.29761905  0.17857143  1.0
  Sc  Sc838  1  0.10478650  0.63095238  0.17857143  1.0
  Sc  Sc839  1  0.10478650  0.96428571  0.17857143  1.0
  Sc  Sc840  1  0.43811983  0.29761905  0.17857143  1.0
  Sc  Sc841  1  0.43811983  0.63095238  0.17857143  1.0
  Sc  Sc842  1  0.43811983  0.96428571  0.17857143  1.0
  Sc  Sc843  1  0.77145317  0.29761905  0.17857143  1.0
  Sc  Sc844  1  0.77145317  0.63095238  0.17857143  1.0
  Sc  Sc845  1  0.77145317  0.96428571  0.17857143  1.0
  Sc  Sc846  1  0.06188017  0.08333333  0.25000000  1.0
  Sc  Sc847  1  0.06188017  0.41666667  0.25000000  1.0
  Sc  Sc848  1  0.06188017  0.75000000  0.25000000  1.0
  Sc  Sc849  1  0.39521350  0.08333333  0.25000000  1.0
  Sc  Sc850  1  0.39521350  0.41666667  0.25000000  1.0
  Sc  Sc851  1  0.39521350  0.75000000  0.25000000  1.0
  Sc  Sc852  1  0.72854683  0.08333333  0.25000000  1.0
  Sc  Sc853  1  0.72854683  0.41666667  0.25000000  1.0
  Sc  Sc854  1  0.72854683  0.75000000  0.25000000  1.0
  Sc  Sc855  1  0.22854683  0.29761905  0.17857143  1.0
  Sc  Sc856  1  0.22854683  0.63095238  0.17857143  1.0
  Sc  Sc857  1  0.22854683  0.96428571  0.17857143  1.0
  Sc  Sc858  1  0.56188017  0.29761905  0.17857143  1.0
  Sc  Sc859  1  0.56188017  0.63095238  0.17857143  1.0
  Sc  Sc860  1  0.56188017  0.96428571  0.17857143  1.0
  Sc  Sc861  1  0.89521350  0.29761905  0.17857143  1.0
  Sc  Sc862  1  0.89521350  0.63095238  0.17857143  1.0
  Sc  Sc863  1  0.89521350  0.96428571  0.17857143  1.0
  Sc  Sc864  1  0.06188017  0.14321133  0.16018300  1.0
  Sc  Sc865  1  0.06188017  0.47654467  0.16018300  1.0
  Sc  Sc866  1  0.06188017  0.80987800  0.16018300  1.0
  Sc  Sc867  1  0.39521350  0.14321133  0.16018300  1.0
  Sc  Sc868  1  0.39521350  0.47654467  0.16018300  1.0
  Sc  Sc869  1  0.39521350  0.80987800  0.16018300  1.0
  Sc  Sc870  1  0.72854683  0.14321133  0.16018300  1.0
  Sc  Sc871  1  0.72854683  0.47654467  0.16018300  1.0
  Sc  Sc872  1  0.72854683  0.80987800  0.16018300  1.0
  Sc  Sc873  1  0.22854683  0.26225895  0.23161157  1.0
  Sc  Sc874  1  0.22854683  0.59559229  0.23161157  1.0
  Sc  Sc875  1  0.22854683  0.92892562  0.23161157  1.0
  Sc  Sc876  1  0.56188017  0.26225895  0.23161157  1.0
  Sc  Sc877  1  0.56188017  0.59559229  0.23161157  1.0
  Sc  Sc878  1  0.56188017  0.92892562  0.23161157  1.0
  Sc  Sc879  1  0.89521350  0.26225895  0.23161157  1.0
  Sc  Sc880  1  0.89521350  0.59559229  0.23161157  1.0
  Sc  Sc881  1  0.89521350  0.92892562  0.23161157  1.0
  Sc  Sc882  1  0.27145317  0.14321133  0.16018300  1.0
  Sc  Sc883  1  0.27145317  0.47654467  0.16018300  1.0
  Sc  Sc884  1  0.27145317  0.80987800  0.16018300  1.0
  Sc  Sc885  1  0.60478650  0.14321133  0.16018300  1.0
  Sc  Sc886  1  0.60478650  0.47654467  0.16018300  1.0
  Sc  Sc887  1  0.60478650  0.80987800  0.16018300  1.0
  Sc  Sc888  1  0.93811983  0.14321133  0.16018300  1.0
  Sc  Sc889  1  0.93811983  0.47654467  0.16018300  1.0
  Sc  Sc890  1  0.93811983  0.80987800  0.16018300  1.0
  Sc  Sc891  1  0.10478650  0.26225895  0.23161157  1.0
  Sc  Sc892  1  0.10478650  0.59559229  0.23161157  1.0
  Sc  Sc893  1  0.10478650  0.92892562  0.23161157  1.0
  Sc  Sc894  1  0.43811983  0.26225895  0.23161157  1.0
  Sc  Sc895  1  0.43811983  0.59559229  0.23161157  1.0
  Sc  Sc896  1  0.43811983  0.92892562  0.23161157  1.0
  Sc  Sc897  1  0.77145317  0.26225895  0.23161157  1.0
  Sc  Sc898  1  0.77145317  0.59559229  0.23161157  1.0
  Sc  Sc899  1  0.77145317  0.92892562  0.23161157  1.0
  Sc  Sc900  1  0.22854683  0.01225895  0.23161157  1.0
  Sc  Sc901  1  0.22854683  0.34559229  0.23161157  1.0
  Sc  Sc902  1  0.22854683  0.67892562  0.23161157  1.0
  Sc  Sc903  1  0.56188017  0.01225895  0.23161157  1.0
  Sc  Sc904  1  0.56188017  0.34559229  0.23161157  1.0
  Sc  Sc905  1  0.56188017  0.67892562  0.23161157  1.0
  Sc  Sc906  1  0.89521350  0.01225895  0.23161157  1.0
  Sc  Sc907  1  0.89521350  0.34559229  0.23161157  1.0
  Sc  Sc908  1  0.89521350  0.67892562  0.23161157  1.0
  Sc  Sc909  1  0.06188017  0.22654467  0.16018300  1.0
  Sc  Sc910  1  0.06188017  0.55987800  0.16018300  1.0
  Sc  Sc911  1  0.06188017  0.89321133  0.16018300  1.0
  Sc  Sc912  1  0.39521350  0.22654467  0.16018300  1.0
  Sc  Sc913  1  0.39521350  0.55987800  0.16018300  1.0
  Sc  Sc914  1  0.39521350  0.89321133  0.16018300  1.0
  Sc  Sc915  1  0.72854683  0.22654467  0.16018300  1.0
  Sc  Sc916  1  0.72854683  0.55987800  0.16018300  1.0
  Sc  Sc917  1  0.72854683  0.89321133  0.16018300  1.0
  Sc  Sc918  1  0.10478650  0.04761905  0.17857143  1.0
  Sc  Sc919  1  0.10478650  0.38095238  0.17857143  1.0
  Sc  Sc920  1  0.10478650  0.71428571  0.17857143  1.0
  Sc  Sc921  1  0.43811983  0.04761905  0.17857143  1.0
  Sc  Sc922  1  0.43811983  0.38095238  0.17857143  1.0
  Sc  Sc923  1  0.43811983  0.71428571  0.17857143  1.0
  Sc  Sc924  1  0.77145317  0.04761905  0.17857143  1.0
  Sc  Sc925  1  0.77145317  0.38095238  0.17857143  1.0
  Sc  Sc926  1  0.77145317  0.71428571  0.17857143  1.0
  Sc  Sc927  1  0.27145317  0.16666667  0.25000000  1.0
  Sc  Sc928  1  0.27145317  0.50000000  0.25000000  1.0
  Sc  Sc929  1  0.27145317  0.83333333  0.25000000  1.0
  Sc  Sc930  1  0.60478650  0.16666667  0.25000000  1.0
  Sc  Sc931  1  0.60478650  0.50000000  0.25000000  1.0
  Sc  Sc932  1  0.60478650  0.83333333  0.25000000  1.0
  Sc  Sc933  1  0.93811983  0.16666667  0.25000000  1.0
  Sc  Sc934  1  0.93811983  0.50000000  0.25000000  1.0
  Sc  Sc935  1  0.93811983  0.83333333  0.25000000  1.0
  Sc  Sc936  1  0.00000000  0.12246655  0.22347993  1.0
  Sc  Sc937  1  0.00000000  0.45579988  0.22347993  1.0
  Sc  Sc938  1  0.00000000  0.78913321  0.22347993  1.0
  Sc  Sc939  1  0.33333333  0.12246655  0.22347993  1.0
  Sc  Sc940  1  0.33333333  0.45579988  0.22347993  1.0
  Sc  Sc941  1  0.33333333  0.78913321  0.22347993  1.0
  Sc  Sc942  1  0.66666667  0.12246655  0.22347993  1.0
  Sc  Sc943  1  0.66666667  0.45579988  0.22347993  1.0
  Sc  Sc944  1  0.66666667  0.78913321  0.22347993  1.0
  Sc  Sc945  1  0.16666667  0.00341893  0.15205136  1.0
  Sc  Sc946  1  0.16666667  0.33675226  0.15205136  1.0
  Sc  Sc947  1  0.16666667  0.67008560  0.15205136  1.0
  Sc  Sc948  1  0.50000000  0.00341893  0.15205136  1.0
  Sc  Sc949  1  0.50000000  0.33675226  0.15205136  1.0
  Sc  Sc950  1  0.50000000  0.67008560  0.15205136  1.0
  Sc  Sc951  1  0.83333333  0.00341893  0.15205136  1.0
  Sc  Sc952  1  0.83333333  0.33675226  0.15205136  1.0
  Sc  Sc953  1  0.83333333  0.67008560  0.15205136  1.0
  Sc  Sc954  1  0.10478650  0.01225895  0.23161157  1.0
  Sc  Sc955  1  0.10478650  0.34559229  0.23161157  1.0
  Sc  Sc956  1  0.10478650  0.67892562  0.23161157  1.0
  Sc  Sc957  1  0.43811983  0.01225895  0.23161157  1.0
  Sc  Sc958  1  0.43811983  0.34559229  0.23161157  1.0
  Sc  Sc959  1  0.43811983  0.67892562  0.23161157  1.0
  Sc  Sc960  1  0.77145317  0.01225895  0.23161157  1.0
  Sc  Sc961  1  0.77145317  0.34559229  0.23161157  1.0
  Sc  Sc962  1  0.77145317  0.67892562  0.23161157  1.0
  Sc  Sc963  1  0.27145317  0.22654467  0.16018300  1.0
  Sc  Sc964  1  0.27145317  0.55987800  0.16018300  1.0
  Sc  Sc965  1  0.27145317  0.89321133  0.16018300  1.0
  Sc  Sc966  1  0.60478650  0.22654467  0.16018300  1.0
  Sc  Sc967  1  0.60478650  0.55987800  0.16018300  1.0
  Sc  Sc968  1  0.60478650  0.89321133  0.16018300  1.0
  Sc  Sc969  1  0.93811983  0.22654467  0.16018300  1.0
  Sc  Sc970  1  0.93811983  0.55987800  0.16018300  1.0
  Sc  Sc971  1  0.93811983  0.89321133  0.16018300  1.0
  Sc  Sc972  1  0.33333333  0.27074479  0.18670307  1.0
  Sc  Sc973  1  0.33333333  0.60407812  0.18670307  1.0
  Sc  Sc974  1  0.33333333  0.93741145  0.18670307  1.0
  Sc  Sc975  1  0.66666667  0.27074479  0.18670307  1.0
  Sc  Sc976  1  0.66666667  0.60407812  0.18670307  1.0
  Sc  Sc977  1  0.66666667  0.93741145  0.18670307  1.0
  Sc  Sc978  1  1.00000000  0.27074479  0.18670307  1.0
  Sc  Sc979  1  1.00000000  0.60407812  0.18670307  1.0
  Sc  Sc980  1  1.00000000  0.93741145  0.18670307  1.0
  Sc  Sc981  1  0.16666667  0.05645907  0.25813164  1.0
  Sc  Sc982  1  0.16666667  0.38979240  0.25813164  1.0
  Sc  Sc983  1  0.16666667  0.72312574  0.25813164  1.0
  Sc  Sc984  1  0.50000000  0.05645907  0.25813164  1.0
  Sc  Sc985  1  0.50000000  0.38979240  0.25813164  1.0
  Sc  Sc986  1  0.50000000  0.72312574  0.25813164  1.0
  Sc  Sc987  1  0.83333333  0.05645907  0.25813164  1.0
  Sc  Sc988  1  0.83333333  0.38979240  0.25813164  1.0
  Sc  Sc989  1  0.83333333  0.72312574  0.25813164  1.0
  Sc  Sc990  1  0.22854683  0.04761905  0.17857143  1.0
  Sc  Sc991  1  0.22854683  0.38095238  0.17857143  1.0
  Sc  Sc992  1  0.22854683  0.71428571  0.17857143  1.0
  Sc  Sc993  1  0.56188017  0.04761905  0.17857143  1.0
  Sc  Sc994  1  0.56188017  0.38095238  0.17857143  1.0
  Sc  Sc995  1  0.56188017  0.71428571  0.17857143  1.0
  Sc  Sc996  1  0.89521350  0.04761905  0.17857143  1.0
  Sc  Sc997  1  0.89521350  0.38095238  0.17857143  1.0
  Sc  Sc998  1  0.89521350  0.71428571  0.17857143  1.0
  Sc  Sc999  1  0.06188017  0.16666667  0.25000000  1.0
  Sc  Sc1000  1  0.06188017  0.50000000  0.25000000  1.0
  Sc  Sc1001  1  0.06188017  0.83333333  0.25000000  1.0
  Sc  Sc1002  1  0.39521350  0.16666667  0.25000000  1.0
  Sc  Sc1003  1  0.39521350  0.50000000  0.25000000  1.0
  Sc  Sc1004  1  0.39521350  0.83333333  0.25000000  1.0
  Sc  Sc1005  1  0.72854683  0.16666667  0.25000000  1.0
  Sc  Sc1006  1  0.72854683  0.50000000  0.25000000  1.0
  Sc  Sc1007  1  0.72854683  0.83333333  0.25000000  1.0
  Sc  Sc1008  1  0.33333333  0.17874852  0.41937721  1.0
  Sc  Sc1009  1  0.33333333  0.51208186  0.41937721  1.0
  Sc  Sc1010  1  0.33333333  0.84541519  0.41937721  1.0
  Sc  Sc1011  1  0.66666667  0.17874852  0.41937721  1.0
  Sc  Sc1012  1  0.66666667  0.51208186  0.41937721  1.0
  Sc  Sc1013  1  0.66666667  0.84541519  0.41937721  1.0
  Sc  Sc1014  1  1.00000000  0.17874852  0.41937721  1.0
  Sc  Sc1015  1  0.00000000  0.51208186  0.41937721  1.0
  Sc  Sc1016  1  1.00000000  0.84541519  0.41937721  1.0
  Sc  Sc1017  1  0.16666667  0.05970090  0.34794864  1.0
  Sc  Sc1018  1  0.16666667  0.39303424  0.34794864  1.0
  Sc  Sc1019  1  0.16666667  0.72636757  0.34794864  1.0
  Sc  Sc1020  1  0.50000000  0.05970090  0.34794864  1.0
  Sc  Sc1021  1  0.50000000  0.39303424  0.34794864  1.0
  Sc  Sc1022  1  0.50000000  0.72636757  0.34794864  1.0
  Sc  Sc1023  1  0.83333333  0.05970090  0.34794864  1.0
  Sc  Sc1024  1  0.83333333  0.39303424  0.34794864  1.0
  Sc  Sc1025  1  0.83333333  0.72636757  0.34794864  1.0
  Sc  Sc1026  1  0.25000000  0.00017710  0.31223436  1.0
  Sc  Sc1027  1  0.25000000  0.33351043  0.31223436  1.0
  Sc  Sc1028  1  0.25000000  0.66684376  0.31223436  1.0
  Sc  Sc1029  1  0.58333333  0.00017710  0.31223436  1.0
  Sc  Sc1030  1  0.58333333  0.33351043  0.31223436  1.0
  Sc  Sc1031  1  0.58333333  0.66684376  0.31223436  1.0
  Sc  Sc1032  1  0.91666667  0.00017710  0.31223436  1.0
  Sc  Sc1033  1  0.91666667  0.33351043  0.31223436  1.0
  Sc  Sc1034  1  0.91666667  0.66684376  0.31223436  1.0
  Sc  Sc1035  1  0.08333333  0.11922471  0.38366293  1.0
  Sc  Sc1036  1  0.08333333  0.45255805  0.38366293  1.0
  Sc  Sc1037  1  0.08333333  0.78589138  0.38366293  1.0
  Sc  Sc1038  1  0.41666667  0.11922471  0.38366293  1.0
  Sc  Sc1039  1  0.41666667  0.45255805  0.38366293  1.0
  Sc  Sc1040  1  0.41666667  0.78589138  0.38366293  1.0
  Sc  Sc1041  1  0.75000000  0.11922471  0.38366293  1.0
  Sc  Sc1042  1  0.75000000  0.45255805  0.38366293  1.0
  Sc  Sc1043  1  0.75000000  0.78589138  0.38366293  1.0
  Sc  Sc1044  1  0.33333333  0.22636757  0.34794864  1.0
  Sc  Sc1045  1  0.33333333  0.55970090  0.34794864  1.0
  Sc  Sc1046  1  0.33333333  0.89303424  0.34794864  1.0
  Sc  Sc1047  1  0.66666667  0.22636757  0.34794864  1.0
  Sc  Sc1048  1  0.66666667  0.55970090  0.34794864  1.0
  Sc  Sc1049  1  0.66666667  0.89303424  0.34794864  1.0
  Sc  Sc1050  1  1.00000000  0.22636757  0.34794864  1.0
  Sc  Sc1051  1  0.00000000  0.55970090  0.34794864  1.0
  Sc  Sc1052  1  1.00000000  0.89303424  0.34794864  1.0
  Sc  Sc1053  1  0.16666667  0.01208186  0.41937721  1.0
  Sc  Sc1054  1  0.16666667  0.34541519  0.41937721  1.0
  Sc  Sc1055  1  0.16666667  0.67874852  0.41937721  1.0
  Sc  Sc1056  1  0.50000000  0.01208186  0.41937721  1.0
  Sc  Sc1057  1  0.50000000  0.34541519  0.41937721  1.0
  Sc  Sc1058  1  0.50000000  0.67874852  0.41937721  1.0
  Sc  Sc1059  1  0.83333333  0.01208186  0.41937721  1.0
  Sc  Sc1060  1  0.83333333  0.34541519  0.41937721  1.0
  Sc  Sc1061  1  0.83333333  0.67874852  0.41937721  1.0
  Sc  Sc1062  1  0.08333333  0.00017710  0.31223436  1.0
  Sc  Sc1063  1  0.08333333  0.33351043  0.31223436  1.0
  Sc  Sc1064  1  0.08333333  0.66684376  0.31223436  1.0
  Sc  Sc1065  1  0.41666667  0.00017710  0.31223436  1.0
  Sc  Sc1066  1  0.41666667  0.33351043  0.31223436  1.0
  Sc  Sc1067  1  0.41666667  0.66684376  0.31223436  1.0
  Sc  Sc1068  1  0.75000000  0.00017710  0.31223436  1.0
  Sc  Sc1069  1  0.75000000  0.33351043  0.31223436  1.0
  Sc  Sc1070  1  0.75000000  0.66684376  0.31223436  1.0
  Sc  Sc1071  1  0.25000000  0.11922471  0.38366293  1.0
  Sc  Sc1072  1  0.25000000  0.45255805  0.38366293  1.0
  Sc  Sc1073  1  0.25000000  0.78589138  0.38366293  1.0
  Sc  Sc1074  1  0.58333333  0.11922471  0.38366293  1.0
  Sc  Sc1075  1  0.58333333  0.45255805  0.38366293  1.0
  Sc  Sc1076  1  0.58333333  0.78589138  0.38366293  1.0
  Sc  Sc1077  1  0.91666667  0.11922471  0.38366293  1.0
  Sc  Sc1078  1  0.91666667  0.45255805  0.38366293  1.0
  Sc  Sc1079  1  0.91666667  0.78589138  0.38366293  1.0
  Sc  Sc1080  1  0.33333333  0.09217336  0.32956021  1.0
  Sc  Sc1081  1  0.33333333  0.42550669  0.32956021  1.0
  Sc  Sc1082  1  0.33333333  0.75884002  0.32956021  1.0
  Sc  Sc1083  1  0.66666667  0.09217336  0.32956021  1.0
  Sc  Sc1084  1  0.66666667  0.42550669  0.32956021  1.0
  Sc  Sc1085  1  0.66666667  0.75884002  0.32956021  1.0
  Sc  Sc1086  1  1.00000000  0.09217336  0.32956021  1.0
  Sc  Sc1087  1  0.00000000  0.42550669  0.32956021  1.0
  Sc  Sc1088  1  1.00000000  0.75884002  0.32956021  1.0
  Sc  Sc1089  1  0.16666667  0.21122098  0.40098879  1.0
  Sc  Sc1090  1  0.16666667  0.54455431  0.40098879  1.0
  Sc  Sc1091  1  0.16666667  0.87788764  0.40098879  1.0
  Sc  Sc1092  1  0.50000000  0.21122098  0.40098879  1.0
  Sc  Sc1093  1  0.50000000  0.54455431  0.40098879  1.0
  Sc  Sc1094  1  0.50000000  0.87788764  0.40098879  1.0
  Sc  Sc1095  1  0.83333333  0.21122098  0.40098879  1.0
  Sc  Sc1096  1  0.83333333  0.54455431  0.40098879  1.0
  Sc  Sc1097  1  0.83333333  0.87788764  0.40098879  1.0
  Sc  Sc1098  1  0.00000000  0.27722845  0.36633707  1.0
  Sc  Sc1099  1  0.00000000  0.61056179  0.36633707  1.0
  Sc  Sc1100  1  0.00000000  0.94389512  0.36633707  1.0
  Sc  Sc1101  1  0.33333333  0.27722845  0.36633707  1.0
  Sc  Sc1102  1  0.33333333  0.61056179  0.36633707  1.0
  Sc  Sc1103  1  0.33333333  0.94389512  0.36633707  1.0
  Sc  Sc1104  1  0.66666667  0.27722845  0.36633707  1.0
  Sc  Sc1105  1  0.66666667  0.61056179  0.36633707  1.0
  Sc  Sc1106  1  0.66666667  0.94389512  0.36633707  1.0
  Sc  Sc1107  1  0.16666667  0.15818083  0.29490850  1.0
  Sc  Sc1108  1  0.16666667  0.49151417  0.29490850  1.0
  Sc  Sc1109  1  0.16666667  0.82484750  0.29490850  1.0
  Sc  Sc1110  1  0.50000000  0.15818083  0.29490850  1.0
  Sc  Sc1111  1  0.50000000  0.49151417  0.29490850  1.0
  Sc  Sc1112  1  0.50000000  0.82484750  0.29490850  1.0
  Sc  Sc1113  1  0.83333333  0.15818083  0.29490850  1.0
  Sc  Sc1114  1  0.83333333  0.49151417  0.29490850  1.0
  Sc  Sc1115  1  0.83333333  0.82484750  0.29490850  1.0
  Sc  Sc1116  1  0.27145317  0.32142857  0.39285714  1.0
  Sc  Sc1117  1  0.27145317  0.65476190  0.39285714  1.0
  Sc  Sc1118  1  0.27145317  0.98809524  0.39285714  1.0
  Sc  Sc1119  1  0.60478650  0.32142857  0.39285714  1.0
  Sc  Sc1120  1  0.60478650  0.65476190  0.39285714  1.0
  Sc  Sc1121  1  0.60478650  0.98809524  0.39285714  1.0
  Sc  Sc1122  1  0.93811983  0.32142857  0.39285714  1.0
  Sc  Sc1123  1  0.93811983  0.65476190  0.39285714  1.0
  Sc  Sc1124  1  0.93811983  0.98809524  0.39285714  1.0
  Sc  Sc1125  1  0.10478650  0.20238095  0.32142857  1.0
  Sc  Sc1126  1  0.10478650  0.53571429  0.32142857  1.0
  Sc  Sc1127  1  0.10478650  0.86904762  0.32142857  1.0
  Sc  Sc1128  1  0.43811983  0.20238095  0.32142857  1.0
  Sc  Sc1129  1  0.43811983  0.53571429  0.32142857  1.0
  Sc  Sc1130  1  0.43811983  0.86904762  0.32142857  1.0
  Sc  Sc1131  1  0.77145317  0.20238095  0.32142857  1.0
  Sc  Sc1132  1  0.77145317  0.53571429  0.32142857  1.0
  Sc  Sc1133  1  0.77145317  0.86904762  0.32142857  1.0
  Sc  Sc1134  1  0.06188017  0.32142857  0.39285714  1.0
  Sc  Sc1135  1  0.06188017  0.65476190  0.39285714  1.0
  Sc  Sc1136  1  0.06188017  0.98809524  0.39285714  1.0
  Sc  Sc1137  1  0.39521350  0.32142857  0.39285714  1.0
  Sc  Sc1138  1  0.39521350  0.65476190  0.39285714  1.0
  Sc  Sc1139  1  0.39521350  0.98809524  0.39285714  1.0
  Sc  Sc1140  1  0.72854683  0.32142857  0.39285714  1.0
  Sc  Sc1141  1  0.72854683  0.65476190  0.39285714  1.0
  Sc  Sc1142  1  0.72854683  0.98809524  0.39285714  1.0
  Sc  Sc1143  1  0.22854683  0.20238095  0.32142857  1.0
  Sc  Sc1144  1  0.22854683  0.53571429  0.32142857  1.0
  Sc  Sc1145  1  0.22854683  0.86904762  0.32142857  1.0
  Sc  Sc1146  1  0.56188017  0.20238095  0.32142857  1.0
  Sc  Sc1147  1  0.56188017  0.53571429  0.32142857  1.0
  Sc  Sc1148  1  0.56188017  0.86904762  0.32142857  1.0
  Sc  Sc1149  1  0.89521350  0.20238095  0.32142857  1.0
  Sc  Sc1150  1  0.89521350  0.53571429  0.32142857  1.0
  Sc  Sc1151  1  0.89521350  0.86904762  0.32142857  1.0
  Sc  Sc1152  1  0.06188017  0.04797324  0.30304014  1.0
  Sc  Sc1153  1  0.06188017  0.38130657  0.30304014  1.0
  Sc  Sc1154  1  0.06188017  0.71463990  0.30304014  1.0
  Sc  Sc1155  1  0.39521350  0.04797324  0.30304014  1.0
  Sc  Sc1156  1  0.39521350  0.38130657  0.30304014  1.0
  Sc  Sc1157  1  0.39521350  0.71463990  0.30304014  1.0
  Sc  Sc1158  1  0.72854683  0.04797324  0.30304014  1.0
  Sc  Sc1159  1  0.72854683  0.38130657  0.30304014  1.0
  Sc  Sc1160  1  0.72854683  0.71463990  0.30304014  1.0
  Sc  Sc1161  1  0.22854683  0.16702086  0.37446871  1.0
  Sc  Sc1162  1  0.22854683  0.50035419  0.37446871  1.0
  Sc  Sc1163  1  0.22854683  0.83368752  0.37446871  1.0
  Sc  Sc1164  1  0.56188017  0.16702086  0.37446871  1.0
  Sc  Sc1165  1  0.56188017  0.50035419  0.37446871  1.0
  Sc  Sc1166  1  0.56188017  0.83368752  0.37446871  1.0
  Sc  Sc1167  1  0.89521350  0.16702086  0.37446871  1.0
  Sc  Sc1168  1  0.89521350  0.50035419  0.37446871  1.0
  Sc  Sc1169  1  0.89521350  0.83368752  0.37446871  1.0
  Sc  Sc1170  1  0.27145317  0.04797324  0.30304014  1.0
  Sc  Sc1171  1  0.27145317  0.38130657  0.30304014  1.0
  Sc  Sc1172  1  0.27145317  0.71463990  0.30304014  1.0
  Sc  Sc1173  1  0.60478650  0.04797324  0.30304014  1.0
  Sc  Sc1174  1  0.60478650  0.38130657  0.30304014  1.0
  Sc  Sc1175  1  0.60478650  0.71463990  0.30304014  1.0
  Sc  Sc1176  1  0.93811983  0.04797324  0.30304014  1.0
  Sc  Sc1177  1  0.93811983  0.38130657  0.30304014  1.0
  Sc  Sc1178  1  0.93811983  0.71463990  0.30304014  1.0
  Sc  Sc1179  1  0.10478650  0.16702086  0.37446871  1.0
  Sc  Sc1180  1  0.10478650  0.50035419  0.37446871  1.0
  Sc  Sc1181  1  0.10478650  0.83368752  0.37446871  1.0
  Sc  Sc1182  1  0.43811983  0.16702086  0.37446871  1.0
  Sc  Sc1183  1  0.43811983  0.50035419  0.37446871  1.0
  Sc  Sc1184  1  0.43811983  0.83368752  0.37446871  1.0
  Sc  Sc1185  1  0.77145317  0.16702086  0.37446871  1.0
  Sc  Sc1186  1  0.77145317  0.50035419  0.37446871  1.0
  Sc  Sc1187  1  0.77145317  0.83368752  0.37446871  1.0
  Sc  Sc1188  1  0.22854683  0.25035419  0.37446871  1.0
  Sc  Sc1189  1  0.22854683  0.58368752  0.37446871  1.0
  Sc  Sc1190  1  0.22854683  0.91702086  0.37446871  1.0
  Sc  Sc1191  1  0.56188017  0.25035419  0.37446871  1.0
  Sc  Sc1192  1  0.56188017  0.58368752  0.37446871  1.0
  Sc  Sc1193  1  0.56188017  0.91702086  0.37446871  1.0
  Sc  Sc1194  1  0.89521350  0.25035419  0.37446871  1.0
  Sc  Sc1195  1  0.89521350  0.58368752  0.37446871  1.0
  Sc  Sc1196  1  0.89521350  0.91702086  0.37446871  1.0
  Sc  Sc1197  1  0.06188017  0.13130657  0.30304014  1.0
  Sc  Sc1198  1  0.06188017  0.46463990  0.30304014  1.0
  Sc  Sc1199  1  0.06188017  0.79797324  0.30304014  1.0
  Sc  Sc1200  1  0.39521350  0.13130657  0.30304014  1.0
  Sc  Sc1201  1  0.39521350  0.46463990  0.30304014  1.0
  Sc  Sc1202  1  0.39521350  0.79797324  0.30304014  1.0
  Sc  Sc1203  1  0.72854683  0.13130657  0.30304014  1.0
  Sc  Sc1204  1  0.72854683  0.46463990  0.30304014  1.0
  Sc  Sc1205  1  0.72854683  0.79797324  0.30304014  1.0
  Sc  Sc1206  1  0.10478650  0.28571429  0.32142857  1.0
  Sc  Sc1207  1  0.10478650  0.61904762  0.32142857  1.0
  Sc  Sc1208  1  0.10478650  0.95238095  0.32142857  1.0
  Sc  Sc1209  1  0.43811983  0.28571429  0.32142857  1.0
  Sc  Sc1210  1  0.43811983  0.61904762  0.32142857  1.0
  Sc  Sc1211  1  0.43811983  0.95238095  0.32142857  1.0
  Sc  Sc1212  1  0.77145317  0.28571429  0.32142857  1.0
  Sc  Sc1213  1  0.77145317  0.61904762  0.32142857  1.0
  Sc  Sc1214  1  0.77145317  0.95238095  0.32142857  1.0
  Sc  Sc1215  1  0.27145317  0.07142857  0.39285714  1.0
  Sc  Sc1216  1  0.27145317  0.40476190  0.39285714  1.0
  Sc  Sc1217  1  0.27145317  0.73809524  0.39285714  1.0
  Sc  Sc1218  1  0.60478650  0.07142857  0.39285714  1.0
  Sc  Sc1219  1  0.60478650  0.40476190  0.39285714  1.0
  Sc  Sc1220  1  0.60478650  0.73809524  0.39285714  1.0
  Sc  Sc1221  1  0.93811983  0.07142857  0.39285714  1.0
  Sc  Sc1222  1  0.93811983  0.40476190  0.39285714  1.0
  Sc  Sc1223  1  0.93811983  0.73809524  0.39285714  1.0
  Sc  Sc1224  1  0.00000000  0.02722845  0.36633707  1.0
  Sc  Sc1225  1  0.00000000  0.36056179  0.36633707  1.0
  Sc  Sc1226  1  0.00000000  0.69389512  0.36633707  1.0
  Sc  Sc1227  1  0.33333333  0.02722845  0.36633707  1.0
  Sc  Sc1228  1  0.33333333  0.36056179  0.36633707  1.0
  Sc  Sc1229  1  0.33333333  0.69389512  0.36633707  1.0
  Sc  Sc1230  1  0.66666667  0.02722845  0.36633707  1.0
  Sc  Sc1231  1  0.66666667  0.36056179  0.36633707  1.0
  Sc  Sc1232  1  0.66666667  0.69389512  0.36633707  1.0
  Sc  Sc1233  1  0.16666667  0.24151417  0.29490850  1.0
  Sc  Sc1234  1  0.16666667  0.57484750  0.29490850  1.0
  Sc  Sc1235  1  0.16666667  0.90818083  0.29490850  1.0
  Sc  Sc1236  1  0.50000000  0.24151417  0.29490850  1.0
  Sc  Sc1237  1  0.50000000  0.57484750  0.29490850  1.0
  Sc  Sc1238  1  0.50000000  0.90818083  0.29490850  1.0
  Sc  Sc1239  1  0.83333333  0.24151417  0.29490850  1.0
  Sc  Sc1240  1  0.83333333  0.57484750  0.29490850  1.0
  Sc  Sc1241  1  0.83333333  0.90818083  0.29490850  1.0
  Sc  Sc1242  1  0.10478650  0.25035419  0.37446871  1.0
  Sc  Sc1243  1  0.10478650  0.58368752  0.37446871  1.0
  Sc  Sc1244  1  0.10478650  0.91702086  0.37446871  1.0
  Sc  Sc1245  1  0.43811983  0.25035419  0.37446871  1.0
  Sc  Sc1246  1  0.43811983  0.58368752  0.37446871  1.0
  Sc  Sc1247  1  0.43811983  0.91702086  0.37446871  1.0
  Sc  Sc1248  1  0.77145317  0.25035419  0.37446871  1.0
  Sc  Sc1249  1  0.77145317  0.58368752  0.37446871  1.0
  Sc  Sc1250  1  0.77145317  0.91702086  0.37446871  1.0
  Sc  Sc1251  1  0.27145317  0.13130657  0.30304014  1.0
  Sc  Sc1252  1  0.27145317  0.46463990  0.30304014  1.0
  Sc  Sc1253  1  0.27145317  0.79797324  0.30304014  1.0
  Sc  Sc1254  1  0.60478650  0.13130657  0.30304014  1.0
  Sc  Sc1255  1  0.60478650  0.46463990  0.30304014  1.0
  Sc  Sc1256  1  0.60478650  0.79797324  0.30304014  1.0
  Sc  Sc1257  1  0.93811983  0.13130657  0.30304014  1.0
  Sc  Sc1258  1  0.93811983  0.46463990  0.30304014  1.0
  Sc  Sc1259  1  0.93811983  0.79797324  0.30304014  1.0
  Sc  Sc1260  1  0.33333333  0.17550669  0.32956021  1.0
  Sc  Sc1261  1  0.33333333  0.50884002  0.32956021  1.0
  Sc  Sc1262  1  0.33333333  0.84217336  0.32956021  1.0
  Sc  Sc1263  1  0.66666667  0.17550669  0.32956021  1.0
  Sc  Sc1264  1  0.66666667  0.50884002  0.32956021  1.0
  Sc  Sc1265  1  0.66666667  0.84217336  0.32956021  1.0
  Sc  Sc1266  1  0.00000000  0.17550669  0.32956021  1.0
  Sc  Sc1267  1  0.00000000  0.50884002  0.32956021  1.0
  Sc  Sc1268  1  1.00000000  0.84217336  0.32956021  1.0
  Sc  Sc1269  1  0.16666667  0.29455431  0.40098879  1.0
  Sc  Sc1270  1  0.16666667  0.62788764  0.40098879  1.0
  Sc  Sc1271  1  0.16666667  0.96122098  0.40098879  1.0
  Sc  Sc1272  1  0.50000000  0.29455431  0.40098879  1.0
  Sc  Sc1273  1  0.50000000  0.62788764  0.40098879  1.0
  Sc  Sc1274  1  0.50000000  0.96122098  0.40098879  1.0
  Sc  Sc1275  1  0.83333333  0.29455431  0.40098879  1.0
  Sc  Sc1276  1  0.83333333  0.62788764  0.40098879  1.0
  Sc  Sc1277  1  0.83333333  0.96122098  0.40098879  1.0
  Sc  Sc1278  1  0.22854683  0.28571429  0.32142857  1.0
  Sc  Sc1279  1  0.22854683  0.61904762  0.32142857  1.0
  Sc  Sc1280  1  0.22854683  0.95238095  0.32142857  1.0
  Sc  Sc1281  1  0.56188017  0.28571429  0.32142857  1.0
  Sc  Sc1282  1  0.56188017  0.61904762  0.32142857  1.0
  Sc  Sc1283  1  0.56188017  0.95238095  0.32142857  1.0
  Sc  Sc1284  1  0.89521350  0.28571429  0.32142857  1.0
  Sc  Sc1285  1  0.89521350  0.61904762  0.32142857  1.0
  Sc  Sc1286  1  0.89521350  0.95238095  0.32142857  1.0
  Sc  Sc1287  1  0.06188017  0.07142857  0.39285714  1.0
  Sc  Sc1288  1  0.06188017  0.40476190  0.39285714  1.0
  Sc  Sc1289  1  0.06188017  0.73809524  0.39285714  1.0
  Sc  Sc1290  1  0.39521350  0.07142857  0.39285714  1.0
  Sc  Sc1291  1  0.39521350  0.40476190  0.39285714  1.0
  Sc  Sc1292  1  0.39521350  0.73809524  0.39285714  1.0
  Sc  Sc1293  1  0.72854683  0.07142857  0.39285714  1.0
  Sc  Sc1294  1  0.72854683  0.40476190  0.39285714  1.0
  Sc  Sc1295  1  0.72854683  0.73809524  0.39285714  1.0
