# generated using pymatgen
data_Sc2Ni7
_symmetry_space_group_name_H-M   'P 1'
_cell_length_a   14.31222630
_cell_length_b   142.68378317
_cell_length_c   33.39519470
_cell_angle_alpha   95.75686695
_cell_angle_beta   120.00000000
_cell_angle_gamma   87.12520121
_symmetry_Int_Tables_number   1
_chemical_formula_structural   Sc2Ni7
_chemical_formula_sum   'Sc432 Ni1512'
_cell_volume   58762.53420532
_cell_formula_units_Z   216
loop_
 _symmetry_equiv_pos_site_id
 _symmetry_equiv_pos_as_xyz
  1  'x, y, z'
loop_
 _atom_site_type_symbol
 _atom_site_label
 _atom_site_symmetry_multiplicity
 _atom_site_fract_x
 _atom_site_fract_y
 _atom_site_fract_z
 _atom_site_occupancy
  Sc  Sc0  1  0.11111111  0.16183133  0.01884424  1.0
  Sc  Sc1  1  0.11111111  0.49516467  0.01884424  1.0
  Sc  Sc2  1  0.11111111  0.82849800  0.01884424  1.0
  Sc  Sc3  1  0.44444444  0.16183133  0.01884424  1.0
  Sc  Sc4  1  0.44444444  0.49516467  0.01884424  1.0
  Sc  Sc5  1  0.44444444  0.82849800  0.01884424  1.0
  Sc  Sc6  1  0.77777778  0.16183133  0.01884424  1.0
  Sc  Sc7  1  0.77777778  0.49516467  0.01884424  1.0
  Sc  Sc8  1  0.77777778  0.82849800  0.01884424  1.0
  Sc  Sc9  1  0.11111111  0.32849800  0.09027281  1.0
  Sc  Sc10  1  0.11111111  0.66183133  0.09027281  1.0
  Sc  Sc11  1  0.11111111  0.99516467  0.09027281  1.0
  Sc  Sc12  1  0.44444444  0.32849800  0.09027281  1.0
  Sc  Sc13  1  0.44444444  0.66183133  0.09027281  1.0
  Sc  Sc14  1  0.44444444  0.99516467  0.09027281  1.0
  Sc  Sc15  1  0.77777778  0.32849800  0.09027281  1.0
  Sc  Sc16  1  0.77777778  0.66183133  0.09027281  1.0
  Sc  Sc17  1  0.77777778  0.99516467  0.09027281  1.0
  Sc  Sc18  1  0.22222222  0.00483533  0.04679833  1.0
  Sc  Sc19  1  0.22222222  0.33816867  0.04679833  1.0
  Sc  Sc20  1  0.22222222  0.67150200  0.04679833  1.0
  Sc  Sc21  1  0.55555556  0.00483533  0.04679833  1.0
  Sc  Sc22  1  0.55555556  0.33816867  0.04679833  1.0
  Sc  Sc23  1  0.55555556  0.67150200  0.04679833  1.0
  Sc  Sc24  1  0.88888889  0.00483533  0.04679833  1.0
  Sc  Sc25  1  0.88888889  0.33816867  0.04679833  1.0
  Sc  Sc26  1  0.88888889  0.67150200  0.04679833  1.0
  Sc  Sc27  1  0.22222222  0.17150200  0.11822690  1.0
  Sc  Sc28  1  0.22222222  0.50483533  0.11822690  1.0
  Sc  Sc29  1  0.22222222  0.83816867  0.11822690  1.0
  Sc  Sc30  1  0.55555556  0.17150200  0.11822690  1.0
  Sc  Sc31  1  0.55555556  0.50483533  0.11822690  1.0
  Sc  Sc32  1  0.55555556  0.83816867  0.11822690  1.0
  Sc  Sc33  1  0.88888889  0.17150200  0.11822690  1.0
  Sc  Sc34  1  0.88888889  0.50483533  0.11822690  1.0
  Sc  Sc35  1  0.88888889  0.83816867  0.11822690  1.0
  Sc  Sc36  1  0.22222222  0.07849800  0.07836805  1.0
  Sc  Sc37  1  0.22222222  0.41183133  0.07836805  1.0
  Sc  Sc38  1  0.22222222  0.74516467  0.07836805  1.0
  Sc  Sc39  1  0.55555556  0.07849800  0.07836805  1.0
  Sc  Sc40  1  0.55555556  0.41183133  0.07836805  1.0
  Sc  Sc41  1  0.55555556  0.74516467  0.07836805  1.0
  Sc  Sc42  1  0.88888889  0.07849800  0.07836805  1.0
  Sc  Sc43  1  0.88888889  0.41183133  0.07836805  1.0
  Sc  Sc44  1  0.88888889  0.74516467  0.07836805  1.0
  Sc  Sc45  1  0.22222222  0.24516467  0.00693948  1.0
  Sc  Sc46  1  0.22222222  0.57849800  0.00693948  1.0
  Sc  Sc47  1  0.22222222  0.91183133  0.00693948  1.0
  Sc  Sc48  1  0.55555556  0.24516467  0.00693948  1.0
  Sc  Sc49  1  0.55555556  0.57849800  0.00693948  1.0
  Sc  Sc50  1  0.55555556  0.91183133  0.00693948  1.0
  Sc  Sc51  1  0.88888889  0.24516467  0.00693948  1.0
  Sc  Sc52  1  0.88888889  0.57849800  0.00693948  1.0
  Sc  Sc53  1  0.88888889  0.91183133  0.00693948  1.0
  Sc  Sc54  1  0.11111111  0.08816867  0.13013167  1.0
  Sc  Sc55  1  0.11111111  0.42150200  0.13013167  1.0
  Sc  Sc56  1  0.11111111  0.75483533  0.13013167  1.0
  Sc  Sc57  1  0.44444444  0.08816867  0.13013167  1.0
  Sc  Sc58  1  0.44444444  0.42150200  0.13013167  1.0
  Sc  Sc59  1  0.44444444  0.75483533  0.13013167  1.0
  Sc  Sc60  1  0.77777778  0.08816867  0.13013167  1.0
  Sc  Sc61  1  0.77777778  0.42150200  0.13013167  1.0
  Sc  Sc62  1  0.77777778  0.75483533  0.13013167  1.0
  Sc  Sc63  1  0.11111111  0.25483533  0.05870310  1.0
  Sc  Sc64  1  0.11111111  0.58816867  0.05870310  1.0
  Sc  Sc65  1  0.11111111  0.92150200  0.05870310  1.0
  Sc  Sc66  1  0.44444444  0.25483533  0.05870310  1.0
  Sc  Sc67  1  0.44444444  0.58816867  0.05870310  1.0
  Sc  Sc68  1  0.44444444  0.92150200  0.05870310  1.0
  Sc  Sc69  1  0.77777778  0.25483533  0.05870310  1.0
  Sc  Sc70  1  0.77777778  0.58816867  0.05870310  1.0
  Sc  Sc71  1  0.77777778  0.92150200  0.05870310  1.0
  Sc  Sc72  1  0.11111111  0.13763367  0.00847381  1.0
  Sc  Sc73  1  0.11111111  0.47096700  0.00847381  1.0
  Sc  Sc74  1  0.11111111  0.80430033  0.00847381  1.0
  Sc  Sc75  1  0.44444444  0.13763367  0.00847381  1.0
  Sc  Sc76  1  0.44444444  0.47096700  0.00847381  1.0
  Sc  Sc77  1  0.44444444  0.80430033  0.00847381  1.0
  Sc  Sc78  1  0.77777778  0.13763367  0.00847381  1.0
  Sc  Sc79  1  0.77777778  0.47096700  0.00847381  1.0
  Sc  Sc80  1  0.77777778  0.80430033  0.00847381  1.0
  Sc  Sc81  1  0.11111111  0.30430033  0.07990238  1.0
  Sc  Sc82  1  0.11111111  0.63763367  0.07990238  1.0
  Sc  Sc83  1  0.11111111  0.97096700  0.07990238  1.0
  Sc  Sc84  1  0.44444444  0.30430033  0.07990238  1.0
  Sc  Sc85  1  0.44444444  0.63763367  0.07990238  1.0
  Sc  Sc86  1  0.44444444  0.97096700  0.07990238  1.0
  Sc  Sc87  1  0.77777778  0.30430033  0.07990238  1.0
  Sc  Sc88  1  0.77777778  0.63763367  0.07990238  1.0
  Sc  Sc89  1  0.77777778  0.97096700  0.07990238  1.0
  Sc  Sc90  1  0.22222222  0.02903300  0.05716876  1.0
  Sc  Sc91  1  0.22222222  0.36236633  0.05716876  1.0
  Sc  Sc92  1  0.22222222  0.69569967  0.05716876  1.0
  Sc  Sc93  1  0.55555556  0.02903300  0.05716876  1.0
  Sc  Sc94  1  0.55555556  0.36236633  0.05716876  1.0
  Sc  Sc95  1  0.55555556  0.69569967  0.05716876  1.0
  Sc  Sc96  1  0.88888889  0.02903300  0.05716876  1.0
  Sc  Sc97  1  0.88888889  0.36236633  0.05716876  1.0
  Sc  Sc98  1  0.88888889  0.69569967  0.05716876  1.0
  Sc  Sc99  1  0.22222222  0.19569967  0.12859733  1.0
  Sc  Sc100  1  0.22222222  0.52903300  0.12859733  1.0
  Sc  Sc101  1  0.22222222  0.86236633  0.12859733  1.0
  Sc  Sc102  1  0.55555556  0.19569967  0.12859733  1.0
  Sc  Sc103  1  0.55555556  0.52903300  0.12859733  1.0
  Sc  Sc104  1  0.55555556  0.86236633  0.12859733  1.0
  Sc  Sc105  1  0.88888889  0.19569967  0.12859733  1.0
  Sc  Sc106  1  0.88888889  0.52903300  0.12859733  1.0
  Sc  Sc107  1  0.88888889  0.86236633  0.12859733  1.0
  Sc  Sc108  1  0.22222222  0.05430033  0.06799762  1.0
  Sc  Sc109  1  0.22222222  0.38763367  0.06799762  1.0
  Sc  Sc110  1  0.22222222  0.72096700  0.06799762  1.0
  Sc  Sc111  1  0.55555556  0.05430033  0.06799762  1.0
  Sc  Sc112  1  0.55555556  0.38763367  0.06799762  1.0
  Sc  Sc113  1  0.55555556  0.72096700  0.06799762  1.0
  Sc  Sc114  1  0.88888889  0.05430033  0.06799762  1.0
  Sc  Sc115  1  0.88888889  0.38763367  0.06799762  1.0
  Sc  Sc116  1  0.88888889  0.72096700  0.06799762  1.0
  Sc  Sc117  1  0.22222222  0.22096700  0.13942619  1.0
  Sc  Sc118  1  0.22222222  0.55430033  0.13942619  1.0
  Sc  Sc119  1  0.22222222  0.88763367  0.13942619  1.0
  Sc  Sc120  1  0.55555556  0.22096700  0.13942619  1.0
  Sc  Sc121  1  0.55555556  0.55430033  0.13942619  1.0
  Sc  Sc122  1  0.55555556  0.88763367  0.13942619  1.0
  Sc  Sc123  1  0.88888889  0.22096700  0.13942619  1.0
  Sc  Sc124  1  0.88888889  0.55430033  0.13942619  1.0
  Sc  Sc125  1  0.88888889  0.88763367  0.13942619  1.0
  Sc  Sc126  1  0.11111111  0.11236633  0.14050210  1.0
  Sc  Sc127  1  0.11111111  0.44569967  0.14050210  1.0
  Sc  Sc128  1  0.11111111  0.77903300  0.14050210  1.0
  Sc  Sc129  1  0.44444444  0.11236633  0.14050210  1.0
  Sc  Sc130  1  0.44444444  0.44569967  0.14050210  1.0
  Sc  Sc131  1  0.44444444  0.77903300  0.14050210  1.0
  Sc  Sc132  1  0.77777778  0.11236633  0.14050210  1.0
  Sc  Sc133  1  0.77777778  0.44569967  0.14050210  1.0
  Sc  Sc134  1  0.77777778  0.77903300  0.14050210  1.0
  Sc  Sc135  1  0.11111111  0.27903300  0.06907352  1.0
  Sc  Sc136  1  0.11111111  0.61236633  0.06907352  1.0
  Sc  Sc137  1  0.11111111  0.94569967  0.06907352  1.0
  Sc  Sc138  1  0.44444444  0.27903300  0.06907352  1.0
  Sc  Sc139  1  0.44444444  0.61236633  0.06907352  1.0
  Sc  Sc140  1  0.44444444  0.94569967  0.06907352  1.0
  Sc  Sc141  1  0.77777778  0.27903300  0.06907352  1.0
  Sc  Sc142  1  0.77777778  0.61236633  0.06907352  1.0
  Sc  Sc143  1  0.77777778  0.94569967  0.06907352  1.0
  Ni  Ni144  1  0.00000000  0.00000000  0.13996414  1.0
  Ni  Ni145  1  0.00000000  0.33333333  0.13996414  1.0
  Ni  Ni146  1  0.00000000  0.66666667  0.13996414  1.0
  Ni  Ni147  1  0.33333333  0.00000000  0.13996414  1.0
  Ni  Ni148  1  0.33333333  0.33333333  0.13996414  1.0
  Ni  Ni149  1  0.33333333  0.66666667  0.13996414  1.0
  Ni  Ni150  1  0.66666667  0.00000000  0.13996414  1.0
  Ni  Ni151  1  0.66666667  0.33333333  0.13996414  1.0
  Ni  Ni152  1  0.66666667  0.66666667  0.13996414  1.0
  Ni  Ni153  1  0.00000000  0.16666667  0.06853557  1.0
  Ni  Ni154  1  0.00000000  0.50000000  0.06853557  1.0
  Ni  Ni155  1  0.00000000  0.83333333  0.06853557  1.0
  Ni  Ni156  1  0.33333333  0.16666667  0.06853557  1.0
  Ni  Ni157  1  0.33333333  0.50000000  0.06853557  1.0
  Ni  Ni158  1  0.33333333  0.83333333  0.06853557  1.0
  Ni  Ni159  1  0.66666667  0.16666667  0.06853557  1.0
  Ni  Ni160  1  0.66666667  0.50000000  0.06853557  1.0
  Ni  Ni161  1  0.66666667  0.83333333  0.06853557  1.0
  Ni  Ni162  1  0.00000000  0.08333333  0.03282129  1.0
  Ni  Ni163  1  0.00000000  0.41666667  0.03282129  1.0
  Ni  Ni164  1  0.00000000  0.75000000  0.03282129  1.0
  Ni  Ni165  1  0.33333333  0.08333333  0.03282129  1.0
  Ni  Ni166  1  0.33333333  0.41666667  0.03282129  1.0
  Ni  Ni167  1  0.33333333  0.75000000  0.03282129  1.0
  Ni  Ni168  1  0.66666667  0.08333333  0.03282129  1.0
  Ni  Ni169  1  0.66666667  0.41666667  0.03282129  1.0
  Ni  Ni170  1  0.66666667  0.75000000  0.03282129  1.0
  Ni  Ni171  1  0.00000000  0.25000000  0.10424986  1.0
  Ni  Ni172  1  0.00000000  0.58333333  0.10424986  1.0
  Ni  Ni173  1  0.00000000  0.91666667  0.10424986  1.0
  Ni  Ni174  1  0.33333333  0.25000000  0.10424986  1.0
  Ni  Ni175  1  0.33333333  0.58333333  0.10424986  1.0
  Ni  Ni176  1  0.33333333  0.91666667  0.10424986  1.0
  Ni  Ni177  1  0.66666667  0.25000000  0.10424986  1.0
  Ni  Ni178  1  0.66666667  0.58333333  0.10424986  1.0
  Ni  Ni179  1  0.66666667  0.91666667  0.10424986  1.0
  Ni  Ni180  1  0.11107067  0.12500000  0.07447929  1.0
  Ni  Ni181  1  0.11107067  0.45833333  0.07447929  1.0
  Ni  Ni182  1  0.11107067  0.79166667  0.07447929  1.0
  Ni  Ni183  1  0.44440400  0.12500000  0.07447929  1.0
  Ni  Ni184  1  0.44440400  0.45833333  0.07447929  1.0
  Ni  Ni185  1  0.44440400  0.79166667  0.07447929  1.0
  Ni  Ni186  1  0.77773733  0.12500000  0.07447929  1.0
  Ni  Ni187  1  0.77773733  0.45833333  0.07447929  1.0
  Ni  Ni188  1  0.77773733  0.79166667  0.07447929  1.0
  Ni  Ni189  1  0.11107067  0.29166667  0.00305071  1.0
  Ni  Ni190  1  0.11107067  0.62500000  0.00305071  1.0
  Ni  Ni191  1  0.11107067  0.95833333  0.00305071  1.0
  Ni  Ni192  1  0.44440400  0.29166667  0.00305071  1.0
  Ni  Ni193  1  0.44440400  0.62500000  0.00305071  1.0
  Ni  Ni194  1  0.44440400  0.95833333  0.00305071  1.0
  Ni  Ni195  1  0.77773733  0.29166667  0.00305071  1.0
  Ni  Ni196  1  0.77773733  0.62500000  0.00305071  1.0
  Ni  Ni197  1  0.77773733  0.95833333  0.00305071  1.0
  Ni  Ni198  1  0.27779800  0.12500000  0.00307671  1.0
  Ni  Ni199  1  0.27779800  0.45833333  0.00307671  1.0
  Ni  Ni200  1  0.27779800  0.79166667  0.00307671  1.0
  Ni  Ni201  1  0.61113133  0.12500000  0.00307671  1.0
  Ni  Ni202  1  0.61113133  0.45833333  0.00307671  1.0
  Ni  Ni203  1  0.61113133  0.79166667  0.00307671  1.0
  Ni  Ni204  1  0.94446467  0.12500000  0.00307671  1.0
  Ni  Ni205  1  0.94446467  0.45833333  0.00307671  1.0
  Ni  Ni206  1  0.94446467  0.79166667  0.00307671  1.0
  Ni  Ni207  1  0.27779800  0.29166667  0.07450529  1.0
  Ni  Ni208  1  0.27779800  0.62500000  0.07450529  1.0
  Ni  Ni209  1  0.27779800  0.95833333  0.07450529  1.0
  Ni  Ni210  1  0.61113133  0.29166667  0.07450529  1.0
  Ni  Ni211  1  0.61113133  0.62500000  0.07450529  1.0
  Ni  Ni212  1  0.61113133  0.95833333  0.07450529  1.0
  Ni  Ni213  1  0.94446467  0.29166667  0.07450529  1.0
  Ni  Ni214  1  0.94446467  0.62500000  0.07450529  1.0
  Ni  Ni215  1  0.94446467  0.95833333  0.07450529  1.0
  Ni  Ni216  1  0.27779800  0.12500000  0.07447929  1.0
  Ni  Ni217  1  0.27779800  0.45833333  0.07447929  1.0
  Ni  Ni218  1  0.27779800  0.79166667  0.07447929  1.0
  Ni  Ni219  1  0.61113133  0.12500000  0.07447929  1.0
  Ni  Ni220  1  0.61113133  0.45833333  0.07447929  1.0
  Ni  Ni221  1  0.61113133  0.79166667  0.07447929  1.0
  Ni  Ni222  1  0.94446467  0.12500000  0.07447929  1.0
  Ni  Ni223  1  0.94446467  0.45833333  0.07447929  1.0
  Ni  Ni224  1  0.94446467  0.79166667  0.07447929  1.0
  Ni  Ni225  1  0.27779800  0.29166667  0.00305071  1.0
  Ni  Ni226  1  0.27779800  0.62500000  0.00305071  1.0
  Ni  Ni227  1  0.27779800  0.95833333  0.00305071  1.0
  Ni  Ni228  1  0.61113133  0.29166667  0.00305071  1.0
  Ni  Ni229  1  0.61113133  0.62500000  0.00305071  1.0
  Ni  Ni230  1  0.61113133  0.95833333  0.00305071  1.0
  Ni  Ni231  1  0.94446467  0.29166667  0.00305071  1.0
  Ni  Ni232  1  0.94446467  0.62500000  0.00305071  1.0
  Ni  Ni233  1  0.94446467  0.95833333  0.00305071  1.0
  Ni  Ni234  1  0.22226267  0.04166667  0.13402043  1.0
  Ni  Ni235  1  0.22226267  0.37500000  0.13402043  1.0
  Ni  Ni236  1  0.22226267  0.70833333  0.13402043  1.0
  Ni  Ni237  1  0.55559600  0.04166667  0.13402043  1.0
  Ni  Ni238  1  0.55559600  0.37500000  0.13402043  1.0
  Ni  Ni239  1  0.55559600  0.70833333  0.13402043  1.0
  Ni  Ni240  1  0.88892933  0.04166667  0.13402043  1.0
  Ni  Ni241  1  0.88892933  0.37500000  0.13402043  1.0
  Ni  Ni242  1  0.88892933  0.70833333  0.13402043  1.0
  Ni  Ni243  1  0.22226267  0.20833333  0.06259186  1.0
  Ni  Ni244  1  0.22226267  0.54166667  0.06259186  1.0
  Ni  Ni245  1  0.22226267  0.87500000  0.06259186  1.0
  Ni  Ni246  1  0.55559600  0.20833333  0.06259186  1.0
  Ni  Ni247  1  0.55559600  0.54166667  0.06259186  1.0
  Ni  Ni248  1  0.55559600  0.87500000  0.06259186  1.0
  Ni  Ni249  1  0.88892933  0.20833333  0.06259186  1.0
  Ni  Ni250  1  0.88892933  0.54166667  0.06259186  1.0
  Ni  Ni251  1  0.88892933  0.87500000  0.06259186  1.0
  Ni  Ni252  1  0.05553533  0.04166667  0.06256586  1.0
  Ni  Ni253  1  0.05553533  0.37500000  0.06256586  1.0
  Ni  Ni254  1  0.05553533  0.70833333  0.06256586  1.0
  Ni  Ni255  1  0.38886867  0.04166667  0.06256586  1.0
  Ni  Ni256  1  0.38886867  0.37500000  0.06256586  1.0
  Ni  Ni257  1  0.38886867  0.70833333  0.06256586  1.0
  Ni  Ni258  1  0.72220200  0.04166667  0.06256586  1.0
  Ni  Ni259  1  0.72220200  0.37500000  0.06256586  1.0
  Ni  Ni260  1  0.72220200  0.70833333  0.06256586  1.0
  Ni  Ni261  1  0.05553533  0.20833333  0.13399443  1.0
  Ni  Ni262  1  0.05553533  0.54166667  0.13399443  1.0
  Ni  Ni263  1  0.05553533  0.87500000  0.13399443  1.0
  Ni  Ni264  1  0.38886867  0.20833333  0.13399443  1.0
  Ni  Ni265  1  0.38886867  0.54166667  0.13399443  1.0
  Ni  Ni266  1  0.38886867  0.87500000  0.13399443  1.0
  Ni  Ni267  1  0.72220200  0.20833333  0.13399443  1.0
  Ni  Ni268  1  0.72220200  0.54166667  0.13399443  1.0
  Ni  Ni269  1  0.72220200  0.87500000  0.13399443  1.0
  Ni  Ni270  1  0.05553533  0.04166667  0.13402043  1.0
  Ni  Ni271  1  0.05553533  0.37500000  0.13402043  1.0
  Ni  Ni272  1  0.05553533  0.70833333  0.13402043  1.0
  Ni  Ni273  1  0.38886867  0.04166667  0.13402043  1.0
  Ni  Ni274  1  0.38886867  0.37500000  0.13402043  1.0
  Ni  Ni275  1  0.38886867  0.70833333  0.13402043  1.0
  Ni  Ni276  1  0.72220200  0.04166667  0.13402043  1.0
  Ni  Ni277  1  0.72220200  0.37500000  0.13402043  1.0
  Ni  Ni278  1  0.72220200  0.70833333  0.13402043  1.0
  Ni  Ni279  1  0.05553533  0.20833333  0.06259186  1.0
  Ni  Ni280  1  0.05553533  0.54166667  0.06259186  1.0
  Ni  Ni281  1  0.05553533  0.87500000  0.06259186  1.0
  Ni  Ni282  1  0.38886867  0.20833333  0.06259186  1.0
  Ni  Ni283  1  0.38886867  0.54166667  0.06259186  1.0
  Ni  Ni284  1  0.38886867  0.87500000  0.06259186  1.0
  Ni  Ni285  1  0.72220200  0.20833333  0.06259186  1.0
  Ni  Ni286  1  0.72220200  0.54166667  0.06259186  1.0
  Ni  Ni287  1  0.72220200  0.87500000  0.06259186  1.0
  Ni  Ni288  1  0.11190467  0.15278633  0.08656643  1.0
  Ni  Ni289  1  0.11190467  0.48611967  0.08656643  1.0
  Ni  Ni290  1  0.11190467  0.81945300  0.08656643  1.0
  Ni  Ni291  1  0.44523800  0.15278633  0.08656643  1.0
  Ni  Ni292  1  0.44523800  0.48611967  0.08656643  1.0
  Ni  Ni293  1  0.44523800  0.81945300  0.08656643  1.0
  Ni  Ni294  1  0.77857133  0.15278633  0.08656643  1.0
  Ni  Ni295  1  0.77857133  0.48611967  0.08656643  1.0
  Ni  Ni296  1  0.77857133  0.81945300  0.08656643  1.0
  Ni  Ni297  1  0.11190467  0.31945300  0.01513786  1.0
  Ni  Ni298  1  0.11190467  0.65278633  0.01513786  1.0
  Ni  Ni299  1  0.11190467  0.98611967  0.01513786  1.0
  Ni  Ni300  1  0.44523800  0.31945300  0.01513786  1.0
  Ni  Ni301  1  0.44523800  0.65278633  0.01513786  1.0
  Ni  Ni302  1  0.44523800  0.98611967  0.01513786  1.0
  Ni  Ni303  1  0.77857133  0.31945300  0.01513786  1.0
  Ni  Ni304  1  0.77857133  0.65278633  0.01513786  1.0
  Ni  Ni305  1  0.77857133  0.98611967  0.01513786  1.0
  Ni  Ni306  1  0.27738100  0.15278633  0.01462771  1.0
  Ni  Ni307  1  0.27738100  0.48611967  0.01462771  1.0
  Ni  Ni308  1  0.27738100  0.81945300  0.01462771  1.0
  Ni  Ni309  1  0.61071433  0.15278633  0.01462771  1.0
  Ni  Ni310  1  0.61071433  0.48611967  0.01462771  1.0
  Ni  Ni311  1  0.61071433  0.81945300  0.01462771  1.0
  Ni  Ni312  1  0.94404767  0.15278633  0.01462771  1.0
  Ni  Ni313  1  0.94404767  0.48611967  0.01462771  1.0
  Ni  Ni314  1  0.94404767  0.81945300  0.01462771  1.0
  Ni  Ni315  1  0.27738100  0.31945300  0.08605629  1.0
  Ni  Ni316  1  0.27738100  0.65278633  0.08605629  1.0
  Ni  Ni317  1  0.27738100  0.98611967  0.08605629  1.0
  Ni  Ni318  1  0.61071433  0.31945300  0.08605629  1.0
  Ni  Ni319  1  0.61071433  0.65278633  0.08605629  1.0
  Ni  Ni320  1  0.61071433  0.98611967  0.08605629  1.0
  Ni  Ni321  1  0.94404767  0.31945300  0.08605629  1.0
  Ni  Ni322  1  0.94404767  0.65278633  0.08605629  1.0
  Ni  Ni323  1  0.94404767  0.98611967  0.08605629  1.0
  Ni  Ni324  1  0.27738100  0.15278633  0.08656643  1.0
  Ni  Ni325  1  0.27738100  0.48611967  0.08656643  1.0
  Ni  Ni326  1  0.27738100  0.81945300  0.08656643  1.0
  Ni  Ni327  1  0.61071433  0.15278633  0.08656643  1.0
  Ni  Ni328  1  0.61071433  0.48611967  0.08656643  1.0
  Ni  Ni329  1  0.61071433  0.81945300  0.08656643  1.0
  Ni  Ni330  1  0.94404767  0.15278633  0.08656643  1.0
  Ni  Ni331  1  0.94404767  0.48611967  0.08656643  1.0
  Ni  Ni332  1  0.94404767  0.81945300  0.08656643  1.0
  Ni  Ni333  1  0.27738100  0.31945300  0.01513786  1.0
  Ni  Ni334  1  0.27738100  0.65278633  0.01513786  1.0
  Ni  Ni335  1  0.27738100  0.98611967  0.01513786  1.0
  Ni  Ni336  1  0.61071433  0.31945300  0.01513786  1.0
  Ni  Ni337  1  0.61071433  0.65278633  0.01513786  1.0
  Ni  Ni338  1  0.61071433  0.98611967  0.01513786  1.0
  Ni  Ni339  1  0.94404767  0.31945300  0.01513786  1.0
  Ni  Ni340  1  0.94404767  0.65278633  0.01513786  1.0
  Ni  Ni341  1  0.94404767  0.98611967  0.01513786  1.0
  Ni  Ni342  1  0.22142867  0.01388033  0.12193329  1.0
  Ni  Ni343  1  0.22142867  0.34721367  0.12193329  1.0
  Ni  Ni344  1  0.22142867  0.68054700  0.12193329  1.0
  Ni  Ni345  1  0.55476200  0.01388033  0.12193329  1.0
  Ni  Ni346  1  0.55476200  0.34721367  0.12193329  1.0
  Ni  Ni347  1  0.55476200  0.68054700  0.12193329  1.0
  Ni  Ni348  1  0.88809533  0.01388033  0.12193329  1.0
  Ni  Ni349  1  0.88809533  0.34721367  0.12193329  1.0
  Ni  Ni350  1  0.88809533  0.68054700  0.12193329  1.0
  Ni  Ni351  1  0.22142867  0.18054700  0.05050471  1.0
  Ni  Ni352  1  0.22142867  0.51388033  0.05050471  1.0
  Ni  Ni353  1  0.22142867  0.84721367  0.05050471  1.0
  Ni  Ni354  1  0.55476200  0.18054700  0.05050471  1.0
  Ni  Ni355  1  0.55476200  0.51388033  0.05050471  1.0
  Ni  Ni356  1  0.55476200  0.84721367  0.05050471  1.0
  Ni  Ni357  1  0.88809533  0.18054700  0.05050471  1.0
  Ni  Ni358  1  0.88809533  0.51388033  0.05050471  1.0
  Ni  Ni359  1  0.88809533  0.84721367  0.05050471  1.0
  Ni  Ni360  1  0.05595233  0.01388033  0.05101486  1.0
  Ni  Ni361  1  0.05595233  0.34721367  0.05101486  1.0
  Ni  Ni362  1  0.05595233  0.68054700  0.05101486  1.0
  Ni  Ni363  1  0.38928567  0.01388033  0.05101486  1.0
  Ni  Ni364  1  0.38928567  0.34721367  0.05101486  1.0
  Ni  Ni365  1  0.38928567  0.68054700  0.05101486  1.0
  Ni  Ni366  1  0.72261900  0.01388033  0.05101486  1.0
  Ni  Ni367  1  0.72261900  0.34721367  0.05101486  1.0
  Ni  Ni368  1  0.72261900  0.68054700  0.05101486  1.0
  Ni  Ni369  1  0.05595233  0.18054700  0.12244343  1.0
  Ni  Ni370  1  0.05595233  0.51388033  0.12244343  1.0
  Ni  Ni371  1  0.05595233  0.84721367  0.12244343  1.0
  Ni  Ni372  1  0.38928567  0.18054700  0.12244343  1.0
  Ni  Ni373  1  0.38928567  0.51388033  0.12244343  1.0
  Ni  Ni374  1  0.38928567  0.84721367  0.12244343  1.0
  Ni  Ni375  1  0.72261900  0.18054700  0.12244343  1.0
  Ni  Ni376  1  0.72261900  0.51388033  0.12244343  1.0
  Ni  Ni377  1  0.72261900  0.84721367  0.12244343  1.0
  Ni  Ni378  1  0.05595233  0.01388033  0.12193329  1.0
  Ni  Ni379  1  0.05595233  0.34721367  0.12193329  1.0
  Ni  Ni380  1  0.05595233  0.68054700  0.12193329  1.0
  Ni  Ni381  1  0.38928567  0.01388033  0.12193329  1.0
  Ni  Ni382  1  0.38928567  0.34721367  0.12193329  1.0
  Ni  Ni383  1  0.38928567  0.68054700  0.12193329  1.0
  Ni  Ni384  1  0.72261900  0.01388033  0.12193329  1.0
  Ni  Ni385  1  0.72261900  0.34721367  0.12193329  1.0
  Ni  Ni386  1  0.72261900  0.68054700  0.12193329  1.0
  Ni  Ni387  1  0.05595233  0.18054700  0.05050471  1.0
  Ni  Ni388  1  0.05595233  0.51388033  0.05050471  1.0
  Ni  Ni389  1  0.05595233  0.84721367  0.05050471  1.0
  Ni  Ni390  1  0.38928567  0.18054700  0.05050471  1.0
  Ni  Ni391  1  0.38928567  0.51388033  0.05050471  1.0
  Ni  Ni392  1  0.38928567  0.84721367  0.05050471  1.0
  Ni  Ni393  1  0.72261900  0.18054700  0.05050471  1.0
  Ni  Ni394  1  0.72261900  0.51388033  0.05050471  1.0
  Ni  Ni395  1  0.72261900  0.84721367  0.05050471  1.0
  Ni  Ni396  1  0.22142867  0.06945300  0.00289300  1.0
  Ni  Ni397  1  0.22142867  0.40278633  0.00289300  1.0
  Ni  Ni398  1  0.22142867  0.73611967  0.00289300  1.0
  Ni  Ni399  1  0.55476200  0.06945300  0.00289300  1.0
  Ni  Ni400  1  0.55476200  0.40278633  0.00289300  1.0
  Ni  Ni401  1  0.55476200  0.73611967  0.00289300  1.0
  Ni  Ni402  1  0.88809533  0.06945300  0.00289300  1.0
  Ni  Ni403  1  0.88809533  0.40278633  0.00289300  1.0
  Ni  Ni404  1  0.88809533  0.73611967  0.00289300  1.0
  Ni  Ni405  1  0.22142867  0.23611967  0.07432157  1.0
  Ni  Ni406  1  0.22142867  0.56945300  0.07432157  1.0
  Ni  Ni407  1  0.22142867  0.90278633  0.07432157  1.0
  Ni  Ni408  1  0.55476200  0.23611967  0.07432157  1.0
  Ni  Ni409  1  0.55476200  0.56945300  0.07432157  1.0
  Ni  Ni410  1  0.55476200  0.90278633  0.07432157  1.0
  Ni  Ni411  1  0.88809533  0.23611967  0.07432157  1.0
  Ni  Ni412  1  0.88809533  0.56945300  0.07432157  1.0
  Ni  Ni413  1  0.88809533  0.90278633  0.07432157  1.0
  Ni  Ni414  1  0.05595233  0.06945300  0.07483171  1.0
  Ni  Ni415  1  0.05595233  0.40278633  0.07483171  1.0
  Ni  Ni416  1  0.05595233  0.73611967  0.07483171  1.0
  Ni  Ni417  1  0.38928567  0.06945300  0.07483171  1.0
  Ni  Ni418  1  0.38928567  0.40278633  0.07483171  1.0
  Ni  Ni419  1  0.38928567  0.73611967  0.07483171  1.0
  Ni  Ni420  1  0.72261900  0.06945300  0.07483171  1.0
  Ni  Ni421  1  0.72261900  0.40278633  0.07483171  1.0
  Ni  Ni422  1  0.72261900  0.73611967  0.07483171  1.0
  Ni  Ni423  1  0.05595233  0.23611967  0.00340314  1.0
  Ni  Ni424  1  0.05595233  0.56945300  0.00340314  1.0
  Ni  Ni425  1  0.05595233  0.90278633  0.00340314  1.0
  Ni  Ni426  1  0.38928567  0.23611967  0.00340314  1.0
  Ni  Ni427  1  0.38928567  0.56945300  0.00340314  1.0
  Ni  Ni428  1  0.38928567  0.90278633  0.00340314  1.0
  Ni  Ni429  1  0.72261900  0.23611967  0.00340314  1.0
  Ni  Ni430  1  0.72261900  0.56945300  0.00340314  1.0
  Ni  Ni431  1  0.72261900  0.90278633  0.00340314  1.0
  Ni  Ni432  1  0.05595233  0.06945300  0.00289300  1.0
  Ni  Ni433  1  0.05595233  0.40278633  0.00289300  1.0
  Ni  Ni434  1  0.05595233  0.73611967  0.00289300  1.0
  Ni  Ni435  1  0.38928567  0.06945300  0.00289300  1.0
  Ni  Ni436  1  0.38928567  0.40278633  0.00289300  1.0
  Ni  Ni437  1  0.38928567  0.73611967  0.00289300  1.0
  Ni  Ni438  1  0.72261900  0.06945300  0.00289300  1.0
  Ni  Ni439  1  0.72261900  0.40278633  0.00289300  1.0
  Ni  Ni440  1  0.72261900  0.73611967  0.00289300  1.0
  Ni  Ni441  1  0.05595233  0.23611967  0.07432157  1.0
  Ni  Ni442  1  0.05595233  0.56945300  0.07432157  1.0
  Ni  Ni443  1  0.05595233  0.90278633  0.07432157  1.0
  Ni  Ni444  1  0.38928567  0.23611967  0.07432157  1.0
  Ni  Ni445  1  0.38928567  0.56945300  0.07432157  1.0
  Ni  Ni446  1  0.38928567  0.90278633  0.07432157  1.0
  Ni  Ni447  1  0.72261900  0.23611967  0.07432157  1.0
  Ni  Ni448  1  0.72261900  0.56945300  0.07432157  1.0
  Ni  Ni449  1  0.72261900  0.90278633  0.07432157  1.0
  Ni  Ni450  1  0.11190467  0.09721367  0.06274957  1.0
  Ni  Ni451  1  0.11190467  0.43054700  0.06274957  1.0
  Ni  Ni452  1  0.11190467  0.76388033  0.06274957  1.0
  Ni  Ni453  1  0.44523800  0.09721367  0.06274957  1.0
  Ni  Ni454  1  0.44523800  0.43054700  0.06274957  1.0
  Ni  Ni455  1  0.44523800  0.76388033  0.06274957  1.0
  Ni  Ni456  1  0.77857133  0.09721367  0.06274957  1.0
  Ni  Ni457  1  0.77857133  0.43054700  0.06274957  1.0
  Ni  Ni458  1  0.77857133  0.76388033  0.06274957  1.0
  Ni  Ni459  1  0.11190467  0.26388033  0.13417814  1.0
  Ni  Ni460  1  0.11190467  0.59721367  0.13417814  1.0
  Ni  Ni461  1  0.11190467  0.93054700  0.13417814  1.0
  Ni  Ni462  1  0.44523800  0.26388033  0.13417814  1.0
  Ni  Ni463  1  0.44523800  0.59721367  0.13417814  1.0
  Ni  Ni464  1  0.44523800  0.93054700  0.13417814  1.0
  Ni  Ni465  1  0.77857133  0.26388033  0.13417814  1.0
  Ni  Ni466  1  0.77857133  0.59721367  0.13417814  1.0
  Ni  Ni467  1  0.77857133  0.93054700  0.13417814  1.0
  Ni  Ni468  1  0.27738100  0.09721367  0.13366800  1.0
  Ni  Ni469  1  0.27738100  0.43054700  0.13366800  1.0
  Ni  Ni470  1  0.27738100  0.76388033  0.13366800  1.0
  Ni  Ni471  1  0.61071433  0.09721367  0.13366800  1.0
  Ni  Ni472  1  0.61071433  0.43054700  0.13366800  1.0
  Ni  Ni473  1  0.61071433  0.76388033  0.13366800  1.0
  Ni  Ni474  1  0.94404767  0.09721367  0.13366800  1.0
  Ni  Ni475  1  0.94404767  0.43054700  0.13366800  1.0
  Ni  Ni476  1  0.94404767  0.76388033  0.13366800  1.0
  Ni  Ni477  1  0.27738100  0.26388033  0.06223943  1.0
  Ni  Ni478  1  0.27738100  0.59721367  0.06223943  1.0
  Ni  Ni479  1  0.27738100  0.93054700  0.06223943  1.0
  Ni  Ni480  1  0.61071433  0.26388033  0.06223943  1.0
  Ni  Ni481  1  0.61071433  0.59721367  0.06223943  1.0
  Ni  Ni482  1  0.61071433  0.93054700  0.06223943  1.0
  Ni  Ni483  1  0.94404767  0.26388033  0.06223943  1.0
  Ni  Ni484  1  0.94404767  0.59721367  0.06223943  1.0
  Ni  Ni485  1  0.94404767  0.93054700  0.06223943  1.0
  Ni  Ni486  1  0.27738100  0.09721367  0.06274957  1.0
  Ni  Ni487  1  0.27738100  0.43054700  0.06274957  1.0
  Ni  Ni488  1  0.27738100  0.76388033  0.06274957  1.0
  Ni  Ni489  1  0.61071433  0.09721367  0.06274957  1.0
  Ni  Ni490  1  0.61071433  0.43054700  0.06274957  1.0
  Ni  Ni491  1  0.61071433  0.76388033  0.06274957  1.0
  Ni  Ni492  1  0.94404767  0.09721367  0.06274957  1.0
  Ni  Ni493  1  0.94404767  0.43054700  0.06274957  1.0
  Ni  Ni494  1  0.94404767  0.76388033  0.06274957  1.0
  Ni  Ni495  1  0.27738100  0.26388033  0.13417814  1.0
  Ni  Ni496  1  0.27738100  0.59721367  0.13417814  1.0
  Ni  Ni497  1  0.27738100  0.93054700  0.13417814  1.0
  Ni  Ni498  1  0.61071433  0.26388033  0.13417814  1.0
  Ni  Ni499  1  0.61071433  0.59721367  0.13417814  1.0
  Ni  Ni500  1  0.61071433  0.93054700  0.13417814  1.0
  Ni  Ni501  1  0.94404767  0.26388033  0.13417814  1.0
  Ni  Ni502  1  0.94404767  0.59721367  0.13417814  1.0
  Ni  Ni503  1  0.94404767  0.93054700  0.13417814  1.0
  Ni  Ni504  1  0.00000000  0.13893033  0.05664857  1.0
  Ni  Ni505  1  0.00000000  0.47226367  0.05664857  1.0
  Ni  Ni506  1  0.00000000  0.80559700  0.05664857  1.0
  Ni  Ni507  1  0.33333333  0.13893033  0.05664857  1.0
  Ni  Ni508  1  0.33333333  0.47226367  0.05664857  1.0
  Ni  Ni509  1  0.33333333  0.80559700  0.05664857  1.0
  Ni  Ni510  1  0.66666667  0.13893033  0.05664857  1.0
  Ni  Ni511  1  0.66666667  0.47226367  0.05664857  1.0
  Ni  Ni512  1  0.66666667  0.80559700  0.05664857  1.0
  Ni  Ni513  1  0.00000000  0.30559700  0.12807714  1.0
  Ni  Ni514  1  0.00000000  0.63893033  0.12807714  1.0
  Ni  Ni515  1  0.00000000  0.97226367  0.12807714  1.0
  Ni  Ni516  1  0.33333333  0.30559700  0.12807714  1.0
  Ni  Ni517  1  0.33333333  0.63893033  0.12807714  1.0
  Ni  Ni518  1  0.33333333  0.97226367  0.12807714  1.0
  Ni  Ni519  1  0.66666667  0.30559700  0.12807714  1.0
  Ni  Ni520  1  0.66666667  0.63893033  0.12807714  1.0
  Ni  Ni521  1  0.66666667  0.97226367  0.12807714  1.0
  Ni  Ni522  1  0.00000000  0.02773633  0.00899400  1.0
  Ni  Ni523  1  0.00000000  0.36106967  0.00899400  1.0
  Ni  Ni524  1  0.00000000  0.69440300  0.00899400  1.0
  Ni  Ni525  1  0.33333333  0.02773633  0.00899400  1.0
  Ni  Ni526  1  0.33333333  0.36106967  0.00899400  1.0
  Ni  Ni527  1  0.33333333  0.69440300  0.00899400  1.0
  Ni  Ni528  1  0.66666667  0.02773633  0.00899400  1.0
  Ni  Ni529  1  0.66666667  0.36106967  0.00899400  1.0
  Ni  Ni530  1  0.66666667  0.69440300  0.00899400  1.0
  Ni  Ni531  1  0.00000000  0.19440300  0.08042257  1.0
  Ni  Ni532  1  0.00000000  0.52773633  0.08042257  1.0
  Ni  Ni533  1  0.00000000  0.86106967  0.08042257  1.0
  Ni  Ni534  1  0.33333333  0.19440300  0.08042257  1.0
  Ni  Ni535  1  0.33333333  0.52773633  0.08042257  1.0
  Ni  Ni536  1  0.33333333  0.86106967  0.08042257  1.0
  Ni  Ni537  1  0.66666667  0.19440300  0.08042257  1.0
  Ni  Ni538  1  0.66666667  0.52773633  0.08042257  1.0
  Ni  Ni539  1  0.66666667  0.86106967  0.08042257  1.0
  Ni  Ni540  1  0.00000000  0.05559700  0.02093429  1.0
  Ni  Ni541  1  0.00000000  0.38893033  0.02093429  1.0
  Ni  Ni542  1  0.00000000  0.72226367  0.02093429  1.0
  Ni  Ni543  1  0.33333333  0.05559700  0.02093429  1.0
  Ni  Ni544  1  0.33333333  0.38893033  0.02093429  1.0
  Ni  Ni545  1  0.33333333  0.72226367  0.02093429  1.0
  Ni  Ni546  1  0.66666667  0.05559700  0.02093429  1.0
  Ni  Ni547  1  0.66666667  0.38893033  0.02093429  1.0
  Ni  Ni548  1  0.66666667  0.72226367  0.02093429  1.0
  Ni  Ni549  1  0.00000000  0.22226367  0.09236286  1.0
  Ni  Ni550  1  0.00000000  0.55559700  0.09236286  1.0
  Ni  Ni551  1  0.00000000  0.88893033  0.09236286  1.0
  Ni  Ni552  1  0.33333333  0.22226367  0.09236286  1.0
  Ni  Ni553  1  0.33333333  0.55559700  0.09236286  1.0
  Ni  Ni554  1  0.33333333  0.88893033  0.09236286  1.0
  Ni  Ni555  1  0.66666667  0.22226367  0.09236286  1.0
  Ni  Ni556  1  0.66666667  0.55559700  0.09236286  1.0
  Ni  Ni557  1  0.66666667  0.88893033  0.09236286  1.0
  Ni  Ni558  1  0.00000000  0.11106967  0.04470829  1.0
  Ni  Ni559  1  0.00000000  0.44440300  0.04470829  1.0
  Ni  Ni560  1  0.00000000  0.77773633  0.04470829  1.0
  Ni  Ni561  1  0.33333333  0.11106967  0.04470829  1.0
  Ni  Ni562  1  0.33333333  0.44440300  0.04470829  1.0
  Ni  Ni563  1  0.33333333  0.77773633  0.04470829  1.0
  Ni  Ni564  1  0.66666667  0.11106967  0.04470829  1.0
  Ni  Ni565  1  0.66666667  0.44440300  0.04470829  1.0
  Ni  Ni566  1  0.66666667  0.77773633  0.04470829  1.0
  Ni  Ni567  1  0.00000000  0.27773633  0.11613686  1.0
  Ni  Ni568  1  0.00000000  0.61106967  0.11613686  1.0
  Ni  Ni569  1  0.00000000  0.94440300  0.11613686  1.0
  Ni  Ni570  1  0.33333333  0.27773633  0.11613686  1.0
  Ni  Ni571  1  0.33333333  0.61106967  0.11613686  1.0
  Ni  Ni572  1  0.33333333  0.94440300  0.11613686  1.0
  Ni  Ni573  1  0.66666667  0.27773633  0.11613686  1.0
  Ni  Ni574  1  0.66666667  0.61106967  0.11613686  1.0
  Ni  Ni575  1  0.66666667  0.94440300  0.11613686  1.0
  Ni  Ni576  1  0.11111111  0.02776933  0.10424624  1.0
  Ni  Ni577  1  0.11111111  0.36110267  0.10424624  1.0
  Ni  Ni578  1  0.11111111  0.69443600  0.10424624  1.0
  Ni  Ni579  1  0.44444444  0.02776933  0.10424624  1.0
  Ni  Ni580  1  0.44444444  0.36110267  0.10424624  1.0
  Ni  Ni581  1  0.44444444  0.69443600  0.10424624  1.0
  Ni  Ni582  1  0.77777778  0.02776933  0.10424624  1.0
  Ni  Ni583  1  0.77777778  0.36110267  0.10424624  1.0
  Ni  Ni584  1  0.77777778  0.69443600  0.10424624  1.0
  Ni  Ni585  1  0.11111111  0.19443600  0.03281767  1.0
  Ni  Ni586  1  0.11111111  0.52776933  0.03281767  1.0
  Ni  Ni587  1  0.11111111  0.86110267  0.03281767  1.0
  Ni  Ni588  1  0.44444444  0.19443600  0.03281767  1.0
  Ni  Ni589  1  0.44444444  0.52776933  0.03281767  1.0
  Ni  Ni590  1  0.44444444  0.86110267  0.03281767  1.0
  Ni  Ni591  1  0.77777778  0.19443600  0.03281767  1.0
  Ni  Ni592  1  0.77777778  0.52776933  0.03281767  1.0
  Ni  Ni593  1  0.77777778  0.86110267  0.03281767  1.0
  Ni  Ni594  1  0.22222222  0.13889733  0.10425348  1.0
  Ni  Ni595  1  0.22222222  0.47223067  0.10425348  1.0
  Ni  Ni596  1  0.22222222  0.80556400  0.10425348  1.0
  Ni  Ni597  1  0.55555556  0.13889733  0.10425348  1.0
  Ni  Ni598  1  0.55555556  0.47223067  0.10425348  1.0
  Ni  Ni599  1  0.55555556  0.80556400  0.10425348  1.0
  Ni  Ni600  1  0.88888889  0.13889733  0.10425348  1.0
  Ni  Ni601  1  0.88888889  0.47223067  0.10425348  1.0
  Ni  Ni602  1  0.88888889  0.80556400  0.10425348  1.0
  Ni  Ni603  1  0.22222222  0.30556400  0.03282490  1.0
  Ni  Ni604  1  0.22222222  0.63889733  0.03282490  1.0
  Ni  Ni605  1  0.22222222  0.97223067  0.03282490  1.0
  Ni  Ni606  1  0.55555556  0.30556400  0.03282490  1.0
  Ni  Ni607  1  0.55555556  0.63889733  0.03282490  1.0
  Ni  Ni608  1  0.55555556  0.97223067  0.03282490  1.0
  Ni  Ni609  1  0.88888889  0.30556400  0.03282490  1.0
  Ni  Ni610  1  0.88888889  0.63889733  0.03282490  1.0
  Ni  Ni611  1  0.88888889  0.97223067  0.03282490  1.0
  Ni  Ni612  1  0.22222222  0.11111111  0.09234510  1.0
  Ni  Ni613  1  0.22222222  0.44444444  0.09234510  1.0
  Ni  Ni614  1  0.22222222  0.77777778  0.09234510  1.0
  Ni  Ni615  1  0.55555556  0.11111111  0.09234510  1.0
  Ni  Ni616  1  0.55555556  0.44444444  0.09234510  1.0
  Ni  Ni617  1  0.55555556  0.77777778  0.09234510  1.0
  Ni  Ni618  1  0.88888889  0.11111111  0.09234510  1.0
  Ni  Ni619  1  0.88888889  0.44444444  0.09234510  1.0
  Ni  Ni620  1  0.88888889  0.77777778  0.09234510  1.0
  Ni  Ni621  1  0.22222222  0.27777778  0.02091652  1.0
  Ni  Ni622  1  0.22222222  0.61111111  0.02091652  1.0
  Ni  Ni623  1  0.22222222  0.94444444  0.02091652  1.0
  Ni  Ni624  1  0.55555556  0.27777778  0.02091652  1.0
  Ni  Ni625  1  0.55555556  0.61111111  0.02091652  1.0
  Ni  Ni626  1  0.55555556  0.94444444  0.02091652  1.0
  Ni  Ni627  1  0.88888889  0.27777778  0.02091652  1.0
  Ni  Ni628  1  0.88888889  0.61111111  0.02091652  1.0
  Ni  Ni629  1  0.88888889  0.94444444  0.02091652  1.0
  Ni  Ni630  1  0.11111111  0.05556400  0.11615824  1.0
  Ni  Ni631  1  0.11111111  0.38889733  0.11615824  1.0
  Ni  Ni632  1  0.11111111  0.72223067  0.11615824  1.0
  Ni  Ni633  1  0.44444444  0.05556400  0.11615824  1.0
  Ni  Ni634  1  0.44444444  0.38889733  0.11615824  1.0
  Ni  Ni635  1  0.44444444  0.72223067  0.11615824  1.0
  Ni  Ni636  1  0.77777778  0.05556400  0.11615824  1.0
  Ni  Ni637  1  0.77777778  0.38889733  0.11615824  1.0
  Ni  Ni638  1  0.77777778  0.72223067  0.11615824  1.0
  Ni  Ni639  1  0.11111111  0.22223067  0.04472967  1.0
  Ni  Ni640  1  0.11111111  0.55556400  0.04472967  1.0
  Ni  Ni641  1  0.11111111  0.88889733  0.04472967  1.0
  Ni  Ni642  1  0.44444444  0.22223067  0.04472967  1.0
  Ni  Ni643  1  0.44444444  0.55556400  0.04472967  1.0
  Ni  Ni644  1  0.44444444  0.88889733  0.04472967  1.0
  Ni  Ni645  1  0.77777778  0.22223067  0.04472967  1.0
  Ni  Ni646  1  0.77777778  0.55556400  0.04472967  1.0
  Ni  Ni647  1  0.77777778  0.88889733  0.04472967  1.0
  Sc  Sc648  1  0.11111111  0.16183133  0.16170138  1.0
  Sc  Sc649  1  0.11111111  0.49516467  0.16170138  1.0
  Sc  Sc650  1  0.11111111  0.82849800  0.16170138  1.0
  Sc  Sc651  1  0.44444444  0.16183133  0.16170138  1.0
  Sc  Sc652  1  0.44444444  0.49516467  0.16170138  1.0
  Sc  Sc653  1  0.44444444  0.82849800  0.16170138  1.0
  Sc  Sc654  1  0.77777778  0.16183133  0.16170138  1.0
  Sc  Sc655  1  0.77777778  0.49516467  0.16170138  1.0
  Sc  Sc656  1  0.77777778  0.82849800  0.16170138  1.0
  Sc  Sc657  1  0.11111111  0.32849800  0.23312995  1.0
  Sc  Sc658  1  0.11111111  0.66183133  0.23312995  1.0
  Sc  Sc659  1  0.11111111  0.99516467  0.23312995  1.0
  Sc  Sc660  1  0.44444444  0.32849800  0.23312995  1.0
  Sc  Sc661  1  0.44444444  0.66183133  0.23312995  1.0
  Sc  Sc662  1  0.44444444  0.99516467  0.23312995  1.0
  Sc  Sc663  1  0.77777778  0.32849800  0.23312995  1.0
  Sc  Sc664  1  0.77777778  0.66183133  0.23312995  1.0
  Sc  Sc665  1  0.77777778  0.99516467  0.23312995  1.0
  Sc  Sc666  1  0.22222222  0.00483533  0.18965548  1.0
  Sc  Sc667  1  0.22222222  0.33816867  0.18965548  1.0
  Sc  Sc668  1  0.22222222  0.67150200  0.18965548  1.0
  Sc  Sc669  1  0.55555556  0.00483533  0.18965548  1.0
  Sc  Sc670  1  0.55555556  0.33816867  0.18965548  1.0
  Sc  Sc671  1  0.55555556  0.67150200  0.18965548  1.0
  Sc  Sc672  1  0.88888889  0.00483533  0.18965548  1.0
  Sc  Sc673  1  0.88888889  0.33816867  0.18965548  1.0
  Sc  Sc674  1  0.88888889  0.67150200  0.18965548  1.0
  Sc  Sc675  1  0.22222222  0.17150200  0.26108405  1.0
  Sc  Sc676  1  0.22222222  0.50483533  0.26108405  1.0
  Sc  Sc677  1  0.22222222  0.83816867  0.26108405  1.0
  Sc  Sc678  1  0.55555556  0.17150200  0.26108405  1.0
  Sc  Sc679  1  0.55555556  0.50483533  0.26108405  1.0
  Sc  Sc680  1  0.55555556  0.83816867  0.26108405  1.0
  Sc  Sc681  1  0.88888889  0.17150200  0.26108405  1.0
  Sc  Sc682  1  0.88888889  0.50483533  0.26108405  1.0
  Sc  Sc683  1  0.88888889  0.83816867  0.26108405  1.0
  Sc  Sc684  1  0.22222222  0.07849800  0.22122519  1.0
  Sc  Sc685  1  0.22222222  0.41183133  0.22122519  1.0
  Sc  Sc686  1  0.22222222  0.74516467  0.22122519  1.0
  Sc  Sc687  1  0.55555556  0.07849800  0.22122519  1.0
  Sc  Sc688  1  0.55555556  0.41183133  0.22122519  1.0
  Sc  Sc689  1  0.55555556  0.74516467  0.22122519  1.0
  Sc  Sc690  1  0.88888889  0.07849800  0.22122519  1.0
  Sc  Sc691  1  0.88888889  0.41183133  0.22122519  1.0
  Sc  Sc692  1  0.88888889  0.74516467  0.22122519  1.0
  Sc  Sc693  1  0.22222222  0.24516467  0.14979662  1.0
  Sc  Sc694  1  0.22222222  0.57849800  0.14979662  1.0
  Sc  Sc695  1  0.22222222  0.91183133  0.14979662  1.0
  Sc  Sc696  1  0.55555556  0.24516467  0.14979662  1.0
  Sc  Sc697  1  0.55555556  0.57849800  0.14979662  1.0
  Sc  Sc698  1  0.55555556  0.91183133  0.14979662  1.0
  Sc  Sc699  1  0.88888889  0.24516467  0.14979662  1.0
  Sc  Sc700  1  0.88888889  0.57849800  0.14979662  1.0
  Sc  Sc701  1  0.88888889  0.91183133  0.14979662  1.0
  Sc  Sc702  1  0.11111111  0.08816867  0.27298881  1.0
  Sc  Sc703  1  0.11111111  0.42150200  0.27298881  1.0
  Sc  Sc704  1  0.11111111  0.75483533  0.27298881  1.0
  Sc  Sc705  1  0.44444444  0.08816867  0.27298881  1.0
  Sc  Sc706  1  0.44444444  0.42150200  0.27298881  1.0
  Sc  Sc707  1  0.44444444  0.75483533  0.27298881  1.0
  Sc  Sc708  1  0.77777778  0.08816867  0.27298881  1.0
  Sc  Sc709  1  0.77777778  0.42150200  0.27298881  1.0
  Sc  Sc710  1  0.77777778  0.75483533  0.27298881  1.0
  Sc  Sc711  1  0.11111111  0.25483533  0.20156024  1.0
  Sc  Sc712  1  0.11111111  0.58816867  0.20156024  1.0
  Sc  Sc713  1  0.11111111  0.92150200  0.20156024  1.0
  Sc  Sc714  1  0.44444444  0.25483533  0.20156024  1.0
  Sc  Sc715  1  0.44444444  0.58816867  0.20156024  1.0
  Sc  Sc716  1  0.44444444  0.92150200  0.20156024  1.0
  Sc  Sc717  1  0.77777778  0.25483533  0.20156024  1.0
  Sc  Sc718  1  0.77777778  0.58816867  0.20156024  1.0
  Sc  Sc719  1  0.77777778  0.92150200  0.20156024  1.0
  Sc  Sc720  1  0.11111111  0.13763367  0.15133095  1.0
  Sc  Sc721  1  0.11111111  0.47096700  0.15133095  1.0
  Sc  Sc722  1  0.11111111  0.80430033  0.15133095  1.0
  Sc  Sc723  1  0.44444444  0.13763367  0.15133095  1.0
  Sc  Sc724  1  0.44444444  0.47096700  0.15133095  1.0
  Sc  Sc725  1  0.44444444  0.80430033  0.15133095  1.0
  Sc  Sc726  1  0.77777778  0.13763367  0.15133095  1.0
  Sc  Sc727  1  0.77777778  0.47096700  0.15133095  1.0
  Sc  Sc728  1  0.77777778  0.80430033  0.15133095  1.0
  Sc  Sc729  1  0.11111111  0.30430033  0.22275952  1.0
  Sc  Sc730  1  0.11111111  0.63763367  0.22275952  1.0
  Sc  Sc731  1  0.11111111  0.97096700  0.22275952  1.0
  Sc  Sc732  1  0.44444444  0.30430033  0.22275952  1.0
  Sc  Sc733  1  0.44444444  0.63763367  0.22275952  1.0
  Sc  Sc734  1  0.44444444  0.97096700  0.22275952  1.0
  Sc  Sc735  1  0.77777778  0.30430033  0.22275952  1.0
  Sc  Sc736  1  0.77777778  0.63763367  0.22275952  1.0
  Sc  Sc737  1  0.77777778  0.97096700  0.22275952  1.0
  Sc  Sc738  1  0.22222222  0.02903300  0.20002590  1.0
  Sc  Sc739  1  0.22222222  0.36236633  0.20002590  1.0
  Sc  Sc740  1  0.22222222  0.69569967  0.20002590  1.0
  Sc  Sc741  1  0.55555556  0.02903300  0.20002590  1.0
  Sc  Sc742  1  0.55555556  0.36236633  0.20002590  1.0
  Sc  Sc743  1  0.55555556  0.69569967  0.20002590  1.0
  Sc  Sc744  1  0.88888889  0.02903300  0.20002590  1.0
  Sc  Sc745  1  0.88888889  0.36236633  0.20002590  1.0
  Sc  Sc746  1  0.88888889  0.69569967  0.20002590  1.0
  Sc  Sc747  1  0.22222222  0.19569967  0.27145448  1.0
  Sc  Sc748  1  0.22222222  0.52903300  0.27145448  1.0
  Sc  Sc749  1  0.22222222  0.86236633  0.27145448  1.0
  Sc  Sc750  1  0.55555556  0.19569967  0.27145448  1.0
  Sc  Sc751  1  0.55555556  0.52903300  0.27145448  1.0
  Sc  Sc752  1  0.55555556  0.86236633  0.27145448  1.0
  Sc  Sc753  1  0.88888889  0.19569967  0.27145448  1.0
  Sc  Sc754  1  0.88888889  0.52903300  0.27145448  1.0
  Sc  Sc755  1  0.88888889  0.86236633  0.27145448  1.0
  Sc  Sc756  1  0.22222222  0.05430033  0.21085476  1.0
  Sc  Sc757  1  0.22222222  0.38763367  0.21085476  1.0
  Sc  Sc758  1  0.22222222  0.72096700  0.21085476  1.0
  Sc  Sc759  1  0.55555556  0.05430033  0.21085476  1.0
  Sc  Sc760  1  0.55555556  0.38763367  0.21085476  1.0
  Sc  Sc761  1  0.55555556  0.72096700  0.21085476  1.0
  Sc  Sc762  1  0.88888889  0.05430033  0.21085476  1.0
  Sc  Sc763  1  0.88888889  0.38763367  0.21085476  1.0
  Sc  Sc764  1  0.88888889  0.72096700  0.21085476  1.0
  Sc  Sc765  1  0.22222222  0.22096700  0.28228333  1.0
  Sc  Sc766  1  0.22222222  0.55430033  0.28228333  1.0
  Sc  Sc767  1  0.22222222  0.88763367  0.28228333  1.0
  Sc  Sc768  1  0.55555556  0.22096700  0.28228333  1.0
  Sc  Sc769  1  0.55555556  0.55430033  0.28228333  1.0
  Sc  Sc770  1  0.55555556  0.88763367  0.28228333  1.0
  Sc  Sc771  1  0.88888889  0.22096700  0.28228333  1.0
  Sc  Sc772  1  0.88888889  0.55430033  0.28228333  1.0
  Sc  Sc773  1  0.88888889  0.88763367  0.28228333  1.0
  Sc  Sc774  1  0.11111111  0.11236633  0.28335924  1.0
  Sc  Sc775  1  0.11111111  0.44569967  0.28335924  1.0
  Sc  Sc776  1  0.11111111  0.77903300  0.28335924  1.0
  Sc  Sc777  1  0.44444444  0.11236633  0.28335924  1.0
  Sc  Sc778  1  0.44444444  0.44569967  0.28335924  1.0
  Sc  Sc779  1  0.44444444  0.77903300  0.28335924  1.0
  Sc  Sc780  1  0.77777778  0.11236633  0.28335924  1.0
  Sc  Sc781  1  0.77777778  0.44569967  0.28335924  1.0
  Sc  Sc782  1  0.77777778  0.77903300  0.28335924  1.0
  Sc  Sc783  1  0.11111111  0.27903300  0.21193067  1.0
  Sc  Sc784  1  0.11111111  0.61236633  0.21193067  1.0
  Sc  Sc785  1  0.11111111  0.94569967  0.21193067  1.0
  Sc  Sc786  1  0.44444444  0.27903300  0.21193067  1.0
  Sc  Sc787  1  0.44444444  0.61236633  0.21193067  1.0
  Sc  Sc788  1  0.44444444  0.94569967  0.21193067  1.0
  Sc  Sc789  1  0.77777778  0.27903300  0.21193067  1.0
  Sc  Sc790  1  0.77777778  0.61236633  0.21193067  1.0
  Sc  Sc791  1  0.77777778  0.94569967  0.21193067  1.0
  Ni  Ni792  1  0.00000000  0.00000000  0.28282129  1.0
  Ni  Ni793  1  0.00000000  0.33333333  0.28282129  1.0
  Ni  Ni794  1  0.00000000  0.66666667  0.28282129  1.0
  Ni  Ni795  1  0.33333333  0.00000000  0.28282129  1.0
  Ni  Ni796  1  0.33333333  0.33333333  0.28282129  1.0
  Ni  Ni797  1  0.33333333  0.66666667  0.28282129  1.0
  Ni  Ni798  1  0.66666667  0.00000000  0.28282129  1.0
  Ni  Ni799  1  0.66666667  0.33333333  0.28282129  1.0
  Ni  Ni800  1  0.66666667  0.66666667  0.28282129  1.0
  Ni  Ni801  1  0.00000000  0.16666667  0.21139271  1.0
  Ni  Ni802  1  0.00000000  0.50000000  0.21139271  1.0
  Ni  Ni803  1  0.00000000  0.83333333  0.21139271  1.0
  Ni  Ni804  1  0.33333333  0.16666667  0.21139271  1.0
  Ni  Ni805  1  0.33333333  0.50000000  0.21139271  1.0
  Ni  Ni806  1  0.33333333  0.83333333  0.21139271  1.0
  Ni  Ni807  1  0.66666667  0.16666667  0.21139271  1.0
  Ni  Ni808  1  0.66666667  0.50000000  0.21139271  1.0
  Ni  Ni809  1  0.66666667  0.83333333  0.21139271  1.0
  Ni  Ni810  1  0.00000000  0.08333333  0.17567843  1.0
  Ni  Ni811  1  0.00000000  0.41666667  0.17567843  1.0
  Ni  Ni812  1  0.00000000  0.75000000  0.17567843  1.0
  Ni  Ni813  1  0.33333333  0.08333333  0.17567843  1.0
  Ni  Ni814  1  0.33333333  0.41666667  0.17567843  1.0
  Ni  Ni815  1  0.33333333  0.75000000  0.17567843  1.0
  Ni  Ni816  1  0.66666667  0.08333333  0.17567843  1.0
  Ni  Ni817  1  0.66666667  0.41666667  0.17567843  1.0
  Ni  Ni818  1  0.66666667  0.75000000  0.17567843  1.0
  Ni  Ni819  1  0.00000000  0.25000000  0.24710700  1.0
  Ni  Ni820  1  0.00000000  0.58333333  0.24710700  1.0
  Ni  Ni821  1  0.00000000  0.91666667  0.24710700  1.0
  Ni  Ni822  1  0.33333333  0.25000000  0.24710700  1.0
  Ni  Ni823  1  0.33333333  0.58333333  0.24710700  1.0
  Ni  Ni824  1  0.33333333  0.91666667  0.24710700  1.0
  Ni  Ni825  1  0.66666667  0.25000000  0.24710700  1.0
  Ni  Ni826  1  0.66666667  0.58333333  0.24710700  1.0
  Ni  Ni827  1  0.66666667  0.91666667  0.24710700  1.0
  Ni  Ni828  1  0.11107067  0.12500000  0.21733643  1.0
  Ni  Ni829  1  0.11107067  0.45833333  0.21733643  1.0
  Ni  Ni830  1  0.11107067  0.79166667  0.21733643  1.0
  Ni  Ni831  1  0.44440400  0.12500000  0.21733643  1.0
  Ni  Ni832  1  0.44440400  0.45833333  0.21733643  1.0
  Ni  Ni833  1  0.44440400  0.79166667  0.21733643  1.0
  Ni  Ni834  1  0.77773733  0.12500000  0.21733643  1.0
  Ni  Ni835  1  0.77773733  0.45833333  0.21733643  1.0
  Ni  Ni836  1  0.77773733  0.79166667  0.21733643  1.0
  Ni  Ni837  1  0.11107067  0.29166667  0.14590786  1.0
  Ni  Ni838  1  0.11107067  0.62500000  0.14590786  1.0
  Ni  Ni839  1  0.11107067  0.95833333  0.14590786  1.0
  Ni  Ni840  1  0.44440400  0.29166667  0.14590786  1.0
  Ni  Ni841  1  0.44440400  0.62500000  0.14590786  1.0
  Ni  Ni842  1  0.44440400  0.95833333  0.14590786  1.0
  Ni  Ni843  1  0.77773733  0.29166667  0.14590786  1.0
  Ni  Ni844  1  0.77773733  0.62500000  0.14590786  1.0
  Ni  Ni845  1  0.77773733  0.95833333  0.14590786  1.0
  Ni  Ni846  1  0.27779800  0.12500000  0.14593386  1.0
  Ni  Ni847  1  0.27779800  0.45833333  0.14593386  1.0
  Ni  Ni848  1  0.27779800  0.79166667  0.14593386  1.0
  Ni  Ni849  1  0.61113133  0.12500000  0.14593386  1.0
  Ni  Ni850  1  0.61113133  0.45833333  0.14593386  1.0
  Ni  Ni851  1  0.61113133  0.79166667  0.14593386  1.0
  Ni  Ni852  1  0.94446467  0.12500000  0.14593386  1.0
  Ni  Ni853  1  0.94446467  0.45833333  0.14593386  1.0
  Ni  Ni854  1  0.94446467  0.79166667  0.14593386  1.0
  Ni  Ni855  1  0.27779800  0.29166667  0.21736243  1.0
  Ni  Ni856  1  0.27779800  0.62500000  0.21736243  1.0
  Ni  Ni857  1  0.27779800  0.95833333  0.21736243  1.0
  Ni  Ni858  1  0.61113133  0.29166667  0.21736243  1.0
  Ni  Ni859  1  0.61113133  0.62500000  0.21736243  1.0
  Ni  Ni860  1  0.61113133  0.95833333  0.21736243  1.0
  Ni  Ni861  1  0.94446467  0.29166667  0.21736243  1.0
  Ni  Ni862  1  0.94446467  0.62500000  0.21736243  1.0
  Ni  Ni863  1  0.94446467  0.95833333  0.21736243  1.0
  Ni  Ni864  1  0.27779800  0.12500000  0.21733643  1.0
  Ni  Ni865  1  0.27779800  0.45833333  0.21733643  1.0
  Ni  Ni866  1  0.27779800  0.79166667  0.21733643  1.0
  Ni  Ni867  1  0.61113133  0.12500000  0.21733643  1.0
  Ni  Ni868  1  0.61113133  0.45833333  0.21733643  1.0
  Ni  Ni869  1  0.61113133  0.79166667  0.21733643  1.0
  Ni  Ni870  1  0.94446467  0.12500000  0.21733643  1.0
  Ni  Ni871  1  0.94446467  0.45833333  0.21733643  1.0
  Ni  Ni872  1  0.94446467  0.79166667  0.21733643  1.0
  Ni  Ni873  1  0.27779800  0.29166667  0.14590786  1.0
  Ni  Ni874  1  0.27779800  0.62500000  0.14590786  1.0
  Ni  Ni875  1  0.27779800  0.95833333  0.14590786  1.0
  Ni  Ni876  1  0.61113133  0.29166667  0.14590786  1.0
  Ni  Ni877  1  0.61113133  0.62500000  0.14590786  1.0
  Ni  Ni878  1  0.61113133  0.95833333  0.14590786  1.0
  Ni  Ni879  1  0.94446467  0.29166667  0.14590786  1.0
  Ni  Ni880  1  0.94446467  0.62500000  0.14590786  1.0
  Ni  Ni881  1  0.94446467  0.95833333  0.14590786  1.0
  Ni  Ni882  1  0.22226267  0.04166667  0.27687757  1.0
  Ni  Ni883  1  0.22226267  0.37500000  0.27687757  1.0
  Ni  Ni884  1  0.22226267  0.70833333  0.27687757  1.0
  Ni  Ni885  1  0.55559600  0.04166667  0.27687757  1.0
  Ni  Ni886  1  0.55559600  0.37500000  0.27687757  1.0
  Ni  Ni887  1  0.55559600  0.70833333  0.27687757  1.0
  Ni  Ni888  1  0.88892933  0.04166667  0.27687757  1.0
  Ni  Ni889  1  0.88892933  0.37500000  0.27687757  1.0
  Ni  Ni890  1  0.88892933  0.70833333  0.27687757  1.0
  Ni  Ni891  1  0.22226267  0.20833333  0.20544900  1.0
  Ni  Ni892  1  0.22226267  0.54166667  0.20544900  1.0
  Ni  Ni893  1  0.22226267  0.87500000  0.20544900  1.0
  Ni  Ni894  1  0.55559600  0.20833333  0.20544900  1.0
  Ni  Ni895  1  0.55559600  0.54166667  0.20544900  1.0
  Ni  Ni896  1  0.55559600  0.87500000  0.20544900  1.0
  Ni  Ni897  1  0.88892933  0.20833333  0.20544900  1.0
  Ni  Ni898  1  0.88892933  0.54166667  0.20544900  1.0
  Ni  Ni899  1  0.88892933  0.87500000  0.20544900  1.0
  Ni  Ni900  1  0.05553533  0.04166667  0.20542300  1.0
  Ni  Ni901  1  0.05553533  0.37500000  0.20542300  1.0
  Ni  Ni902  1  0.05553533  0.70833333  0.20542300  1.0
  Ni  Ni903  1  0.38886867  0.04166667  0.20542300  1.0
  Ni  Ni904  1  0.38886867  0.37500000  0.20542300  1.0
  Ni  Ni905  1  0.38886867  0.70833333  0.20542300  1.0
  Ni  Ni906  1  0.72220200  0.04166667  0.20542300  1.0
  Ni  Ni907  1  0.72220200  0.37500000  0.20542300  1.0
  Ni  Ni908  1  0.72220200  0.70833333  0.20542300  1.0
  Ni  Ni909  1  0.05553533  0.20833333  0.27685157  1.0
  Ni  Ni910  1  0.05553533  0.54166667  0.27685157  1.0
  Ni  Ni911  1  0.05553533  0.87500000  0.27685157  1.0
  Ni  Ni912  1  0.38886867  0.20833333  0.27685157  1.0
  Ni  Ni913  1  0.38886867  0.54166667  0.27685157  1.0
  Ni  Ni914  1  0.38886867  0.87500000  0.27685157  1.0
  Ni  Ni915  1  0.72220200  0.20833333  0.27685157  1.0
  Ni  Ni916  1  0.72220200  0.54166667  0.27685157  1.0
  Ni  Ni917  1  0.72220200  0.87500000  0.27685157  1.0
  Ni  Ni918  1  0.05553533  0.04166667  0.27687757  1.0
  Ni  Ni919  1  0.05553533  0.37500000  0.27687757  1.0
  Ni  Ni920  1  0.05553533  0.70833333  0.27687757  1.0
  Ni  Ni921  1  0.38886867  0.04166667  0.27687757  1.0
  Ni  Ni922  1  0.38886867  0.37500000  0.27687757  1.0
  Ni  Ni923  1  0.38886867  0.70833333  0.27687757  1.0
  Ni  Ni924  1  0.72220200  0.04166667  0.27687757  1.0
  Ni  Ni925  1  0.72220200  0.37500000  0.27687757  1.0
  Ni  Ni926  1  0.72220200  0.70833333  0.27687757  1.0
  Ni  Ni927  1  0.05553533  0.20833333  0.20544900  1.0
  Ni  Ni928  1  0.05553533  0.54166667  0.20544900  1.0
  Ni  Ni929  1  0.05553533  0.87500000  0.20544900  1.0
  Ni  Ni930  1  0.38886867  0.20833333  0.20544900  1.0
  Ni  Ni931  1  0.38886867  0.54166667  0.20544900  1.0
  Ni  Ni932  1  0.38886867  0.87500000  0.20544900  1.0
  Ni  Ni933  1  0.72220200  0.20833333  0.20544900  1.0
  Ni  Ni934  1  0.72220200  0.54166667  0.20544900  1.0
  Ni  Ni935  1  0.72220200  0.87500000  0.20544900  1.0
  Ni  Ni936  1  0.11190467  0.15278633  0.22942357  1.0
  Ni  Ni937  1  0.11190467  0.48611967  0.22942357  1.0
  Ni  Ni938  1  0.11190467  0.81945300  0.22942357  1.0
  Ni  Ni939  1  0.44523800  0.15278633  0.22942357  1.0
  Ni  Ni940  1  0.44523800  0.48611967  0.22942357  1.0
  Ni  Ni941  1  0.44523800  0.81945300  0.22942357  1.0
  Ni  Ni942  1  0.77857133  0.15278633  0.22942357  1.0
  Ni  Ni943  1  0.77857133  0.48611967  0.22942357  1.0
  Ni  Ni944  1  0.77857133  0.81945300  0.22942357  1.0
  Ni  Ni945  1  0.11190467  0.31945300  0.15799500  1.0
  Ni  Ni946  1  0.11190467  0.65278633  0.15799500  1.0
  Ni  Ni947  1  0.11190467  0.98611967  0.15799500  1.0
  Ni  Ni948  1  0.44523800  0.31945300  0.15799500  1.0
  Ni  Ni949  1  0.44523800  0.65278633  0.15799500  1.0
  Ni  Ni950  1  0.44523800  0.98611967  0.15799500  1.0
  Ni  Ni951  1  0.77857133  0.31945300  0.15799500  1.0
  Ni  Ni952  1  0.77857133  0.65278633  0.15799500  1.0
  Ni  Ni953  1  0.77857133  0.98611967  0.15799500  1.0
  Ni  Ni954  1  0.27738100  0.15278633  0.15748486  1.0
  Ni  Ni955  1  0.27738100  0.48611967  0.15748486  1.0
  Ni  Ni956  1  0.27738100  0.81945300  0.15748486  1.0
  Ni  Ni957  1  0.61071433  0.15278633  0.15748486  1.0
  Ni  Ni958  1  0.61071433  0.48611967  0.15748486  1.0
  Ni  Ni959  1  0.61071433  0.81945300  0.15748486  1.0
  Ni  Ni960  1  0.94404767  0.15278633  0.15748486  1.0
  Ni  Ni961  1  0.94404767  0.48611967  0.15748486  1.0
  Ni  Ni962  1  0.94404767  0.81945300  0.15748486  1.0
  Ni  Ni963  1  0.27738100  0.31945300  0.22891343  1.0
  Ni  Ni964  1  0.27738100  0.65278633  0.22891343  1.0
  Ni  Ni965  1  0.27738100  0.98611967  0.22891343  1.0
  Ni  Ni966  1  0.61071433  0.31945300  0.22891343  1.0
  Ni  Ni967  1  0.61071433  0.65278633  0.22891343  1.0
  Ni  Ni968  1  0.61071433  0.98611967  0.22891343  1.0
  Ni  Ni969  1  0.94404767  0.31945300  0.22891343  1.0
  Ni  Ni970  1  0.94404767  0.65278633  0.22891343  1.0
  Ni  Ni971  1  0.94404767  0.98611967  0.22891343  1.0
  Ni  Ni972  1  0.27738100  0.15278633  0.22942357  1.0
  Ni  Ni973  1  0.27738100  0.48611967  0.22942357  1.0
  Ni  Ni974  1  0.27738100  0.81945300  0.22942357  1.0
  Ni  Ni975  1  0.61071433  0.15278633  0.22942357  1.0
  Ni  Ni976  1  0.61071433  0.48611967  0.22942357  1.0
  Ni  Ni977  1  0.61071433  0.81945300  0.22942357  1.0
  Ni  Ni978  1  0.94404767  0.15278633  0.22942357  1.0
  Ni  Ni979  1  0.94404767  0.48611967  0.22942357  1.0
  Ni  Ni980  1  0.94404767  0.81945300  0.22942357  1.0
  Ni  Ni981  1  0.27738100  0.31945300  0.15799500  1.0
  Ni  Ni982  1  0.27738100  0.65278633  0.15799500  1.0
  Ni  Ni983  1  0.27738100  0.98611967  0.15799500  1.0
  Ni  Ni984  1  0.61071433  0.31945300  0.15799500  1.0
  Ni  Ni985  1  0.61071433  0.65278633  0.15799500  1.0
  Ni  Ni986  1  0.61071433  0.98611967  0.15799500  1.0
  Ni  Ni987  1  0.94404767  0.31945300  0.15799500  1.0
  Ni  Ni988  1  0.94404767  0.65278633  0.15799500  1.0
  Ni  Ni989  1  0.94404767  0.98611967  0.15799500  1.0
  Ni  Ni990  1  0.22142867  0.01388033  0.26479043  1.0
  Ni  Ni991  1  0.22142867  0.34721367  0.26479043  1.0
  Ni  Ni992  1  0.22142867  0.68054700  0.26479043  1.0
  Ni  Ni993  1  0.55476200  0.01388033  0.26479043  1.0
  Ni  Ni994  1  0.55476200  0.34721367  0.26479043  1.0
  Ni  Ni995  1  0.55476200  0.68054700  0.26479043  1.0
  Ni  Ni996  1  0.88809533  0.01388033  0.26479043  1.0
  Ni  Ni997  1  0.88809533  0.34721367  0.26479043  1.0
  Ni  Ni998  1  0.88809533  0.68054700  0.26479043  1.0
  Ni  Ni999  1  0.22142867  0.18054700  0.19336186  1.0
  Ni  Ni1000  1  0.22142867  0.51388033  0.19336186  1.0
  Ni  Ni1001  1  0.22142867  0.84721367  0.19336186  1.0
  Ni  Ni1002  1  0.55476200  0.18054700  0.19336186  1.0
  Ni  Ni1003  1  0.55476200  0.51388033  0.19336186  1.0
  Ni  Ni1004  1  0.55476200  0.84721367  0.19336186  1.0
  Ni  Ni1005  1  0.88809533  0.18054700  0.19336186  1.0
  Ni  Ni1006  1  0.88809533  0.51388033  0.19336186  1.0
  Ni  Ni1007  1  0.88809533  0.84721367  0.19336186  1.0
  Ni  Ni1008  1  0.05595233  0.01388033  0.19387200  1.0
  Ni  Ni1009  1  0.05595233  0.34721367  0.19387200  1.0
  Ni  Ni1010  1  0.05595233  0.68054700  0.19387200  1.0
  Ni  Ni1011  1  0.38928567  0.01388033  0.19387200  1.0
  Ni  Ni1012  1  0.38928567  0.34721367  0.19387200  1.0
  Ni  Ni1013  1  0.38928567  0.68054700  0.19387200  1.0
  Ni  Ni1014  1  0.72261900  0.01388033  0.19387200  1.0
  Ni  Ni1015  1  0.72261900  0.34721367  0.19387200  1.0
  Ni  Ni1016  1  0.72261900  0.68054700  0.19387200  1.0
  Ni  Ni1017  1  0.05595233  0.18054700  0.26530057  1.0
  Ni  Ni1018  1  0.05595233  0.51388033  0.26530057  1.0
  Ni  Ni1019  1  0.05595233  0.84721367  0.26530057  1.0
  Ni  Ni1020  1  0.38928567  0.18054700  0.26530057  1.0
  Ni  Ni1021  1  0.38928567  0.51388033  0.26530057  1.0
  Ni  Ni1022  1  0.38928567  0.84721367  0.26530057  1.0
  Ni  Ni1023  1  0.72261900  0.18054700  0.26530057  1.0
  Ni  Ni1024  1  0.72261900  0.51388033  0.26530057  1.0
  Ni  Ni1025  1  0.72261900  0.84721367  0.26530057  1.0
  Ni  Ni1026  1  0.05595233  0.01388033  0.26479043  1.0
  Ni  Ni1027  1  0.05595233  0.34721367  0.26479043  1.0
  Ni  Ni1028  1  0.05595233  0.68054700  0.26479043  1.0
  Ni  Ni1029  1  0.38928567  0.01388033  0.26479043  1.0
  Ni  Ni1030  1  0.38928567  0.34721367  0.26479043  1.0
  Ni  Ni1031  1  0.38928567  0.68054700  0.26479043  1.0
  Ni  Ni1032  1  0.72261900  0.01388033  0.26479043  1.0
  Ni  Ni1033  1  0.72261900  0.34721367  0.26479043  1.0
  Ni  Ni1034  1  0.72261900  0.68054700  0.26479043  1.0
  Ni  Ni1035  1  0.05595233  0.18054700  0.19336186  1.0
  Ni  Ni1036  1  0.05595233  0.51388033  0.19336186  1.0
  Ni  Ni1037  1  0.05595233  0.84721367  0.19336186  1.0
  Ni  Ni1038  1  0.38928567  0.18054700  0.19336186  1.0
  Ni  Ni1039  1  0.38928567  0.51388033  0.19336186  1.0
  Ni  Ni1040  1  0.38928567  0.84721367  0.19336186  1.0
  Ni  Ni1041  1  0.72261900  0.18054700  0.19336186  1.0
  Ni  Ni1042  1  0.72261900  0.51388033  0.19336186  1.0
  Ni  Ni1043  1  0.72261900  0.84721367  0.19336186  1.0
  Ni  Ni1044  1  0.22142867  0.06945300  0.14575014  1.0
  Ni  Ni1045  1  0.22142867  0.40278633  0.14575014  1.0
  Ni  Ni1046  1  0.22142867  0.73611967  0.14575014  1.0
  Ni  Ni1047  1  0.55476200  0.06945300  0.14575014  1.0
  Ni  Ni1048  1  0.55476200  0.40278633  0.14575014  1.0
  Ni  Ni1049  1  0.55476200  0.73611967  0.14575014  1.0
  Ni  Ni1050  1  0.88809533  0.06945300  0.14575014  1.0
  Ni  Ni1051  1  0.88809533  0.40278633  0.14575014  1.0
  Ni  Ni1052  1  0.88809533  0.73611967  0.14575014  1.0
  Ni  Ni1053  1  0.22142867  0.23611967  0.21717871  1.0
  Ni  Ni1054  1  0.22142867  0.56945300  0.21717871  1.0
  Ni  Ni1055  1  0.22142867  0.90278633  0.21717871  1.0
  Ni  Ni1056  1  0.55476200  0.23611967  0.21717871  1.0
  Ni  Ni1057  1  0.55476200  0.56945300  0.21717871  1.0
  Ni  Ni1058  1  0.55476200  0.90278633  0.21717871  1.0
  Ni  Ni1059  1  0.88809533  0.23611967  0.21717871  1.0
  Ni  Ni1060  1  0.88809533  0.56945300  0.21717871  1.0
  Ni  Ni1061  1  0.88809533  0.90278633  0.21717871  1.0
  Ni  Ni1062  1  0.05595233  0.06945300  0.21768886  1.0
  Ni  Ni1063  1  0.05595233  0.40278633  0.21768886  1.0
  Ni  Ni1064  1  0.05595233  0.73611967  0.21768886  1.0
  Ni  Ni1065  1  0.38928567  0.06945300  0.21768886  1.0
  Ni  Ni1066  1  0.38928567  0.40278633  0.21768886  1.0
  Ni  Ni1067  1  0.38928567  0.73611967  0.21768886  1.0
  Ni  Ni1068  1  0.72261900  0.06945300  0.21768886  1.0
  Ni  Ni1069  1  0.72261900  0.40278633  0.21768886  1.0
  Ni  Ni1070  1  0.72261900  0.73611967  0.21768886  1.0
  Ni  Ni1071  1  0.05595233  0.23611967  0.14626029  1.0
  Ni  Ni1072  1  0.05595233  0.56945300  0.14626029  1.0
  Ni  Ni1073  1  0.05595233  0.90278633  0.14626029  1.0
  Ni  Ni1074  1  0.38928567  0.23611967  0.14626029  1.0
  Ni  Ni1075  1  0.38928567  0.56945300  0.14626029  1.0
  Ni  Ni1076  1  0.38928567  0.90278633  0.14626029  1.0
  Ni  Ni1077  1  0.72261900  0.23611967  0.14626029  1.0
  Ni  Ni1078  1  0.72261900  0.56945300  0.14626029  1.0
  Ni  Ni1079  1  0.72261900  0.90278633  0.14626029  1.0
  Ni  Ni1080  1  0.05595233  0.06945300  0.14575014  1.0
  Ni  Ni1081  1  0.05595233  0.40278633  0.14575014  1.0
  Ni  Ni1082  1  0.05595233  0.73611967  0.14575014  1.0
  Ni  Ni1083  1  0.38928567  0.06945300  0.14575014  1.0
  Ni  Ni1084  1  0.38928567  0.40278633  0.14575014  1.0
  Ni  Ni1085  1  0.38928567  0.73611967  0.14575014  1.0
  Ni  Ni1086  1  0.72261900  0.06945300  0.14575014  1.0
  Ni  Ni1087  1  0.72261900  0.40278633  0.14575014  1.0
  Ni  Ni1088  1  0.72261900  0.73611967  0.14575014  1.0
  Ni  Ni1089  1  0.05595233  0.23611967  0.21717871  1.0
  Ni  Ni1090  1  0.05595233  0.56945300  0.21717871  1.0
  Ni  Ni1091  1  0.05595233  0.90278633  0.21717871  1.0
  Ni  Ni1092  1  0.38928567  0.23611967  0.21717871  1.0
  Ni  Ni1093  1  0.38928567  0.56945300  0.21717871  1.0
  Ni  Ni1094  1  0.38928567  0.90278633  0.21717871  1.0
  Ni  Ni1095  1  0.72261900  0.23611967  0.21717871  1.0
  Ni  Ni1096  1  0.72261900  0.56945300  0.21717871  1.0
  Ni  Ni1097  1  0.72261900  0.90278633  0.21717871  1.0
  Ni  Ni1098  1  0.11190467  0.09721367  0.20560671  1.0
  Ni  Ni1099  1  0.11190467  0.43054700  0.20560671  1.0
  Ni  Ni1100  1  0.11190467  0.76388033  0.20560671  1.0
  Ni  Ni1101  1  0.44523800  0.09721367  0.20560671  1.0
  Ni  Ni1102  1  0.44523800  0.43054700  0.20560671  1.0
  Ni  Ni1103  1  0.44523800  0.76388033  0.20560671  1.0
  Ni  Ni1104  1  0.77857133  0.09721367  0.20560671  1.0
  Ni  Ni1105  1  0.77857133  0.43054700  0.20560671  1.0
  Ni  Ni1106  1  0.77857133  0.76388033  0.20560671  1.0
  Ni  Ni1107  1  0.11190467  0.26388033  0.27703529  1.0
  Ni  Ni1108  1  0.11190467  0.59721367  0.27703529  1.0
  Ni  Ni1109  1  0.11190467  0.93054700  0.27703529  1.0
  Ni  Ni1110  1  0.44523800  0.26388033  0.27703529  1.0
  Ni  Ni1111  1  0.44523800  0.59721367  0.27703529  1.0
  Ni  Ni1112  1  0.44523800  0.93054700  0.27703529  1.0
  Ni  Ni1113  1  0.77857133  0.26388033  0.27703529  1.0
  Ni  Ni1114  1  0.77857133  0.59721367  0.27703529  1.0
  Ni  Ni1115  1  0.77857133  0.93054700  0.27703529  1.0
  Ni  Ni1116  1  0.27738100  0.09721367  0.27652514  1.0
  Ni  Ni1117  1  0.27738100  0.43054700  0.27652514  1.0
  Ni  Ni1118  1  0.27738100  0.76388033  0.27652514  1.0
  Ni  Ni1119  1  0.61071433  0.09721367  0.27652514  1.0
  Ni  Ni1120  1  0.61071433  0.43054700  0.27652514  1.0
  Ni  Ni1121  1  0.61071433  0.76388033  0.27652514  1.0
  Ni  Ni1122  1  0.94404767  0.09721367  0.27652514  1.0
  Ni  Ni1123  1  0.94404767  0.43054700  0.27652514  1.0
  Ni  Ni1124  1  0.94404767  0.76388033  0.27652514  1.0
  Ni  Ni1125  1  0.27738100  0.26388033  0.20509657  1.0
  Ni  Ni1126  1  0.27738100  0.59721367  0.20509657  1.0
  Ni  Ni1127  1  0.27738100  0.93054700  0.20509657  1.0
  Ni  Ni1128  1  0.61071433  0.26388033  0.20509657  1.0
  Ni  Ni1129  1  0.61071433  0.59721367  0.20509657  1.0
  Ni  Ni1130  1  0.61071433  0.93054700  0.20509657  1.0
  Ni  Ni1131  1  0.94404767  0.26388033  0.20509657  1.0
  Ni  Ni1132  1  0.94404767  0.59721367  0.20509657  1.0
  Ni  Ni1133  1  0.94404767  0.93054700  0.20509657  1.0
  Ni  Ni1134  1  0.27738100  0.09721367  0.20560671  1.0
  Ni  Ni1135  1  0.27738100  0.43054700  0.20560671  1.0
  Ni  Ni1136  1  0.27738100  0.76388033  0.20560671  1.0
  Ni  Ni1137  1  0.61071433  0.09721367  0.20560671  1.0
  Ni  Ni1138  1  0.61071433  0.43054700  0.20560671  1.0
  Ni  Ni1139  1  0.61071433  0.76388033  0.20560671  1.0
  Ni  Ni1140  1  0.94404767  0.09721367  0.20560671  1.0
  Ni  Ni1141  1  0.94404767  0.43054700  0.20560671  1.0
  Ni  Ni1142  1  0.94404767  0.76388033  0.20560671  1.0
  Ni  Ni1143  1  0.27738100  0.26388033  0.27703529  1.0
  Ni  Ni1144  1  0.27738100  0.59721367  0.27703529  1.0
  Ni  Ni1145  1  0.27738100  0.93054700  0.27703529  1.0
  Ni  Ni1146  1  0.61071433  0.26388033  0.27703529  1.0
  Ni  Ni1147  1  0.61071433  0.59721367  0.27703529  1.0
  Ni  Ni1148  1  0.61071433  0.93054700  0.27703529  1.0
  Ni  Ni1149  1  0.94404767  0.26388033  0.27703529  1.0
  Ni  Ni1150  1  0.94404767  0.59721367  0.27703529  1.0
  Ni  Ni1151  1  0.94404767  0.93054700  0.27703529  1.0
  Ni  Ni1152  1  0.00000000  0.13893033  0.19950571  1.0
  Ni  Ni1153  1  0.00000000  0.47226367  0.19950571  1.0
  Ni  Ni1154  1  0.00000000  0.80559700  0.19950571  1.0
  Ni  Ni1155  1  0.33333333  0.13893033  0.19950571  1.0
  Ni  Ni1156  1  0.33333333  0.47226367  0.19950571  1.0
  Ni  Ni1157  1  0.33333333  0.80559700  0.19950571  1.0
  Ni  Ni1158  1  0.66666667  0.13893033  0.19950571  1.0
  Ni  Ni1159  1  0.66666667  0.47226367  0.19950571  1.0
  Ni  Ni1160  1  0.66666667  0.80559700  0.19950571  1.0
  Ni  Ni1161  1  0.00000000  0.30559700  0.27093429  1.0
  Ni  Ni1162  1  0.00000000  0.63893033  0.27093429  1.0
  Ni  Ni1163  1  0.00000000  0.97226367  0.27093429  1.0
  Ni  Ni1164  1  0.33333333  0.30559700  0.27093429  1.0
  Ni  Ni1165  1  0.33333333  0.63893033  0.27093429  1.0
  Ni  Ni1166  1  0.33333333  0.97226367  0.27093429  1.0
  Ni  Ni1167  1  0.66666667  0.30559700  0.27093429  1.0
  Ni  Ni1168  1  0.66666667  0.63893033  0.27093429  1.0
  Ni  Ni1169  1  0.66666667  0.97226367  0.27093429  1.0
  Ni  Ni1170  1  0.00000000  0.02773633  0.15185114  1.0
  Ni  Ni1171  1  0.00000000  0.36106967  0.15185114  1.0
  Ni  Ni1172  1  0.00000000  0.69440300  0.15185114  1.0
  Ni  Ni1173  1  0.33333333  0.02773633  0.15185114  1.0
  Ni  Ni1174  1  0.33333333  0.36106967  0.15185114  1.0
  Ni  Ni1175  1  0.33333333  0.69440300  0.15185114  1.0
  Ni  Ni1176  1  0.66666667  0.02773633  0.15185114  1.0
  Ni  Ni1177  1  0.66666667  0.36106967  0.15185114  1.0
  Ni  Ni1178  1  0.66666667  0.69440300  0.15185114  1.0
  Ni  Ni1179  1  0.00000000  0.19440300  0.22327971  1.0
  Ni  Ni1180  1  0.00000000  0.52773633  0.22327971  1.0
  Ni  Ni1181  1  0.00000000  0.86106967  0.22327971  1.0
  Ni  Ni1182  1  0.33333333  0.19440300  0.22327971  1.0
  Ni  Ni1183  1  0.33333333  0.52773633  0.22327971  1.0
  Ni  Ni1184  1  0.33333333  0.86106967  0.22327971  1.0
  Ni  Ni1185  1  0.66666667  0.19440300  0.22327971  1.0
  Ni  Ni1186  1  0.66666667  0.52773633  0.22327971  1.0
  Ni  Ni1187  1  0.66666667  0.86106967  0.22327971  1.0
  Ni  Ni1188  1  0.00000000  0.05559700  0.16379143  1.0
  Ni  Ni1189  1  0.00000000  0.38893033  0.16379143  1.0
  Ni  Ni1190  1  0.00000000  0.72226367  0.16379143  1.0
  Ni  Ni1191  1  0.33333333  0.05559700  0.16379143  1.0
  Ni  Ni1192  1  0.33333333  0.38893033  0.16379143  1.0
  Ni  Ni1193  1  0.33333333  0.72226367  0.16379143  1.0
  Ni  Ni1194  1  0.66666667  0.05559700  0.16379143  1.0
  Ni  Ni1195  1  0.66666667  0.38893033  0.16379143  1.0
  Ni  Ni1196  1  0.66666667  0.72226367  0.16379143  1.0
  Ni  Ni1197  1  0.00000000  0.22226367  0.23522000  1.0
  Ni  Ni1198  1  0.00000000  0.55559700  0.23522000  1.0
  Ni  Ni1199  1  0.00000000  0.88893033  0.23522000  1.0
  Ni  Ni1200  1  0.33333333  0.22226367  0.23522000  1.0
  Ni  Ni1201  1  0.33333333  0.55559700  0.23522000  1.0
  Ni  Ni1202  1  0.33333333  0.88893033  0.23522000  1.0
  Ni  Ni1203  1  0.66666667  0.22226367  0.23522000  1.0
  Ni  Ni1204  1  0.66666667  0.55559700  0.23522000  1.0
  Ni  Ni1205  1  0.66666667  0.88893033  0.23522000  1.0
  Ni  Ni1206  1  0.00000000  0.11106967  0.18756543  1.0
  Ni  Ni1207  1  0.00000000  0.44440300  0.18756543  1.0
  Ni  Ni1208  1  0.00000000  0.77773633  0.18756543  1.0
  Ni  Ni1209  1  0.33333333  0.11106967  0.18756543  1.0
  Ni  Ni1210  1  0.33333333  0.44440300  0.18756543  1.0
  Ni  Ni1211  1  0.33333333  0.77773633  0.18756543  1.0
  Ni  Ni1212  1  0.66666667  0.11106967  0.18756543  1.0
  Ni  Ni1213  1  0.66666667  0.44440300  0.18756543  1.0
  Ni  Ni1214  1  0.66666667  0.77773633  0.18756543  1.0
  Ni  Ni1215  1  0.00000000  0.27773633  0.25899400  1.0
  Ni  Ni1216  1  0.00000000  0.61106967  0.25899400  1.0
  Ni  Ni1217  1  0.00000000  0.94440300  0.25899400  1.0
  Ni  Ni1218  1  0.33333333  0.27773633  0.25899400  1.0
  Ni  Ni1219  1  0.33333333  0.61106967  0.25899400  1.0
  Ni  Ni1220  1  0.33333333  0.94440300  0.25899400  1.0
  Ni  Ni1221  1  0.66666667  0.27773633  0.25899400  1.0
  Ni  Ni1222  1  0.66666667  0.61106967  0.25899400  1.0
  Ni  Ni1223  1  0.66666667  0.94440300  0.25899400  1.0
  Ni  Ni1224  1  0.11111111  0.02776933  0.24710338  1.0
  Ni  Ni1225  1  0.11111111  0.36110267  0.24710338  1.0
  Ni  Ni1226  1  0.11111111  0.69443600  0.24710338  1.0
  Ni  Ni1227  1  0.44444444  0.02776933  0.24710338  1.0
  Ni  Ni1228  1  0.44444444  0.36110267  0.24710338  1.0
  Ni  Ni1229  1  0.44444444  0.69443600  0.24710338  1.0
  Ni  Ni1230  1  0.77777778  0.02776933  0.24710338  1.0
  Ni  Ni1231  1  0.77777778  0.36110267  0.24710338  1.0
  Ni  Ni1232  1  0.77777778  0.69443600  0.24710338  1.0
  Ni  Ni1233  1  0.11111111  0.19443600  0.17567481  1.0
  Ni  Ni1234  1  0.11111111  0.52776933  0.17567481  1.0
  Ni  Ni1235  1  0.11111111  0.86110267  0.17567481  1.0
  Ni  Ni1236  1  0.44444444  0.19443600  0.17567481  1.0
  Ni  Ni1237  1  0.44444444  0.52776933  0.17567481  1.0
  Ni  Ni1238  1  0.44444444  0.86110267  0.17567481  1.0
  Ni  Ni1239  1  0.77777778  0.19443600  0.17567481  1.0
  Ni  Ni1240  1  0.77777778  0.52776933  0.17567481  1.0
  Ni  Ni1241  1  0.77777778  0.86110267  0.17567481  1.0
  Ni  Ni1242  1  0.22222222  0.13889733  0.24711062  1.0
  Ni  Ni1243  1  0.22222222  0.47223067  0.24711062  1.0
  Ni  Ni1244  1  0.22222222  0.80556400  0.24711062  1.0
  Ni  Ni1245  1  0.55555556  0.13889733  0.24711062  1.0
  Ni  Ni1246  1  0.55555556  0.47223067  0.24711062  1.0
  Ni  Ni1247  1  0.55555556  0.80556400  0.24711062  1.0
  Ni  Ni1248  1  0.88888889  0.13889733  0.24711062  1.0
  Ni  Ni1249  1  0.88888889  0.47223067  0.24711062  1.0
  Ni  Ni1250  1  0.88888889  0.80556400  0.24711062  1.0
  Ni  Ni1251  1  0.22222222  0.30556400  0.17568205  1.0
  Ni  Ni1252  1  0.22222222  0.63889733  0.17568205  1.0
  Ni  Ni1253  1  0.22222222  0.97223067  0.17568205  1.0
  Ni  Ni1254  1  0.55555556  0.30556400  0.17568205  1.0
  Ni  Ni1255  1  0.55555556  0.63889733  0.17568205  1.0
  Ni  Ni1256  1  0.55555556  0.97223067  0.17568205  1.0
  Ni  Ni1257  1  0.88888889  0.30556400  0.17568205  1.0
  Ni  Ni1258  1  0.88888889  0.63889733  0.17568205  1.0
  Ni  Ni1259  1  0.88888889  0.97223067  0.17568205  1.0
  Ni  Ni1260  1  0.22222222  0.11111111  0.23520224  1.0
  Ni  Ni1261  1  0.22222222  0.44444444  0.23520224  1.0
  Ni  Ni1262  1  0.22222222  0.77777778  0.23520224  1.0
  Ni  Ni1263  1  0.55555556  0.11111111  0.23520224  1.0
  Ni  Ni1264  1  0.55555556  0.44444444  0.23520224  1.0
  Ni  Ni1265  1  0.55555556  0.77777778  0.23520224  1.0
  Ni  Ni1266  1  0.88888889  0.11111111  0.23520224  1.0
  Ni  Ni1267  1  0.88888889  0.44444444  0.23520224  1.0
  Ni  Ni1268  1  0.88888889  0.77777778  0.23520224  1.0
  Ni  Ni1269  1  0.22222222  0.27777778  0.16377367  1.0
  Ni  Ni1270  1  0.22222222  0.61111111  0.16377367  1.0
  Ni  Ni1271  1  0.22222222  0.94444444  0.16377367  1.0
  Ni  Ni1272  1  0.55555556  0.27777778  0.16377367  1.0
  Ni  Ni1273  1  0.55555556  0.61111111  0.16377367  1.0
  Ni  Ni1274  1  0.55555556  0.94444444  0.16377367  1.0
  Ni  Ni1275  1  0.88888889  0.27777778  0.16377367  1.0
  Ni  Ni1276  1  0.88888889  0.61111111  0.16377367  1.0
  Ni  Ni1277  1  0.88888889  0.94444444  0.16377367  1.0
  Ni  Ni1278  1  0.11111111  0.05556400  0.25901538  1.0
  Ni  Ni1279  1  0.11111111  0.38889733  0.25901538  1.0
  Ni  Ni1280  1  0.11111111  0.72223067  0.25901538  1.0
  Ni  Ni1281  1  0.44444444  0.05556400  0.25901538  1.0
  Ni  Ni1282  1  0.44444444  0.38889733  0.25901538  1.0
  Ni  Ni1283  1  0.44444444  0.72223067  0.25901538  1.0
  Ni  Ni1284  1  0.77777778  0.05556400  0.25901538  1.0
  Ni  Ni1285  1  0.77777778  0.38889733  0.25901538  1.0
  Ni  Ni1286  1  0.77777778  0.72223067  0.25901538  1.0
  Ni  Ni1287  1  0.11111111  0.22223067  0.18758681  1.0
  Ni  Ni1288  1  0.11111111  0.55556400  0.18758681  1.0
  Ni  Ni1289  1  0.11111111  0.88889733  0.18758681  1.0
  Ni  Ni1290  1  0.44444444  0.22223067  0.18758681  1.0
  Ni  Ni1291  1  0.44444444  0.55556400  0.18758681  1.0
  Ni  Ni1292  1  0.44444444  0.88889733  0.18758681  1.0
  Ni  Ni1293  1  0.77777778  0.22223067  0.18758681  1.0
  Ni  Ni1294  1  0.77777778  0.55556400  0.18758681  1.0
  Ni  Ni1295  1  0.77777778  0.88889733  0.18758681  1.0
  Sc  Sc1296  1  0.11111111  0.16183133  0.30455852  1.0
  Sc  Sc1297  1  0.11111111  0.49516467  0.30455852  1.0
  Sc  Sc1298  1  0.11111111  0.82849800  0.30455852  1.0
  Sc  Sc1299  1  0.44444444  0.16183133  0.30455852  1.0
  Sc  Sc1300  1  0.44444444  0.49516467  0.30455852  1.0
  Sc  Sc1301  1  0.44444444  0.82849800  0.30455852  1.0
  Sc  Sc1302  1  0.77777778  0.16183133  0.30455852  1.0
  Sc  Sc1303  1  0.77777778  0.49516467  0.30455852  1.0
  Sc  Sc1304  1  0.77777778  0.82849800  0.30455852  1.0
  Sc  Sc1305  1  0.11111111  0.32849800  0.37598710  1.0
  Sc  Sc1306  1  0.11111111  0.66183133  0.37598710  1.0
  Sc  Sc1307  1  0.11111111  0.99516467  0.37598710  1.0
  Sc  Sc1308  1  0.44444444  0.32849800  0.37598710  1.0
  Sc  Sc1309  1  0.44444444  0.66183133  0.37598710  1.0
  Sc  Sc1310  1  0.44444444  0.99516467  0.37598710  1.0
  Sc  Sc1311  1  0.77777778  0.32849800  0.37598710  1.0
  Sc  Sc1312  1  0.77777778  0.66183133  0.37598710  1.0
  Sc  Sc1313  1  0.77777778  0.99516467  0.37598710  1.0
  Sc  Sc1314  1  0.22222222  0.00483533  0.33251262  1.0
  Sc  Sc1315  1  0.22222222  0.33816867  0.33251262  1.0
  Sc  Sc1316  1  0.22222222  0.67150200  0.33251262  1.0
  Sc  Sc1317  1  0.55555556  0.00483533  0.33251262  1.0
  Sc  Sc1318  1  0.55555556  0.33816867  0.33251262  1.0
  Sc  Sc1319  1  0.55555556  0.67150200  0.33251262  1.0
  Sc  Sc1320  1  0.88888889  0.00483533  0.33251262  1.0
  Sc  Sc1321  1  0.88888889  0.33816867  0.33251262  1.0
  Sc  Sc1322  1  0.88888889  0.67150200  0.33251262  1.0
  Sc  Sc1323  1  0.22222222  0.17150200  0.40394119  1.0
  Sc  Sc1324  1  0.22222222  0.50483533  0.40394119  1.0
  Sc  Sc1325  1  0.22222222  0.83816867  0.40394119  1.0
  Sc  Sc1326  1  0.55555556  0.17150200  0.40394119  1.0
  Sc  Sc1327  1  0.55555556  0.50483533  0.40394119  1.0
  Sc  Sc1328  1  0.55555556  0.83816867  0.40394119  1.0
  Sc  Sc1329  1  0.88888889  0.17150200  0.40394119  1.0
  Sc  Sc1330  1  0.88888889  0.50483533  0.40394119  1.0
  Sc  Sc1331  1  0.88888889  0.83816867  0.40394119  1.0
  Sc  Sc1332  1  0.22222222  0.07849800  0.36408233  1.0
  Sc  Sc1333  1  0.22222222  0.41183133  0.36408233  1.0
  Sc  Sc1334  1  0.22222222  0.74516467  0.36408233  1.0
  Sc  Sc1335  1  0.55555556  0.07849800  0.36408233  1.0
  Sc  Sc1336  1  0.55555556  0.41183133  0.36408233  1.0
  Sc  Sc1337  1  0.55555556  0.74516467  0.36408233  1.0
  Sc  Sc1338  1  0.88888889  0.07849800  0.36408233  1.0
  Sc  Sc1339  1  0.88888889  0.41183133  0.36408233  1.0
  Sc  Sc1340  1  0.88888889  0.74516467  0.36408233  1.0
  Sc  Sc1341  1  0.22222222  0.24516467  0.29265376  1.0
  Sc  Sc1342  1  0.22222222  0.57849800  0.29265376  1.0
  Sc  Sc1343  1  0.22222222  0.91183133  0.29265376  1.0
  Sc  Sc1344  1  0.55555556  0.24516467  0.29265376  1.0
  Sc  Sc1345  1  0.55555556  0.57849800  0.29265376  1.0
  Sc  Sc1346  1  0.55555556  0.91183133  0.29265376  1.0
  Sc  Sc1347  1  0.88888889  0.24516467  0.29265376  1.0
  Sc  Sc1348  1  0.88888889  0.57849800  0.29265376  1.0
  Sc  Sc1349  1  0.88888889  0.91183133  0.29265376  1.0
  Sc  Sc1350  1  0.11111111  0.08816867  0.41584595  1.0
  Sc  Sc1351  1  0.11111111  0.42150200  0.41584595  1.0
  Sc  Sc1352  1  0.11111111  0.75483533  0.41584595  1.0
  Sc  Sc1353  1  0.44444444  0.08816867  0.41584595  1.0
  Sc  Sc1354  1  0.44444444  0.42150200  0.41584595  1.0
  Sc  Sc1355  1  0.44444444  0.75483533  0.41584595  1.0
  Sc  Sc1356  1  0.77777778  0.08816867  0.41584595  1.0
  Sc  Sc1357  1  0.77777778  0.42150200  0.41584595  1.0
  Sc  Sc1358  1  0.77777778  0.75483533  0.41584595  1.0
  Sc  Sc1359  1  0.11111111  0.25483533  0.34441738  1.0
  Sc  Sc1360  1  0.11111111  0.58816867  0.34441738  1.0
  Sc  Sc1361  1  0.11111111  0.92150200  0.34441738  1.0
  Sc  Sc1362  1  0.44444444  0.25483533  0.34441738  1.0
  Sc  Sc1363  1  0.44444444  0.58816867  0.34441738  1.0
  Sc  Sc1364  1  0.44444444  0.92150200  0.34441738  1.0
  Sc  Sc1365  1  0.77777778  0.25483533  0.34441738  1.0
  Sc  Sc1366  1  0.77777778  0.58816867  0.34441738  1.0
  Sc  Sc1367  1  0.77777778  0.92150200  0.34441738  1.0
  Sc  Sc1368  1  0.11111111  0.13763367  0.29418810  1.0
  Sc  Sc1369  1  0.11111111  0.47096700  0.29418810  1.0
  Sc  Sc1370  1  0.11111111  0.80430033  0.29418810  1.0
  Sc  Sc1371  1  0.44444444  0.13763367  0.29418810  1.0
  Sc  Sc1372  1  0.44444444  0.47096700  0.29418810  1.0
  Sc  Sc1373  1  0.44444444  0.80430033  0.29418810  1.0
  Sc  Sc1374  1  0.77777778  0.13763367  0.29418810  1.0
  Sc  Sc1375  1  0.77777778  0.47096700  0.29418810  1.0
  Sc  Sc1376  1  0.77777778  0.80430033  0.29418810  1.0
  Sc  Sc1377  1  0.11111111  0.30430033  0.36561667  1.0
  Sc  Sc1378  1  0.11111111  0.63763367  0.36561667  1.0
  Sc  Sc1379  1  0.11111111  0.97096700  0.36561667  1.0
  Sc  Sc1380  1  0.44444444  0.30430033  0.36561667  1.0
  Sc  Sc1381  1  0.44444444  0.63763367  0.36561667  1.0
  Sc  Sc1382  1  0.44444444  0.97096700  0.36561667  1.0
  Sc  Sc1383  1  0.77777778  0.30430033  0.36561667  1.0
  Sc  Sc1384  1  0.77777778  0.63763367  0.36561667  1.0
  Sc  Sc1385  1  0.77777778  0.97096700  0.36561667  1.0
  Sc  Sc1386  1  0.22222222  0.02903300  0.34288305  1.0
  Sc  Sc1387  1  0.22222222  0.36236633  0.34288305  1.0
  Sc  Sc1388  1  0.22222222  0.69569967  0.34288305  1.0
  Sc  Sc1389  1  0.55555556  0.02903300  0.34288305  1.0
  Sc  Sc1390  1  0.55555556  0.36236633  0.34288305  1.0
  Sc  Sc1391  1  0.55555556  0.69569967  0.34288305  1.0
  Sc  Sc1392  1  0.88888889  0.02903300  0.34288305  1.0
  Sc  Sc1393  1  0.88888889  0.36236633  0.34288305  1.0
  Sc  Sc1394  1  0.88888889  0.69569967  0.34288305  1.0
  Sc  Sc1395  1  0.22222222  0.19569967  0.41431162  1.0
  Sc  Sc1396  1  0.22222222  0.52903300  0.41431162  1.0
  Sc  Sc1397  1  0.22222222  0.86236633  0.41431162  1.0
  Sc  Sc1398  1  0.55555556  0.19569967  0.41431162  1.0
  Sc  Sc1399  1  0.55555556  0.52903300  0.41431162  1.0
  Sc  Sc1400  1  0.55555556  0.86236633  0.41431162  1.0
  Sc  Sc1401  1  0.88888889  0.19569967  0.41431162  1.0
  Sc  Sc1402  1  0.88888889  0.52903300  0.41431162  1.0
  Sc  Sc1403  1  0.88888889  0.86236633  0.41431162  1.0
  Sc  Sc1404  1  0.22222222  0.05430033  0.35371190  1.0
  Sc  Sc1405  1  0.22222222  0.38763367  0.35371190  1.0
  Sc  Sc1406  1  0.22222222  0.72096700  0.35371190  1.0
  Sc  Sc1407  1  0.55555556  0.05430033  0.35371190  1.0
  Sc  Sc1408  1  0.55555556  0.38763367  0.35371190  1.0
  Sc  Sc1409  1  0.55555556  0.72096700  0.35371190  1.0
  Sc  Sc1410  1  0.88888889  0.05430033  0.35371190  1.0
  Sc  Sc1411  1  0.88888889  0.38763367  0.35371190  1.0
  Sc  Sc1412  1  0.88888889  0.72096700  0.35371190  1.0
  Sc  Sc1413  1  0.22222222  0.22096700  0.42514048  1.0
  Sc  Sc1414  1  0.22222222  0.55430033  0.42514048  1.0
  Sc  Sc1415  1  0.22222222  0.88763367  0.42514048  1.0
  Sc  Sc1416  1  0.55555556  0.22096700  0.42514048  1.0
  Sc  Sc1417  1  0.55555556  0.55430033  0.42514048  1.0
  Sc  Sc1418  1  0.55555556  0.88763367  0.42514048  1.0
  Sc  Sc1419  1  0.88888889  0.22096700  0.42514048  1.0
  Sc  Sc1420  1  0.88888889  0.55430033  0.42514048  1.0
  Sc  Sc1421  1  0.88888889  0.88763367  0.42514048  1.0
  Sc  Sc1422  1  0.11111111  0.11236633  0.42621638  1.0
  Sc  Sc1423  1  0.11111111  0.44569967  0.42621638  1.0
  Sc  Sc1424  1  0.11111111  0.77903300  0.42621638  1.0
  Sc  Sc1425  1  0.44444444  0.11236633  0.42621638  1.0
  Sc  Sc1426  1  0.44444444  0.44569967  0.42621638  1.0
  Sc  Sc1427  1  0.44444444  0.77903300  0.42621638  1.0
  Sc  Sc1428  1  0.77777778  0.11236633  0.42621638  1.0
  Sc  Sc1429  1  0.77777778  0.44569967  0.42621638  1.0
  Sc  Sc1430  1  0.77777778  0.77903300  0.42621638  1.0
  Sc  Sc1431  1  0.11111111  0.27903300  0.35478781  1.0
  Sc  Sc1432  1  0.11111111  0.61236633  0.35478781  1.0
  Sc  Sc1433  1  0.11111111  0.94569967  0.35478781  1.0
  Sc  Sc1434  1  0.44444444  0.27903300  0.35478781  1.0
  Sc  Sc1435  1  0.44444444  0.61236633  0.35478781  1.0
  Sc  Sc1436  1  0.44444444  0.94569967  0.35478781  1.0
  Sc  Sc1437  1  0.77777778  0.27903300  0.35478781  1.0
  Sc  Sc1438  1  0.77777778  0.61236633  0.35478781  1.0
  Sc  Sc1439  1  0.77777778  0.94569967  0.35478781  1.0
  Ni  Ni1440  1  0.00000000  0.00000000  0.42567843  1.0
  Ni  Ni1441  1  0.00000000  0.33333333  0.42567843  1.0
  Ni  Ni1442  1  0.00000000  0.66666667  0.42567843  1.0
  Ni  Ni1443  1  0.33333333  0.00000000  0.42567843  1.0
  Ni  Ni1444  1  0.33333333  0.33333333  0.42567843  1.0
  Ni  Ni1445  1  0.33333333  0.66666667  0.42567843  1.0
  Ni  Ni1446  1  0.66666667  0.00000000  0.42567843  1.0
  Ni  Ni1447  1  0.66666667  0.33333333  0.42567843  1.0
  Ni  Ni1448  1  0.66666667  0.66666667  0.42567843  1.0
  Ni  Ni1449  1  0.00000000  0.16666667  0.35424986  1.0
  Ni  Ni1450  1  0.00000000  0.50000000  0.35424986  1.0
  Ni  Ni1451  1  0.00000000  0.83333333  0.35424986  1.0
  Ni  Ni1452  1  0.33333333  0.16666667  0.35424986  1.0
  Ni  Ni1453  1  0.33333333  0.50000000  0.35424986  1.0
  Ni  Ni1454  1  0.33333333  0.83333333  0.35424986  1.0
  Ni  Ni1455  1  0.66666667  0.16666667  0.35424986  1.0
  Ni  Ni1456  1  0.66666667  0.50000000  0.35424986  1.0
  Ni  Ni1457  1  0.66666667  0.83333333  0.35424986  1.0
  Ni  Ni1458  1  0.00000000  0.08333333  0.31853557  1.0
  Ni  Ni1459  1  0.00000000  0.41666667  0.31853557  1.0
  Ni  Ni1460  1  0.00000000  0.75000000  0.31853557  1.0
  Ni  Ni1461  1  0.33333333  0.08333333  0.31853557  1.0
  Ni  Ni1462  1  0.33333333  0.41666667  0.31853557  1.0
  Ni  Ni1463  1  0.33333333  0.75000000  0.31853557  1.0
  Ni  Ni1464  1  0.66666667  0.08333333  0.31853557  1.0
  Ni  Ni1465  1  0.66666667  0.41666667  0.31853557  1.0
  Ni  Ni1466  1  0.66666667  0.75000000  0.31853557  1.0
  Ni  Ni1467  1  0.00000000  0.25000000  0.38996414  1.0
  Ni  Ni1468  1  0.00000000  0.58333333  0.38996414  1.0
  Ni  Ni1469  1  0.00000000  0.91666667  0.38996414  1.0
  Ni  Ni1470  1  0.33333333  0.25000000  0.38996414  1.0
  Ni  Ni1471  1  0.33333333  0.58333333  0.38996414  1.0
  Ni  Ni1472  1  0.33333333  0.91666667  0.38996414  1.0
  Ni  Ni1473  1  0.66666667  0.25000000  0.38996414  1.0
  Ni  Ni1474  1  0.66666667  0.58333333  0.38996414  1.0
  Ni  Ni1475  1  0.66666667  0.91666667  0.38996414  1.0
  Ni  Ni1476  1  0.11107067  0.12500000  0.36019357  1.0
  Ni  Ni1477  1  0.11107067  0.45833333  0.36019357  1.0
  Ni  Ni1478  1  0.11107067  0.79166667  0.36019357  1.0
  Ni  Ni1479  1  0.44440400  0.12500000  0.36019357  1.0
  Ni  Ni1480  1  0.44440400  0.45833333  0.36019357  1.0
  Ni  Ni1481  1  0.44440400  0.79166667  0.36019357  1.0
  Ni  Ni1482  1  0.77773733  0.12500000  0.36019357  1.0
  Ni  Ni1483  1  0.77773733  0.45833333  0.36019357  1.0
  Ni  Ni1484  1  0.77773733  0.79166667  0.36019357  1.0
  Ni  Ni1485  1  0.11107067  0.29166667  0.28876500  1.0
  Ni  Ni1486  1  0.11107067  0.62500000  0.28876500  1.0
  Ni  Ni1487  1  0.11107067  0.95833333  0.28876500  1.0
  Ni  Ni1488  1  0.44440400  0.29166667  0.28876500  1.0
  Ni  Ni1489  1  0.44440400  0.62500000  0.28876500  1.0
  Ni  Ni1490  1  0.44440400  0.95833333  0.28876500  1.0
  Ni  Ni1491  1  0.77773733  0.29166667  0.28876500  1.0
  Ni  Ni1492  1  0.77773733  0.62500000  0.28876500  1.0
  Ni  Ni1493  1  0.77773733  0.95833333  0.28876500  1.0
  Ni  Ni1494  1  0.27779800  0.12500000  0.28879100  1.0
  Ni  Ni1495  1  0.27779800  0.45833333  0.28879100  1.0
  Ni  Ni1496  1  0.27779800  0.79166667  0.28879100  1.0
  Ni  Ni1497  1  0.61113133  0.12500000  0.28879100  1.0
  Ni  Ni1498  1  0.61113133  0.45833333  0.28879100  1.0
  Ni  Ni1499  1  0.61113133  0.79166667  0.28879100  1.0
  Ni  Ni1500  1  0.94446467  0.12500000  0.28879100  1.0
  Ni  Ni1501  1  0.94446467  0.45833333  0.28879100  1.0
  Ni  Ni1502  1  0.94446467  0.79166667  0.28879100  1.0
  Ni  Ni1503  1  0.27779800  0.29166667  0.36021957  1.0
  Ni  Ni1504  1  0.27779800  0.62500000  0.36021957  1.0
  Ni  Ni1505  1  0.27779800  0.95833333  0.36021957  1.0
  Ni  Ni1506  1  0.61113133  0.29166667  0.36021957  1.0
  Ni  Ni1507  1  0.61113133  0.62500000  0.36021957  1.0
  Ni  Ni1508  1  0.61113133  0.95833333  0.36021957  1.0
  Ni  Ni1509  1  0.94446467  0.29166667  0.36021957  1.0
  Ni  Ni1510  1  0.94446467  0.62500000  0.36021957  1.0
  Ni  Ni1511  1  0.94446467  0.95833333  0.36021957  1.0
  Ni  Ni1512  1  0.27779800  0.12500000  0.36019357  1.0
  Ni  Ni1513  1  0.27779800  0.45833333  0.36019357  1.0
  Ni  Ni1514  1  0.27779800  0.79166667  0.36019357  1.0
  Ni  Ni1515  1  0.61113133  0.12500000  0.36019357  1.0
  Ni  Ni1516  1  0.61113133  0.45833333  0.36019357  1.0
  Ni  Ni1517  1  0.61113133  0.79166667  0.36019357  1.0
  Ni  Ni1518  1  0.94446467  0.12500000  0.36019357  1.0
  Ni  Ni1519  1  0.94446467  0.45833333  0.36019357  1.0
  Ni  Ni1520  1  0.94446467  0.79166667  0.36019357  1.0
  Ni  Ni1521  1  0.27779800  0.29166667  0.28876500  1.0
  Ni  Ni1522  1  0.27779800  0.62500000  0.28876500  1.0
  Ni  Ni1523  1  0.27779800  0.95833333  0.28876500  1.0
  Ni  Ni1524  1  0.61113133  0.29166667  0.28876500  1.0
  Ni  Ni1525  1  0.61113133  0.62500000  0.28876500  1.0
  Ni  Ni1526  1  0.61113133  0.95833333  0.28876500  1.0
  Ni  Ni1527  1  0.94446467  0.29166667  0.28876500  1.0
  Ni  Ni1528  1  0.94446467  0.62500000  0.28876500  1.0
  Ni  Ni1529  1  0.94446467  0.95833333  0.28876500  1.0
  Ni  Ni1530  1  0.22226267  0.04166667  0.41973471  1.0
  Ni  Ni1531  1  0.22226267  0.37500000  0.41973471  1.0
  Ni  Ni1532  1  0.22226267  0.70833333  0.41973471  1.0
  Ni  Ni1533  1  0.55559600  0.04166667  0.41973471  1.0
  Ni  Ni1534  1  0.55559600  0.37500000  0.41973471  1.0
  Ni  Ni1535  1  0.55559600  0.70833333  0.41973471  1.0
  Ni  Ni1536  1  0.88892933  0.04166667  0.41973471  1.0
  Ni  Ni1537  1  0.88892933  0.37500000  0.41973471  1.0
  Ni  Ni1538  1  0.88892933  0.70833333  0.41973471  1.0
  Ni  Ni1539  1  0.22226267  0.20833333  0.34830614  1.0
  Ni  Ni1540  1  0.22226267  0.54166667  0.34830614  1.0
  Ni  Ni1541  1  0.22226267  0.87500000  0.34830614  1.0
  Ni  Ni1542  1  0.55559600  0.20833333  0.34830614  1.0
  Ni  Ni1543  1  0.55559600  0.54166667  0.34830614  1.0
  Ni  Ni1544  1  0.55559600  0.87500000  0.34830614  1.0
  Ni  Ni1545  1  0.88892933  0.20833333  0.34830614  1.0
  Ni  Ni1546  1  0.88892933  0.54166667  0.34830614  1.0
  Ni  Ni1547  1  0.88892933  0.87500000  0.34830614  1.0
  Ni  Ni1548  1  0.05553533  0.04166667  0.34828014  1.0
  Ni  Ni1549  1  0.05553533  0.37500000  0.34828014  1.0
  Ni  Ni1550  1  0.05553533  0.70833333  0.34828014  1.0
  Ni  Ni1551  1  0.38886867  0.04166667  0.34828014  1.0
  Ni  Ni1552  1  0.38886867  0.37500000  0.34828014  1.0
  Ni  Ni1553  1  0.38886867  0.70833333  0.34828014  1.0
  Ni  Ni1554  1  0.72220200  0.04166667  0.34828014  1.0
  Ni  Ni1555  1  0.72220200  0.37500000  0.34828014  1.0
  Ni  Ni1556  1  0.72220200  0.70833333  0.34828014  1.0
  Ni  Ni1557  1  0.05553533  0.20833333  0.41970871  1.0
  Ni  Ni1558  1  0.05553533  0.54166667  0.41970871  1.0
  Ni  Ni1559  1  0.05553533  0.87500000  0.41970871  1.0
  Ni  Ni1560  1  0.38886867  0.20833333  0.41970871  1.0
  Ni  Ni1561  1  0.38886867  0.54166667  0.41970871  1.0
  Ni  Ni1562  1  0.38886867  0.87500000  0.41970871  1.0
  Ni  Ni1563  1  0.72220200  0.20833333  0.41970871  1.0
  Ni  Ni1564  1  0.72220200  0.54166667  0.41970871  1.0
  Ni  Ni1565  1  0.72220200  0.87500000  0.41970871  1.0
  Ni  Ni1566  1  0.05553533  0.04166667  0.41973471  1.0
  Ni  Ni1567  1  0.05553533  0.37500000  0.41973471  1.0
  Ni  Ni1568  1  0.05553533  0.70833333  0.41973471  1.0
  Ni  Ni1569  1  0.38886867  0.04166667  0.41973471  1.0
  Ni  Ni1570  1  0.38886867  0.37500000  0.41973471  1.0
  Ni  Ni1571  1  0.38886867  0.70833333  0.41973471  1.0
  Ni  Ni1572  1  0.72220200  0.04166667  0.41973471  1.0
  Ni  Ni1573  1  0.72220200  0.37500000  0.41973471  1.0
  Ni  Ni1574  1  0.72220200  0.70833333  0.41973471  1.0
  Ni  Ni1575  1  0.05553533  0.20833333  0.34830614  1.0
  Ni  Ni1576  1  0.05553533  0.54166667  0.34830614  1.0
  Ni  Ni1577  1  0.05553533  0.87500000  0.34830614  1.0
  Ni  Ni1578  1  0.38886867  0.20833333  0.34830614  1.0
  Ni  Ni1579  1  0.38886867  0.54166667  0.34830614  1.0
  Ni  Ni1580  1  0.38886867  0.87500000  0.34830614  1.0
  Ni  Ni1581  1  0.72220200  0.20833333  0.34830614  1.0
  Ni  Ni1582  1  0.72220200  0.54166667  0.34830614  1.0
  Ni  Ni1583  1  0.72220200  0.87500000  0.34830614  1.0
  Ni  Ni1584  1  0.11190467  0.15278633  0.37228071  1.0
  Ni  Ni1585  1  0.11190467  0.48611967  0.37228071  1.0
  Ni  Ni1586  1  0.11190467  0.81945300  0.37228071  1.0
  Ni  Ni1587  1  0.44523800  0.15278633  0.37228071  1.0
  Ni  Ni1588  1  0.44523800  0.48611967  0.37228071  1.0
  Ni  Ni1589  1  0.44523800  0.81945300  0.37228071  1.0
  Ni  Ni1590  1  0.77857133  0.15278633  0.37228071  1.0
  Ni  Ni1591  1  0.77857133  0.48611967  0.37228071  1.0
  Ni  Ni1592  1  0.77857133  0.81945300  0.37228071  1.0
  Ni  Ni1593  1  0.11190467  0.31945300  0.30085214  1.0
  Ni  Ni1594  1  0.11190467  0.65278633  0.30085214  1.0
  Ni  Ni1595  1  0.11190467  0.98611967  0.30085214  1.0
  Ni  Ni1596  1  0.44523800  0.31945300  0.30085214  1.0
  Ni  Ni1597  1  0.44523800  0.65278633  0.30085214  1.0
  Ni  Ni1598  1  0.44523800  0.98611967  0.30085214  1.0
  Ni  Ni1599  1  0.77857133  0.31945300  0.30085214  1.0
  Ni  Ni1600  1  0.77857133  0.65278633  0.30085214  1.0
  Ni  Ni1601  1  0.77857133  0.98611967  0.30085214  1.0
  Ni  Ni1602  1  0.27738100  0.15278633  0.30034200  1.0
  Ni  Ni1603  1  0.27738100  0.48611967  0.30034200  1.0
  Ni  Ni1604  1  0.27738100  0.81945300  0.30034200  1.0
  Ni  Ni1605  1  0.61071433  0.15278633  0.30034200  1.0
  Ni  Ni1606  1  0.61071433  0.48611967  0.30034200  1.0
  Ni  Ni1607  1  0.61071433  0.81945300  0.30034200  1.0
  Ni  Ni1608  1  0.94404767  0.15278633  0.30034200  1.0
  Ni  Ni1609  1  0.94404767  0.48611967  0.30034200  1.0
  Ni  Ni1610  1  0.94404767  0.81945300  0.30034200  1.0
  Ni  Ni1611  1  0.27738100  0.31945300  0.37177057  1.0
  Ni  Ni1612  1  0.27738100  0.65278633  0.37177057  1.0
  Ni  Ni1613  1  0.27738100  0.98611967  0.37177057  1.0
  Ni  Ni1614  1  0.61071433  0.31945300  0.37177057  1.0
  Ni  Ni1615  1  0.61071433  0.65278633  0.37177057  1.0
  Ni  Ni1616  1  0.61071433  0.98611967  0.37177057  1.0
  Ni  Ni1617  1  0.94404767  0.31945300  0.37177057  1.0
  Ni  Ni1618  1  0.94404767  0.65278633  0.37177057  1.0
  Ni  Ni1619  1  0.94404767  0.98611967  0.37177057  1.0
  Ni  Ni1620  1  0.27738100  0.15278633  0.37228071  1.0
  Ni  Ni1621  1  0.27738100  0.48611967  0.37228071  1.0
  Ni  Ni1622  1  0.27738100  0.81945300  0.37228071  1.0
  Ni  Ni1623  1  0.61071433  0.15278633  0.37228071  1.0
  Ni  Ni1624  1  0.61071433  0.48611967  0.37228071  1.0
  Ni  Ni1625  1  0.61071433  0.81945300  0.37228071  1.0
  Ni  Ni1626  1  0.94404767  0.15278633  0.37228071  1.0
  Ni  Ni1627  1  0.94404767  0.48611967  0.37228071  1.0
  Ni  Ni1628  1  0.94404767  0.81945300  0.37228071  1.0
  Ni  Ni1629  1  0.27738100  0.31945300  0.30085214  1.0
  Ni  Ni1630  1  0.27738100  0.65278633  0.30085214  1.0
  Ni  Ni1631  1  0.27738100  0.98611967  0.30085214  1.0
  Ni  Ni1632  1  0.61071433  0.31945300  0.30085214  1.0
  Ni  Ni1633  1  0.61071433  0.65278633  0.30085214  1.0
  Ni  Ni1634  1  0.61071433  0.98611967  0.30085214  1.0
  Ni  Ni1635  1  0.94404767  0.31945300  0.30085214  1.0
  Ni  Ni1636  1  0.94404767  0.65278633  0.30085214  1.0
  Ni  Ni1637  1  0.94404767  0.98611967  0.30085214  1.0
  Ni  Ni1638  1  0.22142867  0.01388033  0.40764757  1.0
  Ni  Ni1639  1  0.22142867  0.34721367  0.40764757  1.0
  Ni  Ni1640  1  0.22142867  0.68054700  0.40764757  1.0
  Ni  Ni1641  1  0.55476200  0.01388033  0.40764757  1.0
  Ni  Ni1642  1  0.55476200  0.34721367  0.40764757  1.0
  Ni  Ni1643  1  0.55476200  0.68054700  0.40764757  1.0
  Ni  Ni1644  1  0.88809533  0.01388033  0.40764757  1.0
  Ni  Ni1645  1  0.88809533  0.34721367  0.40764757  1.0
  Ni  Ni1646  1  0.88809533  0.68054700  0.40764757  1.0
  Ni  Ni1647  1  0.22142867  0.18054700  0.33621900  1.0
  Ni  Ni1648  1  0.22142867  0.51388033  0.33621900  1.0
  Ni  Ni1649  1  0.22142867  0.84721367  0.33621900  1.0
  Ni  Ni1650  1  0.55476200  0.18054700  0.33621900  1.0
  Ni  Ni1651  1  0.55476200  0.51388033  0.33621900  1.0
  Ni  Ni1652  1  0.55476200  0.84721367  0.33621900  1.0
  Ni  Ni1653  1  0.88809533  0.18054700  0.33621900  1.0
  Ni  Ni1654  1  0.88809533  0.51388033  0.33621900  1.0
  Ni  Ni1655  1  0.88809533  0.84721367  0.33621900  1.0
  Ni  Ni1656  1  0.05595233  0.01388033  0.33672914  1.0
  Ni  Ni1657  1  0.05595233  0.34721367  0.33672914  1.0
  Ni  Ni1658  1  0.05595233  0.68054700  0.33672914  1.0
  Ni  Ni1659  1  0.38928567  0.01388033  0.33672914  1.0
  Ni  Ni1660  1  0.38928567  0.34721367  0.33672914  1.0
  Ni  Ni1661  1  0.38928567  0.68054700  0.33672914  1.0
  Ni  Ni1662  1  0.72261900  0.01388033  0.33672914  1.0
  Ni  Ni1663  1  0.72261900  0.34721367  0.33672914  1.0
  Ni  Ni1664  1  0.72261900  0.68054700  0.33672914  1.0
  Ni  Ni1665  1  0.05595233  0.18054700  0.40815771  1.0
  Ni  Ni1666  1  0.05595233  0.51388033  0.40815771  1.0
  Ni  Ni1667  1  0.05595233  0.84721367  0.40815771  1.0
  Ni  Ni1668  1  0.38928567  0.18054700  0.40815771  1.0
  Ni  Ni1669  1  0.38928567  0.51388033  0.40815771  1.0
  Ni  Ni1670  1  0.38928567  0.84721367  0.40815771  1.0
  Ni  Ni1671  1  0.72261900  0.18054700  0.40815771  1.0
  Ni  Ni1672  1  0.72261900  0.51388033  0.40815771  1.0
  Ni  Ni1673  1  0.72261900  0.84721367  0.40815771  1.0
  Ni  Ni1674  1  0.05595233  0.01388033  0.40764757  1.0
  Ni  Ni1675  1  0.05595233  0.34721367  0.40764757  1.0
  Ni  Ni1676  1  0.05595233  0.68054700  0.40764757  1.0
  Ni  Ni1677  1  0.38928567  0.01388033  0.40764757  1.0
  Ni  Ni1678  1  0.38928567  0.34721367  0.40764757  1.0
  Ni  Ni1679  1  0.38928567  0.68054700  0.40764757  1.0
  Ni  Ni1680  1  0.72261900  0.01388033  0.40764757  1.0
  Ni  Ni1681  1  0.72261900  0.34721367  0.40764757  1.0
  Ni  Ni1682  1  0.72261900  0.68054700  0.40764757  1.0
  Ni  Ni1683  1  0.05595233  0.18054700  0.33621900  1.0
  Ni  Ni1684  1  0.05595233  0.51388033  0.33621900  1.0
  Ni  Ni1685  1  0.05595233  0.84721367  0.33621900  1.0
  Ni  Ni1686  1  0.38928567  0.18054700  0.33621900  1.0
  Ni  Ni1687  1  0.38928567  0.51388033  0.33621900  1.0
  Ni  Ni1688  1  0.38928567  0.84721367  0.33621900  1.0
  Ni  Ni1689  1  0.72261900  0.18054700  0.33621900  1.0
  Ni  Ni1690  1  0.72261900  0.51388033  0.33621900  1.0
  Ni  Ni1691  1  0.72261900  0.84721367  0.33621900  1.0
  Ni  Ni1692  1  0.22142867  0.06945300  0.28860729  1.0
  Ni  Ni1693  1  0.22142867  0.40278633  0.28860729  1.0
  Ni  Ni1694  1  0.22142867  0.73611967  0.28860729  1.0
  Ni  Ni1695  1  0.55476200  0.06945300  0.28860729  1.0
  Ni  Ni1696  1  0.55476200  0.40278633  0.28860729  1.0
  Ni  Ni1697  1  0.55476200  0.73611967  0.28860729  1.0
  Ni  Ni1698  1  0.88809533  0.06945300  0.28860729  1.0
  Ni  Ni1699  1  0.88809533  0.40278633  0.28860729  1.0
  Ni  Ni1700  1  0.88809533  0.73611967  0.28860729  1.0
  Ni  Ni1701  1  0.22142867  0.23611967  0.36003586  1.0
  Ni  Ni1702  1  0.22142867  0.56945300  0.36003586  1.0
  Ni  Ni1703  1  0.22142867  0.90278633  0.36003586  1.0
  Ni  Ni1704  1  0.55476200  0.23611967  0.36003586  1.0
  Ni  Ni1705  1  0.55476200  0.56945300  0.36003586  1.0
  Ni  Ni1706  1  0.55476200  0.90278633  0.36003586  1.0
  Ni  Ni1707  1  0.88809533  0.23611967  0.36003586  1.0
  Ni  Ni1708  1  0.88809533  0.56945300  0.36003586  1.0
  Ni  Ni1709  1  0.88809533  0.90278633  0.36003586  1.0
  Ni  Ni1710  1  0.05595233  0.06945300  0.36054600  1.0
  Ni  Ni1711  1  0.05595233  0.40278633  0.36054600  1.0
  Ni  Ni1712  1  0.05595233  0.73611967  0.36054600  1.0
  Ni  Ni1713  1  0.38928567  0.06945300  0.36054600  1.0
  Ni  Ni1714  1  0.38928567  0.40278633  0.36054600  1.0
  Ni  Ni1715  1  0.38928567  0.73611967  0.36054600  1.0
  Ni  Ni1716  1  0.72261900  0.06945300  0.36054600  1.0
  Ni  Ni1717  1  0.72261900  0.40278633  0.36054600  1.0
  Ni  Ni1718  1  0.72261900  0.73611967  0.36054600  1.0
  Ni  Ni1719  1  0.05595233  0.23611967  0.28911743  1.0
  Ni  Ni1720  1  0.05595233  0.56945300  0.28911743  1.0
  Ni  Ni1721  1  0.05595233  0.90278633  0.28911743  1.0
  Ni  Ni1722  1  0.38928567  0.23611967  0.28911743  1.0
  Ni  Ni1723  1  0.38928567  0.56945300  0.28911743  1.0
  Ni  Ni1724  1  0.38928567  0.90278633  0.28911743  1.0
  Ni  Ni1725  1  0.72261900  0.23611967  0.28911743  1.0
  Ni  Ni1726  1  0.72261900  0.56945300  0.28911743  1.0
  Ni  Ni1727  1  0.72261900  0.90278633  0.28911743  1.0
  Ni  Ni1728  1  0.05595233  0.06945300  0.28860729  1.0
  Ni  Ni1729  1  0.05595233  0.40278633  0.28860729  1.0
  Ni  Ni1730  1  0.05595233  0.73611967  0.28860729  1.0
  Ni  Ni1731  1  0.38928567  0.06945300  0.28860729  1.0
  Ni  Ni1732  1  0.38928567  0.40278633  0.28860729  1.0
  Ni  Ni1733  1  0.38928567  0.73611967  0.28860729  1.0
  Ni  Ni1734  1  0.72261900  0.06945300  0.28860729  1.0
  Ni  Ni1735  1  0.72261900  0.40278633  0.28860729  1.0
  Ni  Ni1736  1  0.72261900  0.73611967  0.28860729  1.0
  Ni  Ni1737  1  0.05595233  0.23611967  0.36003586  1.0
  Ni  Ni1738  1  0.05595233  0.56945300  0.36003586  1.0
  Ni  Ni1739  1  0.05595233  0.90278633  0.36003586  1.0
  Ni  Ni1740  1  0.38928567  0.23611967  0.36003586  1.0
  Ni  Ni1741  1  0.38928567  0.56945300  0.36003586  1.0
  Ni  Ni1742  1  0.38928567  0.90278633  0.36003586  1.0
  Ni  Ni1743  1  0.72261900  0.23611967  0.36003586  1.0
  Ni  Ni1744  1  0.72261900  0.56945300  0.36003586  1.0
  Ni  Ni1745  1  0.72261900  0.90278633  0.36003586  1.0
  Ni  Ni1746  1  0.11190467  0.09721367  0.34846386  1.0
  Ni  Ni1747  1  0.11190467  0.43054700  0.34846386  1.0
  Ni  Ni1748  1  0.11190467  0.76388033  0.34846386  1.0
  Ni  Ni1749  1  0.44523800  0.09721367  0.34846386  1.0
  Ni  Ni1750  1  0.44523800  0.43054700  0.34846386  1.0
  Ni  Ni1751  1  0.44523800  0.76388033  0.34846386  1.0
  Ni  Ni1752  1  0.77857133  0.09721367  0.34846386  1.0
  Ni  Ni1753  1  0.77857133  0.43054700  0.34846386  1.0
  Ni  Ni1754  1  0.77857133  0.76388033  0.34846386  1.0
  Ni  Ni1755  1  0.11190467  0.26388033  0.41989243  1.0
  Ni  Ni1756  1  0.11190467  0.59721367  0.41989243  1.0
  Ni  Ni1757  1  0.11190467  0.93054700  0.41989243  1.0
  Ni  Ni1758  1  0.44523800  0.26388033  0.41989243  1.0
  Ni  Ni1759  1  0.44523800  0.59721367  0.41989243  1.0
  Ni  Ni1760  1  0.44523800  0.93054700  0.41989243  1.0
  Ni  Ni1761  1  0.77857133  0.26388033  0.41989243  1.0
  Ni  Ni1762  1  0.77857133  0.59721367  0.41989243  1.0
  Ni  Ni1763  1  0.77857133  0.93054700  0.41989243  1.0
  Ni  Ni1764  1  0.27738100  0.09721367  0.41938229  1.0
  Ni  Ni1765  1  0.27738100  0.43054700  0.41938229  1.0
  Ni  Ni1766  1  0.27738100  0.76388033  0.41938229  1.0
  Ni  Ni1767  1  0.61071433  0.09721367  0.41938229  1.0
  Ni  Ni1768  1  0.61071433  0.43054700  0.41938229  1.0
  Ni  Ni1769  1  0.61071433  0.76388033  0.41938229  1.0
  Ni  Ni1770  1  0.94404767  0.09721367  0.41938229  1.0
  Ni  Ni1771  1  0.94404767  0.43054700  0.41938229  1.0
  Ni  Ni1772  1  0.94404767  0.76388033  0.41938229  1.0
  Ni  Ni1773  1  0.27738100  0.26388033  0.34795371  1.0
  Ni  Ni1774  1  0.27738100  0.59721367  0.34795371  1.0
  Ni  Ni1775  1  0.27738100  0.93054700  0.34795371  1.0
  Ni  Ni1776  1  0.61071433  0.26388033  0.34795371  1.0
  Ni  Ni1777  1  0.61071433  0.59721367  0.34795371  1.0
  Ni  Ni1778  1  0.61071433  0.93054700  0.34795371  1.0
  Ni  Ni1779  1  0.94404767  0.26388033  0.34795371  1.0
  Ni  Ni1780  1  0.94404767  0.59721367  0.34795371  1.0
  Ni  Ni1781  1  0.94404767  0.93054700  0.34795371  1.0
  Ni  Ni1782  1  0.27738100  0.09721367  0.34846386  1.0
  Ni  Ni1783  1  0.27738100  0.43054700  0.34846386  1.0
  Ni  Ni1784  1  0.27738100  0.76388033  0.34846386  1.0
  Ni  Ni1785  1  0.61071433  0.09721367  0.34846386  1.0
  Ni  Ni1786  1  0.61071433  0.43054700  0.34846386  1.0
  Ni  Ni1787  1  0.61071433  0.76388033  0.34846386  1.0
  Ni  Ni1788  1  0.94404767  0.09721367  0.34846386  1.0
  Ni  Ni1789  1  0.94404767  0.43054700  0.34846386  1.0
  Ni  Ni1790  1  0.94404767  0.76388033  0.34846386  1.0
  Ni  Ni1791  1  0.27738100  0.26388033  0.41989243  1.0
  Ni  Ni1792  1  0.27738100  0.59721367  0.41989243  1.0
  Ni  Ni1793  1  0.27738100  0.93054700  0.41989243  1.0
  Ni  Ni1794  1  0.61071433  0.26388033  0.41989243  1.0
  Ni  Ni1795  1  0.61071433  0.59721367  0.41989243  1.0
  Ni  Ni1796  1  0.61071433  0.93054700  0.41989243  1.0
  Ni  Ni1797  1  0.94404767  0.26388033  0.41989243  1.0
  Ni  Ni1798  1  0.94404767  0.59721367  0.41989243  1.0
  Ni  Ni1799  1  0.94404767  0.93054700  0.41989243  1.0
  Ni  Ni1800  1  0.00000000  0.13893033  0.34236286  1.0
  Ni  Ni1801  1  0.00000000  0.47226367  0.34236286  1.0
  Ni  Ni1802  1  0.00000000  0.80559700  0.34236286  1.0
  Ni  Ni1803  1  0.33333333  0.13893033  0.34236286  1.0
  Ni  Ni1804  1  0.33333333  0.47226367  0.34236286  1.0
  Ni  Ni1805  1  0.33333333  0.80559700  0.34236286  1.0
  Ni  Ni1806  1  0.66666667  0.13893033  0.34236286  1.0
  Ni  Ni1807  1  0.66666667  0.47226367  0.34236286  1.0
  Ni  Ni1808  1  0.66666667  0.80559700  0.34236286  1.0
  Ni  Ni1809  1  0.00000000  0.30559700  0.41379143  1.0
  Ni  Ni1810  1  0.00000000  0.63893033  0.41379143  1.0
  Ni  Ni1811  1  0.00000000  0.97226367  0.41379143  1.0
  Ni  Ni1812  1  0.33333333  0.30559700  0.41379143  1.0
  Ni  Ni1813  1  0.33333333  0.63893033  0.41379143  1.0
  Ni  Ni1814  1  0.33333333  0.97226367  0.41379143  1.0
  Ni  Ni1815  1  0.66666667  0.30559700  0.41379143  1.0
  Ni  Ni1816  1  0.66666667  0.63893033  0.41379143  1.0
  Ni  Ni1817  1  0.66666667  0.97226367  0.41379143  1.0
  Ni  Ni1818  1  0.00000000  0.02773633  0.29470829  1.0
  Ni  Ni1819  1  0.00000000  0.36106967  0.29470829  1.0
  Ni  Ni1820  1  0.00000000  0.69440300  0.29470829  1.0
  Ni  Ni1821  1  0.33333333  0.02773633  0.29470829  1.0
  Ni  Ni1822  1  0.33333333  0.36106967  0.29470829  1.0
  Ni  Ni1823  1  0.33333333  0.69440300  0.29470829  1.0
  Ni  Ni1824  1  0.66666667  0.02773633  0.29470829  1.0
  Ni  Ni1825  1  0.66666667  0.36106967  0.29470829  1.0
  Ni  Ni1826  1  0.66666667  0.69440300  0.29470829  1.0
  Ni  Ni1827  1  0.00000000  0.19440300  0.36613686  1.0
  Ni  Ni1828  1  0.00000000  0.52773633  0.36613686  1.0
  Ni  Ni1829  1  0.00000000  0.86106967  0.36613686  1.0
  Ni  Ni1830  1  0.33333333  0.19440300  0.36613686  1.0
  Ni  Ni1831  1  0.33333333  0.52773633  0.36613686  1.0
  Ni  Ni1832  1  0.33333333  0.86106967  0.36613686  1.0
  Ni  Ni1833  1  0.66666667  0.19440300  0.36613686  1.0
  Ni  Ni1834  1  0.66666667  0.52773633  0.36613686  1.0
  Ni  Ni1835  1  0.66666667  0.86106967  0.36613686  1.0
  Ni  Ni1836  1  0.00000000  0.05559700  0.30664857  1.0
  Ni  Ni1837  1  0.00000000  0.38893033  0.30664857  1.0
  Ni  Ni1838  1  0.00000000  0.72226367  0.30664857  1.0
  Ni  Ni1839  1  0.33333333  0.05559700  0.30664857  1.0
  Ni  Ni1840  1  0.33333333  0.38893033  0.30664857  1.0
  Ni  Ni1841  1  0.33333333  0.72226367  0.30664857  1.0
  Ni  Ni1842  1  0.66666667  0.05559700  0.30664857  1.0
  Ni  Ni1843  1  0.66666667  0.38893033  0.30664857  1.0
  Ni  Ni1844  1  0.66666667  0.72226367  0.30664857  1.0
  Ni  Ni1845  1  0.00000000  0.22226367  0.37807714  1.0
  Ni  Ni1846  1  0.00000000  0.55559700  0.37807714  1.0
  Ni  Ni1847  1  0.00000000  0.88893033  0.37807714  1.0
  Ni  Ni1848  1  0.33333333  0.22226367  0.37807714  1.0
  Ni  Ni1849  1  0.33333333  0.55559700  0.37807714  1.0
  Ni  Ni1850  1  0.33333333  0.88893033  0.37807714  1.0
  Ni  Ni1851  1  0.66666667  0.22226367  0.37807714  1.0
  Ni  Ni1852  1  0.66666667  0.55559700  0.37807714  1.0
  Ni  Ni1853  1  0.66666667  0.88893033  0.37807714  1.0
  Ni  Ni1854  1  0.00000000  0.11106967  0.33042257  1.0
  Ni  Ni1855  1  0.00000000  0.44440300  0.33042257  1.0
  Ni  Ni1856  1  0.00000000  0.77773633  0.33042257  1.0
  Ni  Ni1857  1  0.33333333  0.11106967  0.33042257  1.0
  Ni  Ni1858  1  0.33333333  0.44440300  0.33042257  1.0
  Ni  Ni1859  1  0.33333333  0.77773633  0.33042257  1.0
  Ni  Ni1860  1  0.66666667  0.11106967  0.33042257  1.0
  Ni  Ni1861  1  0.66666667  0.44440300  0.33042257  1.0
  Ni  Ni1862  1  0.66666667  0.77773633  0.33042257  1.0
  Ni  Ni1863  1  0.00000000  0.27773633  0.40185114  1.0
  Ni  Ni1864  1  0.00000000  0.61106967  0.40185114  1.0
  Ni  Ni1865  1  0.00000000  0.94440300  0.40185114  1.0
  Ni  Ni1866  1  0.33333333  0.27773633  0.40185114  1.0
  Ni  Ni1867  1  0.33333333  0.61106967  0.40185114  1.0
  Ni  Ni1868  1  0.33333333  0.94440300  0.40185114  1.0
  Ni  Ni1869  1  0.66666667  0.27773633  0.40185114  1.0
  Ni  Ni1870  1  0.66666667  0.61106967  0.40185114  1.0
  Ni  Ni1871  1  0.66666667  0.94440300  0.40185114  1.0
  Ni  Ni1872  1  0.11111111  0.02776933  0.38996052  1.0
  Ni  Ni1873  1  0.11111111  0.36110267  0.38996052  1.0
  Ni  Ni1874  1  0.11111111  0.69443600  0.38996052  1.0
  Ni  Ni1875  1  0.44444444  0.02776933  0.38996052  1.0
  Ni  Ni1876  1  0.44444444  0.36110267  0.38996052  1.0
  Ni  Ni1877  1  0.44444444  0.69443600  0.38996052  1.0
  Ni  Ni1878  1  0.77777778  0.02776933  0.38996052  1.0
  Ni  Ni1879  1  0.77777778  0.36110267  0.38996052  1.0
  Ni  Ni1880  1  0.77777778  0.69443600  0.38996052  1.0
  Ni  Ni1881  1  0.11111111  0.19443600  0.31853195  1.0
  Ni  Ni1882  1  0.11111111  0.52776933  0.31853195  1.0
  Ni  Ni1883  1  0.11111111  0.86110267  0.31853195  1.0
  Ni  Ni1884  1  0.44444444  0.19443600  0.31853195  1.0
  Ni  Ni1885  1  0.44444444  0.52776933  0.31853195  1.0
  Ni  Ni1886  1  0.44444444  0.86110267  0.31853195  1.0
  Ni  Ni1887  1  0.77777778  0.19443600  0.31853195  1.0
  Ni  Ni1888  1  0.77777778  0.52776933  0.31853195  1.0
  Ni  Ni1889  1  0.77777778  0.86110267  0.31853195  1.0
  Ni  Ni1890  1  0.22222222  0.13889733  0.38996776  1.0
  Ni  Ni1891  1  0.22222222  0.47223067  0.38996776  1.0
  Ni  Ni1892  1  0.22222222  0.80556400  0.38996776  1.0
  Ni  Ni1893  1  0.55555556  0.13889733  0.38996776  1.0
  Ni  Ni1894  1  0.55555556  0.47223067  0.38996776  1.0
  Ni  Ni1895  1  0.55555556  0.80556400  0.38996776  1.0
  Ni  Ni1896  1  0.88888889  0.13889733  0.38996776  1.0
  Ni  Ni1897  1  0.88888889  0.47223067  0.38996776  1.0
  Ni  Ni1898  1  0.88888889  0.80556400  0.38996776  1.0
  Ni  Ni1899  1  0.22222222  0.30556400  0.31853919  1.0
  Ni  Ni1900  1  0.22222222  0.63889733  0.31853919  1.0
  Ni  Ni1901  1  0.22222222  0.97223067  0.31853919  1.0
  Ni  Ni1902  1  0.55555556  0.30556400  0.31853919  1.0
  Ni  Ni1903  1  0.55555556  0.63889733  0.31853919  1.0
  Ni  Ni1904  1  0.55555556  0.97223067  0.31853919  1.0
  Ni  Ni1905  1  0.88888889  0.30556400  0.31853919  1.0
  Ni  Ni1906  1  0.88888889  0.63889733  0.31853919  1.0
  Ni  Ni1907  1  0.88888889  0.97223067  0.31853919  1.0
  Ni  Ni1908  1  0.22222222  0.11111111  0.37805938  1.0
  Ni  Ni1909  1  0.22222222  0.44444444  0.37805938  1.0
  Ni  Ni1910  1  0.22222222  0.77777778  0.37805938  1.0
  Ni  Ni1911  1  0.55555556  0.11111111  0.37805938  1.0
  Ni  Ni1912  1  0.55555556  0.44444444  0.37805938  1.0
  Ni  Ni1913  1  0.55555556  0.77777778  0.37805938  1.0
  Ni  Ni1914  1  0.88888889  0.11111111  0.37805938  1.0
  Ni  Ni1915  1  0.88888889  0.44444444  0.37805938  1.0
  Ni  Ni1916  1  0.88888889  0.77777778  0.37805938  1.0
  Ni  Ni1917  1  0.22222222  0.27777778  0.30663081  1.0
  Ni  Ni1918  1  0.22222222  0.61111111  0.30663081  1.0
  Ni  Ni1919  1  0.22222222  0.94444444  0.30663081  1.0
  Ni  Ni1920  1  0.55555556  0.27777778  0.30663081  1.0
  Ni  Ni1921  1  0.55555556  0.61111111  0.30663081  1.0
  Ni  Ni1922  1  0.55555556  0.94444444  0.30663081  1.0
  Ni  Ni1923  1  0.88888889  0.27777778  0.30663081  1.0
  Ni  Ni1924  1  0.88888889  0.61111111  0.30663081  1.0
  Ni  Ni1925  1  0.88888889  0.94444444  0.30663081  1.0
  Ni  Ni1926  1  0.11111111  0.05556400  0.40187252  1.0
  Ni  Ni1927  1  0.11111111  0.38889733  0.40187252  1.0
  Ni  Ni1928  1  0.11111111  0.72223067  0.40187252  1.0
  Ni  Ni1929  1  0.44444444  0.05556400  0.40187252  1.0
  Ni  Ni1930  1  0.44444444  0.38889733  0.40187252  1.0
  Ni  Ni1931  1  0.44444444  0.72223067  0.40187252  1.0
  Ni  Ni1932  1  0.77777778  0.05556400  0.40187252  1.0
  Ni  Ni1933  1  0.77777778  0.38889733  0.40187252  1.0
  Ni  Ni1934  1  0.77777778  0.72223067  0.40187252  1.0
  Ni  Ni1935  1  0.11111111  0.22223067  0.33044395  1.0
  Ni  Ni1936  1  0.11111111  0.55556400  0.33044395  1.0
  Ni  Ni1937  1  0.11111111  0.88889733  0.33044395  1.0
  Ni  Ni1938  1  0.44444444  0.22223067  0.33044395  1.0
  Ni  Ni1939  1  0.44444444  0.55556400  0.33044395  1.0
  Ni  Ni1940  1  0.44444444  0.88889733  0.33044395  1.0
  Ni  Ni1941  1  0.77777778  0.22223067  0.33044395  1.0
  Ni  Ni1942  1  0.77777778  0.55556400  0.33044395  1.0
  Ni  Ni1943  1  0.77777778  0.88889733  0.33044395  1.0
