# generated using pymatgen
data_Sc2Ni7
_symmetry_space_group_name_H-M   'P 1'
_cell_length_a   70.98207900
_cell_length_b   24.78950312
_cell_length_c   57.24890520
_cell_angle_alpha   150.00000000
_cell_angle_beta   90.00000000
_cell_angle_gamma   90.00000000
_symmetry_Int_Tables_number   1
_chemical_formula_structural   Sc2Ni7
_chemical_formula_sum   'Sc360 Ni1260'
_cell_volume   50367.88646170
_cell_formula_units_Z   180
loop_
 _symmetry_equiv_pos_site_id
 _symmetry_equiv_pos_as_xyz
  1  'x, y, z'
loop_
 _atom_site_type_symbol
 _atom_site_label
 _atom_site_symmetry_multiplicity
 _atom_site_fract_x
 _atom_site_fract_y
 _atom_site_fract_z
 _atom_site_occupancy
  Sc  Sc0  1  0.00967067  0.22222222  0.06235121  1.0
  Sc  Sc1  1  0.00967067  0.55555556  0.06235121  1.0
  Sc  Sc2  1  0.00967067  0.88888889  0.06235121  1.0
  Sc  Sc3  1  0.34300400  0.22222222  0.06235121  1.0
  Sc  Sc4  1  0.34300400  0.55555556  0.06235121  1.0
  Sc  Sc5  1  0.34300400  0.88888889  0.06235121  1.0
  Sc  Sc6  1  0.67633733  0.22222222  0.06235121  1.0
  Sc  Sc7  1  0.67633733  0.55555556  0.06235121  1.0
  Sc  Sc8  1  0.67633733  0.88888889  0.06235121  1.0
  Sc  Sc9  1  0.32366267  0.11111111  0.06235121  1.0
  Sc  Sc10  1  0.32366267  0.44444444  0.06235121  1.0
  Sc  Sc11  1  0.32366267  0.77777778  0.06235121  1.0
  Sc  Sc12  1  0.65699600  0.11111111  0.06235121  1.0
  Sc  Sc13  1  0.65699600  0.44444444  0.06235121  1.0
  Sc  Sc14  1  0.65699600  0.77777778  0.06235121  1.0
  Sc  Sc15  1  0.99032933  0.11111111  0.06235121  1.0
  Sc  Sc16  1  0.99032933  0.44444444  0.06235121  1.0
  Sc  Sc17  1  0.99032933  0.77777778  0.06235121  1.0
  Sc  Sc18  1  0.17633733  0.11111111  0.06235121  1.0
  Sc  Sc19  1  0.17633733  0.44444444  0.06235121  1.0
  Sc  Sc20  1  0.17633733  0.77777778  0.06235121  1.0
  Sc  Sc21  1  0.50967067  0.11111111  0.06235121  1.0
  Sc  Sc22  1  0.50967067  0.44444444  0.06235121  1.0
  Sc  Sc23  1  0.50967067  0.77777778  0.06235121  1.0
  Sc  Sc24  1  0.84300400  0.11111111  0.06235121  1.0
  Sc  Sc25  1  0.84300400  0.44444444  0.06235121  1.0
  Sc  Sc26  1  0.84300400  0.77777778  0.06235121  1.0
  Sc  Sc27  1  0.15699600  0.22222222  0.06235121  1.0
  Sc  Sc28  1  0.15699600  0.55555556  0.06235121  1.0
  Sc  Sc29  1  0.15699600  0.88888889  0.06235121  1.0
  Sc  Sc30  1  0.49032933  0.22222222  0.06235121  1.0
  Sc  Sc31  1  0.49032933  0.55555556  0.06235121  1.0
  Sc  Sc32  1  0.49032933  0.88888889  0.06235121  1.0
  Sc  Sc33  1  0.82366267  0.22222222  0.06235121  1.0
  Sc  Sc34  1  0.82366267  0.55555556  0.06235121  1.0
  Sc  Sc35  1  0.82366267  0.88888889  0.06235121  1.0
  Sc  Sc36  1  0.05806600  0.22222222  0.06235121  1.0
  Sc  Sc37  1  0.05806600  0.55555556  0.06235121  1.0
  Sc  Sc38  1  0.05806600  0.88888889  0.06235121  1.0
  Sc  Sc39  1  0.39139933  0.22222222  0.06235121  1.0
  Sc  Sc40  1  0.39139933  0.55555556  0.06235121  1.0
  Sc  Sc41  1  0.39139933  0.88888889  0.06235121  1.0
  Sc  Sc42  1  0.72473267  0.22222222  0.06235121  1.0
  Sc  Sc43  1  0.72473267  0.55555556  0.06235121  1.0
  Sc  Sc44  1  0.72473267  0.88888889  0.06235121  1.0
  Sc  Sc45  1  0.27526733  0.11111111  0.06235121  1.0
  Sc  Sc46  1  0.27526733  0.44444444  0.06235121  1.0
  Sc  Sc47  1  0.27526733  0.77777778  0.06235121  1.0
  Sc  Sc48  1  0.60860067  0.11111111  0.06235121  1.0
  Sc  Sc49  1  0.60860067  0.44444444  0.06235121  1.0
  Sc  Sc50  1  0.60860067  0.77777778  0.06235121  1.0
  Sc  Sc51  1  0.94193400  0.11111111  0.06235121  1.0
  Sc  Sc52  1  0.94193400  0.44444444  0.06235121  1.0
  Sc  Sc53  1  0.94193400  0.77777778  0.06235121  1.0
  Sc  Sc54  1  0.22473267  0.11111111  0.06235121  1.0
  Sc  Sc55  1  0.22473267  0.44444444  0.06235121  1.0
  Sc  Sc56  1  0.22473267  0.77777778  0.06235121  1.0
  Sc  Sc57  1  0.55806600  0.11111111  0.06235121  1.0
  Sc  Sc58  1  0.55806600  0.44444444  0.06235121  1.0
  Sc  Sc59  1  0.55806600  0.77777778  0.06235121  1.0
  Sc  Sc60  1  0.89139933  0.11111111  0.06235121  1.0
  Sc  Sc61  1  0.89139933  0.44444444  0.06235121  1.0
  Sc  Sc62  1  0.89139933  0.77777778  0.06235121  1.0
  Sc  Sc63  1  0.10860067  0.22222222  0.06235121  1.0
  Sc  Sc64  1  0.10860067  0.55555556  0.06235121  1.0
  Sc  Sc65  1  0.10860067  0.88888889  0.06235121  1.0
  Sc  Sc66  1  0.44193400  0.22222222  0.06235121  1.0
  Sc  Sc67  1  0.44193400  0.55555556  0.06235121  1.0
  Sc  Sc68  1  0.44193400  0.88888889  0.06235121  1.0
  Sc  Sc69  1  0.77526733  0.22222222  0.06235121  1.0
  Sc  Sc70  1  0.77526733  0.55555556  0.06235121  1.0
  Sc  Sc71  1  0.77526733  0.88888889  0.06235121  1.0
  Ni  Ni72  1  0.00000000  0.00000000  0.06235121  1.0
  Ni  Ni73  1  0.00000000  0.33333333  0.06235121  1.0
  Ni  Ni74  1  0.00000000  0.66666667  0.06235121  1.0
  Ni  Ni75  1  0.33333333  0.00000000  0.06235121  1.0
  Ni  Ni76  1  0.33333333  0.33333333  0.06235121  1.0
  Ni  Ni77  1  0.33333333  0.66666667  0.06235121  1.0
  Ni  Ni78  1  0.66666667  0.00000000  0.06235121  1.0
  Ni  Ni79  1  0.66666667  0.33333333  0.06235121  1.0
  Ni  Ni80  1  0.66666667  0.66666667  0.06235121  1.0
  Ni  Ni81  1  0.16666667  0.00000000  0.06235121  1.0
  Ni  Ni82  1  0.16666667  0.33333333  0.06235121  1.0
  Ni  Ni83  1  0.16666667  0.66666667  0.06235121  1.0
  Ni  Ni84  1  0.50000000  0.00000000  0.06235121  1.0
  Ni  Ni85  1  0.50000000  0.33333333  0.06235121  1.0
  Ni  Ni86  1  0.50000000  0.66666667  0.06235121  1.0
  Ni  Ni87  1  0.83333333  0.00000000  0.06235121  1.0
  Ni  Ni88  1  0.83333333  0.33333333  0.06235121  1.0
  Ni  Ni89  1  0.83333333  0.66666667  0.06235121  1.0
  Ni  Ni90  1  0.08333333  0.22226267  0.02069971  1.0
  Ni  Ni91  1  0.08333333  0.55559600  0.02069971  1.0
  Ni  Ni92  1  0.08333333  0.88892933  0.02069971  1.0
  Ni  Ni93  1  0.41666667  0.22226267  0.02069971  1.0
  Ni  Ni94  1  0.41666667  0.55559600  0.02069971  1.0
  Ni  Ni95  1  0.41666667  0.88892933  0.02069971  1.0
  Ni  Ni96  1  0.75000000  0.22226267  0.02069971  1.0
  Ni  Ni97  1  0.75000000  0.55559600  0.02069971  1.0
  Ni  Ni98  1  0.75000000  0.88892933  0.02069971  1.0
  Ni  Ni99  1  0.08333333  0.05553533  0.02066937  1.0
  Ni  Ni100  1  0.08333333  0.38886867  0.02066938  1.0
  Ni  Ni101  1  0.08333333  0.72220200  0.02066937  1.0
  Ni  Ni102  1  0.41666667  0.05553533  0.02066937  1.0
  Ni  Ni103  1  0.41666667  0.38886867  0.02066938  1.0
  Ni  Ni104  1  0.41666667  0.72220200  0.02066937  1.0
  Ni  Ni105  1  0.75000000  0.05553533  0.02066937  1.0
  Ni  Ni106  1  0.75000000  0.38886867  0.02066938  1.0
  Ni  Ni107  1  0.75000000  0.72220200  0.02066937  1.0
  Ni  Ni108  1  0.08333333  0.05553533  0.06235121  1.0
  Ni  Ni109  1  0.08333333  0.38886867  0.06235121  1.0
  Ni  Ni110  1  0.08333333  0.72220200  0.06235121  1.0
  Ni  Ni111  1  0.41666667  0.05553533  0.06235121  1.0
  Ni  Ni112  1  0.41666667  0.38886867  0.06235121  1.0
  Ni  Ni113  1  0.41666667  0.72220200  0.06235121  1.0
  Ni  Ni114  1  0.75000000  0.05553533  0.06235121  1.0
  Ni  Ni115  1  0.75000000  0.38886867  0.06235121  1.0
  Ni  Ni116  1  0.75000000  0.72220200  0.06235121  1.0
  Ni  Ni117  1  0.25000000  0.11107067  0.02066937  1.0
  Ni  Ni118  1  0.25000000  0.44440400  0.02066938  1.0
  Ni  Ni119  1  0.25000000  0.77773733  0.02066937  1.0
  Ni  Ni120  1  0.58333333  0.11107067  0.02066937  1.0
  Ni  Ni121  1  0.58333333  0.44440400  0.02066938  1.0
  Ni  Ni122  1  0.58333333  0.77773733  0.02066937  1.0
  Ni  Ni123  1  0.91666667  0.11107067  0.02066937  1.0
  Ni  Ni124  1  0.91666667  0.44440400  0.02066937  1.0
  Ni  Ni125  1  0.91666667  0.77773733  0.02066937  1.0
  Ni  Ni126  1  0.25000000  0.27779800  0.02069971  1.0
  Ni  Ni127  1  0.25000000  0.61113133  0.02069971  1.0
  Ni  Ni128  1  0.25000000  0.94446467  0.02069971  1.0
  Ni  Ni129  1  0.58333333  0.27779800  0.02069971  1.0
  Ni  Ni130  1  0.58333333  0.61113133  0.02069971  1.0
  Ni  Ni131  1  0.58333333  0.94446467  0.02069971  1.0
  Ni  Ni132  1  0.91666667  0.27779800  0.02069971  1.0
  Ni  Ni133  1  0.91666667  0.61113133  0.02069971  1.0
  Ni  Ni134  1  0.91666667  0.94446467  0.02069971  1.0
  Ni  Ni135  1  0.25000000  0.27779800  0.06235121  1.0
  Ni  Ni136  1  0.25000000  0.61113133  0.06235121  1.0
  Ni  Ni137  1  0.25000000  0.94446467  0.06235121  1.0
  Ni  Ni138  1  0.58333333  0.27779800  0.06235121  1.0
  Ni  Ni139  1  0.58333333  0.61113133  0.06235121  1.0
  Ni  Ni140  1  0.58333333  0.94446467  0.06235121  1.0
  Ni  Ni141  1  0.91666667  0.27779800  0.06235121  1.0
  Ni  Ni142  1  0.91666667  0.61113133  0.06235121  1.0
  Ni  Ni143  1  0.91666667  0.94446467  0.06235121  1.0
  Ni  Ni144  1  0.02776067  0.22142867  0.02038696  1.0
  Ni  Ni145  1  0.02776067  0.55476200  0.02038696  1.0
  Ni  Ni146  1  0.02776067  0.88809533  0.02038696  1.0
  Ni  Ni147  1  0.36109400  0.22142867  0.02038696  1.0
  Ni  Ni148  1  0.36109400  0.55476200  0.02038696  1.0
  Ni  Ni149  1  0.36109400  0.88809533  0.02038696  1.0
  Ni  Ni150  1  0.69442733  0.22142867  0.02038696  1.0
  Ni  Ni151  1  0.69442733  0.55476200  0.02038696  1.0
  Ni  Ni152  1  0.69442733  0.88809533  0.02038696  1.0
  Ni  Ni153  1  0.02776067  0.05595233  0.02098213  1.0
  Ni  Ni154  1  0.02776067  0.38928567  0.02098213  1.0
  Ni  Ni155  1  0.02776067  0.72261900  0.02098213  1.0
  Ni  Ni156  1  0.36109400  0.05595233  0.02098213  1.0
  Ni  Ni157  1  0.36109400  0.38928567  0.02098213  1.0
  Ni  Ni158  1  0.36109400  0.72261900  0.02098213  1.0
  Ni  Ni159  1  0.69442733  0.05595233  0.02098213  1.0
  Ni  Ni160  1  0.69442733  0.38928567  0.02098212  1.0
  Ni  Ni161  1  0.69442733  0.72261900  0.02098213  1.0
  Ni  Ni162  1  0.02776067  0.05595233  0.06235121  1.0
  Ni  Ni163  1  0.02776067  0.38928567  0.06235121  1.0
  Ni  Ni164  1  0.02776067  0.72261900  0.06235121  1.0
  Ni  Ni165  1  0.36109400  0.05595233  0.06235121  1.0
  Ni  Ni166  1  0.36109400  0.38928567  0.06235121  1.0
  Ni  Ni167  1  0.36109400  0.72261900  0.06235121  1.0
  Ni  Ni168  1  0.69442733  0.05595233  0.06235121  1.0
  Ni  Ni169  1  0.69442733  0.38928567  0.06235121  1.0
  Ni  Ni170  1  0.69442733  0.72261900  0.06235121  1.0
  Ni  Ni171  1  0.30557267  0.11190467  0.02098213  1.0
  Ni  Ni172  1  0.30557267  0.44523800  0.02098213  1.0
  Ni  Ni173  1  0.30557267  0.77857133  0.02098213  1.0
  Ni  Ni174  1  0.63890600  0.11190467  0.02098213  1.0
  Ni  Ni175  1  0.63890600  0.44523800  0.02098213  1.0
  Ni  Ni176  1  0.63890600  0.77857133  0.02098213  1.0
  Ni  Ni177  1  0.97223933  0.11190467  0.02098212  1.0
  Ni  Ni178  1  0.97223933  0.44523800  0.02098213  1.0
  Ni  Ni179  1  0.97223933  0.77857133  0.02098213  1.0
  Ni  Ni180  1  0.30557267  0.27738100  0.02038696  1.0
  Ni  Ni181  1  0.30557267  0.61071433  0.02038696  1.0
  Ni  Ni182  1  0.30557267  0.94404767  0.02038696  1.0
  Ni  Ni183  1  0.63890600  0.27738100  0.02038696  1.0
  Ni  Ni184  1  0.63890600  0.61071433  0.02038696  1.0
  Ni  Ni185  1  0.63890600  0.94404767  0.02038696  1.0
  Ni  Ni186  1  0.97223933  0.27738100  0.02038696  1.0
  Ni  Ni187  1  0.97223933  0.61071433  0.02038696  1.0
  Ni  Ni188  1  0.97223933  0.94404767  0.02038696  1.0
  Ni  Ni189  1  0.30557267  0.27738100  0.06235121  1.0
  Ni  Ni190  1  0.30557267  0.61071433  0.06235121  1.0
  Ni  Ni191  1  0.30557267  0.94404767  0.06235121  1.0
  Ni  Ni192  1  0.63890600  0.27738100  0.06235121  1.0
  Ni  Ni193  1  0.63890600  0.61071433  0.06235121  1.0
  Ni  Ni194  1  0.63890600  0.94404767  0.06235121  1.0
  Ni  Ni195  1  0.97223933  0.27738100  0.06235121  1.0
  Ni  Ni196  1  0.97223933  0.61071433  0.06235121  1.0
  Ni  Ni197  1  0.97223933  0.94404767  0.06235121  1.0
  Ni  Ni198  1  0.19442733  0.11190467  0.02098213  1.0
  Ni  Ni199  1  0.19442733  0.44523800  0.02098213  1.0
  Ni  Ni200  1  0.19442733  0.77857133  0.02098213  1.0
  Ni  Ni201  1  0.52776067  0.11190467  0.02098213  1.0
  Ni  Ni202  1  0.52776067  0.44523800  0.02098213  1.0
  Ni  Ni203  1  0.52776067  0.77857133  0.02098213  1.0
  Ni  Ni204  1  0.86109400  0.11190467  0.02098213  1.0
  Ni  Ni205  1  0.86109400  0.44523800  0.02098213  1.0
  Ni  Ni206  1  0.86109400  0.77857133  0.02098213  1.0
  Ni  Ni207  1  0.19442733  0.27738100  0.02038696  1.0
  Ni  Ni208  1  0.19442733  0.61071433  0.02038696  1.0
  Ni  Ni209  1  0.19442733  0.94404767  0.02038696  1.0
  Ni  Ni210  1  0.52776067  0.27738100  0.02038696  1.0
  Ni  Ni211  1  0.52776067  0.61071433  0.02038696  1.0
  Ni  Ni212  1  0.52776067  0.94404767  0.02038696  1.0
  Ni  Ni213  1  0.86109400  0.27738100  0.02038696  1.0
  Ni  Ni214  1  0.86109400  0.61071433  0.02038696  1.0
  Ni  Ni215  1  0.86109400  0.94404767  0.02038696  1.0
  Ni  Ni216  1  0.19442733  0.27738100  0.06235121  1.0
  Ni  Ni217  1  0.19442733  0.61071433  0.06235121  1.0
  Ni  Ni218  1  0.19442733  0.94404767  0.06235121  1.0
  Ni  Ni219  1  0.52776067  0.27738100  0.06235121  1.0
  Ni  Ni220  1  0.52776067  0.61071433  0.06235121  1.0
  Ni  Ni221  1  0.52776067  0.94404767  0.06235121  1.0
  Ni  Ni222  1  0.86109400  0.27738100  0.06235121  1.0
  Ni  Ni223  1  0.86109400  0.61071433  0.06235121  1.0
  Ni  Ni224  1  0.86109400  0.94404767  0.06235121  1.0
  Ni  Ni225  1  0.13890600  0.22142867  0.02038696  1.0
  Ni  Ni226  1  0.13890600  0.55476200  0.02038696  1.0
  Ni  Ni227  1  0.13890600  0.88809533  0.02038696  1.0
  Ni  Ni228  1  0.47223933  0.22142867  0.02038696  1.0
  Ni  Ni229  1  0.47223933  0.55476200  0.02038696  1.0
  Ni  Ni230  1  0.47223933  0.88809533  0.02038696  1.0
  Ni  Ni231  1  0.80557267  0.22142867  0.02038696  1.0
  Ni  Ni232  1  0.80557267  0.55476200  0.02038696  1.0
  Ni  Ni233  1  0.80557267  0.88809533  0.02038696  1.0
  Ni  Ni234  1  0.13890600  0.05595233  0.02098213  1.0
  Ni  Ni235  1  0.13890600  0.38928567  0.02098213  1.0
  Ni  Ni236  1  0.13890600  0.72261900  0.02098213  1.0
  Ni  Ni237  1  0.47223933  0.05595233  0.02098213  1.0
  Ni  Ni238  1  0.47223933  0.38928567  0.02098213  1.0
  Ni  Ni239  1  0.47223933  0.72261900  0.02098213  1.0
  Ni  Ni240  1  0.80557267  0.05595233  0.02098213  1.0
  Ni  Ni241  1  0.80557267  0.38928567  0.02098213  1.0
  Ni  Ni242  1  0.80557267  0.72261900  0.02098213  1.0
  Ni  Ni243  1  0.13890600  0.05595233  0.06235121  1.0
  Ni  Ni244  1  0.13890600  0.38928567  0.06235121  1.0
  Ni  Ni245  1  0.13890600  0.72261900  0.06235121  1.0
  Ni  Ni246  1  0.47223933  0.05595233  0.06235121  1.0
  Ni  Ni247  1  0.47223933  0.38928567  0.06235121  1.0
  Ni  Ni248  1  0.47223933  0.72261900  0.06235121  1.0
  Ni  Ni249  1  0.80557267  0.05595233  0.06235121  1.0
  Ni  Ni250  1  0.80557267  0.38928567  0.06235121  1.0
  Ni  Ni251  1  0.80557267  0.72261900  0.06235121  1.0
  Ni  Ni252  1  0.05547267  0.00000000  0.06235121  1.0
  Ni  Ni253  1  0.05547267  0.33333333  0.06235121  1.0
  Ni  Ni254  1  0.05547267  0.66666667  0.06235121  1.0
  Ni  Ni255  1  0.38880600  0.00000000  0.06235121  1.0
  Ni  Ni256  1  0.38880600  0.33333333  0.06235121  1.0
  Ni  Ni257  1  0.38880600  0.66666667  0.06235121  1.0
  Ni  Ni258  1  0.72213933  0.00000000  0.06235121  1.0
  Ni  Ni259  1  0.72213933  0.33333333  0.06235121  1.0
  Ni  Ni260  1  0.72213933  0.66666667  0.06235121  1.0
  Ni  Ni261  1  0.27786067  0.00000000  0.06235121  1.0
  Ni  Ni262  1  0.27786067  0.33333333  0.06235121  1.0
  Ni  Ni263  1  0.27786067  0.66666667  0.06235121  1.0
  Ni  Ni264  1  0.61119400  0.00000000  0.06235121  1.0
  Ni  Ni265  1  0.61119400  0.33333333  0.06235121  1.0
  Ni  Ni266  1  0.61119400  0.66666667  0.06235121  1.0
  Ni  Ni267  1  0.94452733  0.00000000  0.06235121  1.0
  Ni  Ni268  1  0.94452733  0.33333333  0.06235121  1.0
  Ni  Ni269  1  0.94452733  0.66666667  0.06235121  1.0
  Ni  Ni270  1  0.22213933  0.00000000  0.06235121  1.0
  Ni  Ni271  1  0.22213933  0.33333333  0.06235121  1.0
  Ni  Ni272  1  0.22213933  0.66666667  0.06235121  1.0
  Ni  Ni273  1  0.55547267  0.00000000  0.06235121  1.0
  Ni  Ni274  1  0.55547267  0.33333333  0.06235121  1.0
  Ni  Ni275  1  0.55547267  0.66666667  0.06235121  1.0
  Ni  Ni276  1  0.88880600  0.00000000  0.06235121  1.0
  Ni  Ni277  1  0.88880600  0.33333333  0.06235121  1.0
  Ni  Ni278  1  0.88880600  0.66666667  0.06235121  1.0
  Ni  Ni279  1  0.11119400  0.00000000  0.06235121  1.0
  Ni  Ni280  1  0.11119400  0.33333333  0.06235121  1.0
  Ni  Ni281  1  0.11119400  0.66666667  0.06235121  1.0
  Ni  Ni282  1  0.44452733  0.00000000  0.06235121  1.0
  Ni  Ni283  1  0.44452733  0.33333333  0.06235121  1.0
  Ni  Ni284  1  0.44452733  0.66666667  0.06235121  1.0
  Ni  Ni285  1  0.77786067  0.00000000  0.06235121  1.0
  Ni  Ni286  1  0.77786067  0.33333333  0.06235121  1.0
  Ni  Ni287  1  0.77786067  0.66666667  0.06235121  1.0
  Ni  Ni288  1  0.27779467  0.22222222  0.06235121  1.0
  Ni  Ni289  1  0.27779467  0.55555556  0.06235121  1.0
  Ni  Ni290  1  0.27779467  0.88888889  0.06235121  1.0
  Ni  Ni291  1  0.61112800  0.22222222  0.06235121  1.0
  Ni  Ni292  1  0.61112800  0.55555556  0.06235121  1.0
  Ni  Ni293  1  0.61112800  0.88888889  0.06235121  1.0
  Ni  Ni294  1  0.94446133  0.22222222  0.06235121  1.0
  Ni  Ni295  1  0.94446133  0.55555556  0.06235121  1.0
  Ni  Ni296  1  0.94446133  0.88888889  0.06235121  1.0
  Ni  Ni297  1  0.05553867  0.11111111  0.06235121  1.0
  Ni  Ni298  1  0.05553867  0.44444444  0.06235121  1.0
  Ni  Ni299  1  0.05553867  0.77777778  0.06235121  1.0
  Ni  Ni300  1  0.38887200  0.11111111  0.06235121  1.0
  Ni  Ni301  1  0.38887200  0.44444444  0.06235121  1.0
  Ni  Ni302  1  0.38887200  0.77777778  0.06235121  1.0
  Ni  Ni303  1  0.72220533  0.11111111  0.06235121  1.0
  Ni  Ni304  1  0.72220533  0.44444444  0.06235121  1.0
  Ni  Ni305  1  0.72220533  0.77777778  0.06235121  1.0
  Ni  Ni306  1  0.11111111  0.11111111  0.06235121  1.0
  Ni  Ni307  1  0.11111111  0.44444444  0.06235121  1.0
  Ni  Ni308  1  0.11111111  0.77777778  0.06235121  1.0
  Ni  Ni309  1  0.44444444  0.11111111  0.06235121  1.0
  Ni  Ni310  1  0.44444444  0.44444444  0.06235121  1.0
  Ni  Ni311  1  0.44444444  0.77777778  0.06235121  1.0
  Ni  Ni312  1  0.77777778  0.11111111  0.06235121  1.0
  Ni  Ni313  1  0.77777778  0.44444444  0.06235121  1.0
  Ni  Ni314  1  0.77777778  0.77777778  0.06235121  1.0
  Ni  Ni315  1  0.22220533  0.22222222  0.06235121  1.0
  Ni  Ni316  1  0.22220533  0.55555556  0.06235121  1.0
  Ni  Ni317  1  0.22220533  0.88888889  0.06235121  1.0
  Ni  Ni318  1  0.55553867  0.22222222  0.06235121  1.0
  Ni  Ni319  1  0.55553867  0.55555556  0.06235121  1.0
  Ni  Ni320  1  0.55553867  0.88888889  0.06235121  1.0
  Ni  Ni321  1  0.88887200  0.22222222  0.06235121  1.0
  Ni  Ni322  1  0.88887200  0.55555556  0.06235121  1.0
  Ni  Ni323  1  0.88887200  0.88888889  0.06235121  1.0
  Sc  Sc324  1  0.00967067  0.22222222  0.14568454  1.0
  Sc  Sc325  1  0.00967067  0.55555556  0.14568454  1.0
  Sc  Sc326  1  0.00967067  0.88888889  0.14568454  1.0
  Sc  Sc327  1  0.34300400  0.22222222  0.14568454  1.0
  Sc  Sc328  1  0.34300400  0.55555556  0.14568454  1.0
  Sc  Sc329  1  0.34300400  0.88888889  0.14568454  1.0
  Sc  Sc330  1  0.67633733  0.22222222  0.14568454  1.0
  Sc  Sc331  1  0.67633733  0.55555556  0.14568454  1.0
  Sc  Sc332  1  0.67633733  0.88888889  0.14568454  1.0
  Sc  Sc333  1  0.32366267  0.11111111  0.14568454  1.0
  Sc  Sc334  1  0.32366267  0.44444444  0.14568454  1.0
  Sc  Sc335  1  0.32366267  0.77777778  0.14568454  1.0
  Sc  Sc336  1  0.65699600  0.11111111  0.14568454  1.0
  Sc  Sc337  1  0.65699600  0.44444444  0.14568454  1.0
  Sc  Sc338  1  0.65699600  0.77777778  0.14568454  1.0
  Sc  Sc339  1  0.99032933  0.11111111  0.14568454  1.0
  Sc  Sc340  1  0.99032933  0.44444444  0.14568454  1.0
  Sc  Sc341  1  0.99032933  0.77777778  0.14568454  1.0
  Sc  Sc342  1  0.17633733  0.11111111  0.14568454  1.0
  Sc  Sc343  1  0.17633733  0.44444444  0.14568454  1.0
  Sc  Sc344  1  0.17633733  0.77777778  0.14568454  1.0
  Sc  Sc345  1  0.50967067  0.11111111  0.14568454  1.0
  Sc  Sc346  1  0.50967067  0.44444444  0.14568454  1.0
  Sc  Sc347  1  0.50967067  0.77777778  0.14568454  1.0
  Sc  Sc348  1  0.84300400  0.11111111  0.14568454  1.0
  Sc  Sc349  1  0.84300400  0.44444444  0.14568454  1.0
  Sc  Sc350  1  0.84300400  0.77777778  0.14568454  1.0
  Sc  Sc351  1  0.15699600  0.22222222  0.14568454  1.0
  Sc  Sc352  1  0.15699600  0.55555556  0.14568454  1.0
  Sc  Sc353  1  0.15699600  0.88888889  0.14568454  1.0
  Sc  Sc354  1  0.49032933  0.22222222  0.14568454  1.0
  Sc  Sc355  1  0.49032933  0.55555556  0.14568454  1.0
  Sc  Sc356  1  0.49032933  0.88888889  0.14568454  1.0
  Sc  Sc357  1  0.82366267  0.22222222  0.14568454  1.0
  Sc  Sc358  1  0.82366267  0.55555556  0.14568454  1.0
  Sc  Sc359  1  0.82366267  0.88888889  0.14568454  1.0
  Sc  Sc360  1  0.05806600  0.22222222  0.14568454  1.0
  Sc  Sc361  1  0.05806600  0.55555556  0.14568454  1.0
  Sc  Sc362  1  0.05806600  0.88888889  0.14568454  1.0
  Sc  Sc363  1  0.39139933  0.22222222  0.14568454  1.0
  Sc  Sc364  1  0.39139933  0.55555556  0.14568454  1.0
  Sc  Sc365  1  0.39139933  0.88888889  0.14568454  1.0
  Sc  Sc366  1  0.72473267  0.22222222  0.14568454  1.0
  Sc  Sc367  1  0.72473267  0.55555556  0.14568454  1.0
  Sc  Sc368  1  0.72473267  0.88888889  0.14568454  1.0
  Sc  Sc369  1  0.27526733  0.11111111  0.14568454  1.0
  Sc  Sc370  1  0.27526733  0.44444444  0.14568454  1.0
  Sc  Sc371  1  0.27526733  0.77777778  0.14568454  1.0
  Sc  Sc372  1  0.60860067  0.11111111  0.14568454  1.0
  Sc  Sc373  1  0.60860067  0.44444444  0.14568454  1.0
  Sc  Sc374  1  0.60860067  0.77777778  0.14568454  1.0
  Sc  Sc375  1  0.94193400  0.11111111  0.14568454  1.0
  Sc  Sc376  1  0.94193400  0.44444444  0.14568454  1.0
  Sc  Sc377  1  0.94193400  0.77777778  0.14568454  1.0
  Sc  Sc378  1  0.22473267  0.11111111  0.14568454  1.0
  Sc  Sc379  1  0.22473267  0.44444444  0.14568454  1.0
  Sc  Sc380  1  0.22473267  0.77777778  0.14568454  1.0
  Sc  Sc381  1  0.55806600  0.11111111  0.14568454  1.0
  Sc  Sc382  1  0.55806600  0.44444444  0.14568454  1.0
  Sc  Sc383  1  0.55806600  0.77777778  0.14568454  1.0
  Sc  Sc384  1  0.89139933  0.11111111  0.14568454  1.0
  Sc  Sc385  1  0.89139933  0.44444444  0.14568454  1.0
  Sc  Sc386  1  0.89139933  0.77777778  0.14568454  1.0
  Sc  Sc387  1  0.10860067  0.22222222  0.14568454  1.0
  Sc  Sc388  1  0.10860067  0.55555556  0.14568454  1.0
  Sc  Sc389  1  0.10860067  0.88888889  0.14568454  1.0
  Sc  Sc390  1  0.44193400  0.22222222  0.14568454  1.0
  Sc  Sc391  1  0.44193400  0.55555556  0.14568454  1.0
  Sc  Sc392  1  0.44193400  0.88888889  0.14568454  1.0
  Sc  Sc393  1  0.77526733  0.22222222  0.14568454  1.0
  Sc  Sc394  1  0.77526733  0.55555556  0.14568454  1.0
  Sc  Sc395  1  0.77526733  0.88888889  0.14568454  1.0
  Ni  Ni396  1  0.00000000  0.00000000  0.14568454  1.0
  Ni  Ni397  1  0.00000000  0.33333333  0.14568454  1.0
  Ni  Ni398  1  0.00000000  0.66666667  0.14568454  1.0
  Ni  Ni399  1  0.33333333  0.00000000  0.14568454  1.0
  Ni  Ni400  1  0.33333333  0.33333333  0.14568454  1.0
  Ni  Ni401  1  0.33333333  0.66666667  0.14568454  1.0
  Ni  Ni402  1  0.66666667  0.00000000  0.14568454  1.0
  Ni  Ni403  1  0.66666667  0.33333333  0.14568454  1.0
  Ni  Ni404  1  0.66666667  0.66666667  0.14568454  1.0
  Ni  Ni405  1  0.16666667  0.00000000  0.14568454  1.0
  Ni  Ni406  1  0.16666667  0.33333333  0.14568454  1.0
  Ni  Ni407  1  0.16666667  0.66666667  0.14568454  1.0
  Ni  Ni408  1  0.50000000  0.00000000  0.14568454  1.0
  Ni  Ni409  1  0.50000000  0.33333333  0.14568454  1.0
  Ni  Ni410  1  0.50000000  0.66666667  0.14568454  1.0
  Ni  Ni411  1  0.83333333  0.00000000  0.14568454  1.0
  Ni  Ni412  1  0.83333333  0.33333333  0.14568454  1.0
  Ni  Ni413  1  0.83333333  0.66666667  0.14568454  1.0
  Ni  Ni414  1  0.08333333  0.22226267  0.10403304  1.0
  Ni  Ni415  1  0.08333333  0.55559600  0.10403304  1.0
  Ni  Ni416  1  0.08333333  0.88892933  0.10403304  1.0
  Ni  Ni417  1  0.41666667  0.22226267  0.10403304  1.0
  Ni  Ni418  1  0.41666667  0.55559600  0.10403304  1.0
  Ni  Ni419  1  0.41666667  0.88892933  0.10403304  1.0
  Ni  Ni420  1  0.75000000  0.22226267  0.10403304  1.0
  Ni  Ni421  1  0.75000000  0.55559600  0.10403304  1.0
  Ni  Ni422  1  0.75000000  0.88892933  0.10403304  1.0
  Ni  Ni423  1  0.08333333  0.05553533  0.10400271  1.0
  Ni  Ni424  1  0.08333333  0.38886867  0.10400271  1.0
  Ni  Ni425  1  0.08333333  0.72220200  0.10400271  1.0
  Ni  Ni426  1  0.41666667  0.05553533  0.10400271  1.0
  Ni  Ni427  1  0.41666667  0.38886867  0.10400271  1.0
  Ni  Ni428  1  0.41666667  0.72220200  0.10400271  1.0
  Ni  Ni429  1  0.75000000  0.05553533  0.10400271  1.0
  Ni  Ni430  1  0.75000000  0.38886867  0.10400271  1.0
  Ni  Ni431  1  0.75000000  0.72220200  0.10400271  1.0
  Ni  Ni432  1  0.08333333  0.05553533  0.14568454  1.0
  Ni  Ni433  1  0.08333333  0.38886867  0.14568454  1.0
  Ni  Ni434  1  0.08333333  0.72220200  0.14568454  1.0
  Ni  Ni435  1  0.41666667  0.05553533  0.14568454  1.0
  Ni  Ni436  1  0.41666667  0.38886867  0.14568454  1.0
  Ni  Ni437  1  0.41666667  0.72220200  0.14568454  1.0
  Ni  Ni438  1  0.75000000  0.05553533  0.14568454  1.0
  Ni  Ni439  1  0.75000000  0.38886867  0.14568454  1.0
  Ni  Ni440  1  0.75000000  0.72220200  0.14568454  1.0
  Ni  Ni441  1  0.25000000  0.11107067  0.10400271  1.0
  Ni  Ni442  1  0.25000000  0.44440400  0.10400271  1.0
  Ni  Ni443  1  0.25000000  0.77773733  0.10400271  1.0
  Ni  Ni444  1  0.58333333  0.11107067  0.10400271  1.0
  Ni  Ni445  1  0.58333333  0.44440400  0.10400271  1.0
  Ni  Ni446  1  0.58333333  0.77773733  0.10400271  1.0
  Ni  Ni447  1  0.91666667  0.11107067  0.10400271  1.0
  Ni  Ni448  1  0.91666667  0.44440400  0.10400271  1.0
  Ni  Ni449  1  0.91666667  0.77773733  0.10400271  1.0
  Ni  Ni450  1  0.25000000  0.27779800  0.10403304  1.0
  Ni  Ni451  1  0.25000000  0.61113133  0.10403304  1.0
  Ni  Ni452  1  0.25000000  0.94446467  0.10403304  1.0
  Ni  Ni453  1  0.58333333  0.27779800  0.10403304  1.0
  Ni  Ni454  1  0.58333333  0.61113133  0.10403304  1.0
  Ni  Ni455  1  0.58333333  0.94446467  0.10403304  1.0
  Ni  Ni456  1  0.91666667  0.27779800  0.10403304  1.0
  Ni  Ni457  1  0.91666667  0.61113133  0.10403304  1.0
  Ni  Ni458  1  0.91666667  0.94446467  0.10403304  1.0
  Ni  Ni459  1  0.25000000  0.27779800  0.14568454  1.0
  Ni  Ni460  1  0.25000000  0.61113133  0.14568454  1.0
  Ni  Ni461  1  0.25000000  0.94446467  0.14568454  1.0
  Ni  Ni462  1  0.58333333  0.27779800  0.14568454  1.0
  Ni  Ni463  1  0.58333333  0.61113133  0.14568454  1.0
  Ni  Ni464  1  0.58333333  0.94446467  0.14568454  1.0
  Ni  Ni465  1  0.91666667  0.27779800  0.14568454  1.0
  Ni  Ni466  1  0.91666667  0.61113133  0.14568454  1.0
  Ni  Ni467  1  0.91666667  0.94446467  0.14568454  1.0
  Ni  Ni468  1  0.02776067  0.22142867  0.10372029  1.0
  Ni  Ni469  1  0.02776067  0.55476200  0.10372029  1.0
  Ni  Ni470  1  0.02776067  0.88809533  0.10372029  1.0
  Ni  Ni471  1  0.36109400  0.22142867  0.10372029  1.0
  Ni  Ni472  1  0.36109400  0.55476200  0.10372029  1.0
  Ni  Ni473  1  0.36109400  0.88809533  0.10372029  1.0
  Ni  Ni474  1  0.69442733  0.22142867  0.10372029  1.0
  Ni  Ni475  1  0.69442733  0.55476200  0.10372029  1.0
  Ni  Ni476  1  0.69442733  0.88809533  0.10372029  1.0
  Ni  Ni477  1  0.02776067  0.05595233  0.10431546  1.0
  Ni  Ni478  1  0.02776067  0.38928567  0.10431546  1.0
  Ni  Ni479  1  0.02776067  0.72261900  0.10431546  1.0
  Ni  Ni480  1  0.36109400  0.05595233  0.10431546  1.0
  Ni  Ni481  1  0.36109400  0.38928567  0.10431546  1.0
  Ni  Ni482  1  0.36109400  0.72261900  0.10431546  1.0
  Ni  Ni483  1  0.69442733  0.05595233  0.10431546  1.0
  Ni  Ni484  1  0.69442733  0.38928567  0.10431546  1.0
  Ni  Ni485  1  0.69442733  0.72261900  0.10431546  1.0
  Ni  Ni486  1  0.02776067  0.05595233  0.14568454  1.0
  Ni  Ni487  1  0.02776067  0.38928567  0.14568454  1.0
  Ni  Ni488  1  0.02776067  0.72261900  0.14568454  1.0
  Ni  Ni489  1  0.36109400  0.05595233  0.14568454  1.0
  Ni  Ni490  1  0.36109400  0.38928567  0.14568454  1.0
  Ni  Ni491  1  0.36109400  0.72261900  0.14568454  1.0
  Ni  Ni492  1  0.69442733  0.05595233  0.14568454  1.0
  Ni  Ni493  1  0.69442733  0.38928567  0.14568454  1.0
  Ni  Ni494  1  0.69442733  0.72261900  0.14568454  1.0
  Ni  Ni495  1  0.30557267  0.11190467  0.10431546  1.0
  Ni  Ni496  1  0.30557267  0.44523800  0.10431546  1.0
  Ni  Ni497  1  0.30557267  0.77857133  0.10431546  1.0
  Ni  Ni498  1  0.63890600  0.11190467  0.10431546  1.0
  Ni  Ni499  1  0.63890600  0.44523800  0.10431546  1.0
  Ni  Ni500  1  0.63890600  0.77857133  0.10431546  1.0
  Ni  Ni501  1  0.97223933  0.11190467  0.10431546  1.0
  Ni  Ni502  1  0.97223933  0.44523800  0.10431546  1.0
  Ni  Ni503  1  0.97223933  0.77857133  0.10431546  1.0
  Ni  Ni504  1  0.30557267  0.27738100  0.10372029  1.0
  Ni  Ni505  1  0.30557267  0.61071433  0.10372029  1.0
  Ni  Ni506  1  0.30557267  0.94404767  0.10372029  1.0
  Ni  Ni507  1  0.63890600  0.27738100  0.10372029  1.0
  Ni  Ni508  1  0.63890600  0.61071433  0.10372029  1.0
  Ni  Ni509  1  0.63890600  0.94404767  0.10372029  1.0
  Ni  Ni510  1  0.97223933  0.27738100  0.10372029  1.0
  Ni  Ni511  1  0.97223933  0.61071433  0.10372029  1.0
  Ni  Ni512  1  0.97223933  0.94404767  0.10372029  1.0
  Ni  Ni513  1  0.30557267  0.27738100  0.14568454  1.0
  Ni  Ni514  1  0.30557267  0.61071433  0.14568454  1.0
  Ni  Ni515  1  0.30557267  0.94404767  0.14568454  1.0
  Ni  Ni516  1  0.63890600  0.27738100  0.14568454  1.0
  Ni  Ni517  1  0.63890600  0.61071433  0.14568454  1.0
  Ni  Ni518  1  0.63890600  0.94404767  0.14568454  1.0
  Ni  Ni519  1  0.97223933  0.27738100  0.14568454  1.0
  Ni  Ni520  1  0.97223933  0.61071433  0.14568454  1.0
  Ni  Ni521  1  0.97223933  0.94404767  0.14568454  1.0
  Ni  Ni522  1  0.19442733  0.11190467  0.10431546  1.0
  Ni  Ni523  1  0.19442733  0.44523800  0.10431546  1.0
  Ni  Ni524  1  0.19442733  0.77857133  0.10431546  1.0
  Ni  Ni525  1  0.52776067  0.11190467  0.10431546  1.0
  Ni  Ni526  1  0.52776067  0.44523800  0.10431546  1.0
  Ni  Ni527  1  0.52776067  0.77857133  0.10431546  1.0
  Ni  Ni528  1  0.86109400  0.11190467  0.10431546  1.0
  Ni  Ni529  1  0.86109400  0.44523800  0.10431546  1.0
  Ni  Ni530  1  0.86109400  0.77857133  0.10431546  1.0
  Ni  Ni531  1  0.19442733  0.27738100  0.10372029  1.0
  Ni  Ni532  1  0.19442733  0.61071433  0.10372029  1.0
  Ni  Ni533  1  0.19442733  0.94404767  0.10372029  1.0
  Ni  Ni534  1  0.52776067  0.27738100  0.10372029  1.0
  Ni  Ni535  1  0.52776067  0.61071433  0.10372029  1.0
  Ni  Ni536  1  0.52776067  0.94404767  0.10372029  1.0
  Ni  Ni537  1  0.86109400  0.27738100  0.10372029  1.0
  Ni  Ni538  1  0.86109400  0.61071433  0.10372029  1.0
  Ni  Ni539  1  0.86109400  0.94404767  0.10372029  1.0
  Ni  Ni540  1  0.19442733  0.27738100  0.14568454  1.0
  Ni  Ni541  1  0.19442733  0.61071433  0.14568454  1.0
  Ni  Ni542  1  0.19442733  0.94404767  0.14568454  1.0
  Ni  Ni543  1  0.52776067  0.27738100  0.14568454  1.0
  Ni  Ni544  1  0.52776067  0.61071433  0.14568454  1.0
  Ni  Ni545  1  0.52776067  0.94404767  0.14568454  1.0
  Ni  Ni546  1  0.86109400  0.27738100  0.14568454  1.0
  Ni  Ni547  1  0.86109400  0.61071433  0.14568454  1.0
  Ni  Ni548  1  0.86109400  0.94404767  0.14568454  1.0
  Ni  Ni549  1  0.13890600  0.22142867  0.10372029  1.0
  Ni  Ni550  1  0.13890600  0.55476200  0.10372029  1.0
  Ni  Ni551  1  0.13890600  0.88809533  0.10372029  1.0
  Ni  Ni552  1  0.47223933  0.22142867  0.10372029  1.0
  Ni  Ni553  1  0.47223933  0.55476200  0.10372029  1.0
  Ni  Ni554  1  0.47223933  0.88809533  0.10372029  1.0
  Ni  Ni555  1  0.80557267  0.22142867  0.10372029  1.0
  Ni  Ni556  1  0.80557267  0.55476200  0.10372029  1.0
  Ni  Ni557  1  0.80557267  0.88809533  0.10372029  1.0
  Ni  Ni558  1  0.13890600  0.05595233  0.10431546  1.0
  Ni  Ni559  1  0.13890600  0.38928567  0.10431546  1.0
  Ni  Ni560  1  0.13890600  0.72261900  0.10431546  1.0
  Ni  Ni561  1  0.47223933  0.05595233  0.10431546  1.0
  Ni  Ni562  1  0.47223933  0.38928567  0.10431546  1.0
  Ni  Ni563  1  0.47223933  0.72261900  0.10431546  1.0
  Ni  Ni564  1  0.80557267  0.05595233  0.10431546  1.0
  Ni  Ni565  1  0.80557267  0.38928567  0.10431546  1.0
  Ni  Ni566  1  0.80557267  0.72261900  0.10431546  1.0
  Ni  Ni567  1  0.13890600  0.05595233  0.14568454  1.0
  Ni  Ni568  1  0.13890600  0.38928567  0.14568454  1.0
  Ni  Ni569  1  0.13890600  0.72261900  0.14568454  1.0
  Ni  Ni570  1  0.47223933  0.05595233  0.14568454  1.0
  Ni  Ni571  1  0.47223933  0.38928567  0.14568454  1.0
  Ni  Ni572  1  0.47223933  0.72261900  0.14568454  1.0
  Ni  Ni573  1  0.80557267  0.05595233  0.14568454  1.0
  Ni  Ni574  1  0.80557267  0.38928567  0.14568454  1.0
  Ni  Ni575  1  0.80557267  0.72261900  0.14568454  1.0
  Ni  Ni576  1  0.05547267  0.00000000  0.14568454  1.0
  Ni  Ni577  1  0.05547267  0.33333333  0.14568454  1.0
  Ni  Ni578  1  0.05547267  0.66666667  0.14568454  1.0
  Ni  Ni579  1  0.38880600  0.00000000  0.14568454  1.0
  Ni  Ni580  1  0.38880600  0.33333333  0.14568454  1.0
  Ni  Ni581  1  0.38880600  0.66666667  0.14568454  1.0
  Ni  Ni582  1  0.72213933  0.00000000  0.14568454  1.0
  Ni  Ni583  1  0.72213933  0.33333333  0.14568454  1.0
  Ni  Ni584  1  0.72213933  0.66666667  0.14568454  1.0
  Ni  Ni585  1  0.27786067  0.00000000  0.14568454  1.0
  Ni  Ni586  1  0.27786067  0.33333333  0.14568454  1.0
  Ni  Ni587  1  0.27786067  0.66666667  0.14568454  1.0
  Ni  Ni588  1  0.61119400  0.00000000  0.14568454  1.0
  Ni  Ni589  1  0.61119400  0.33333333  0.14568454  1.0
  Ni  Ni590  1  0.61119400  0.66666667  0.14568454  1.0
  Ni  Ni591  1  0.94452733  0.00000000  0.14568454  1.0
  Ni  Ni592  1  0.94452733  0.33333333  0.14568454  1.0
  Ni  Ni593  1  0.94452733  0.66666667  0.14568454  1.0
  Ni  Ni594  1  0.22213933  0.00000000  0.14568454  1.0
  Ni  Ni595  1  0.22213933  0.33333333  0.14568454  1.0
  Ni  Ni596  1  0.22213933  0.66666667  0.14568454  1.0
  Ni  Ni597  1  0.55547267  0.00000000  0.14568454  1.0
  Ni  Ni598  1  0.55547267  0.33333333  0.14568454  1.0
  Ni  Ni599  1  0.55547267  0.66666667  0.14568454  1.0
  Ni  Ni600  1  0.88880600  0.00000000  0.14568454  1.0
  Ni  Ni601  1  0.88880600  0.33333333  0.14568454  1.0
  Ni  Ni602  1  0.88880600  0.66666667  0.14568454  1.0
  Ni  Ni603  1  0.11119400  0.00000000  0.14568454  1.0
  Ni  Ni604  1  0.11119400  0.33333333  0.14568454  1.0
  Ni  Ni605  1  0.11119400  0.66666667  0.14568454  1.0
  Ni  Ni606  1  0.44452733  0.00000000  0.14568454  1.0
  Ni  Ni607  1  0.44452733  0.33333333  0.14568454  1.0
  Ni  Ni608  1  0.44452733  0.66666667  0.14568454  1.0
  Ni  Ni609  1  0.77786067  0.00000000  0.14568454  1.0
  Ni  Ni610  1  0.77786067  0.33333333  0.14568454  1.0
  Ni  Ni611  1  0.77786067  0.66666667  0.14568454  1.0
  Ni  Ni612  1  0.27779467  0.22222222  0.14568454  1.0
  Ni  Ni613  1  0.27779467  0.55555556  0.14568454  1.0
  Ni  Ni614  1  0.27779467  0.88888889  0.14568454  1.0
  Ni  Ni615  1  0.61112800  0.22222222  0.14568454  1.0
  Ni  Ni616  1  0.61112800  0.55555556  0.14568454  1.0
  Ni  Ni617  1  0.61112800  0.88888889  0.14568454  1.0
  Ni  Ni618  1  0.94446133  0.22222222  0.14568454  1.0
  Ni  Ni619  1  0.94446133  0.55555556  0.14568454  1.0
  Ni  Ni620  1  0.94446133  0.88888889  0.14568454  1.0
  Ni  Ni621  1  0.05553867  0.11111111  0.14568454  1.0
  Ni  Ni622  1  0.05553867  0.44444444  0.14568454  1.0
  Ni  Ni623  1  0.05553867  0.77777778  0.14568454  1.0
  Ni  Ni624  1  0.38887200  0.11111111  0.14568454  1.0
  Ni  Ni625  1  0.38887200  0.44444444  0.14568454  1.0
  Ni  Ni626  1  0.38887200  0.77777778  0.14568454  1.0
  Ni  Ni627  1  0.72220533  0.11111111  0.14568454  1.0
  Ni  Ni628  1  0.72220533  0.44444444  0.14568454  1.0
  Ni  Ni629  1  0.72220533  0.77777778  0.14568454  1.0
  Ni  Ni630  1  0.11111111  0.11111111  0.14568454  1.0
  Ni  Ni631  1  0.11111111  0.44444444  0.14568454  1.0
  Ni  Ni632  1  0.11111111  0.77777778  0.14568454  1.0
  Ni  Ni633  1  0.44444444  0.11111111  0.14568454  1.0
  Ni  Ni634  1  0.44444444  0.44444444  0.14568454  1.0
  Ni  Ni635  1  0.44444444  0.77777778  0.14568454  1.0
  Ni  Ni636  1  0.77777778  0.11111111  0.14568454  1.0
  Ni  Ni637  1  0.77777778  0.44444444  0.14568454  1.0
  Ni  Ni638  1  0.77777778  0.77777778  0.14568454  1.0
  Ni  Ni639  1  0.22220533  0.22222222  0.14568454  1.0
  Ni  Ni640  1  0.22220533  0.55555556  0.14568454  1.0
  Ni  Ni641  1  0.22220533  0.88888889  0.14568454  1.0
  Ni  Ni642  1  0.55553867  0.22222222  0.14568454  1.0
  Ni  Ni643  1  0.55553867  0.55555556  0.14568454  1.0
  Ni  Ni644  1  0.55553867  0.88888889  0.14568454  1.0
  Ni  Ni645  1  0.88887200  0.22222222  0.14568454  1.0
  Ni  Ni646  1  0.88887200  0.55555556  0.14568454  1.0
  Ni  Ni647  1  0.88887200  0.88888889  0.14568454  1.0
  Sc  Sc648  1  0.00967067  0.22222222  0.22901787  1.0
  Sc  Sc649  1  0.00967067  0.55555556  0.22901787  1.0
  Sc  Sc650  1  0.00967067  0.88888889  0.22901788  1.0
  Sc  Sc651  1  0.34300400  0.22222222  0.22901787  1.0
  Sc  Sc652  1  0.34300400  0.55555556  0.22901787  1.0
  Sc  Sc653  1  0.34300400  0.88888889  0.22901788  1.0
  Sc  Sc654  1  0.67633733  0.22222222  0.22901787  1.0
  Sc  Sc655  1  0.67633733  0.55555556  0.22901787  1.0
  Sc  Sc656  1  0.67633733  0.88888889  0.22901788  1.0
  Sc  Sc657  1  0.32366267  0.11111111  0.22901787  1.0
  Sc  Sc658  1  0.32366267  0.44444444  0.22901787  1.0
  Sc  Sc659  1  0.32366267  0.77777778  0.22901788  1.0
  Sc  Sc660  1  0.65699600  0.11111111  0.22901787  1.0
  Sc  Sc661  1  0.65699600  0.44444444  0.22901787  1.0
  Sc  Sc662  1  0.65699600  0.77777778  0.22901788  1.0
  Sc  Sc663  1  0.99032933  0.11111111  0.22901787  1.0
  Sc  Sc664  1  0.99032933  0.44444444  0.22901787  1.0
  Sc  Sc665  1  0.99032933  0.77777778  0.22901788  1.0
  Sc  Sc666  1  0.17633733  0.11111111  0.22901787  1.0
  Sc  Sc667  1  0.17633733  0.44444444  0.22901788  1.0
  Sc  Sc668  1  0.17633733  0.77777778  0.22901788  1.0
  Sc  Sc669  1  0.50967067  0.11111111  0.22901787  1.0
  Sc  Sc670  1  0.50967067  0.44444444  0.22901788  1.0
  Sc  Sc671  1  0.50967067  0.77777778  0.22901788  1.0
  Sc  Sc672  1  0.84300400  0.11111111  0.22901787  1.0
  Sc  Sc673  1  0.84300400  0.44444444  0.22901788  1.0
  Sc  Sc674  1  0.84300400  0.77777778  0.22901788  1.0
  Sc  Sc675  1  0.15699600  0.22222222  0.22901787  1.0
  Sc  Sc676  1  0.15699600  0.55555556  0.22901787  1.0
  Sc  Sc677  1  0.15699600  0.88888889  0.22901788  1.0
  Sc  Sc678  1  0.49032933  0.22222222  0.22901787  1.0
  Sc  Sc679  1  0.49032933  0.55555556  0.22901787  1.0
  Sc  Sc680  1  0.49032933  0.88888889  0.22901787  1.0
  Sc  Sc681  1  0.82366267  0.22222222  0.22901787  1.0
  Sc  Sc682  1  0.82366267  0.55555556  0.22901787  1.0
  Sc  Sc683  1  0.82366267  0.88888889  0.22901788  1.0
  Sc  Sc684  1  0.05806600  0.22222222  0.22901787  1.0
  Sc  Sc685  1  0.05806600  0.55555556  0.22901787  1.0
  Sc  Sc686  1  0.05806600  0.88888889  0.22901788  1.0
  Sc  Sc687  1  0.39139933  0.22222222  0.22901787  1.0
  Sc  Sc688  1  0.39139933  0.55555556  0.22901787  1.0
  Sc  Sc689  1  0.39139933  0.88888889  0.22901787  1.0
  Sc  Sc690  1  0.72473267  0.22222222  0.22901787  1.0
  Sc  Sc691  1  0.72473267  0.55555556  0.22901787  1.0
  Sc  Sc692  1  0.72473267  0.88888889  0.22901788  1.0
  Sc  Sc693  1  0.27526733  0.11111111  0.22901787  1.0
  Sc  Sc694  1  0.27526733  0.44444444  0.22901787  1.0
  Sc  Sc695  1  0.27526733  0.77777778  0.22901788  1.0
  Sc  Sc696  1  0.60860067  0.11111111  0.22901787  1.0
  Sc  Sc697  1  0.60860067  0.44444444  0.22901787  1.0
  Sc  Sc698  1  0.60860067  0.77777778  0.22901788  1.0
  Sc  Sc699  1  0.94193400  0.11111111  0.22901787  1.0
  Sc  Sc700  1  0.94193400  0.44444444  0.22901787  1.0
  Sc  Sc701  1  0.94193400  0.77777778  0.22901788  1.0
  Sc  Sc702  1  0.22473267  0.11111111  0.22901787  1.0
  Sc  Sc703  1  0.22473267  0.44444444  0.22901787  1.0
  Sc  Sc704  1  0.22473267  0.77777778  0.22901788  1.0
  Sc  Sc705  1  0.55806600  0.11111111  0.22901787  1.0
  Sc  Sc706  1  0.55806600  0.44444444  0.22901787  1.0
  Sc  Sc707  1  0.55806600  0.77777778  0.22901788  1.0
  Sc  Sc708  1  0.89139933  0.11111111  0.22901787  1.0
  Sc  Sc709  1  0.89139933  0.44444444  0.22901788  1.0
  Sc  Sc710  1  0.89139933  0.77777778  0.22901788  1.0
  Sc  Sc711  1  0.10860067  0.22222222  0.22901787  1.0
  Sc  Sc712  1  0.10860067  0.55555556  0.22901787  1.0
  Sc  Sc713  1  0.10860067  0.88888889  0.22901788  1.0
  Sc  Sc714  1  0.44193400  0.22222222  0.22901787  1.0
  Sc  Sc715  1  0.44193400  0.55555556  0.22901787  1.0
  Sc  Sc716  1  0.44193400  0.88888889  0.22901787  1.0
  Sc  Sc717  1  0.77526733  0.22222222  0.22901787  1.0
  Sc  Sc718  1  0.77526733  0.55555556  0.22901787  1.0
  Sc  Sc719  1  0.77526733  0.88888889  0.22901788  1.0
  Ni  Ni720  1  0.00000000  0.00000000  0.22901787  1.0
  Ni  Ni721  1  0.00000000  0.33333333  0.22901787  1.0
  Ni  Ni722  1  0.00000000  0.66666667  0.22901787  1.0
  Ni  Ni723  1  0.33333333  0.00000000  0.22901787  1.0
  Ni  Ni724  1  0.33333333  0.33333333  0.22901787  1.0
  Ni  Ni725  1  0.33333333  0.66666667  0.22901787  1.0
  Ni  Ni726  1  0.66666667  0.00000000  0.22901787  1.0
  Ni  Ni727  1  0.66666667  0.33333333  0.22901787  1.0
  Ni  Ni728  1  0.66666667  0.66666667  0.22901787  1.0
  Ni  Ni729  1  0.16666667  0.00000000  0.22901787  1.0
  Ni  Ni730  1  0.16666667  0.33333333  0.22901787  1.0
  Ni  Ni731  1  0.16666667  0.66666667  0.22901787  1.0
  Ni  Ni732  1  0.50000000  0.00000000  0.22901787  1.0
  Ni  Ni733  1  0.50000000  0.33333333  0.22901787  1.0
  Ni  Ni734  1  0.50000000  0.66666667  0.22901787  1.0
  Ni  Ni735  1  0.83333333  0.00000000  0.22901787  1.0
  Ni  Ni736  1  0.83333333  0.33333333  0.22901787  1.0
  Ni  Ni737  1  0.83333333  0.66666667  0.22901787  1.0
  Ni  Ni738  1  0.08333333  0.22226267  0.18736637  1.0
  Ni  Ni739  1  0.08333333  0.55559600  0.18736638  1.0
  Ni  Ni740  1  0.08333333  0.88892933  0.18736638  1.0
  Ni  Ni741  1  0.41666667  0.22226267  0.18736637  1.0
  Ni  Ni742  1  0.41666667  0.55559600  0.18736638  1.0
  Ni  Ni743  1  0.41666667  0.88892933  0.18736638  1.0
  Ni  Ni744  1  0.75000000  0.22226267  0.18736637  1.0
  Ni  Ni745  1  0.75000000  0.55559600  0.18736638  1.0
  Ni  Ni746  1  0.75000000  0.88892933  0.18736638  1.0
  Ni  Ni747  1  0.08333333  0.05553533  0.18733604  1.0
  Ni  Ni748  1  0.08333333  0.38886867  0.18733604  1.0
  Ni  Ni749  1  0.08333333  0.72220200  0.18733604  1.0
  Ni  Ni750  1  0.41666667  0.05553533  0.18733604  1.0
  Ni  Ni751  1  0.41666667  0.38886867  0.18733604  1.0
  Ni  Ni752  1  0.41666667  0.72220200  0.18733604  1.0
  Ni  Ni753  1  0.75000000  0.05553533  0.18733604  1.0
  Ni  Ni754  1  0.75000000  0.38886867  0.18733604  1.0
  Ni  Ni755  1  0.75000000  0.72220200  0.18733604  1.0
  Ni  Ni756  1  0.08333333  0.05553533  0.22901787  1.0
  Ni  Ni757  1  0.08333333  0.38886867  0.22901787  1.0
  Ni  Ni758  1  0.08333333  0.72220200  0.22901787  1.0
  Ni  Ni759  1  0.41666667  0.05553533  0.22901787  1.0
  Ni  Ni760  1  0.41666667  0.38886867  0.22901787  1.0
  Ni  Ni761  1  0.41666667  0.72220200  0.22901787  1.0
  Ni  Ni762  1  0.75000000  0.05553533  0.22901787  1.0
  Ni  Ni763  1  0.75000000  0.38886867  0.22901787  1.0
  Ni  Ni764  1  0.75000000  0.72220200  0.22901787  1.0
  Ni  Ni765  1  0.25000000  0.11107067  0.18733604  1.0
  Ni  Ni766  1  0.25000000  0.44440400  0.18733604  1.0
  Ni  Ni767  1  0.25000000  0.77773733  0.18733604  1.0
  Ni  Ni768  1  0.58333333  0.11107067  0.18733604  1.0
  Ni  Ni769  1  0.58333333  0.44440400  0.18733604  1.0
  Ni  Ni770  1  0.58333333  0.77773733  0.18733604  1.0
  Ni  Ni771  1  0.91666667  0.11107067  0.18733604  1.0
  Ni  Ni772  1  0.91666667  0.44440400  0.18733604  1.0
  Ni  Ni773  1  0.91666667  0.77773733  0.18733604  1.0
  Ni  Ni774  1  0.25000000  0.27779800  0.18736637  1.0
  Ni  Ni775  1  0.25000000  0.61113133  0.18736637  1.0
  Ni  Ni776  1  0.25000000  0.94446467  0.18736637  1.0
  Ni  Ni777  1  0.58333333  0.27779800  0.18736637  1.0
  Ni  Ni778  1  0.58333333  0.61113133  0.18736637  1.0
  Ni  Ni779  1  0.58333333  0.94446467  0.18736637  1.0
  Ni  Ni780  1  0.91666667  0.27779800  0.18736637  1.0
  Ni  Ni781  1  0.91666667  0.61113133  0.18736637  1.0
  Ni  Ni782  1  0.91666667  0.94446467  0.18736638  1.0
  Ni  Ni783  1  0.25000000  0.27779800  0.22901787  1.0
  Ni  Ni784  1  0.25000000  0.61113133  0.22901787  1.0
  Ni  Ni785  1  0.25000000  0.94446467  0.22901787  1.0
  Ni  Ni786  1  0.58333333  0.27779800  0.22901787  1.0
  Ni  Ni787  1  0.58333333  0.61113133  0.22901787  1.0
  Ni  Ni788  1  0.58333333  0.94446467  0.22901787  1.0
  Ni  Ni789  1  0.91666667  0.27779800  0.22901787  1.0
  Ni  Ni790  1  0.91666667  0.61113133  0.22901787  1.0
  Ni  Ni791  1  0.91666667  0.94446467  0.22901787  1.0
  Ni  Ni792  1  0.02776067  0.22142867  0.18705362  1.0
  Ni  Ni793  1  0.02776067  0.55476200  0.18705362  1.0
  Ni  Ni794  1  0.02776067  0.88809533  0.18705362  1.0
  Ni  Ni795  1  0.36109400  0.22142867  0.18705362  1.0
  Ni  Ni796  1  0.36109400  0.55476200  0.18705362  1.0
  Ni  Ni797  1  0.36109400  0.88809533  0.18705362  1.0
  Ni  Ni798  1  0.69442733  0.22142867  0.18705362  1.0
  Ni  Ni799  1  0.69442733  0.55476200  0.18705362  1.0
  Ni  Ni800  1  0.69442733  0.88809533  0.18705362  1.0
  Ni  Ni801  1  0.02776067  0.05595233  0.18764879  1.0
  Ni  Ni802  1  0.02776067  0.38928567  0.18764879  1.0
  Ni  Ni803  1  0.02776067  0.72261900  0.18764879  1.0
  Ni  Ni804  1  0.36109400  0.05595233  0.18764879  1.0
  Ni  Ni805  1  0.36109400  0.38928567  0.18764879  1.0
  Ni  Ni806  1  0.36109400  0.72261900  0.18764879  1.0
  Ni  Ni807  1  0.69442733  0.05595233  0.18764879  1.0
  Ni  Ni808  1  0.69442733  0.38928567  0.18764879  1.0
  Ni  Ni809  1  0.69442733  0.72261900  0.18764879  1.0
  Ni  Ni810  1  0.02776067  0.05595233  0.22901787  1.0
  Ni  Ni811  1  0.02776067  0.38928567  0.22901787  1.0
  Ni  Ni812  1  0.02776067  0.72261900  0.22901788  1.0
  Ni  Ni813  1  0.36109400  0.05595233  0.22901787  1.0
  Ni  Ni814  1  0.36109400  0.38928567  0.22901787  1.0
  Ni  Ni815  1  0.36109400  0.72261900  0.22901788  1.0
  Ni  Ni816  1  0.69442733  0.05595233  0.22901787  1.0
  Ni  Ni817  1  0.69442733  0.38928567  0.22901787  1.0
  Ni  Ni818  1  0.69442733  0.72261900  0.22901788  1.0
  Ni  Ni819  1  0.30557267  0.11190467  0.18764879  1.0
  Ni  Ni820  1  0.30557267  0.44523800  0.18764879  1.0
  Ni  Ni821  1  0.30557267  0.77857133  0.18764879  1.0
  Ni  Ni822  1  0.63890600  0.11190467  0.18764879  1.0
  Ni  Ni823  1  0.63890600  0.44523800  0.18764879  1.0
  Ni  Ni824  1  0.63890600  0.77857133  0.18764879  1.0
  Ni  Ni825  1  0.97223933  0.11190467  0.18764879  1.0
  Ni  Ni826  1  0.97223933  0.44523800  0.18764879  1.0
  Ni  Ni827  1  0.97223933  0.77857133  0.18764879  1.0
  Ni  Ni828  1  0.30557267  0.27738100  0.18705362  1.0
  Ni  Ni829  1  0.30557267  0.61071433  0.18705363  1.0
  Ni  Ni830  1  0.30557267  0.94404767  0.18705363  1.0
  Ni  Ni831  1  0.63890600  0.27738100  0.18705363  1.0
  Ni  Ni832  1  0.63890600  0.61071433  0.18705363  1.0
  Ni  Ni833  1  0.63890600  0.94404767  0.18705362  1.0
  Ni  Ni834  1  0.97223933  0.27738100  0.18705362  1.0
  Ni  Ni835  1  0.97223933  0.61071433  0.18705362  1.0
  Ni  Ni836  1  0.97223933  0.94404767  0.18705363  1.0
  Ni  Ni837  1  0.30557267  0.27738100  0.22901787  1.0
  Ni  Ni838  1  0.30557267  0.61071433  0.22901787  1.0
  Ni  Ni839  1  0.30557267  0.94404767  0.22901787  1.0
  Ni  Ni840  1  0.63890600  0.27738100  0.22901787  1.0
  Ni  Ni841  1  0.63890600  0.61071433  0.22901787  1.0
  Ni  Ni842  1  0.63890600  0.94404767  0.22901787  1.0
  Ni  Ni843  1  0.97223933  0.27738100  0.22901787  1.0
  Ni  Ni844  1  0.97223933  0.61071433  0.22901787  1.0
  Ni  Ni845  1  0.97223933  0.94404767  0.22901787  1.0
  Ni  Ni846  1  0.19442733  0.11190467  0.18764879  1.0
  Ni  Ni847  1  0.19442733  0.44523800  0.18764879  1.0
  Ni  Ni848  1  0.19442733  0.77857133  0.18764879  1.0
  Ni  Ni849  1  0.52776067  0.11190467  0.18764879  1.0
  Ni  Ni850  1  0.52776067  0.44523800  0.18764879  1.0
  Ni  Ni851  1  0.52776067  0.77857133  0.18764879  1.0
  Ni  Ni852  1  0.86109400  0.11190467  0.18764879  1.0
  Ni  Ni853  1  0.86109400  0.44523800  0.18764879  1.0
  Ni  Ni854  1  0.86109400  0.77857133  0.18764879  1.0
  Ni  Ni855  1  0.19442733  0.27738100  0.18705363  1.0
  Ni  Ni856  1  0.19442733  0.61071433  0.18705363  1.0
  Ni  Ni857  1  0.19442733  0.94404767  0.18705363  1.0
  Ni  Ni858  1  0.52776067  0.27738100  0.18705363  1.0
  Ni  Ni859  1  0.52776067  0.61071433  0.18705363  1.0
  Ni  Ni860  1  0.52776067  0.94404767  0.18705362  1.0
  Ni  Ni861  1  0.86109400  0.27738100  0.18705362  1.0
  Ni  Ni862  1  0.86109400  0.61071433  0.18705363  1.0
  Ni  Ni863  1  0.86109400  0.94404767  0.18705363  1.0
  Ni  Ni864  1  0.19442733  0.27738100  0.22901787  1.0
  Ni  Ni865  1  0.19442733  0.61071433  0.22901787  1.0
  Ni  Ni866  1  0.19442733  0.94404767  0.22901787  1.0
  Ni  Ni867  1  0.52776067  0.27738100  0.22901787  1.0
  Ni  Ni868  1  0.52776067  0.61071433  0.22901787  1.0
  Ni  Ni869  1  0.52776067  0.94404767  0.22901787  1.0
  Ni  Ni870  1  0.86109400  0.27738100  0.22901787  1.0
  Ni  Ni871  1  0.86109400  0.61071433  0.22901787  1.0
  Ni  Ni872  1  0.86109400  0.94404767  0.22901787  1.0
  Ni  Ni873  1  0.13890600  0.22142867  0.18705362  1.0
  Ni  Ni874  1  0.13890600  0.55476200  0.18705362  1.0
  Ni  Ni875  1  0.13890600  0.88809533  0.18705362  1.0
  Ni  Ni876  1  0.47223933  0.22142867  0.18705362  1.0
  Ni  Ni877  1  0.47223933  0.55476200  0.18705362  1.0
  Ni  Ni878  1  0.47223933  0.88809533  0.18705362  1.0
  Ni  Ni879  1  0.80557267  0.22142867  0.18705362  1.0
  Ni  Ni880  1  0.80557267  0.55476200  0.18705362  1.0
  Ni  Ni881  1  0.80557267  0.88809533  0.18705362  1.0
  Ni  Ni882  1  0.13890600  0.05595233  0.18764879  1.0
  Ni  Ni883  1  0.13890600  0.38928567  0.18764879  1.0
  Ni  Ni884  1  0.13890600  0.72261900  0.18764879  1.0
  Ni  Ni885  1  0.47223933  0.05595233  0.18764879  1.0
  Ni  Ni886  1  0.47223933  0.38928567  0.18764879  1.0
  Ni  Ni887  1  0.47223933  0.72261900  0.18764879  1.0
  Ni  Ni888  1  0.80557267  0.05595233  0.18764879  1.0
  Ni  Ni889  1  0.80557267  0.38928567  0.18764879  1.0
  Ni  Ni890  1  0.80557267  0.72261900  0.18764879  1.0
  Ni  Ni891  1  0.13890600  0.05595233  0.22901787  1.0
  Ni  Ni892  1  0.13890600  0.38928567  0.22901787  1.0
  Ni  Ni893  1  0.13890600  0.72261900  0.22901788  1.0
  Ni  Ni894  1  0.47223933  0.05595233  0.22901787  1.0
  Ni  Ni895  1  0.47223933  0.38928567  0.22901787  1.0
  Ni  Ni896  1  0.47223933  0.72261900  0.22901788  1.0
  Ni  Ni897  1  0.80557267  0.05595233  0.22901787  1.0
  Ni  Ni898  1  0.80557267  0.38928567  0.22901787  1.0
  Ni  Ni899  1  0.80557267  0.72261900  0.22901788  1.0
  Ni  Ni900  1  0.05547267  0.00000000  0.22901787  1.0
  Ni  Ni901  1  0.05547267  0.33333333  0.22901787  1.0
  Ni  Ni902  1  0.05547267  0.66666667  0.22901787  1.0
  Ni  Ni903  1  0.38880600  0.00000000  0.22901787  1.0
  Ni  Ni904  1  0.38880600  0.33333333  0.22901787  1.0
  Ni  Ni905  1  0.38880600  0.66666667  0.22901787  1.0
  Ni  Ni906  1  0.72213933  0.00000000  0.22901787  1.0
  Ni  Ni907  1  0.72213933  0.33333333  0.22901787  1.0
  Ni  Ni908  1  0.72213933  0.66666667  0.22901787  1.0
  Ni  Ni909  1  0.27786067  0.00000000  0.22901787  1.0
  Ni  Ni910  1  0.27786067  0.33333333  0.22901787  1.0
  Ni  Ni911  1  0.27786067  0.66666667  0.22901787  1.0
  Ni  Ni912  1  0.61119400  0.00000000  0.22901787  1.0
  Ni  Ni913  1  0.61119400  0.33333333  0.22901787  1.0
  Ni  Ni914  1  0.61119400  0.66666667  0.22901787  1.0
  Ni  Ni915  1  0.94452733  0.00000000  0.22901787  1.0
  Ni  Ni916  1  0.94452733  0.33333333  0.22901787  1.0
  Ni  Ni917  1  0.94452733  0.66666667  0.22901787  1.0
  Ni  Ni918  1  0.22213933  0.00000000  0.22901787  1.0
  Ni  Ni919  1  0.22213933  0.33333333  0.22901787  1.0
  Ni  Ni920  1  0.22213933  0.66666667  0.22901787  1.0
  Ni  Ni921  1  0.55547267  0.00000000  0.22901787  1.0
  Ni  Ni922  1  0.55547267  0.33333333  0.22901787  1.0
  Ni  Ni923  1  0.55547267  0.66666667  0.22901787  1.0
  Ni  Ni924  1  0.88880600  0.00000000  0.22901788  1.0
  Ni  Ni925  1  0.88880600  0.33333333  0.22901787  1.0
  Ni  Ni926  1  0.88880600  0.66666667  0.22901788  1.0
  Ni  Ni927  1  0.11119400  0.00000000  0.22901787  1.0
  Ni  Ni928  1  0.11119400  0.33333333  0.22901787  1.0
  Ni  Ni929  1  0.11119400  0.66666667  0.22901787  1.0
  Ni  Ni930  1  0.44452733  0.00000000  0.22901787  1.0
  Ni  Ni931  1  0.44452733  0.33333333  0.22901787  1.0
  Ni  Ni932  1  0.44452733  0.66666667  0.22901787  1.0
  Ni  Ni933  1  0.77786067  0.00000000  0.22901787  1.0
  Ni  Ni934  1  0.77786067  0.33333333  0.22901787  1.0
  Ni  Ni935  1  0.77786067  0.66666667  0.22901787  1.0
  Ni  Ni936  1  0.27779467  0.22222222  0.22901787  1.0
  Ni  Ni937  1  0.27779467  0.55555556  0.22901787  1.0
  Ni  Ni938  1  0.27779467  0.88888889  0.22901788  1.0
  Ni  Ni939  1  0.61112800  0.22222222  0.22901787  1.0
  Ni  Ni940  1  0.61112800  0.55555556  0.22901787  1.0
  Ni  Ni941  1  0.61112800  0.88888889  0.22901787  1.0
  Ni  Ni942  1  0.94446133  0.22222222  0.22901787  1.0
  Ni  Ni943  1  0.94446133  0.55555556  0.22901787  1.0
  Ni  Ni944  1  0.94446133  0.88888889  0.22901788  1.0
  Ni  Ni945  1  0.05553867  0.11111111  0.22901787  1.0
  Ni  Ni946  1  0.05553867  0.44444444  0.22901787  1.0
  Ni  Ni947  1  0.05553867  0.77777778  0.22901788  1.0
  Ni  Ni948  1  0.38887200  0.11111111  0.22901787  1.0
  Ni  Ni949  1  0.38887200  0.44444444  0.22901787  1.0
  Ni  Ni950  1  0.38887200  0.77777778  0.22901787  1.0
  Ni  Ni951  1  0.72220533  0.11111111  0.22901787  1.0
  Ni  Ni952  1  0.72220533  0.44444444  0.22901787  1.0
  Ni  Ni953  1  0.72220533  0.77777778  0.22901788  1.0
  Ni  Ni954  1  0.11111111  0.11111111  0.22901787  1.0
  Ni  Ni955  1  0.11111111  0.44444444  0.22901787  1.0
  Ni  Ni956  1  0.11111111  0.77777778  0.22901788  1.0
  Ni  Ni957  1  0.44444444  0.11111111  0.22901787  1.0
  Ni  Ni958  1  0.44444444  0.44444444  0.22901787  1.0
  Ni  Ni959  1  0.44444444  0.77777778  0.22901787  1.0
  Ni  Ni960  1  0.77777778  0.11111111  0.22901787  1.0
  Ni  Ni961  1  0.77777778  0.44444444  0.22901787  1.0
  Ni  Ni962  1  0.77777778  0.77777778  0.22901788  1.0
  Ni  Ni963  1  0.22220533  0.22222222  0.22901787  1.0
  Ni  Ni964  1  0.22220533  0.55555556  0.22901787  1.0
  Ni  Ni965  1  0.22220533  0.88888889  0.22901788  1.0
  Ni  Ni966  1  0.55553867  0.22222222  0.22901787  1.0
  Ni  Ni967  1  0.55553867  0.55555556  0.22901787  1.0
  Ni  Ni968  1  0.55553867  0.88888889  0.22901787  1.0
  Ni  Ni969  1  0.88887200  0.22222222  0.22901787  1.0
  Ni  Ni970  1  0.88887200  0.55555556  0.22901787  1.0
  Ni  Ni971  1  0.88887200  0.88888889  0.22901788  1.0
  Sc  Sc972  1  0.00967067  0.22222222  0.31235121  1.0
  Sc  Sc973  1  0.00967067  0.55555556  0.31235121  1.0
  Sc  Sc974  1  0.00967067  0.88888889  0.31235121  1.0
  Sc  Sc975  1  0.34300400  0.22222222  0.31235121  1.0
  Sc  Sc976  1  0.34300400  0.55555556  0.31235121  1.0
  Sc  Sc977  1  0.34300400  0.88888889  0.31235121  1.0
  Sc  Sc978  1  0.67633733  0.22222222  0.31235121  1.0
  Sc  Sc979  1  0.67633733  0.55555556  0.31235121  1.0
  Sc  Sc980  1  0.67633733  0.88888889  0.31235121  1.0
  Sc  Sc981  1  0.32366267  0.11111111  0.31235121  1.0
  Sc  Sc982  1  0.32366267  0.44444444  0.31235121  1.0
  Sc  Sc983  1  0.32366267  0.77777778  0.31235121  1.0
  Sc  Sc984  1  0.65699600  0.11111111  0.31235121  1.0
  Sc  Sc985  1  0.65699600  0.44444444  0.31235121  1.0
  Sc  Sc986  1  0.65699600  0.77777778  0.31235121  1.0
  Sc  Sc987  1  0.99032933  0.11111111  0.31235121  1.0
  Sc  Sc988  1  0.99032933  0.44444444  0.31235121  1.0
  Sc  Sc989  1  0.99032933  0.77777778  0.31235121  1.0
  Sc  Sc990  1  0.17633733  0.11111111  0.31235121  1.0
  Sc  Sc991  1  0.17633733  0.44444444  0.31235121  1.0
  Sc  Sc992  1  0.17633733  0.77777778  0.31235121  1.0
  Sc  Sc993  1  0.50967067  0.11111111  0.31235121  1.0
  Sc  Sc994  1  0.50967067  0.44444444  0.31235121  1.0
  Sc  Sc995  1  0.50967067  0.77777778  0.31235121  1.0
  Sc  Sc996  1  0.84300400  0.11111111  0.31235121  1.0
  Sc  Sc997  1  0.84300400  0.44444444  0.31235121  1.0
  Sc  Sc998  1  0.84300400  0.77777778  0.31235121  1.0
  Sc  Sc999  1  0.15699600  0.22222222  0.31235121  1.0
  Sc  Sc1000  1  0.15699600  0.55555556  0.31235121  1.0
  Sc  Sc1001  1  0.15699600  0.88888889  0.31235121  1.0
  Sc  Sc1002  1  0.49032933  0.22222222  0.31235121  1.0
  Sc  Sc1003  1  0.49032933  0.55555556  0.31235121  1.0
  Sc  Sc1004  1  0.49032933  0.88888889  0.31235121  1.0
  Sc  Sc1005  1  0.82366267  0.22222222  0.31235121  1.0
  Sc  Sc1006  1  0.82366267  0.55555556  0.31235121  1.0
  Sc  Sc1007  1  0.82366267  0.88888889  0.31235121  1.0
  Sc  Sc1008  1  0.05806600  0.22222222  0.31235121  1.0
  Sc  Sc1009  1  0.05806600  0.55555556  0.31235121  1.0
  Sc  Sc1010  1  0.05806600  0.88888889  0.31235121  1.0
  Sc  Sc1011  1  0.39139933  0.22222222  0.31235121  1.0
  Sc  Sc1012  1  0.39139933  0.55555556  0.31235121  1.0
  Sc  Sc1013  1  0.39139933  0.88888889  0.31235121  1.0
  Sc  Sc1014  1  0.72473267  0.22222222  0.31235121  1.0
  Sc  Sc1015  1  0.72473267  0.55555556  0.31235121  1.0
  Sc  Sc1016  1  0.72473267  0.88888889  0.31235121  1.0
  Sc  Sc1017  1  0.27526733  0.11111111  0.31235121  1.0
  Sc  Sc1018  1  0.27526733  0.44444444  0.31235121  1.0
  Sc  Sc1019  1  0.27526733  0.77777778  0.31235121  1.0
  Sc  Sc1020  1  0.60860067  0.11111111  0.31235121  1.0
  Sc  Sc1021  1  0.60860067  0.44444444  0.31235121  1.0
  Sc  Sc1022  1  0.60860067  0.77777778  0.31235121  1.0
  Sc  Sc1023  1  0.94193400  0.11111111  0.31235121  1.0
  Sc  Sc1024  1  0.94193400  0.44444444  0.31235121  1.0
  Sc  Sc1025  1  0.94193400  0.77777778  0.31235121  1.0
  Sc  Sc1026  1  0.22473267  0.11111111  0.31235121  1.0
  Sc  Sc1027  1  0.22473267  0.44444444  0.31235121  1.0
  Sc  Sc1028  1  0.22473267  0.77777778  0.31235121  1.0
  Sc  Sc1029  1  0.55806600  0.11111111  0.31235121  1.0
  Sc  Sc1030  1  0.55806600  0.44444444  0.31235121  1.0
  Sc  Sc1031  1  0.55806600  0.77777778  0.31235121  1.0
  Sc  Sc1032  1  0.89139933  0.11111111  0.31235121  1.0
  Sc  Sc1033  1  0.89139933  0.44444444  0.31235121  1.0
  Sc  Sc1034  1  0.89139933  0.77777778  0.31235121  1.0
  Sc  Sc1035  1  0.10860067  0.22222222  0.31235121  1.0
  Sc  Sc1036  1  0.10860067  0.55555556  0.31235121  1.0
  Sc  Sc1037  1  0.10860067  0.88888889  0.31235121  1.0
  Sc  Sc1038  1  0.44193400  0.22222222  0.31235121  1.0
  Sc  Sc1039  1  0.44193400  0.55555556  0.31235121  1.0
  Sc  Sc1040  1  0.44193400  0.88888889  0.31235121  1.0
  Sc  Sc1041  1  0.77526733  0.22222222  0.31235121  1.0
  Sc  Sc1042  1  0.77526733  0.55555556  0.31235121  1.0
  Sc  Sc1043  1  0.77526733  0.88888889  0.31235121  1.0
  Ni  Ni1044  1  0.00000000  0.00000000  0.31235121  1.0
  Ni  Ni1045  1  0.00000000  0.33333333  0.31235121  1.0
  Ni  Ni1046  1  0.00000000  0.66666667  0.31235121  1.0
  Ni  Ni1047  1  0.33333333  0.00000000  0.31235121  1.0
  Ni  Ni1048  1  0.33333333  0.33333333  0.31235121  1.0
  Ni  Ni1049  1  0.33333333  0.66666667  0.31235121  1.0
  Ni  Ni1050  1  0.66666667  0.00000000  0.31235121  1.0
  Ni  Ni1051  1  0.66666667  0.33333333  0.31235121  1.0
  Ni  Ni1052  1  0.66666667  0.66666667  0.31235121  1.0
  Ni  Ni1053  1  0.16666667  0.00000000  0.31235121  1.0
  Ni  Ni1054  1  0.16666667  0.33333333  0.31235121  1.0
  Ni  Ni1055  1  0.16666667  0.66666667  0.31235121  1.0
  Ni  Ni1056  1  0.50000000  0.00000000  0.31235121  1.0
  Ni  Ni1057  1  0.50000000  0.33333333  0.31235121  1.0
  Ni  Ni1058  1  0.50000000  0.66666667  0.31235121  1.0
  Ni  Ni1059  1  0.83333333  0.00000000  0.31235121  1.0
  Ni  Ni1060  1  0.83333333  0.33333333  0.31235121  1.0
  Ni  Ni1061  1  0.83333333  0.66666667  0.31235121  1.0
  Ni  Ni1062  1  0.08333333  0.22226267  0.27069971  1.0
  Ni  Ni1063  1  0.08333333  0.55559600  0.27069971  1.0
  Ni  Ni1064  1  0.08333333  0.88892933  0.27069971  1.0
  Ni  Ni1065  1  0.41666667  0.22226267  0.27069971  1.0
  Ni  Ni1066  1  0.41666667  0.55559600  0.27069971  1.0
  Ni  Ni1067  1  0.41666667  0.88892933  0.27069971  1.0
  Ni  Ni1068  1  0.75000000  0.22226267  0.27069971  1.0
  Ni  Ni1069  1  0.75000000  0.55559600  0.27069971  1.0
  Ni  Ni1070  1  0.75000000  0.88892933  0.27069971  1.0
  Ni  Ni1071  1  0.08333333  0.05553533  0.27066937  1.0
  Ni  Ni1072  1  0.08333333  0.38886867  0.27066937  1.0
  Ni  Ni1073  1  0.08333333  0.72220200  0.27066937  1.0
  Ni  Ni1074  1  0.41666667  0.05553533  0.27066937  1.0
  Ni  Ni1075  1  0.41666667  0.38886867  0.27066937  1.0
  Ni  Ni1076  1  0.41666667  0.72220200  0.27066937  1.0
  Ni  Ni1077  1  0.75000000  0.05553533  0.27066937  1.0
  Ni  Ni1078  1  0.75000000  0.38886867  0.27066937  1.0
  Ni  Ni1079  1  0.75000000  0.72220200  0.27066937  1.0
  Ni  Ni1080  1  0.08333333  0.05553533  0.31235121  1.0
  Ni  Ni1081  1  0.08333333  0.38886867  0.31235121  1.0
  Ni  Ni1082  1  0.08333333  0.72220200  0.31235121  1.0
  Ni  Ni1083  1  0.41666667  0.05553533  0.31235121  1.0
  Ni  Ni1084  1  0.41666667  0.38886867  0.31235121  1.0
  Ni  Ni1085  1  0.41666667  0.72220200  0.31235121  1.0
  Ni  Ni1086  1  0.75000000  0.05553533  0.31235121  1.0
  Ni  Ni1087  1  0.75000000  0.38886867  0.31235121  1.0
  Ni  Ni1088  1  0.75000000  0.72220200  0.31235121  1.0
  Ni  Ni1089  1  0.25000000  0.11107067  0.27066937  1.0
  Ni  Ni1090  1  0.25000000  0.44440400  0.27066937  1.0
  Ni  Ni1091  1  0.25000000  0.77773733  0.27066937  1.0
  Ni  Ni1092  1  0.58333333  0.11107067  0.27066937  1.0
  Ni  Ni1093  1  0.58333333  0.44440400  0.27066937  1.0
  Ni  Ni1094  1  0.58333333  0.77773733  0.27066937  1.0
  Ni  Ni1095  1  0.91666667  0.11107067  0.27066937  1.0
  Ni  Ni1096  1  0.91666667  0.44440400  0.27066937  1.0
  Ni  Ni1097  1  0.91666667  0.77773733  0.27066937  1.0
  Ni  Ni1098  1  0.25000000  0.27779800  0.27069971  1.0
  Ni  Ni1099  1  0.25000000  0.61113133  0.27069971  1.0
  Ni  Ni1100  1  0.25000000  0.94446467  0.27069971  1.0
  Ni  Ni1101  1  0.58333333  0.27779800  0.27069971  1.0
  Ni  Ni1102  1  0.58333333  0.61113133  0.27069971  1.0
  Ni  Ni1103  1  0.58333333  0.94446467  0.27069971  1.0
  Ni  Ni1104  1  0.91666667  0.27779800  0.27069971  1.0
  Ni  Ni1105  1  0.91666667  0.61113133  0.27069971  1.0
  Ni  Ni1106  1  0.91666667  0.94446467  0.27069971  1.0
  Ni  Ni1107  1  0.25000000  0.27779800  0.31235121  1.0
  Ni  Ni1108  1  0.25000000  0.61113133  0.31235121  1.0
  Ni  Ni1109  1  0.25000000  0.94446467  0.31235121  1.0
  Ni  Ni1110  1  0.58333333  0.27779800  0.31235121  1.0
  Ni  Ni1111  1  0.58333333  0.61113133  0.31235121  1.0
  Ni  Ni1112  1  0.58333333  0.94446467  0.31235121  1.0
  Ni  Ni1113  1  0.91666667  0.27779800  0.31235121  1.0
  Ni  Ni1114  1  0.91666667  0.61113133  0.31235121  1.0
  Ni  Ni1115  1  0.91666667  0.94446467  0.31235121  1.0
  Ni  Ni1116  1  0.02776067  0.22142867  0.27038696  1.0
  Ni  Ni1117  1  0.02776067  0.55476200  0.27038696  1.0
  Ni  Ni1118  1  0.02776067  0.88809533  0.27038696  1.0
  Ni  Ni1119  1  0.36109400  0.22142867  0.27038696  1.0
  Ni  Ni1120  1  0.36109400  0.55476200  0.27038696  1.0
  Ni  Ni1121  1  0.36109400  0.88809533  0.27038696  1.0
  Ni  Ni1122  1  0.69442733  0.22142867  0.27038696  1.0
  Ni  Ni1123  1  0.69442733  0.55476200  0.27038696  1.0
  Ni  Ni1124  1  0.69442733  0.88809533  0.27038696  1.0
  Ni  Ni1125  1  0.02776067  0.05595233  0.27098213  1.0
  Ni  Ni1126  1  0.02776067  0.38928567  0.27098213  1.0
  Ni  Ni1127  1  0.02776067  0.72261900  0.27098213  1.0
  Ni  Ni1128  1  0.36109400  0.05595233  0.27098213  1.0
  Ni  Ni1129  1  0.36109400  0.38928567  0.27098213  1.0
  Ni  Ni1130  1  0.36109400  0.72261900  0.27098213  1.0
  Ni  Ni1131  1  0.69442733  0.05595233  0.27098213  1.0
  Ni  Ni1132  1  0.69442733  0.38928567  0.27098213  1.0
  Ni  Ni1133  1  0.69442733  0.72261900  0.27098213  1.0
  Ni  Ni1134  1  0.02776067  0.05595233  0.31235121  1.0
  Ni  Ni1135  1  0.02776067  0.38928567  0.31235121  1.0
  Ni  Ni1136  1  0.02776067  0.72261900  0.31235121  1.0
  Ni  Ni1137  1  0.36109400  0.05595233  0.31235121  1.0
  Ni  Ni1138  1  0.36109400  0.38928567  0.31235121  1.0
  Ni  Ni1139  1  0.36109400  0.72261900  0.31235121  1.0
  Ni  Ni1140  1  0.69442733  0.05595233  0.31235121  1.0
  Ni  Ni1141  1  0.69442733  0.38928567  0.31235121  1.0
  Ni  Ni1142  1  0.69442733  0.72261900  0.31235121  1.0
  Ni  Ni1143  1  0.30557267  0.11190467  0.27098213  1.0
  Ni  Ni1144  1  0.30557267  0.44523800  0.27098213  1.0
  Ni  Ni1145  1  0.30557267  0.77857133  0.27098213  1.0
  Ni  Ni1146  1  0.63890600  0.11190467  0.27098213  1.0
  Ni  Ni1147  1  0.63890600  0.44523800  0.27098213  1.0
  Ni  Ni1148  1  0.63890600  0.77857133  0.27098213  1.0
  Ni  Ni1149  1  0.97223933  0.11190467  0.27098213  1.0
  Ni  Ni1150  1  0.97223933  0.44523800  0.27098213  1.0
  Ni  Ni1151  1  0.97223933  0.77857133  0.27098213  1.0
  Ni  Ni1152  1  0.30557267  0.27738100  0.27038696  1.0
  Ni  Ni1153  1  0.30557267  0.61071433  0.27038696  1.0
  Ni  Ni1154  1  0.30557267  0.94404767  0.27038696  1.0
  Ni  Ni1155  1  0.63890600  0.27738100  0.27038696  1.0
  Ni  Ni1156  1  0.63890600  0.61071433  0.27038696  1.0
  Ni  Ni1157  1  0.63890600  0.94404767  0.27038696  1.0
  Ni  Ni1158  1  0.97223933  0.27738100  0.27038696  1.0
  Ni  Ni1159  1  0.97223933  0.61071433  0.27038696  1.0
  Ni  Ni1160  1  0.97223933  0.94404767  0.27038696  1.0
  Ni  Ni1161  1  0.30557267  0.27738100  0.31235121  1.0
  Ni  Ni1162  1  0.30557267  0.61071433  0.31235121  1.0
  Ni  Ni1163  1  0.30557267  0.94404767  0.31235121  1.0
  Ni  Ni1164  1  0.63890600  0.27738100  0.31235121  1.0
  Ni  Ni1165  1  0.63890600  0.61071433  0.31235121  1.0
  Ni  Ni1166  1  0.63890600  0.94404767  0.31235121  1.0
  Ni  Ni1167  1  0.97223933  0.27738100  0.31235121  1.0
  Ni  Ni1168  1  0.97223933  0.61071433  0.31235121  1.0
  Ni  Ni1169  1  0.97223933  0.94404767  0.31235121  1.0
  Ni  Ni1170  1  0.19442733  0.11190467  0.27098213  1.0
  Ni  Ni1171  1  0.19442733  0.44523800  0.27098213  1.0
  Ni  Ni1172  1  0.19442733  0.77857133  0.27098213  1.0
  Ni  Ni1173  1  0.52776067  0.11190467  0.27098213  1.0
  Ni  Ni1174  1  0.52776067  0.44523800  0.27098213  1.0
  Ni  Ni1175  1  0.52776067  0.77857133  0.27098213  1.0
  Ni  Ni1176  1  0.86109400  0.11190467  0.27098213  1.0
  Ni  Ni1177  1  0.86109400  0.44523800  0.27098213  1.0
  Ni  Ni1178  1  0.86109400  0.77857133  0.27098213  1.0
  Ni  Ni1179  1  0.19442733  0.27738100  0.27038696  1.0
  Ni  Ni1180  1  0.19442733  0.61071433  0.27038696  1.0
  Ni  Ni1181  1  0.19442733  0.94404767  0.27038696  1.0
  Ni  Ni1182  1  0.52776067  0.27738100  0.27038696  1.0
  Ni  Ni1183  1  0.52776067  0.61071433  0.27038696  1.0
  Ni  Ni1184  1  0.52776067  0.94404767  0.27038696  1.0
  Ni  Ni1185  1  0.86109400  0.27738100  0.27038696  1.0
  Ni  Ni1186  1  0.86109400  0.61071433  0.27038696  1.0
  Ni  Ni1187  1  0.86109400  0.94404767  0.27038696  1.0
  Ni  Ni1188  1  0.19442733  0.27738100  0.31235121  1.0
  Ni  Ni1189  1  0.19442733  0.61071433  0.31235121  1.0
  Ni  Ni1190  1  0.19442733  0.94404767  0.31235121  1.0
  Ni  Ni1191  1  0.52776067  0.27738100  0.31235121  1.0
  Ni  Ni1192  1  0.52776067  0.61071433  0.31235121  1.0
  Ni  Ni1193  1  0.52776067  0.94404767  0.31235121  1.0
  Ni  Ni1194  1  0.86109400  0.27738100  0.31235121  1.0
  Ni  Ni1195  1  0.86109400  0.61071433  0.31235121  1.0
  Ni  Ni1196  1  0.86109400  0.94404767  0.31235121  1.0
  Ni  Ni1197  1  0.13890600  0.22142867  0.27038696  1.0
  Ni  Ni1198  1  0.13890600  0.55476200  0.27038696  1.0
  Ni  Ni1199  1  0.13890600  0.88809533  0.27038696  1.0
  Ni  Ni1200  1  0.47223933  0.22142867  0.27038696  1.0
  Ni  Ni1201  1  0.47223933  0.55476200  0.27038696  1.0
  Ni  Ni1202  1  0.47223933  0.88809533  0.27038696  1.0
  Ni  Ni1203  1  0.80557267  0.22142867  0.27038696  1.0
  Ni  Ni1204  1  0.80557267  0.55476200  0.27038696  1.0
  Ni  Ni1205  1  0.80557267  0.88809533  0.27038696  1.0
  Ni  Ni1206  1  0.13890600  0.05595233  0.27098213  1.0
  Ni  Ni1207  1  0.13890600  0.38928567  0.27098213  1.0
  Ni  Ni1208  1  0.13890600  0.72261900  0.27098213  1.0
  Ni  Ni1209  1  0.47223933  0.05595233  0.27098213  1.0
  Ni  Ni1210  1  0.47223933  0.38928567  0.27098213  1.0
  Ni  Ni1211  1  0.47223933  0.72261900  0.27098213  1.0
  Ni  Ni1212  1  0.80557267  0.05595233  0.27098213  1.0
  Ni  Ni1213  1  0.80557267  0.38928567  0.27098213  1.0
  Ni  Ni1214  1  0.80557267  0.72261900  0.27098213  1.0
  Ni  Ni1215  1  0.13890600  0.05595233  0.31235121  1.0
  Ni  Ni1216  1  0.13890600  0.38928567  0.31235121  1.0
  Ni  Ni1217  1  0.13890600  0.72261900  0.31235121  1.0
  Ni  Ni1218  1  0.47223933  0.05595233  0.31235121  1.0
  Ni  Ni1219  1  0.47223933  0.38928567  0.31235121  1.0
  Ni  Ni1220  1  0.47223933  0.72261900  0.31235121  1.0
  Ni  Ni1221  1  0.80557267  0.05595233  0.31235121  1.0
  Ni  Ni1222  1  0.80557267  0.38928567  0.31235121  1.0
  Ni  Ni1223  1  0.80557267  0.72261900  0.31235121  1.0
  Ni  Ni1224  1  0.05547267  0.00000000  0.31235121  1.0
  Ni  Ni1225  1  0.05547267  0.33333333  0.31235121  1.0
  Ni  Ni1226  1  0.05547267  0.66666667  0.31235121  1.0
  Ni  Ni1227  1  0.38880600  0.00000000  0.31235121  1.0
  Ni  Ni1228  1  0.38880600  0.33333333  0.31235121  1.0
  Ni  Ni1229  1  0.38880600  0.66666667  0.31235121  1.0
  Ni  Ni1230  1  0.72213933  0.00000000  0.31235121  1.0
  Ni  Ni1231  1  0.72213933  0.33333333  0.31235121  1.0
  Ni  Ni1232  1  0.72213933  0.66666667  0.31235121  1.0
  Ni  Ni1233  1  0.27786067  0.00000000  0.31235121  1.0
  Ni  Ni1234  1  0.27786067  0.33333333  0.31235121  1.0
  Ni  Ni1235  1  0.27786067  0.66666667  0.31235121  1.0
  Ni  Ni1236  1  0.61119400  0.00000000  0.31235121  1.0
  Ni  Ni1237  1  0.61119400  0.33333333  0.31235121  1.0
  Ni  Ni1238  1  0.61119400  0.66666667  0.31235121  1.0
  Ni  Ni1239  1  0.94452733  0.00000000  0.31235121  1.0
  Ni  Ni1240  1  0.94452733  0.33333333  0.31235121  1.0
  Ni  Ni1241  1  0.94452733  0.66666667  0.31235121  1.0
  Ni  Ni1242  1  0.22213933  0.00000000  0.31235121  1.0
  Ni  Ni1243  1  0.22213933  0.33333333  0.31235121  1.0
  Ni  Ni1244  1  0.22213933  0.66666667  0.31235121  1.0
  Ni  Ni1245  1  0.55547267  0.00000000  0.31235121  1.0
  Ni  Ni1246  1  0.55547267  0.33333333  0.31235121  1.0
  Ni  Ni1247  1  0.55547267  0.66666667  0.31235121  1.0
  Ni  Ni1248  1  0.88880600  0.00000000  0.31235121  1.0
  Ni  Ni1249  1  0.88880600  0.33333333  0.31235121  1.0
  Ni  Ni1250  1  0.88880600  0.66666667  0.31235121  1.0
  Ni  Ni1251  1  0.11119400  0.00000000  0.31235121  1.0
  Ni  Ni1252  1  0.11119400  0.33333333  0.31235121  1.0
  Ni  Ni1253  1  0.11119400  0.66666667  0.31235121  1.0
  Ni  Ni1254  1  0.44452733  0.00000000  0.31235121  1.0
  Ni  Ni1255  1  0.44452733  0.33333333  0.31235121  1.0
  Ni  Ni1256  1  0.44452733  0.66666667  0.31235121  1.0
  Ni  Ni1257  1  0.77786067  0.00000000  0.31235121  1.0
  Ni  Ni1258  1  0.77786067  0.33333333  0.31235121  1.0
  Ni  Ni1259  1  0.77786067  0.66666667  0.31235121  1.0
  Ni  Ni1260  1  0.27779467  0.22222222  0.31235121  1.0
  Ni  Ni1261  1  0.27779467  0.55555556  0.31235121  1.0
  Ni  Ni1262  1  0.27779467  0.88888889  0.31235121  1.0
  Ni  Ni1263  1  0.61112800  0.22222222  0.31235121  1.0
  Ni  Ni1264  1  0.61112800  0.55555556  0.31235121  1.0
  Ni  Ni1265  1  0.61112800  0.88888889  0.31235121  1.0
  Ni  Ni1266  1  0.94446133  0.22222222  0.31235121  1.0
  Ni  Ni1267  1  0.94446133  0.55555556  0.31235121  1.0
  Ni  Ni1268  1  0.94446133  0.88888889  0.31235121  1.0
  Ni  Ni1269  1  0.05553867  0.11111111  0.31235121  1.0
  Ni  Ni1270  1  0.05553867  0.44444444  0.31235121  1.0
  Ni  Ni1271  1  0.05553867  0.77777778  0.31235121  1.0
  Ni  Ni1272  1  0.38887200  0.11111111  0.31235121  1.0
  Ni  Ni1273  1  0.38887200  0.44444444  0.31235121  1.0
  Ni  Ni1274  1  0.38887200  0.77777778  0.31235121  1.0
  Ni  Ni1275  1  0.72220533  0.11111111  0.31235121  1.0
  Ni  Ni1276  1  0.72220533  0.44444444  0.31235121  1.0
  Ni  Ni1277  1  0.72220533  0.77777778  0.31235121  1.0
  Ni  Ni1278  1  0.11111111  0.11111111  0.31235121  1.0
  Ni  Ni1279  1  0.11111111  0.44444444  0.31235121  1.0
  Ni  Ni1280  1  0.11111111  0.77777778  0.31235121  1.0
  Ni  Ni1281  1  0.44444444  0.11111111  0.31235121  1.0
  Ni  Ni1282  1  0.44444444  0.44444444  0.31235121  1.0
  Ni  Ni1283  1  0.44444444  0.77777778  0.31235121  1.0
  Ni  Ni1284  1  0.77777778  0.11111111  0.31235121  1.0
  Ni  Ni1285  1  0.77777778  0.44444444  0.31235121  1.0
  Ni  Ni1286  1  0.77777778  0.77777778  0.31235121  1.0
  Ni  Ni1287  1  0.22220533  0.22222222  0.31235121  1.0
  Ni  Ni1288  1  0.22220533  0.55555556  0.31235121  1.0
  Ni  Ni1289  1  0.22220533  0.88888889  0.31235121  1.0
  Ni  Ni1290  1  0.55553867  0.22222222  0.31235121  1.0
  Ni  Ni1291  1  0.55553867  0.55555556  0.31235121  1.0
  Ni  Ni1292  1  0.55553867  0.88888889  0.31235121  1.0
  Ni  Ni1293  1  0.88887200  0.22222222  0.31235121  1.0
  Ni  Ni1294  1  0.88887200  0.55555556  0.31235121  1.0
  Ni  Ni1295  1  0.88887200  0.88888889  0.31235121  1.0
  Sc  Sc1296  1  0.00967067  0.22222222  0.39568454  1.0
  Sc  Sc1297  1  0.00967067  0.55555556  0.39568454  1.0
  Sc  Sc1298  1  0.00967067  0.88888889  0.39568454  1.0
  Sc  Sc1299  1  0.34300400  0.22222222  0.39568454  1.0
  Sc  Sc1300  1  0.34300400  0.55555556  0.39568454  1.0
  Sc  Sc1301  1  0.34300400  0.88888889  0.39568454  1.0
  Sc  Sc1302  1  0.67633733  0.22222222  0.39568454  1.0
  Sc  Sc1303  1  0.67633733  0.55555556  0.39568454  1.0
  Sc  Sc1304  1  0.67633733  0.88888889  0.39568454  1.0
  Sc  Sc1305  1  0.32366267  0.11111111  0.39568454  1.0
  Sc  Sc1306  1  0.32366267  0.44444444  0.39568454  1.0
  Sc  Sc1307  1  0.32366267  0.77777778  0.39568454  1.0
  Sc  Sc1308  1  0.65699600  0.11111111  0.39568454  1.0
  Sc  Sc1309  1  0.65699600  0.44444444  0.39568454  1.0
  Sc  Sc1310  1  0.65699600  0.77777778  0.39568454  1.0
  Sc  Sc1311  1  0.99032933  0.11111111  0.39568454  1.0
  Sc  Sc1312  1  0.99032933  0.44444444  0.39568454  1.0
  Sc  Sc1313  1  0.99032933  0.77777778  0.39568454  1.0
  Sc  Sc1314  1  0.17633733  0.11111111  0.39568454  1.0
  Sc  Sc1315  1  0.17633733  0.44444444  0.39568454  1.0
  Sc  Sc1316  1  0.17633733  0.77777778  0.39568454  1.0
  Sc  Sc1317  1  0.50967067  0.11111111  0.39568454  1.0
  Sc  Sc1318  1  0.50967067  0.44444444  0.39568454  1.0
  Sc  Sc1319  1  0.50967067  0.77777778  0.39568454  1.0
  Sc  Sc1320  1  0.84300400  0.11111111  0.39568454  1.0
  Sc  Sc1321  1  0.84300400  0.44444444  0.39568454  1.0
  Sc  Sc1322  1  0.84300400  0.77777778  0.39568454  1.0
  Sc  Sc1323  1  0.15699600  0.22222222  0.39568454  1.0
  Sc  Sc1324  1  0.15699600  0.55555556  0.39568454  1.0
  Sc  Sc1325  1  0.15699600  0.88888889  0.39568454  1.0
  Sc  Sc1326  1  0.49032933  0.22222222  0.39568454  1.0
  Sc  Sc1327  1  0.49032933  0.55555556  0.39568454  1.0
  Sc  Sc1328  1  0.49032933  0.88888889  0.39568454  1.0
  Sc  Sc1329  1  0.82366267  0.22222222  0.39568454  1.0
  Sc  Sc1330  1  0.82366267  0.55555556  0.39568454  1.0
  Sc  Sc1331  1  0.82366267  0.88888889  0.39568454  1.0
  Sc  Sc1332  1  0.05806600  0.22222222  0.39568454  1.0
  Sc  Sc1333  1  0.05806600  0.55555556  0.39568454  1.0
  Sc  Sc1334  1  0.05806600  0.88888889  0.39568454  1.0
  Sc  Sc1335  1  0.39139933  0.22222222  0.39568454  1.0
  Sc  Sc1336  1  0.39139933  0.55555556  0.39568454  1.0
  Sc  Sc1337  1  0.39139933  0.88888889  0.39568454  1.0
  Sc  Sc1338  1  0.72473267  0.22222222  0.39568454  1.0
  Sc  Sc1339  1  0.72473267  0.55555556  0.39568454  1.0
  Sc  Sc1340  1  0.72473267  0.88888889  0.39568454  1.0
  Sc  Sc1341  1  0.27526733  0.11111111  0.39568454  1.0
  Sc  Sc1342  1  0.27526733  0.44444444  0.39568454  1.0
  Sc  Sc1343  1  0.27526733  0.77777778  0.39568454  1.0
  Sc  Sc1344  1  0.60860067  0.11111111  0.39568454  1.0
  Sc  Sc1345  1  0.60860067  0.44444444  0.39568454  1.0
  Sc  Sc1346  1  0.60860067  0.77777778  0.39568454  1.0
  Sc  Sc1347  1  0.94193400  0.11111111  0.39568454  1.0
  Sc  Sc1348  1  0.94193400  0.44444444  0.39568454  1.0
  Sc  Sc1349  1  0.94193400  0.77777778  0.39568454  1.0
  Sc  Sc1350  1  0.22473267  0.11111111  0.39568454  1.0
  Sc  Sc1351  1  0.22473267  0.44444444  0.39568454  1.0
  Sc  Sc1352  1  0.22473267  0.77777778  0.39568454  1.0
  Sc  Sc1353  1  0.55806600  0.11111111  0.39568454  1.0
  Sc  Sc1354  1  0.55806600  0.44444444  0.39568454  1.0
  Sc  Sc1355  1  0.55806600  0.77777778  0.39568454  1.0
  Sc  Sc1356  1  0.89139933  0.11111111  0.39568454  1.0
  Sc  Sc1357  1  0.89139933  0.44444444  0.39568454  1.0
  Sc  Sc1358  1  0.89139933  0.77777778  0.39568454  1.0
  Sc  Sc1359  1  0.10860067  0.22222222  0.39568454  1.0
  Sc  Sc1360  1  0.10860067  0.55555556  0.39568454  1.0
  Sc  Sc1361  1  0.10860067  0.88888889  0.39568454  1.0
  Sc  Sc1362  1  0.44193400  0.22222222  0.39568454  1.0
  Sc  Sc1363  1  0.44193400  0.55555556  0.39568454  1.0
  Sc  Sc1364  1  0.44193400  0.88888889  0.39568454  1.0
  Sc  Sc1365  1  0.77526733  0.22222222  0.39568454  1.0
  Sc  Sc1366  1  0.77526733  0.55555556  0.39568454  1.0
  Sc  Sc1367  1  0.77526733  0.88888889  0.39568454  1.0
  Ni  Ni1368  1  0.00000000  0.00000000  0.39568454  1.0
  Ni  Ni1369  1  0.00000000  0.33333333  0.39568454  1.0
  Ni  Ni1370  1  0.00000000  0.66666667  0.39568454  1.0
  Ni  Ni1371  1  0.33333333  0.00000000  0.39568454  1.0
  Ni  Ni1372  1  0.33333333  0.33333333  0.39568454  1.0
  Ni  Ni1373  1  0.33333333  0.66666667  0.39568454  1.0
  Ni  Ni1374  1  0.66666667  0.00000000  0.39568454  1.0
  Ni  Ni1375  1  0.66666667  0.33333333  0.39568454  1.0
  Ni  Ni1376  1  0.66666667  0.66666667  0.39568454  1.0
  Ni  Ni1377  1  0.16666667  0.00000000  0.39568454  1.0
  Ni  Ni1378  1  0.16666667  0.33333333  0.39568454  1.0
  Ni  Ni1379  1  0.16666667  0.66666667  0.39568454  1.0
  Ni  Ni1380  1  0.50000000  0.00000000  0.39568454  1.0
  Ni  Ni1381  1  0.50000000  0.33333333  0.39568454  1.0
  Ni  Ni1382  1  0.50000000  0.66666667  0.39568454  1.0
  Ni  Ni1383  1  0.83333333  0.00000000  0.39568454  1.0
  Ni  Ni1384  1  0.83333333  0.33333333  0.39568454  1.0
  Ni  Ni1385  1  0.83333333  0.66666667  0.39568454  1.0
  Ni  Ni1386  1  0.08333333  0.22226267  0.35403304  1.0
  Ni  Ni1387  1  0.08333333  0.55559600  0.35403304  1.0
  Ni  Ni1388  1  0.08333333  0.88892933  0.35403304  1.0
  Ni  Ni1389  1  0.41666667  0.22226267  0.35403304  1.0
  Ni  Ni1390  1  0.41666667  0.55559600  0.35403304  1.0
  Ni  Ni1391  1  0.41666667  0.88892933  0.35403304  1.0
  Ni  Ni1392  1  0.75000000  0.22226267  0.35403304  1.0
  Ni  Ni1393  1  0.75000000  0.55559600  0.35403304  1.0
  Ni  Ni1394  1  0.75000000  0.88892933  0.35403304  1.0
  Ni  Ni1395  1  0.08333333  0.05553533  0.35400271  1.0
  Ni  Ni1396  1  0.08333333  0.38886867  0.35400271  1.0
  Ni  Ni1397  1  0.08333333  0.72220200  0.35400271  1.0
  Ni  Ni1398  1  0.41666667  0.05553533  0.35400271  1.0
  Ni  Ni1399  1  0.41666667  0.38886867  0.35400271  1.0
  Ni  Ni1400  1  0.41666667  0.72220200  0.35400271  1.0
  Ni  Ni1401  1  0.75000000  0.05553533  0.35400271  1.0
  Ni  Ni1402  1  0.75000000  0.38886867  0.35400271  1.0
  Ni  Ni1403  1  0.75000000  0.72220200  0.35400271  1.0
  Ni  Ni1404  1  0.08333333  0.05553533  0.39568454  1.0
  Ni  Ni1405  1  0.08333333  0.38886867  0.39568454  1.0
  Ni  Ni1406  1  0.08333333  0.72220200  0.39568454  1.0
  Ni  Ni1407  1  0.41666667  0.05553533  0.39568454  1.0
  Ni  Ni1408  1  0.41666667  0.38886867  0.39568454  1.0
  Ni  Ni1409  1  0.41666667  0.72220200  0.39568454  1.0
  Ni  Ni1410  1  0.75000000  0.05553533  0.39568454  1.0
  Ni  Ni1411  1  0.75000000  0.38886867  0.39568454  1.0
  Ni  Ni1412  1  0.75000000  0.72220200  0.39568454  1.0
  Ni  Ni1413  1  0.25000000  0.11107067  0.35400271  1.0
  Ni  Ni1414  1  0.25000000  0.44440400  0.35400271  1.0
  Ni  Ni1415  1  0.25000000  0.77773733  0.35400271  1.0
  Ni  Ni1416  1  0.58333333  0.11107067  0.35400271  1.0
  Ni  Ni1417  1  0.58333333  0.44440400  0.35400271  1.0
  Ni  Ni1418  1  0.58333333  0.77773733  0.35400271  1.0
  Ni  Ni1419  1  0.91666667  0.11107067  0.35400271  1.0
  Ni  Ni1420  1  0.91666667  0.44440400  0.35400271  1.0
  Ni  Ni1421  1  0.91666667  0.77773733  0.35400271  1.0
  Ni  Ni1422  1  0.25000000  0.27779800  0.35403304  1.0
  Ni  Ni1423  1  0.25000000  0.61113133  0.35403304  1.0
  Ni  Ni1424  1  0.25000000  0.94446467  0.35403304  1.0
  Ni  Ni1425  1  0.58333333  0.27779800  0.35403304  1.0
  Ni  Ni1426  1  0.58333333  0.61113133  0.35403304  1.0
  Ni  Ni1427  1  0.58333333  0.94446467  0.35403304  1.0
  Ni  Ni1428  1  0.91666667  0.27779800  0.35403304  1.0
  Ni  Ni1429  1  0.91666667  0.61113133  0.35403304  1.0
  Ni  Ni1430  1  0.91666667  0.94446467  0.35403304  1.0
  Ni  Ni1431  1  0.25000000  0.27779800  0.39568454  1.0
  Ni  Ni1432  1  0.25000000  0.61113133  0.39568454  1.0
  Ni  Ni1433  1  0.25000000  0.94446467  0.39568454  1.0
  Ni  Ni1434  1  0.58333333  0.27779800  0.39568454  1.0
  Ni  Ni1435  1  0.58333333  0.61113133  0.39568454  1.0
  Ni  Ni1436  1  0.58333333  0.94446467  0.39568454  1.0
  Ni  Ni1437  1  0.91666667  0.27779800  0.39568454  1.0
  Ni  Ni1438  1  0.91666667  0.61113133  0.39568454  1.0
  Ni  Ni1439  1  0.91666667  0.94446467  0.39568454  1.0
  Ni  Ni1440  1  0.02776067  0.22142867  0.35372029  1.0
  Ni  Ni1441  1  0.02776067  0.55476200  0.35372029  1.0
  Ni  Ni1442  1  0.02776067  0.88809533  0.35372029  1.0
  Ni  Ni1443  1  0.36109400  0.22142867  0.35372029  1.0
  Ni  Ni1444  1  0.36109400  0.55476200  0.35372029  1.0
  Ni  Ni1445  1  0.36109400  0.88809533  0.35372029  1.0
  Ni  Ni1446  1  0.69442733  0.22142867  0.35372029  1.0
  Ni  Ni1447  1  0.69442733  0.55476200  0.35372029  1.0
  Ni  Ni1448  1  0.69442733  0.88809533  0.35372029  1.0
  Ni  Ni1449  1  0.02776067  0.05595233  0.35431546  1.0
  Ni  Ni1450  1  0.02776067  0.38928567  0.35431546  1.0
  Ni  Ni1451  1  0.02776067  0.72261900  0.35431546  1.0
  Ni  Ni1452  1  0.36109400  0.05595233  0.35431546  1.0
  Ni  Ni1453  1  0.36109400  0.38928567  0.35431546  1.0
  Ni  Ni1454  1  0.36109400  0.72261900  0.35431546  1.0
  Ni  Ni1455  1  0.69442733  0.05595233  0.35431546  1.0
  Ni  Ni1456  1  0.69442733  0.38928567  0.35431546  1.0
  Ni  Ni1457  1  0.69442733  0.72261900  0.35431546  1.0
  Ni  Ni1458  1  0.02776067  0.05595233  0.39568454  1.0
  Ni  Ni1459  1  0.02776067  0.38928567  0.39568454  1.0
  Ni  Ni1460  1  0.02776067  0.72261900  0.39568454  1.0
  Ni  Ni1461  1  0.36109400  0.05595233  0.39568454  1.0
  Ni  Ni1462  1  0.36109400  0.38928567  0.39568454  1.0
  Ni  Ni1463  1  0.36109400  0.72261900  0.39568454  1.0
  Ni  Ni1464  1  0.69442733  0.05595233  0.39568454  1.0
  Ni  Ni1465  1  0.69442733  0.38928567  0.39568454  1.0
  Ni  Ni1466  1  0.69442733  0.72261900  0.39568454  1.0
  Ni  Ni1467  1  0.30557267  0.11190467  0.35431546  1.0
  Ni  Ni1468  1  0.30557267  0.44523800  0.35431546  1.0
  Ni  Ni1469  1  0.30557267  0.77857133  0.35431546  1.0
  Ni  Ni1470  1  0.63890600  0.11190467  0.35431546  1.0
  Ni  Ni1471  1  0.63890600  0.44523800  0.35431546  1.0
  Ni  Ni1472  1  0.63890600  0.77857133  0.35431546  1.0
  Ni  Ni1473  1  0.97223933  0.11190467  0.35431546  1.0
  Ni  Ni1474  1  0.97223933  0.44523800  0.35431546  1.0
  Ni  Ni1475  1  0.97223933  0.77857133  0.35431546  1.0
  Ni  Ni1476  1  0.30557267  0.27738100  0.35372029  1.0
  Ni  Ni1477  1  0.30557267  0.61071433  0.35372029  1.0
  Ni  Ni1478  1  0.30557267  0.94404767  0.35372029  1.0
  Ni  Ni1479  1  0.63890600  0.27738100  0.35372029  1.0
  Ni  Ni1480  1  0.63890600  0.61071433  0.35372029  1.0
  Ni  Ni1481  1  0.63890600  0.94404767  0.35372029  1.0
  Ni  Ni1482  1  0.97223933  0.27738100  0.35372029  1.0
  Ni  Ni1483  1  0.97223933  0.61071433  0.35372029  1.0
  Ni  Ni1484  1  0.97223933  0.94404767  0.35372029  1.0
  Ni  Ni1485  1  0.30557267  0.27738100  0.39568454  1.0
  Ni  Ni1486  1  0.30557267  0.61071433  0.39568454  1.0
  Ni  Ni1487  1  0.30557267  0.94404767  0.39568454  1.0
  Ni  Ni1488  1  0.63890600  0.27738100  0.39568454  1.0
  Ni  Ni1489  1  0.63890600  0.61071433  0.39568454  1.0
  Ni  Ni1490  1  0.63890600  0.94404767  0.39568454  1.0
  Ni  Ni1491  1  0.97223933  0.27738100  0.39568454  1.0
  Ni  Ni1492  1  0.97223933  0.61071433  0.39568454  1.0
  Ni  Ni1493  1  0.97223933  0.94404767  0.39568454  1.0
  Ni  Ni1494  1  0.19442733  0.11190467  0.35431546  1.0
  Ni  Ni1495  1  0.19442733  0.44523800  0.35431546  1.0
  Ni  Ni1496  1  0.19442733  0.77857133  0.35431546  1.0
  Ni  Ni1497  1  0.52776067  0.11190467  0.35431546  1.0
  Ni  Ni1498  1  0.52776067  0.44523800  0.35431546  1.0
  Ni  Ni1499  1  0.52776067  0.77857133  0.35431546  1.0
  Ni  Ni1500  1  0.86109400  0.11190467  0.35431546  1.0
  Ni  Ni1501  1  0.86109400  0.44523800  0.35431546  1.0
  Ni  Ni1502  1  0.86109400  0.77857133  0.35431546  1.0
  Ni  Ni1503  1  0.19442733  0.27738100  0.35372029  1.0
  Ni  Ni1504  1  0.19442733  0.61071433  0.35372029  1.0
  Ni  Ni1505  1  0.19442733  0.94404767  0.35372029  1.0
  Ni  Ni1506  1  0.52776067  0.27738100  0.35372029  1.0
  Ni  Ni1507  1  0.52776067  0.61071433  0.35372029  1.0
  Ni  Ni1508  1  0.52776067  0.94404767  0.35372029  1.0
  Ni  Ni1509  1  0.86109400  0.27738100  0.35372029  1.0
  Ni  Ni1510  1  0.86109400  0.61071433  0.35372029  1.0
  Ni  Ni1511  1  0.86109400  0.94404767  0.35372029  1.0
  Ni  Ni1512  1  0.19442733  0.27738100  0.39568454  1.0
  Ni  Ni1513  1  0.19442733  0.61071433  0.39568454  1.0
  Ni  Ni1514  1  0.19442733  0.94404767  0.39568454  1.0
  Ni  Ni1515  1  0.52776067  0.27738100  0.39568454  1.0
  Ni  Ni1516  1  0.52776067  0.61071433  0.39568454  1.0
  Ni  Ni1517  1  0.52776067  0.94404767  0.39568454  1.0
  Ni  Ni1518  1  0.86109400  0.27738100  0.39568454  1.0
  Ni  Ni1519  1  0.86109400  0.61071433  0.39568454  1.0
  Ni  Ni1520  1  0.86109400  0.94404767  0.39568454  1.0
  Ni  Ni1521  1  0.13890600  0.22142867  0.35372029  1.0
  Ni  Ni1522  1  0.13890600  0.55476200  0.35372029  1.0
  Ni  Ni1523  1  0.13890600  0.88809533  0.35372029  1.0
  Ni  Ni1524  1  0.47223933  0.22142867  0.35372029  1.0
  Ni  Ni1525  1  0.47223933  0.55476200  0.35372029  1.0
  Ni  Ni1526  1  0.47223933  0.88809533  0.35372029  1.0
  Ni  Ni1527  1  0.80557267  0.22142867  0.35372029  1.0
  Ni  Ni1528  1  0.80557267  0.55476200  0.35372029  1.0
  Ni  Ni1529  1  0.80557267  0.88809533  0.35372029  1.0
  Ni  Ni1530  1  0.13890600  0.05595233  0.35431546  1.0
  Ni  Ni1531  1  0.13890600  0.38928567  0.35431546  1.0
  Ni  Ni1532  1  0.13890600  0.72261900  0.35431546  1.0
  Ni  Ni1533  1  0.47223933  0.05595233  0.35431546  1.0
  Ni  Ni1534  1  0.47223933  0.38928567  0.35431546  1.0
  Ni  Ni1535  1  0.47223933  0.72261900  0.35431546  1.0
  Ni  Ni1536  1  0.80557267  0.05595233  0.35431546  1.0
  Ni  Ni1537  1  0.80557267  0.38928567  0.35431546  1.0
  Ni  Ni1538  1  0.80557267  0.72261900  0.35431546  1.0
  Ni  Ni1539  1  0.13890600  0.05595233  0.39568454  1.0
  Ni  Ni1540  1  0.13890600  0.38928567  0.39568454  1.0
  Ni  Ni1541  1  0.13890600  0.72261900  0.39568454  1.0
  Ni  Ni1542  1  0.47223933  0.05595233  0.39568454  1.0
  Ni  Ni1543  1  0.47223933  0.38928567  0.39568454  1.0
  Ni  Ni1544  1  0.47223933  0.72261900  0.39568454  1.0
  Ni  Ni1545  1  0.80557267  0.05595233  0.39568454  1.0
  Ni  Ni1546  1  0.80557267  0.38928567  0.39568454  1.0
  Ni  Ni1547  1  0.80557267  0.72261900  0.39568454  1.0
  Ni  Ni1548  1  0.05547267  0.00000000  0.39568454  1.0
  Ni  Ni1549  1  0.05547267  0.33333333  0.39568454  1.0
  Ni  Ni1550  1  0.05547267  0.66666667  0.39568454  1.0
  Ni  Ni1551  1  0.38880600  0.00000000  0.39568454  1.0
  Ni  Ni1552  1  0.38880600  0.33333333  0.39568454  1.0
  Ni  Ni1553  1  0.38880600  0.66666667  0.39568454  1.0
  Ni  Ni1554  1  0.72213933  0.00000000  0.39568454  1.0
  Ni  Ni1555  1  0.72213933  0.33333333  0.39568454  1.0
  Ni  Ni1556  1  0.72213933  0.66666667  0.39568454  1.0
  Ni  Ni1557  1  0.27786067  0.00000000  0.39568454  1.0
  Ni  Ni1558  1  0.27786067  0.33333333  0.39568454  1.0
  Ni  Ni1559  1  0.27786067  0.66666667  0.39568454  1.0
  Ni  Ni1560  1  0.61119400  0.00000000  0.39568454  1.0
  Ni  Ni1561  1  0.61119400  0.33333333  0.39568454  1.0
  Ni  Ni1562  1  0.61119400  0.66666667  0.39568454  1.0
  Ni  Ni1563  1  0.94452733  0.00000000  0.39568454  1.0
  Ni  Ni1564  1  0.94452733  0.33333333  0.39568454  1.0
  Ni  Ni1565  1  0.94452733  0.66666667  0.39568454  1.0
  Ni  Ni1566  1  0.22213933  0.00000000  0.39568454  1.0
  Ni  Ni1567  1  0.22213933  0.33333333  0.39568454  1.0
  Ni  Ni1568  1  0.22213933  0.66666667  0.39568454  1.0
  Ni  Ni1569  1  0.55547267  0.00000000  0.39568454  1.0
  Ni  Ni1570  1  0.55547267  0.33333333  0.39568454  1.0
  Ni  Ni1571  1  0.55547267  0.66666667  0.39568454  1.0
  Ni  Ni1572  1  0.88880600  0.00000000  0.39568454  1.0
  Ni  Ni1573  1  0.88880600  0.33333333  0.39568454  1.0
  Ni  Ni1574  1  0.88880600  0.66666667  0.39568454  1.0
  Ni  Ni1575  1  0.11119400  0.00000000  0.39568454  1.0
  Ni  Ni1576  1  0.11119400  0.33333333  0.39568454  1.0
  Ni  Ni1577  1  0.11119400  0.66666667  0.39568454  1.0
  Ni  Ni1578  1  0.44452733  0.00000000  0.39568454  1.0
  Ni  Ni1579  1  0.44452733  0.33333333  0.39568454  1.0
  Ni  Ni1580  1  0.44452733  0.66666667  0.39568454  1.0
  Ni  Ni1581  1  0.77786067  0.00000000  0.39568454  1.0
  Ni  Ni1582  1  0.77786067  0.33333333  0.39568454  1.0
  Ni  Ni1583  1  0.77786067  0.66666667  0.39568454  1.0
  Ni  Ni1584  1  0.27779467  0.22222222  0.39568454  1.0
  Ni  Ni1585  1  0.27779467  0.55555556  0.39568454  1.0
  Ni  Ni1586  1  0.27779467  0.88888889  0.39568454  1.0
  Ni  Ni1587  1  0.61112800  0.22222222  0.39568454  1.0
  Ni  Ni1588  1  0.61112800  0.55555556  0.39568454  1.0
  Ni  Ni1589  1  0.61112800  0.88888889  0.39568454  1.0
  Ni  Ni1590  1  0.94446133  0.22222222  0.39568454  1.0
  Ni  Ni1591  1  0.94446133  0.55555556  0.39568454  1.0
  Ni  Ni1592  1  0.94446133  0.88888889  0.39568454  1.0
  Ni  Ni1593  1  0.05553867  0.11111111  0.39568454  1.0
  Ni  Ni1594  1  0.05553867  0.44444444  0.39568454  1.0
  Ni  Ni1595  1  0.05553867  0.77777778  0.39568454  1.0
  Ni  Ni1596  1  0.38887200  0.11111111  0.39568454  1.0
  Ni  Ni1597  1  0.38887200  0.44444444  0.39568454  1.0
  Ni  Ni1598  1  0.38887200  0.77777778  0.39568454  1.0
  Ni  Ni1599  1  0.72220533  0.11111111  0.39568454  1.0
  Ni  Ni1600  1  0.72220533  0.44444444  0.39568454  1.0
  Ni  Ni1601  1  0.72220533  0.77777778  0.39568454  1.0
  Ni  Ni1602  1  0.11111111  0.11111111  0.39568454  1.0
  Ni  Ni1603  1  0.11111111  0.44444444  0.39568454  1.0
  Ni  Ni1604  1  0.11111111  0.77777778  0.39568454  1.0
  Ni  Ni1605  1  0.44444444  0.11111111  0.39568454  1.0
  Ni  Ni1606  1  0.44444444  0.44444444  0.39568454  1.0
  Ni  Ni1607  1  0.44444444  0.77777778  0.39568454  1.0
  Ni  Ni1608  1  0.77777778  0.11111111  0.39568454  1.0
  Ni  Ni1609  1  0.77777778  0.44444444  0.39568454  1.0
  Ni  Ni1610  1  0.77777778  0.77777778  0.39568454  1.0
  Ni  Ni1611  1  0.22220533  0.22222222  0.39568454  1.0
  Ni  Ni1612  1  0.22220533  0.55555556  0.39568454  1.0
  Ni  Ni1613  1  0.22220533  0.88888889  0.39568454  1.0
  Ni  Ni1614  1  0.55553867  0.22222222  0.39568454  1.0
  Ni  Ni1615  1  0.55553867  0.55555556  0.39568454  1.0
  Ni  Ni1616  1  0.55553867  0.88888889  0.39568454  1.0
  Ni  Ni1617  1  0.88887200  0.22222222  0.39568454  1.0
  Ni  Ni1618  1  0.88887200  0.55555556  0.39568454  1.0
  Ni  Ni1619  1  0.88887200  0.88888889  0.39568454  1.0
