# generated using pymatgen
data_Ta2Ni
_symmetry_space_group_name_H-M   'P 1'
_cell_length_a   31.77673555
_cell_length_b   37.96328390
_cell_length_c   28.83190931
_cell_angle_alpha   81.76292051
_cell_angle_beta   82.41950812
_cell_angle_gamma   67.04693352
_symmetry_Int_Tables_number   1
_chemical_formula_structural   Ta2Ni
_chemical_formula_sum   'Ta576 Ni288'
_cell_volume   31586.56770183
_cell_formula_units_Z   288
loop_
 _symmetry_equiv_pos_site_id
 _symmetry_equiv_pos_as_xyz
  1  'x, y, z'
loop_
 _atom_site_type_symbol
 _atom_site_label
 _atom_site_symmetry_multiplicity
 _atom_site_fract_x
 _atom_site_fract_y
 _atom_site_fract_z
 _atom_site_occupancy
  Ni  Ni0  1  0.06347725  0.29367302  0.92854920  1.0
  Ni  Ni1  1  0.06347725  0.62700635  0.92854920  1.0
  Ni  Ni2  1  0.06347725  0.96033969  0.92854920  1.0
  Ni  Ni3  1  0.39681058  0.29367302  0.92854920  1.0
  Ni  Ni4  1  0.39681058  0.62700635  0.92854920  1.0
  Ni  Ni5  1  0.39681058  0.96033969  0.92854920  1.0
  Ni  Ni6  1  0.73014391  0.29367302  0.92854920  1.0
  Ni  Ni7  1  0.73014391  0.62700635  0.92854920  1.0
  Ni  Ni8  1  0.73014391  0.96033969  0.92854920  1.0
  Ni  Ni9  1  0.26718095  0.07145080  0.98410476  1.0
  Ni  Ni10  1  0.26718095  0.40478413  0.98410476  1.0
  Ni  Ni11  1  0.26718095  0.73811746  0.98410476  1.0
  Ni  Ni12  1  0.60051428  0.07145080  0.98410476  1.0
  Ni  Ni13  1  0.60051428  0.40478413  0.98410476  1.0
  Ni  Ni14  1  0.60051428  0.73811746  0.98410476  1.0
  Ni  Ni15  1  0.93384762  0.07145080  0.98410476  1.0
  Ni  Ni16  1  0.93384762  0.40478413  0.98410476  1.0
  Ni  Ni17  1  0.93384762  0.73811746  0.98410476  1.0
  Ni  Ni18  1  0.29495873  0.23811746  0.90077143  1.0
  Ni  Ni19  1  0.29495873  0.57145080  0.90077143  1.0
  Ni  Ni20  1  0.29495873  0.90478413  0.90077143  1.0
  Ni  Ni21  1  0.62829206  0.23811746  0.90077143  1.0
  Ni  Ni22  1  0.62829206  0.57145080  0.90077143  1.0
  Ni  Ni23  1  0.62829206  0.90478413  0.90077143  1.0
  Ni  Ni24  1  0.96162540  0.23811746  0.90077143  1.0
  Ni  Ni25  1  0.96162540  0.57145080  0.90077143  1.0
  Ni  Ni26  1  0.96162540  0.90478413  0.90077143  1.0
  Ni  Ni27  1  0.16532910  0.01589524  0.95632698  1.0
  Ni  Ni28  1  0.16532910  0.34922857  0.95632698  1.0
  Ni  Ni29  1  0.16532910  0.68256191  0.95632698  1.0
  Ni  Ni30  1  0.49866243  0.01589524  0.95632698  1.0
  Ni  Ni31  1  0.49866243  0.34922857  0.95632698  1.0
  Ni  Ni32  1  0.49866243  0.68256191  0.95632698  1.0
  Ni  Ni33  1  0.83199577  0.01589524  0.95632698  1.0
  Ni  Ni34  1  0.83199577  0.34922857  0.95632698  1.0
  Ni  Ni35  1  0.83199577  0.68256191  0.95632698  1.0
  Ni  Ni36  1  0.32890935  0.03441376  0.91003069  1.0
  Ni  Ni37  1  0.32890935  0.36774709  0.91003069  1.0
  Ni  Ni38  1  0.32890935  0.70108043  0.91003069  1.0
  Ni  Ni39  1  0.66224268  0.03441376  0.91003069  1.0
  Ni  Ni40  1  0.66224268  0.36774709  0.91003069  1.0
  Ni  Ni41  1  0.66224268  0.70108043  0.91003069  1.0
  Ni  Ni42  1  0.99557601  0.03441376  0.91003069  1.0
  Ni  Ni43  1  0.99557601  0.36774709  0.91003069  1.0
  Ni  Ni44  1  0.99557601  0.70108043  0.91003069  1.0
  Ni  Ni45  1  0.19927972  0.14552487  0.96558624  1.0
  Ni  Ni46  1  0.19927972  0.47885820  0.96558624  1.0
  Ni  Ni47  1  0.19927972  0.81219154  0.96558624  1.0
  Ni  Ni48  1  0.53261305  0.14552487  0.96558624  1.0
  Ni  Ni49  1  0.53261305  0.47885820  0.96558624  1.0
  Ni  Ni50  1  0.53261305  0.81219154  0.96558624  1.0
  Ni  Ni51  1  0.86594638  0.14552487  0.96558624  1.0
  Ni  Ni52  1  0.86594638  0.47885820  0.96558624  1.0
  Ni  Ni53  1  0.86594638  0.81219154  0.96558624  1.0
  Ni  Ni54  1  0.30113157  0.20108043  0.99336402  1.0
  Ni  Ni55  1  0.30113157  0.53441376  0.99336402  1.0
  Ni  Ni56  1  0.30113157  0.86774709  0.99336402  1.0
  Ni  Ni57  1  0.63446490  0.20108043  0.99336402  1.0
  Ni  Ni58  1  0.63446490  0.53441376  0.99336402  1.0
  Ni  Ni59  1  0.63446490  0.86774709  0.99336402  1.0
  Ni  Ni60  1  0.96779823  0.20108043  0.99336402  1.0
  Ni  Ni61  1  0.96779823  0.53441376  0.99336402  1.0
  Ni  Ni62  1  0.96779823  0.86774709  0.99336402  1.0
  Ni  Ni63  1  0.09742786  0.08996931  0.93780846  1.0
  Ni  Ni64  1  0.09742786  0.42330265  0.93780846  1.0
  Ni  Ni65  1  0.09742786  0.75663598  0.93780846  1.0
  Ni  Ni66  1  0.43076120  0.08996931  0.93780846  1.0
  Ni  Ni67  1  0.43076120  0.42330265  0.93780846  1.0
  Ni  Ni68  1  0.43076120  0.75663598  0.93780846  1.0
  Ni  Ni69  1  0.76409453  0.08996931  0.93780846  1.0
  Ni  Ni70  1  0.76409453  0.42330265  0.93780846  1.0
  Ni  Ni71  1  0.76409453  0.75663598  0.93780846  1.0
  Ni  Ni72  1  0.32273651  0.07145080  0.81743809  1.0
  Ni  Ni73  1  0.32273651  0.40478413  0.81743809  1.0
  Ni  Ni74  1  0.32273651  0.73811746  0.81743809  1.0
  Ni  Ni75  1  0.65606984  0.07145080  0.81743809  1.0
  Ni  Ni76  1  0.65606984  0.40478413  0.81743809  1.0
  Ni  Ni77  1  0.65606984  0.73811746  0.81743809  1.0
  Ni  Ni78  1  0.98940317  0.07145080  0.81743809  1.0
  Ni  Ni79  1  0.98940317  0.40478413  0.81743809  1.0
  Ni  Ni80  1  0.98940317  0.73811746  0.81743809  1.0
  Ni  Ni81  1  0.19310688  0.18256191  0.87299365  1.0
  Ni  Ni82  1  0.19310688  0.51589524  0.87299365  1.0
  Ni  Ni83  1  0.19310688  0.84922857  0.87299365  1.0
  Ni  Ni84  1  0.52644021  0.18256191  0.87299365  1.0
  Ni  Ni85  1  0.52644021  0.51589524  0.87299365  1.0
  Ni  Ni86  1  0.52644021  0.84922857  0.87299365  1.0
  Ni  Ni87  1  0.85977354  0.18256191  0.87299365  1.0
  Ni  Ni88  1  0.85977354  0.51589524  0.87299365  1.0
  Ni  Ni89  1  0.85977354  0.84922857  0.87299365  1.0
  Ni  Ni90  1  0.22088465  0.01589524  0.78966031  1.0
  Ni  Ni91  1  0.22088465  0.34922857  0.78966031  1.0
  Ni  Ni92  1  0.22088465  0.68256191  0.78966031  1.0
  Ni  Ni93  1  0.55421799  0.01589524  0.78966031  1.0
  Ni  Ni94  1  0.55421799  0.34922857  0.78966031  1.0
  Ni  Ni95  1  0.55421799  0.68256191  0.78966031  1.0
  Ni  Ni96  1  0.88755132  0.01589524  0.78966031  1.0
  Ni  Ni97  1  0.88755132  0.34922857  0.78966031  1.0
  Ni  Ni98  1  0.88755132  0.68256191  0.78966031  1.0
  Ni  Ni99  1  0.09125502  0.12700635  0.84521587  1.0
  Ni  Ni100  1  0.09125502  0.46033969  0.84521587  1.0
  Ni  Ni101  1  0.09125502  0.79367302  0.84521587  1.0
  Ni  Ni102  1  0.42458836  0.12700635  0.84521587  1.0
  Ni  Ni103  1  0.42458836  0.46033969  0.84521587  1.0
  Ni  Ni104  1  0.42458836  0.79367302  0.84521587  1.0
  Ni  Ni105  1  0.75792169  0.12700635  0.84521587  1.0
  Ni  Ni106  1  0.75792169  0.46033969  0.84521587  1.0
  Ni  Ni107  1  0.75792169  0.79367302  0.84521587  1.0
  Ni  Ni108  1  0.25483527  0.14552487  0.79891957  1.0
  Ni  Ni109  1  0.25483527  0.47885820  0.79891957  1.0
  Ni  Ni110  1  0.25483527  0.81219154  0.79891957  1.0
  Ni  Ni111  1  0.58816860  0.14552487  0.79891957  1.0
  Ni  Ni112  1  0.58816860  0.47885820  0.79891957  1.0
  Ni  Ni113  1  0.58816860  0.81219154  0.79891957  1.0
  Ni  Ni114  1  0.92150194  0.14552487  0.79891957  1.0
  Ni  Ni115  1  0.92150194  0.47885820  0.79891957  1.0
  Ni  Ni116  1  0.92150194  0.81219154  0.79891957  1.0
  Ni  Ni117  1  0.12520564  0.25663598  0.85447513  1.0
  Ni  Ni118  1  0.12520564  0.58996931  0.85447513  1.0
  Ni  Ni119  1  0.12520564  0.92330265  0.85447513  1.0
  Ni  Ni120  1  0.45853898  0.25663598  0.85447513  1.0
  Ni  Ni121  1  0.45853898  0.58996931  0.85447513  1.0
  Ni  Ni122  1  0.45853898  0.92330265  0.85447513  1.0
  Ni  Ni123  1  0.79187231  0.25663598  0.85447513  1.0
  Ni  Ni124  1  0.79187231  0.58996931  0.85447513  1.0
  Ni  Ni125  1  0.79187231  0.92330265  0.85447513  1.0
  Ni  Ni126  1  0.22705749  0.31219154  0.88225291  1.0
  Ni  Ni127  1  0.22705749  0.64552487  0.88225291  1.0
  Ni  Ni128  1  0.22705749  0.97885820  0.88225291  1.0
  Ni  Ni129  1  0.56039083  0.31219154  0.88225291  1.0
  Ni  Ni130  1  0.56039083  0.64552487  0.88225291  1.0
  Ni  Ni131  1  0.56039083  0.97885820  0.88225291  1.0
  Ni  Ni132  1  0.89372416  0.31219154  0.88225291  1.0
  Ni  Ni133  1  0.89372416  0.64552487  0.88225291  1.0
  Ni  Ni134  1  0.89372416  0.97885820  0.88225291  1.0
  Ni  Ni135  1  0.02335379  0.20108043  0.82669735  1.0
  Ni  Ni136  1  0.02335379  0.53441376  0.82669735  1.0
  Ni  Ni137  1  0.02335379  0.86774709  0.82669735  1.0
  Ni  Ni138  1  0.35668712  0.20108043  0.82669735  1.0
  Ni  Ni139  1  0.35668712  0.53441376  0.82669735  1.0
  Ni  Ni140  1  0.35668712  0.86774709  0.82669735  1.0
  Ni  Ni141  1  0.69002046  0.20108043  0.82669735  1.0
  Ni  Ni142  1  0.69002046  0.53441376  0.82669735  1.0
  Ni  Ni143  1  0.69002046  0.86774709  0.82669735  1.0
  Ni  Ni144  1  0.24866243  0.18256191  0.70632698  1.0
  Ni  Ni145  1  0.24866243  0.51589524  0.70632698  1.0
  Ni  Ni146  1  0.24866243  0.84922857  0.70632698  1.0
  Ni  Ni147  1  0.58199577  0.18256191  0.70632698  1.0
  Ni  Ni148  1  0.58199577  0.51589524  0.70632698  1.0
  Ni  Ni149  1  0.58199577  0.84922857  0.70632698  1.0
  Ni  Ni150  1  0.91532910  0.18256191  0.70632698  1.0
  Ni  Ni151  1  0.91532910  0.51589524  0.70632698  1.0
  Ni  Ni152  1  0.91532910  0.84922857  0.70632698  1.0
  Ni  Ni153  1  0.11903280  0.29367302  0.76188254  1.0
  Ni  Ni154  1  0.11903280  0.62700635  0.76188254  1.0
  Ni  Ni155  1  0.11903280  0.96033969  0.76188254  1.0
  Ni  Ni156  1  0.45236614  0.29367302  0.76188254  1.0
  Ni  Ni157  1  0.45236614  0.62700635  0.76188254  1.0
  Ni  Ni158  1  0.45236614  0.96033969  0.76188254  1.0
  Ni  Ni159  1  0.78569947  0.29367302  0.76188254  1.0
  Ni  Ni160  1  0.78569947  0.62700635  0.76188254  1.0
  Ni  Ni161  1  0.78569947  0.96033969  0.76188254  1.0
  Ni  Ni162  1  0.14681058  0.12700635  0.67854920  1.0
  Ni  Ni163  1  0.14681058  0.46033969  0.67854920  1.0
  Ni  Ni164  1  0.14681058  0.79367302  0.67854920  1.0
  Ni  Ni165  1  0.48014391  0.12700635  0.67854920  1.0
  Ni  Ni166  1  0.48014391  0.46033969  0.67854920  1.0
  Ni  Ni167  1  0.48014391  0.79367302  0.67854920  1.0
  Ni  Ni168  1  0.81347725  0.12700635  0.67854920  1.0
  Ni  Ni169  1  0.81347725  0.46033969  0.67854920  1.0
  Ni  Ni170  1  0.81347725  0.79367302  0.67854920  1.0
  Ni  Ni171  1  0.01718095  0.23811746  0.73410476  1.0
  Ni  Ni172  1  0.01718095  0.57145080  0.73410476  1.0
  Ni  Ni173  1  0.01718095  0.90478413  0.73410476  1.0
  Ni  Ni174  1  0.35051428  0.23811746  0.73410476  1.0
  Ni  Ni175  1  0.35051428  0.57145080  0.73410476  1.0
  Ni  Ni176  1  0.35051428  0.90478413  0.73410476  1.0
  Ni  Ni177  1  0.68384762  0.23811746  0.73410476  1.0
  Ni  Ni178  1  0.68384762  0.57145080  0.73410476  1.0
  Ni  Ni179  1  0.68384762  0.90478413  0.73410476  1.0
  Ni  Ni180  1  0.18076120  0.25663598  0.68780846  1.0
  Ni  Ni181  1  0.18076120  0.58996931  0.68780846  1.0
  Ni  Ni182  1  0.18076120  0.92330265  0.68780846  1.0
  Ni  Ni183  1  0.51409453  0.25663598  0.68780846  1.0
  Ni  Ni184  1  0.51409453  0.58996931  0.68780846  1.0
  Ni  Ni185  1  0.51409453  0.92330265  0.68780846  1.0
  Ni  Ni186  1  0.84742786  0.25663598  0.68780846  1.0
  Ni  Ni187  1  0.84742786  0.58996931  0.68780846  1.0
  Ni  Ni188  1  0.84742786  0.92330265  0.68780846  1.0
  Ni  Ni189  1  0.05113157  0.03441376  0.74336402  1.0
  Ni  Ni190  1  0.05113157  0.36774709  0.74336402  1.0
  Ni  Ni191  1  0.05113157  0.70108043  0.74336402  1.0
  Ni  Ni192  1  0.38446490  0.03441376  0.74336402  1.0
  Ni  Ni193  1  0.38446490  0.36774709  0.74336402  1.0
  Ni  Ni194  1  0.38446490  0.70108043  0.74336402  1.0
  Ni  Ni195  1  0.71779823  0.03441376  0.74336402  1.0
  Ni  Ni196  1  0.71779823  0.36774709  0.74336402  1.0
  Ni  Ni197  1  0.71779823  0.70108043  0.74336402  1.0
  Ni  Ni198  1  0.15298342  0.08996931  0.77114180  1.0
  Ni  Ni199  1  0.15298342  0.42330265  0.77114180  1.0
  Ni  Ni200  1  0.15298342  0.75663598  0.77114180  1.0
  Ni  Ni201  1  0.48631675  0.08996931  0.77114180  1.0
  Ni  Ni202  1  0.48631675  0.42330265  0.77114180  1.0
  Ni  Ni203  1  0.48631675  0.75663598  0.77114180  1.0
  Ni  Ni204  1  0.81965009  0.08996931  0.77114180  1.0
  Ni  Ni205  1  0.81965009  0.42330265  0.77114180  1.0
  Ni  Ni206  1  0.81965009  0.75663598  0.77114180  1.0
  Ni  Ni207  1  0.28261305  0.31219154  0.71558624  1.0
  Ni  Ni208  1  0.28261305  0.64552487  0.71558624  1.0
  Ni  Ni209  1  0.28261305  0.97885820  0.71558624  1.0
  Ni  Ni210  1  0.61594638  0.31219154  0.71558624  1.0
  Ni  Ni211  1  0.61594638  0.64552487  0.71558624  1.0
  Ni  Ni212  1  0.61594638  0.97885820  0.71558624  1.0
  Ni  Ni213  1  0.94927972  0.31219154  0.71558624  1.0
  Ni  Ni214  1  0.94927972  0.64552487  0.71558624  1.0
  Ni  Ni215  1  0.94927972  0.97885820  0.71558624  1.0
  Ni  Ni216  1  0.17458836  0.29367302  0.59521587  1.0
  Ni  Ni217  1  0.17458836  0.62700635  0.59521587  1.0
  Ni  Ni218  1  0.17458836  0.96033969  0.59521587  1.0
  Ni  Ni219  1  0.50792169  0.29367302  0.59521587  1.0
  Ni  Ni220  1  0.50792169  0.62700635  0.59521587  1.0
  Ni  Ni221  1  0.50792169  0.96033969  0.59521587  1.0
  Ni  Ni222  1  0.84125502  0.29367302  0.59521587  1.0
  Ni  Ni223  1  0.84125502  0.62700635  0.59521587  1.0
  Ni  Ni224  1  0.84125502  0.96033969  0.59521587  1.0
  Ni  Ni225  1  0.04495873  0.07145080  0.65077143  1.0
  Ni  Ni226  1  0.04495873  0.40478413  0.65077143  1.0
  Ni  Ni227  1  0.04495873  0.73811746  0.65077143  1.0
  Ni  Ni228  1  0.37829206  0.07145080  0.65077143  1.0
  Ni  Ni229  1  0.37829206  0.40478413  0.65077143  1.0
  Ni  Ni230  1  0.37829206  0.73811746  0.65077143  1.0
  Ni  Ni231  1  0.71162540  0.07145080  0.65077143  1.0
  Ni  Ni232  1  0.71162540  0.40478413  0.65077143  1.0
  Ni  Ni233  1  0.71162540  0.73811746  0.65077143  1.0
  Ni  Ni234  1  0.07273651  0.23811746  0.56743809  1.0
  Ni  Ni235  1  0.07273651  0.57145080  0.56743809  1.0
  Ni  Ni236  1  0.07273651  0.90478413  0.56743809  1.0
  Ni  Ni237  1  0.40606984  0.23811746  0.56743809  1.0
  Ni  Ni238  1  0.40606984  0.57145080  0.56743809  1.0
  Ni  Ni239  1  0.40606984  0.90478413  0.56743809  1.0
  Ni  Ni240  1  0.73940317  0.23811746  0.56743809  1.0
  Ni  Ni241  1  0.73940317  0.57145080  0.56743809  1.0
  Ni  Ni242  1  0.73940317  0.90478413  0.56743809  1.0
  Ni  Ni243  1  0.27644021  0.01589524  0.62299365  1.0
  Ni  Ni244  1  0.27644021  0.34922857  0.62299365  1.0
  Ni  Ni245  1  0.27644021  0.68256191  0.62299365  1.0
  Ni  Ni246  1  0.60977354  0.01589524  0.62299365  1.0
  Ni  Ni247  1  0.60977354  0.34922857  0.62299365  1.0
  Ni  Ni248  1  0.60977354  0.68256191  0.62299365  1.0
  Ni  Ni249  1  0.94310688  0.01589524  0.62299365  1.0
  Ni  Ni250  1  0.94310688  0.34922857  0.62299365  1.0
  Ni  Ni251  1  0.94310688  0.68256191  0.62299365  1.0
  Ni  Ni252  1  0.10668712  0.03441376  0.57669735  1.0
  Ni  Ni253  1  0.10668712  0.36774709  0.57669735  1.0
  Ni  Ni254  1  0.10668712  0.70108043  0.57669735  1.0
  Ni  Ni255  1  0.44002046  0.03441376  0.57669735  1.0
  Ni  Ni256  1  0.44002046  0.36774709  0.57669735  1.0
  Ni  Ni257  1  0.44002046  0.70108043  0.57669735  1.0
  Ni  Ni258  1  0.77335379  0.03441376  0.57669735  1.0
  Ni  Ni259  1  0.77335379  0.36774709  0.57669735  1.0
  Ni  Ni260  1  0.77335379  0.70108043  0.57669735  1.0
  Ni  Ni261  1  0.31039083  0.14552487  0.63225291  1.0
  Ni  Ni262  1  0.31039083  0.47885820  0.63225291  1.0
  Ni  Ni263  1  0.31039083  0.81219154  0.63225291  1.0
  Ni  Ni264  1  0.64372416  0.14552487  0.63225291  1.0
  Ni  Ni265  1  0.64372416  0.47885820  0.63225291  1.0
  Ni  Ni266  1  0.64372416  0.81219154  0.63225291  1.0
  Ni  Ni267  1  0.97705749  0.14552487  0.63225291  1.0
  Ni  Ni268  1  0.97705749  0.47885820  0.63225291  1.0
  Ni  Ni269  1  0.97705749  0.81219154  0.63225291  1.0
  Ni  Ni270  1  0.07890935  0.20108043  0.66003069  1.0
  Ni  Ni271  1  0.07890935  0.53441376  0.66003069  1.0
  Ni  Ni272  1  0.07890935  0.86774709  0.66003069  1.0
  Ni  Ni273  1  0.41224268  0.20108043  0.66003069  1.0
  Ni  Ni274  1  0.41224268  0.53441376  0.66003069  1.0
  Ni  Ni275  1  0.41224268  0.86774709  0.66003069  1.0
  Ni  Ni276  1  0.74557601  0.20108043  0.66003069  1.0
  Ni  Ni277  1  0.74557601  0.53441376  0.66003069  1.0
  Ni  Ni278  1  0.74557601  0.86774709  0.66003069  1.0
  Ni  Ni279  1  0.20853898  0.08996931  0.60447513  1.0
  Ni  Ni280  1  0.20853898  0.42330265  0.60447513  1.0
  Ni  Ni281  1  0.20853898  0.75663598  0.60447513  1.0
  Ni  Ni282  1  0.54187231  0.08996931  0.60447513  1.0
  Ni  Ni283  1  0.54187231  0.42330265  0.60447513  1.0
  Ni  Ni284  1  0.54187231  0.75663598  0.60447513  1.0
  Ni  Ni285  1  0.87520564  0.08996931  0.60447513  1.0
  Ni  Ni286  1  0.87520564  0.42330265  0.60447513  1.0
  Ni  Ni287  1  0.87520564  0.75663598  0.60447513  1.0
  Ta  Ta288  1  0.26100811  0.10848783  0.89151217  1.0
  Ta  Ta289  1  0.26100811  0.44182117  0.89151217  1.0
  Ta  Ta290  1  0.26100811  0.77515450  0.89151217  1.0
  Ta  Ta291  1  0.59434144  0.10848783  0.89151217  1.0
  Ta  Ta292  1  0.59434144  0.44182117  0.89151217  1.0
  Ta  Ta293  1  0.59434144  0.77515450  0.89151217  1.0
  Ta  Ta294  1  0.92767478  0.10848783  0.89151217  1.0
  Ta  Ta295  1  0.92767478  0.44182117  0.89151217  1.0
  Ta  Ta296  1  0.92767478  0.77515450  0.89151217  1.0
  Ta  Ta297  1  0.13137848  0.21959894  0.94706772  1.0
  Ta  Ta298  1  0.13137848  0.55293228  0.94706772  1.0
  Ta  Ta299  1  0.13137848  0.88626561  0.94706772  1.0
  Ta  Ta300  1  0.46471181  0.21959894  0.94706772  1.0
  Ta  Ta301  1  0.46471181  0.55293228  0.94706772  1.0
  Ta  Ta302  1  0.46471181  0.88626561  0.94706772  1.0
  Ta  Ta303  1  0.79804515  0.21959894  0.94706772  1.0
  Ta  Ta304  1  0.79804515  0.55293228  0.94706772  1.0
  Ta  Ta305  1  0.79804515  0.88626561  0.94706772  1.0
  Ta  Ta306  1  0.23323033  0.27515450  0.97484550  1.0
  Ta  Ta307  1  0.23323033  0.60848783  0.97484550  1.0
  Ta  Ta308  1  0.23323033  0.94182117  0.97484550  1.0
  Ta  Ta309  1  0.56656367  0.27515450  0.97484550  1.0
  Ta  Ta310  1  0.56656367  0.60848783  0.97484550  1.0
  Ta  Ta311  1  0.56656367  0.94182117  0.97484550  1.0
  Ta  Ta312  1  0.89989700  0.27515450  0.97484550  1.0
  Ta  Ta313  1  0.89989700  0.60848783  0.97484550  1.0
  Ta  Ta314  1  0.89989700  0.94182117  0.97484550  1.0
  Ta  Ta315  1  0.02952663  0.16404339  0.91928994  1.0
  Ta  Ta316  1  0.02952663  0.49737672  0.91928994  1.0
  Ta  Ta317  1  0.02952663  0.83071006  0.91928994  1.0
  Ta  Ta318  1  0.36285996  0.16404339  0.91928994  1.0
  Ta  Ta319  1  0.36285996  0.49737672  0.91928994  1.0
  Ta  Ta320  1  0.36285996  0.83071006  0.91928994  1.0
  Ta  Ta321  1  0.69619330  0.16404339  0.91928994  1.0
  Ta  Ta322  1  0.69619330  0.49737672  0.91928994  1.0
  Ta  Ta323  1  0.69619330  0.83071006  0.91928994  1.0
  Ta  Ta324  1  0.23559611  0.04243917  0.91589417  1.0
  Ta  Ta325  1  0.23559611  0.37577250  0.91589417  1.0
  Ta  Ta326  1  0.23559611  0.70910583  0.91589417  1.0
  Ta  Ta327  1  0.56892944  0.04243917  0.91589417  1.0
  Ta  Ta328  1  0.56892944  0.37577250  0.91589417  1.0
  Ta  Ta329  1  0.56892944  0.70910583  0.91589417  1.0
  Ta  Ta330  1  0.90226278  0.04243917  0.91589417  1.0
  Ta  Ta331  1  0.90226278  0.37577250  0.91589417  1.0
  Ta  Ta332  1  0.90226278  0.70910583  0.91589417  1.0
  Ta  Ta333  1  0.10596648  0.15355028  0.97144972  1.0
  Ta  Ta334  1  0.10596648  0.48688361  0.97144972  1.0
  Ta  Ta335  1  0.10596648  0.82021694  0.97144972  1.0
  Ta  Ta336  1  0.43929981  0.15355028  0.97144972  1.0
  Ta  Ta337  1  0.43929981  0.48688361  0.97144972  1.0
  Ta  Ta338  1  0.43929981  0.82021694  0.97144972  1.0
  Ta  Ta339  1  0.77263315  0.15355028  0.97144972  1.0
  Ta  Ta340  1  0.77263315  0.48688361  0.97144972  1.0
  Ta  Ta341  1  0.77263315  0.82021694  0.97144972  1.0
  Ta  Ta342  1  0.03580319  0.23009206  0.95231428  1.0
  Ta  Ta343  1  0.03580319  0.56342539  0.95231428  1.0
  Ta  Ta344  1  0.03580319  0.89675872  0.95231428  1.0
  Ta  Ta345  1  0.36913652  0.23009206  0.95231428  1.0
  Ta  Ta346  1  0.36913652  0.56342539  0.95231428  1.0
  Ta  Ta347  1  0.36913652  0.89675872  0.95231428  1.0
  Ta  Ta348  1  0.70246985  0.23009206  0.95231428  1.0
  Ta  Ta349  1  0.70246985  0.56342539  0.95231428  1.0
  Ta  Ta350  1  0.70246985  0.89675872  0.95231428  1.0
  Ta  Ta351  1  0.16543281  0.11898094  0.89675872  1.0
  Ta  Ta352  1  0.16543281  0.45231428  0.89675872  1.0
  Ta  Ta353  1  0.16543281  0.78564761  0.89675872  1.0
  Ta  Ta354  1  0.49876615  0.11898094  0.89675872  1.0
  Ta  Ta355  1  0.49876615  0.45231428  0.89675872  1.0
  Ta  Ta356  1  0.49876615  0.78564761  0.89675872  1.0
  Ta  Ta357  1  0.83209948  0.11898094  0.89675872  1.0
  Ta  Ta358  1  0.83209948  0.45231428  0.89675872  1.0
  Ta  Ta359  1  0.83209948  0.78564761  0.89675872  1.0
  Ta  Ta360  1  0.30329170  0.30293228  0.93132806  1.0
  Ta  Ta361  1  0.30329170  0.63626561  0.93132806  1.0
  Ta  Ta362  1  0.30329170  0.96959894  0.93132806  1.0
  Ta  Ta363  1  0.63662504  0.30293228  0.93132806  1.0
  Ta  Ta364  1  0.63662504  0.63626561  0.93132806  1.0
  Ta  Ta365  1  0.63662504  0.96959894  0.93132806  1.0
  Ta  Ta366  1  0.96995837  0.30293228  0.93132806  1.0
  Ta  Ta367  1  0.96995837  0.63626561  0.93132806  1.0
  Ta  Ta368  1  0.96995837  0.96959894  0.93132806  1.0
  Ta  Ta369  1  0.17366207  0.08071006  0.98688361  1.0
  Ta  Ta370  1  0.17366207  0.41404339  0.98688361  1.0
  Ta  Ta371  1  0.17366207  0.74737672  0.98688361  1.0
  Ta  Ta372  1  0.50699541  0.08071006  0.98688361  1.0
  Ta  Ta373  1  0.50699541  0.41404339  0.98688361  1.0
  Ta  Ta374  1  0.50699541  0.74737672  0.98688361  1.0
  Ta  Ta375  1  0.84032874  0.08071006  0.98688361  1.0
  Ta  Ta376  1  0.84032874  0.41404339  0.98688361  1.0
  Ta  Ta377  1  0.84032874  0.74737672  0.98688361  1.0
  Ta  Ta378  1  0.15679048  0.28564761  0.92268572  1.0
  Ta  Ta379  1  0.15679048  0.61898094  0.92268572  1.0
  Ta  Ta380  1  0.15679048  0.95231428  0.92268572  1.0
  Ta  Ta381  1  0.49012381  0.28564761  0.92268572  1.0
  Ta  Ta382  1  0.49012381  0.61898094  0.92268572  1.0
  Ta  Ta383  1  0.49012381  0.95231428  0.92268572  1.0
  Ta  Ta384  1  0.82345715  0.28564761  0.92268572  1.0
  Ta  Ta385  1  0.82345715  0.61898094  0.92268572  1.0
  Ta  Ta386  1  0.82345715  0.95231428  0.92268572  1.0
  Ta  Ta387  1  0.02716085  0.06342539  0.97824128  1.0
  Ta  Ta388  1  0.02716085  0.39675872  0.97824128  1.0
  Ta  Ta389  1  0.02716085  0.73009206  0.97824128  1.0
  Ta  Ta390  1  0.36049419  0.06342539  0.97824128  1.0
  Ta  Ta391  1  0.36049419  0.39675872  0.97824128  1.0
  Ta  Ta392  1  0.36049419  0.73009206  0.97824128  1.0
  Ta  Ta393  1  0.69382752  0.06342539  0.97824128  1.0
  Ta  Ta394  1  0.69382752  0.39675872  0.97824128  1.0
  Ta  Ta395  1  0.69382752  0.73009206  0.97824128  1.0
  Ta  Ta396  1  0.22695378  0.20910583  0.94182117  1.0
  Ta  Ta397  1  0.22695378  0.54243917  0.94182117  1.0
  Ta  Ta398  1  0.22695378  0.87577250  0.94182117  1.0
  Ta  Ta399  1  0.56028711  0.20910583  0.94182117  1.0
  Ta  Ta400  1  0.56028711  0.54243917  0.94182117  1.0
  Ta  Ta401  1  0.56028711  0.87577250  0.94182117  1.0
  Ta  Ta402  1  0.89362044  0.20910583  0.94182117  1.0
  Ta  Ta403  1  0.89362044  0.54243917  0.94182117  1.0
  Ta  Ta404  1  0.89362044  0.87577250  0.94182117  1.0
  Ta  Ta405  1  0.09732415  0.32021694  0.99737672  1.0
  Ta  Ta406  1  0.09732415  0.65355028  0.99737672  1.0
  Ta  Ta407  1  0.09732415  0.98688361  0.99737672  1.0
  Ta  Ta408  1  0.43065748  0.32021694  0.99737672  1.0
  Ta  Ta409  1  0.43065748  0.65355028  0.99737672  1.0
  Ta  Ta410  1  0.43065748  0.98688361  0.99737672  1.0
  Ta  Ta411  1  0.76399081  0.32021694  0.99737672  1.0
  Ta  Ta412  1  0.76399081  0.65355028  0.99737672  1.0
  Ta  Ta413  1  0.76399081  0.98688361  0.99737672  1.0
  Ta  Ta414  1  0.29279859  0.13626561  0.96280739  1.0
  Ta  Ta415  1  0.29279859  0.46959894  0.96280739  1.0
  Ta  Ta416  1  0.29279859  0.80293228  0.96280739  1.0
  Ta  Ta417  1  0.62613193  0.13626561  0.96280739  1.0
  Ta  Ta418  1  0.62613193  0.46959894  0.96280739  1.0
  Ta  Ta419  1  0.62613193  0.80293228  0.96280739  1.0
  Ta  Ta420  1  0.95946526  0.13626561  0.96280739  1.0
  Ta  Ta421  1  0.95946526  0.46959894  0.96280739  1.0
  Ta  Ta422  1  0.95946526  0.80293228  0.96280739  1.0
  Ta  Ta423  1  0.08909489  0.02515450  0.90725183  1.0
  Ta  Ta424  1  0.08909489  0.35848783  0.90725183  1.0
  Ta  Ta425  1  0.08909489  0.69182117  0.90725183  1.0
  Ta  Ta426  1  0.42242822  0.02515450  0.90725183  1.0
  Ta  Ta427  1  0.42242822  0.35848783  0.90725183  1.0
  Ta  Ta428  1  0.42242822  0.69182117  0.90725183  1.0
  Ta  Ta429  1  0.75576156  0.02515450  0.90725183  1.0
  Ta  Ta430  1  0.75576156  0.35848783  0.90725183  1.0
  Ta  Ta431  1  0.75576156  0.69182117  0.90725183  1.0
  Ta  Ta432  1  0.18693404  0.21959894  0.78040106  1.0
  Ta  Ta433  1  0.18693404  0.55293228  0.78040106  1.0
  Ta  Ta434  1  0.18693404  0.88626561  0.78040106  1.0
  Ta  Ta435  1  0.52026737  0.21959894  0.78040106  1.0
  Ta  Ta436  1  0.52026737  0.55293228  0.78040106  1.0
  Ta  Ta437  1  0.52026737  0.88626561  0.78040106  1.0
  Ta  Ta438  1  0.85360070  0.21959894  0.78040106  1.0
  Ta  Ta439  1  0.85360070  0.55293228  0.78040106  1.0
  Ta  Ta440  1  0.85360070  0.88626561  0.78040106  1.0
  Ta  Ta441  1  0.05730441  0.33071006  0.83595661  1.0
  Ta  Ta442  1  0.05730441  0.66404339  0.83595661  1.0
  Ta  Ta443  1  0.05730441  0.99737672  0.83595661  1.0
  Ta  Ta444  1  0.39063774  0.33071006  0.83595661  1.0
  Ta  Ta445  1  0.39063774  0.66404339  0.83595661  1.0
  Ta  Ta446  1  0.39063774  0.99737672  0.83595661  1.0
  Ta  Ta447  1  0.72397107  0.33071006  0.83595661  1.0
  Ta  Ta448  1  0.72397107  0.66404339  0.83595661  1.0
  Ta  Ta449  1  0.72397107  0.99737672  0.83595661  1.0
  Ta  Ta450  1  0.15915626  0.05293228  0.86373439  1.0
  Ta  Ta451  1  0.15915626  0.38626561  0.86373439  1.0
  Ta  Ta452  1  0.15915626  0.71959894  0.86373439  1.0
  Ta  Ta453  1  0.49248959  0.05293228  0.86373439  1.0
  Ta  Ta454  1  0.49248959  0.38626561  0.86373439  1.0
  Ta  Ta455  1  0.49248959  0.71959894  0.86373439  1.0
  Ta  Ta456  1  0.82582293  0.05293228  0.86373439  1.0
  Ta  Ta457  1  0.82582293  0.38626561  0.86373439  1.0
  Ta  Ta458  1  0.82582293  0.71959894  0.86373439  1.0
  Ta  Ta459  1  0.28878589  0.27515450  0.80817883  1.0
  Ta  Ta460  1  0.28878589  0.60848783  0.80817883  1.0
  Ta  Ta461  1  0.28878589  0.94182117  0.80817883  1.0
  Ta  Ta462  1  0.62211922  0.27515450  0.80817883  1.0
  Ta  Ta463  1  0.62211922  0.60848783  0.80817883  1.0
  Ta  Ta464  1  0.62211922  0.94182117  0.80817883  1.0
  Ta  Ta465  1  0.95545256  0.27515450  0.80817883  1.0
  Ta  Ta466  1  0.95545256  0.60848783  0.80817883  1.0
  Ta  Ta467  1  0.95545256  0.94182117  0.80817883  1.0
  Ta  Ta468  1  0.16152204  0.15355028  0.80478306  1.0
  Ta  Ta469  1  0.16152204  0.48688361  0.80478306  1.0
  Ta  Ta470  1  0.16152204  0.82021694  0.80478306  1.0
  Ta  Ta471  1  0.49485537  0.15355028  0.80478306  1.0
  Ta  Ta472  1  0.49485537  0.48688361  0.80478306  1.0
  Ta  Ta473  1  0.49485537  0.82021694  0.80478306  1.0
  Ta  Ta474  1  0.82818870  0.15355028  0.80478306  1.0
  Ta  Ta475  1  0.82818870  0.48688361  0.80478306  1.0
  Ta  Ta476  1  0.82818870  0.82021694  0.80478306  1.0
  Ta  Ta477  1  0.03189241  0.26466139  0.86033861  1.0
  Ta  Ta478  1  0.03189241  0.59799472  0.86033861  1.0
  Ta  Ta479  1  0.03189241  0.93132806  0.86033861  1.0
  Ta  Ta480  1  0.36522574  0.26466139  0.86033861  1.0
  Ta  Ta481  1  0.36522574  0.59799472  0.86033861  1.0
  Ta  Ta482  1  0.36522574  0.93132806  0.86033861  1.0
  Ta  Ta483  1  0.69855907  0.26466139  0.86033861  1.0
  Ta  Ta484  1  0.69855907  0.59799472  0.86033861  1.0
  Ta  Ta485  1  0.69855907  0.93132806  0.86033861  1.0
  Ta  Ta486  1  0.29506244  0.00786983  0.84120317  1.0
  Ta  Ta487  1  0.29506244  0.34120317  0.84120317  1.0
  Ta  Ta488  1  0.29506244  0.67453650  0.84120317  1.0
  Ta  Ta489  1  0.62839578  0.00786983  0.84120317  1.0
  Ta  Ta490  1  0.62839578  0.34120317  0.84120317  1.0
  Ta  Ta491  1  0.62839578  0.67453650  0.84120317  1.0
  Ta  Ta492  1  0.96172911  0.00786983  0.84120317  1.0
  Ta  Ta493  1  0.96172911  0.34120317  0.84120317  1.0
  Ta  Ta494  1  0.96172911  0.67453650  0.84120317  1.0
  Ta  Ta495  1  0.09135874  0.23009206  0.78564761  1.0
  Ta  Ta496  1  0.09135874  0.56342539  0.78564761  1.0
  Ta  Ta497  1  0.09135874  0.89675872  0.78564761  1.0
  Ta  Ta498  1  0.42469207  0.23009206  0.78564761  1.0
  Ta  Ta499  1  0.42469207  0.56342539  0.78564761  1.0
  Ta  Ta500  1  0.42469207  0.89675872  0.78564761  1.0
  Ta  Ta501  1  0.75802541  0.23009206  0.78564761  1.0
  Ta  Ta502  1  0.75802541  0.56342539  0.78564761  1.0
  Ta  Ta503  1  0.75802541  0.89675872  0.78564761  1.0
  Ta  Ta504  1  0.22921763  0.08071006  0.82021694  1.0
  Ta  Ta505  1  0.22921763  0.41404339  0.82021694  1.0
  Ta  Ta506  1  0.22921763  0.74737672  0.82021694  1.0
  Ta  Ta507  1  0.56255096  0.08071006  0.82021694  1.0
  Ta  Ta508  1  0.56255096  0.41404339  0.82021694  1.0
  Ta  Ta509  1  0.56255096  0.74737672  0.82021694  1.0
  Ta  Ta510  1  0.89588430  0.08071006  0.82021694  1.0
  Ta  Ta511  1  0.89588430  0.41404339  0.82021694  1.0
  Ta  Ta512  1  0.89588430  0.74737672  0.82021694  1.0
  Ta  Ta513  1  0.09958800  0.19182117  0.87577250  1.0
  Ta  Ta514  1  0.09958800  0.52515450  0.87577250  1.0
  Ta  Ta515  1  0.09958800  0.85848783  0.87577250  1.0
  Ta  Ta516  1  0.43292133  0.19182117  0.87577250  1.0
  Ta  Ta517  1  0.43292133  0.52515450  0.87577250  1.0
  Ta  Ta518  1  0.43292133  0.85848783  0.87577250  1.0
  Ta  Ta519  1  0.76625467  0.19182117  0.87577250  1.0
  Ta  Ta520  1  0.76625467  0.52515450  0.87577250  1.0
  Ta  Ta521  1  0.76625467  0.85848783  0.87577250  1.0
  Ta  Ta522  1  0.08271641  0.06342539  0.81157461  1.0
  Ta  Ta523  1  0.08271641  0.39675872  0.81157461  1.0
  Ta  Ta524  1  0.08271641  0.73009206  0.81157461  1.0
  Ta  Ta525  1  0.41604974  0.06342539  0.81157461  1.0
  Ta  Ta526  1  0.41604974  0.39675872  0.81157461  1.0
  Ta  Ta527  1  0.41604974  0.73009206  0.81157461  1.0
  Ta  Ta528  1  0.74938307  0.06342539  0.81157461  1.0
  Ta  Ta529  1  0.74938307  0.39675872  0.81157461  1.0
  Ta  Ta530  1  0.74938307  0.73009206  0.81157461  1.0
  Ta  Ta531  1  0.28642011  0.17453650  0.86713017  1.0
  Ta  Ta532  1  0.28642011  0.50786983  0.86713017  1.0
  Ta  Ta533  1  0.28642011  0.84120317  0.86713017  1.0
  Ta  Ta534  1  0.61975344  0.17453650  0.86713017  1.0
  Ta  Ta535  1  0.61975344  0.50786983  0.86713017  1.0
  Ta  Ta536  1  0.61975344  0.84120317  0.86713017  1.0
  Ta  Ta537  1  0.95308678  0.17453650  0.86713017  1.0
  Ta  Ta538  1  0.95308678  0.50786983  0.86713017  1.0
  Ta  Ta539  1  0.95308678  0.84120317  0.86713017  1.0
  Ta  Ta540  1  0.15287970  0.32021694  0.83071006  1.0
  Ta  Ta541  1  0.15287970  0.65355028  0.83071006  1.0
  Ta  Ta542  1  0.15287970  0.98688361  0.83071006  1.0
  Ta  Ta543  1  0.48621304  0.32021694  0.83071006  1.0
  Ta  Ta544  1  0.48621304  0.65355028  0.83071006  1.0
  Ta  Ta545  1  0.48621304  0.98688361  0.83071006  1.0
  Ta  Ta546  1  0.81954637  0.32021694  0.83071006  1.0
  Ta  Ta547  1  0.81954637  0.65355028  0.83071006  1.0
  Ta  Ta548  1  0.81954637  0.98688361  0.83071006  1.0
  Ta  Ta549  1  0.02325007  0.09799472  0.88626561  1.0
  Ta  Ta550  1  0.02325007  0.43132806  0.88626561  1.0
  Ta  Ta551  1  0.02325007  0.76466139  0.88626561  1.0
  Ta  Ta552  1  0.35658341  0.09799472  0.88626561  1.0
  Ta  Ta553  1  0.35658341  0.43132806  0.88626561  1.0
  Ta  Ta554  1  0.35658341  0.76466139  0.88626561  1.0
  Ta  Ta555  1  0.68991674  0.09799472  0.88626561  1.0
  Ta  Ta556  1  0.68991674  0.43132806  0.88626561  1.0
  Ta  Ta557  1  0.68991674  0.76466139  0.88626561  1.0
  Ta  Ta558  1  0.21872452  0.24737672  0.85169628  1.0
  Ta  Ta559  1  0.21872452  0.58071006  0.85169628  1.0
  Ta  Ta560  1  0.21872452  0.91404339  0.85169628  1.0
  Ta  Ta561  1  0.55205785  0.24737672  0.85169628  1.0
  Ta  Ta562  1  0.55205785  0.58071006  0.85169628  1.0
  Ta  Ta563  1  0.55205785  0.91404339  0.85169628  1.0
  Ta  Ta564  1  0.88539119  0.24737672  0.85169628  1.0
  Ta  Ta565  1  0.88539119  0.58071006  0.85169628  1.0
  Ta  Ta566  1  0.88539119  0.91404339  0.85169628  1.0
  Ta  Ta567  1  0.01502081  0.13626561  0.79614072  1.0
  Ta  Ta568  1  0.01502081  0.46959894  0.79614072  1.0
  Ta  Ta569  1  0.01502081  0.80293228  0.79614072  1.0
  Ta  Ta570  1  0.34835415  0.13626561  0.79614072  1.0
  Ta  Ta571  1  0.34835415  0.46959894  0.79614072  1.0
  Ta  Ta572  1  0.34835415  0.80293228  0.79614072  1.0
  Ta  Ta573  1  0.68168748  0.13626561  0.79614072  1.0
  Ta  Ta574  1  0.68168748  0.46959894  0.79614072  1.0
  Ta  Ta575  1  0.68168748  0.80293228  0.79614072  1.0
  Ta  Ta576  1  0.11285996  0.33071006  0.66928994  1.0
  Ta  Ta577  1  0.11285996  0.66404339  0.66928994  1.0
  Ta  Ta578  1  0.11285996  0.99737672  0.66928994  1.0
  Ta  Ta579  1  0.44619330  0.33071006  0.66928994  1.0
  Ta  Ta580  1  0.44619330  0.66404339  0.66928994  1.0
  Ta  Ta581  1  0.44619330  0.99737672  0.66928994  1.0
  Ta  Ta582  1  0.77952663  0.33071006  0.66928994  1.0
  Ta  Ta583  1  0.77952663  0.66404339  0.66928994  1.0
  Ta  Ta584  1  0.77952663  0.99737672  0.66928994  1.0
  Ta  Ta585  1  0.31656367  0.10848783  0.72484550  1.0
  Ta  Ta586  1  0.31656367  0.44182117  0.72484550  1.0
  Ta  Ta587  1  0.31656367  0.77515450  0.72484550  1.0
  Ta  Ta588  1  0.64989700  0.10848783  0.72484550  1.0
  Ta  Ta589  1  0.64989700  0.44182117  0.72484550  1.0
  Ta  Ta590  1  0.64989700  0.77515450  0.72484550  1.0
  Ta  Ta591  1  0.98323033  0.10848783  0.72484550  1.0
  Ta  Ta592  1  0.98323033  0.44182117  0.72484550  1.0
  Ta  Ta593  1  0.98323033  0.77515450  0.72484550  1.0
  Ta  Ta594  1  0.08508219  0.16404339  0.75262328  1.0
  Ta  Ta595  1  0.08508219  0.49737672  0.75262328  1.0
  Ta  Ta596  1  0.08508219  0.83071006  0.75262328  1.0
  Ta  Ta597  1  0.41841552  0.16404339  0.75262328  1.0
  Ta  Ta598  1  0.41841552  0.49737672  0.75262328  1.0
  Ta  Ta599  1  0.41841552  0.83071006  0.75262328  1.0
  Ta  Ta600  1  0.75174885  0.16404339  0.75262328  1.0
  Ta  Ta601  1  0.75174885  0.49737672  0.75262328  1.0
  Ta  Ta602  1  0.75174885  0.83071006  0.75262328  1.0
  Ta  Ta603  1  0.21471181  0.05293228  0.69706772  1.0
  Ta  Ta604  1  0.21471181  0.38626561  0.69706772  1.0
  Ta  Ta605  1  0.21471181  0.71959894  0.69706772  1.0
  Ta  Ta606  1  0.54804515  0.05293228  0.69706772  1.0
  Ta  Ta607  1  0.54804515  0.38626561  0.69706772  1.0
  Ta  Ta608  1  0.54804515  0.71959894  0.69706772  1.0
  Ta  Ta609  1  0.88137848  0.05293228  0.69706772  1.0
  Ta  Ta610  1  0.88137848  0.38626561  0.69706772  1.0
  Ta  Ta611  1  0.88137848  0.71959894  0.69706772  1.0
  Ta  Ta612  1  0.08744796  0.26466139  0.69367194  1.0
  Ta  Ta613  1  0.08744796  0.59799472  0.69367194  1.0
  Ta  Ta614  1  0.08744796  0.93132806  0.69367194  1.0
  Ta  Ta615  1  0.42078130  0.26466139  0.69367194  1.0
  Ta  Ta616  1  0.42078130  0.59799472  0.69367194  1.0
  Ta  Ta617  1  0.42078130  0.93132806  0.69367194  1.0
  Ta  Ta618  1  0.75411463  0.26466139  0.69367194  1.0
  Ta  Ta619  1  0.75411463  0.59799472  0.69367194  1.0
  Ta  Ta620  1  0.75411463  0.93132806  0.69367194  1.0
  Ta  Ta621  1  0.29115167  0.04243917  0.74922750  1.0
  Ta  Ta622  1  0.29115167  0.37577250  0.74922750  1.0
  Ta  Ta623  1  0.29115167  0.70910583  0.74922750  1.0
  Ta  Ta624  1  0.62448500  0.04243917  0.74922750  1.0
  Ta  Ta625  1  0.62448500  0.37577250  0.74922750  1.0
  Ta  Ta626  1  0.62448500  0.70910583  0.74922750  1.0
  Ta  Ta627  1  0.95781833  0.04243917  0.74922750  1.0
  Ta  Ta628  1  0.95781833  0.37577250  0.74922750  1.0
  Ta  Ta629  1  0.95781833  0.70910583  0.74922750  1.0
  Ta  Ta630  1  0.22098837  0.11898094  0.73009206  1.0
  Ta  Ta631  1  0.22098837  0.45231428  0.73009206  1.0
  Ta  Ta632  1  0.22098837  0.78564761  0.73009206  1.0
  Ta  Ta633  1  0.55432170  0.11898094  0.73009206  1.0
  Ta  Ta634  1  0.55432170  0.45231428  0.73009206  1.0
  Ta  Ta635  1  0.55432170  0.78564761  0.73009206  1.0
  Ta  Ta636  1  0.88765504  0.11898094  0.73009206  1.0
  Ta  Ta637  1  0.88765504  0.45231428  0.73009206  1.0
  Ta  Ta638  1  0.88765504  0.78564761  0.73009206  1.0
  Ta  Ta639  1  0.01728467  0.00786983  0.67453650  1.0
  Ta  Ta640  1  0.01728467  0.34120317  0.67453650  1.0
  Ta  Ta641  1  0.01728467  0.67453650  0.67453650  1.0
  Ta  Ta642  1  0.35061800  0.00786983  0.67453650  1.0
  Ta  Ta643  1  0.35061800  0.34120317  0.67453650  1.0
  Ta  Ta644  1  0.35061800  0.67453650  0.67453650  1.0
  Ta  Ta645  1  0.68395133  0.00786983  0.67453650  1.0
  Ta  Ta646  1  0.68395133  0.34120317  0.67453650  1.0
  Ta  Ta647  1  0.68395133  0.67453650  0.67453650  1.0
  Ta  Ta648  1  0.15514356  0.19182117  0.70910583  1.0
  Ta  Ta649  1  0.15514356  0.52515450  0.70910583  1.0
  Ta  Ta650  1  0.15514356  0.85848783  0.70910583  1.0
  Ta  Ta651  1  0.48847689  0.19182117  0.70910583  1.0
  Ta  Ta652  1  0.48847689  0.52515450  0.70910583  1.0
  Ta  Ta653  1  0.48847689  0.85848783  0.70910583  1.0
  Ta  Ta654  1  0.82181022  0.19182117  0.70910583  1.0
  Ta  Ta655  1  0.82181022  0.52515450  0.70910583  1.0
  Ta  Ta656  1  0.82181022  0.85848783  0.70910583  1.0
  Ta  Ta657  1  0.02551393  0.30293228  0.76466139  1.0
  Ta  Ta658  1  0.02551393  0.63626561  0.76466139  1.0
  Ta  Ta659  1  0.02551393  0.96959894  0.76466139  1.0
  Ta  Ta660  1  0.35884726  0.30293228  0.76466139  1.0
  Ta  Ta661  1  0.35884726  0.63626561  0.76466139  1.0
  Ta  Ta662  1  0.35884726  0.96959894  0.76466139  1.0
  Ta  Ta663  1  0.69218059  0.30293228  0.76466139  1.0
  Ta  Ta664  1  0.69218059  0.63626561  0.76466139  1.0
  Ta  Ta665  1  0.69218059  0.96959894  0.76466139  1.0
  Ta  Ta666  1  0.00864233  0.17453650  0.70046350  1.0
  Ta  Ta667  1  0.00864233  0.50786983  0.70046350  1.0
  Ta  Ta668  1  0.00864233  0.84120317  0.70046350  1.0
  Ta  Ta669  1  0.34197567  0.17453650  0.70046350  1.0
  Ta  Ta670  1  0.34197567  0.50786983  0.70046350  1.0
  Ta  Ta671  1  0.34197567  0.84120317  0.70046350  1.0
  Ta  Ta672  1  0.67530900  0.17453650  0.70046350  1.0
  Ta  Ta673  1  0.67530900  0.50786983  0.70046350  1.0
  Ta  Ta674  1  0.67530900  0.84120317  0.70046350  1.0
  Ta  Ta675  1  0.21234604  0.28564761  0.75601906  1.0
  Ta  Ta676  1  0.21234604  0.61898094  0.75601906  1.0
  Ta  Ta677  1  0.21234604  0.95231428  0.75601906  1.0
  Ta  Ta678  1  0.54567937  0.28564761  0.75601906  1.0
  Ta  Ta679  1  0.54567937  0.61898094  0.75601906  1.0
  Ta  Ta680  1  0.54567937  0.95231428  0.75601906  1.0
  Ta  Ta681  1  0.87901270  0.28564761  0.75601906  1.0
  Ta  Ta682  1  0.87901270  0.61898094  0.75601906  1.0
  Ta  Ta683  1  0.87901270  0.95231428  0.75601906  1.0
  Ta  Ta684  1  0.07880563  0.09799472  0.71959894  1.0
  Ta  Ta685  1  0.07880563  0.43132806  0.71959894  1.0
  Ta  Ta686  1  0.07880563  0.76466139  0.71959894  1.0
  Ta  Ta687  1  0.41213896  0.09799472  0.71959894  1.0
  Ta  Ta688  1  0.41213896  0.43132806  0.71959894  1.0
  Ta  Ta689  1  0.41213896  0.76466139  0.71959894  1.0
  Ta  Ta690  1  0.74547230  0.09799472  0.71959894  1.0
  Ta  Ta691  1  0.74547230  0.43132806  0.71959894  1.0
  Ta  Ta692  1  0.74547230  0.76466139  0.71959894  1.0
  Ta  Ta693  1  0.28250933  0.20910583  0.77515450  1.0
  Ta  Ta694  1  0.28250933  0.54243917  0.77515450  1.0
  Ta  Ta695  1  0.28250933  0.87577250  0.77515450  1.0
  Ta  Ta696  1  0.61584267  0.20910583  0.77515450  1.0
  Ta  Ta697  1  0.61584267  0.54243917  0.77515450  1.0
  Ta  Ta698  1  0.61584267  0.87577250  0.77515450  1.0
  Ta  Ta699  1  0.94917600  0.20910583  0.77515450  1.0
  Ta  Ta700  1  0.94917600  0.54243917  0.77515450  1.0
  Ta  Ta701  1  0.94917600  0.87577250  0.77515450  1.0
  Ta  Ta702  1  0.14465044  0.02515450  0.74058517  1.0
  Ta  Ta703  1  0.14465044  0.35848783  0.74058517  1.0
  Ta  Ta704  1  0.14465044  0.69182117  0.74058517  1.0
  Ta  Ta705  1  0.47798378  0.02515450  0.74058517  1.0
  Ta  Ta706  1  0.47798378  0.35848783  0.74058517  1.0
  Ta  Ta707  1  0.47798378  0.69182117  0.74058517  1.0
  Ta  Ta708  1  0.81131711  0.02515450  0.74058517  1.0
  Ta  Ta709  1  0.81131711  0.35848783  0.74058517  1.0
  Ta  Ta710  1  0.81131711  0.69182117  0.74058517  1.0
  Ta  Ta711  1  0.27428007  0.24737672  0.68502961  1.0
  Ta  Ta712  1  0.27428007  0.58071006  0.68502961  1.0
  Ta  Ta713  1  0.27428007  0.91404339  0.68502961  1.0
  Ta  Ta714  1  0.60761341  0.24737672  0.68502961  1.0
  Ta  Ta715  1  0.60761341  0.58071006  0.68502961  1.0
  Ta  Ta716  1  0.60761341  0.91404339  0.68502961  1.0
  Ta  Ta717  1  0.94094674  0.24737672  0.68502961  1.0
  Ta  Ta718  1  0.94094674  0.58071006  0.68502961  1.0
  Ta  Ta719  1  0.94094674  0.91404339  0.68502961  1.0
  Ta  Ta720  1  0.03878589  0.10848783  0.55817883  1.0
  Ta  Ta721  1  0.03878589  0.44182117  0.55817883  1.0
  Ta  Ta722  1  0.03878589  0.77515450  0.55817883  1.0
  Ta  Ta723  1  0.37211922  0.10848783  0.55817883  1.0
  Ta  Ta724  1  0.37211922  0.44182117  0.55817883  1.0
  Ta  Ta725  1  0.37211922  0.77515450  0.55817883  1.0
  Ta  Ta726  1  0.70545256  0.10848783  0.55817883  1.0
  Ta  Ta727  1  0.70545256  0.44182117  0.55817883  1.0
  Ta  Ta728  1  0.70545256  0.77515450  0.55817883  1.0
  Ta  Ta729  1  0.24248959  0.21959894  0.61373439  1.0
  Ta  Ta730  1  0.24248959  0.55293228  0.61373439  1.0
  Ta  Ta731  1  0.24248959  0.88626561  0.61373439  1.0
  Ta  Ta732  1  0.57582293  0.21959894  0.61373439  1.0
  Ta  Ta733  1  0.57582293  0.55293228  0.61373439  1.0
  Ta  Ta734  1  0.57582293  0.88626561  0.61373439  1.0
  Ta  Ta735  1  0.90915626  0.21959894  0.61373439  1.0
  Ta  Ta736  1  0.90915626  0.55293228  0.61373439  1.0
  Ta  Ta737  1  0.90915626  0.88626561  0.61373439  1.0
  Ta  Ta738  1  0.01100811  0.27515450  0.64151217  1.0
  Ta  Ta739  1  0.01100811  0.60848783  0.64151217  1.0
  Ta  Ta740  1  0.01100811  0.94182117  0.64151217  1.0
  Ta  Ta741  1  0.34434144  0.27515450  0.64151217  1.0
  Ta  Ta742  1  0.34434144  0.60848783  0.64151217  1.0
  Ta  Ta743  1  0.34434144  0.94182117  0.64151217  1.0
  Ta  Ta744  1  0.67767478  0.27515450  0.64151217  1.0
  Ta  Ta745  1  0.67767478  0.60848783  0.64151217  1.0
  Ta  Ta746  1  0.67767478  0.94182117  0.64151217  1.0
  Ta  Ta747  1  0.14063774  0.16404339  0.58595661  1.0
  Ta  Ta748  1  0.14063774  0.49737672  0.58595661  1.0
  Ta  Ta749  1  0.14063774  0.83071006  0.58595661  1.0
  Ta  Ta750  1  0.47397107  0.16404339  0.58595661  1.0
  Ta  Ta751  1  0.47397107  0.49737672  0.58595661  1.0
  Ta  Ta752  1  0.47397107  0.83071006  0.58595661  1.0
  Ta  Ta753  1  0.80730441  0.16404339  0.58595661  1.0
  Ta  Ta754  1  0.80730441  0.49737672  0.58595661  1.0
  Ta  Ta755  1  0.80730441  0.83071006  0.58595661  1.0
  Ta  Ta756  1  0.01337389  0.04243917  0.58256083  1.0
  Ta  Ta757  1  0.01337389  0.37577250  0.58256083  1.0
  Ta  Ta758  1  0.01337389  0.70910583  0.58256083  1.0
  Ta  Ta759  1  0.34670722  0.04243917  0.58256083  1.0
  Ta  Ta760  1  0.34670722  0.37577250  0.58256083  1.0
  Ta  Ta761  1  0.34670722  0.70910583  0.58256083  1.0
  Ta  Ta762  1  0.68004056  0.04243917  0.58256083  1.0
  Ta  Ta763  1  0.68004056  0.37577250  0.58256083  1.0
  Ta  Ta764  1  0.68004056  0.70910583  0.58256083  1.0
  Ta  Ta765  1  0.21707759  0.15355028  0.63811639  1.0
  Ta  Ta766  1  0.21707759  0.48688361  0.63811639  1.0
  Ta  Ta767  1  0.21707759  0.82021694  0.63811639  1.0
  Ta  Ta768  1  0.55041093  0.15355028  0.63811639  1.0
  Ta  Ta769  1  0.55041093  0.48688361  0.63811639  1.0
  Ta  Ta770  1  0.55041093  0.82021694  0.63811639  1.0
  Ta  Ta771  1  0.88374426  0.15355028  0.63811639  1.0
  Ta  Ta772  1  0.88374426  0.48688361  0.63811639  1.0
  Ta  Ta773  1  0.88374426  0.82021694  0.63811639  1.0
  Ta  Ta774  1  0.14691430  0.23009206  0.61898094  1.0
  Ta  Ta775  1  0.14691430  0.56342539  0.61898094  1.0
  Ta  Ta776  1  0.14691430  0.89675872  0.61898094  1.0
  Ta  Ta777  1  0.48024763  0.23009206  0.61898094  1.0
  Ta  Ta778  1  0.48024763  0.56342539  0.61898094  1.0
  Ta  Ta779  1  0.48024763  0.89675872  0.61898094  1.0
  Ta  Ta780  1  0.81358096  0.23009206  0.61898094  1.0
  Ta  Ta781  1  0.81358096  0.56342539  0.61898094  1.0
  Ta  Ta782  1  0.81358096  0.89675872  0.61898094  1.0
  Ta  Ta783  1  0.27654393  0.11898094  0.56342539  1.0
  Ta  Ta784  1  0.27654393  0.45231428  0.56342539  1.0
  Ta  Ta785  1  0.27654393  0.78564761  0.56342539  1.0
  Ta  Ta786  1  0.60987726  0.11898094  0.56342539  1.0
  Ta  Ta787  1  0.60987726  0.45231428  0.56342539  1.0
  Ta  Ta788  1  0.60987726  0.78564761  0.56342539  1.0
  Ta  Ta789  1  0.94321059  0.11898094  0.56342539  1.0
  Ta  Ta790  1  0.94321059  0.45231428  0.56342539  1.0
  Ta  Ta791  1  0.94321059  0.78564761  0.56342539  1.0
  Ta  Ta792  1  0.08106948  0.30293228  0.59799472  1.0
  Ta  Ta793  1  0.08106948  0.63626561  0.59799472  1.0
  Ta  Ta794  1  0.08106948  0.96959894  0.59799472  1.0
  Ta  Ta795  1  0.41440281  0.30293228  0.59799472  1.0
  Ta  Ta796  1  0.41440281  0.63626561  0.59799472  1.0
  Ta  Ta797  1  0.41440281  0.96959894  0.59799472  1.0
  Ta  Ta798  1  0.74773615  0.30293228  0.59799472  1.0
  Ta  Ta799  1  0.74773615  0.63626561  0.59799472  1.0
  Ta  Ta800  1  0.74773615  0.96959894  0.59799472  1.0
  Ta  Ta801  1  0.28477319  0.08071006  0.65355028  1.0
  Ta  Ta802  1  0.28477319  0.41404339  0.65355028  1.0
  Ta  Ta803  1  0.28477319  0.74737672  0.65355028  1.0
  Ta  Ta804  1  0.61810652  0.08071006  0.65355028  1.0
  Ta  Ta805  1  0.61810652  0.41404339  0.65355028  1.0
  Ta  Ta806  1  0.61810652  0.74737672  0.65355028  1.0
  Ta  Ta807  1  0.95143985  0.08071006  0.65355028  1.0
  Ta  Ta808  1  0.95143985  0.41404339  0.65355028  1.0
  Ta  Ta809  1  0.95143985  0.74737672  0.65355028  1.0
  Ta  Ta810  1  0.26790159  0.28564761  0.58935239  1.0
  Ta  Ta811  1  0.26790159  0.61898094  0.58935239  1.0
  Ta  Ta812  1  0.26790159  0.95231428  0.58935239  1.0
  Ta  Ta813  1  0.60123493  0.28564761  0.58935239  1.0
  Ta  Ta814  1  0.60123493  0.61898094  0.58935239  1.0
  Ta  Ta815  1  0.60123493  0.95231428  0.58935239  1.0
  Ta  Ta816  1  0.93456826  0.28564761  0.58935239  1.0
  Ta  Ta817  1  0.93456826  0.61898094  0.58935239  1.0
  Ta  Ta818  1  0.93456826  0.95231428  0.58935239  1.0
  Ta  Ta819  1  0.13827196  0.06342539  0.64490794  1.0
  Ta  Ta820  1  0.13827196  0.39675872  0.64490794  1.0
  Ta  Ta821  1  0.13827196  0.73009206  0.64490794  1.0
  Ta  Ta822  1  0.47160530  0.06342539  0.64490794  1.0
  Ta  Ta823  1  0.47160530  0.39675872  0.64490794  1.0
  Ta  Ta824  1  0.47160530  0.73009206  0.64490794  1.0
  Ta  Ta825  1  0.80493863  0.06342539  0.64490794  1.0
  Ta  Ta826  1  0.80493863  0.39675872  0.64490794  1.0
  Ta  Ta827  1  0.80493863  0.73009206  0.64490794  1.0
  Ta  Ta828  1  0.00473156  0.20910583  0.60848783  1.0
  Ta  Ta829  1  0.00473156  0.54243917  0.60848783  1.0
  Ta  Ta830  1  0.00473156  0.87577250  0.60848783  1.0
  Ta  Ta831  1  0.33806489  0.20910583  0.60848783  1.0
  Ta  Ta832  1  0.33806489  0.54243917  0.60848783  1.0
  Ta  Ta833  1  0.33806489  0.87577250  0.60848783  1.0
  Ta  Ta834  1  0.67139822  0.20910583  0.60848783  1.0
  Ta  Ta835  1  0.67139822  0.54243917  0.60848783  1.0
  Ta  Ta836  1  0.67139822  0.87577250  0.60848783  1.0
  Ta  Ta837  1  0.20843526  0.32021694  0.66404339  1.0
  Ta  Ta838  1  0.20843526  0.65355028  0.66404339  1.0
  Ta  Ta839  1  0.20843526  0.98688361  0.66404339  1.0
  Ta  Ta840  1  0.54176859  0.32021694  0.66404339  1.0
  Ta  Ta841  1  0.54176859  0.65355028  0.66404339  1.0
  Ta  Ta842  1  0.54176859  0.98688361  0.66404339  1.0
  Ta  Ta843  1  0.87510193  0.32021694  0.66404339  1.0
  Ta  Ta844  1  0.87510193  0.65355028  0.66404339  1.0
  Ta  Ta845  1  0.87510193  0.98688361  0.66404339  1.0
  Ta  Ta846  1  0.07057637  0.13626561  0.62947406  1.0
  Ta  Ta847  1  0.07057637  0.46959894  0.62947406  1.0
  Ta  Ta848  1  0.07057637  0.80293228  0.62947406  1.0
  Ta  Ta849  1  0.40390970  0.13626561  0.62947406  1.0
  Ta  Ta850  1  0.40390970  0.46959894  0.62947406  1.0
  Ta  Ta851  1  0.40390970  0.80293228  0.62947406  1.0
  Ta  Ta852  1  0.73724304  0.13626561  0.62947406  1.0
  Ta  Ta853  1  0.73724304  0.46959894  0.62947406  1.0
  Ta  Ta854  1  0.73724304  0.80293228  0.62947406  1.0
  Ta  Ta855  1  0.20020600  0.02515450  0.57391850  1.0
  Ta  Ta856  1  0.20020600  0.35848783  0.57391850  1.0
  Ta  Ta857  1  0.20020600  0.69182117  0.57391850  1.0
  Ta  Ta858  1  0.53353933  0.02515450  0.57391850  1.0
  Ta  Ta859  1  0.53353933  0.35848783  0.57391850  1.0
  Ta  Ta860  1  0.53353933  0.69182117  0.57391850  1.0
  Ta  Ta861  1  0.86687267  0.02515450  0.57391850  1.0
  Ta  Ta862  1  0.86687267  0.35848783  0.57391850  1.0
  Ta  Ta863  1  0.86687267  0.69182117  0.57391850  1.0
