# generated using pymatgen
data_Ta2Ni
_symmetry_space_group_name_H-M   'P 1'
_cell_length_a   25.43963449
_cell_length_b   58.23975177
_cell_length_c   58.75031928
_cell_angle_alpha   104.60724146
_cell_angle_beta   150.00000000
_cell_angle_gamma   77.38466780
_symmetry_Int_Tables_number   1
_chemical_formula_structural   Ta2Ni
_chemical_formula_sum   'Ta720 Ni360'
_cell_volume   42115.42360244
_cell_formula_units_Z   360
loop_
 _symmetry_equiv_pos_site_id
 _symmetry_equiv_pos_as_xyz
  1  'x, y, z'
loop_
 _atom_site_type_symbol
 _atom_site_label
 _atom_site_symmetry_multiplicity
 _atom_site_fract_x
 _atom_site_fract_y
 _atom_site_fract_z
 _atom_site_occupancy
  Ta  Ta0  1  0.00000000  0.00000000  0.07291667  1.0
  Ta  Ta1  1  0.00000000  0.33333333  0.07291667  1.0
  Ta  Ta2  1  0.00000000  0.66666667  0.07291667  1.0
  Ta  Ta3  1  0.33333333  0.00000000  0.07291667  1.0
  Ta  Ta4  1  0.33333333  0.33333333  0.07291667  1.0
  Ta  Ta5  1  0.33333333  0.66666667  0.07291667  1.0
  Ta  Ta6  1  0.66666667  0.00000000  0.07291667  1.0
  Ta  Ta7  1  0.66666667  0.33333333  0.07291667  1.0
  Ta  Ta8  1  0.66666667  0.66666667  0.07291667  1.0
  Ta  Ta9  1  0.00000000  0.16666667  0.03125000  1.0
  Ta  Ta10  1  0.00000000  0.50000000  0.03125000  1.0
  Ta  Ta11  1  0.00000000  0.83333333  0.03125000  1.0
  Ta  Ta12  1  0.33333333  0.16666667  0.03125000  1.0
  Ta  Ta13  1  0.33333333  0.50000000  0.03125000  1.0
  Ta  Ta14  1  0.33333333  0.83333333  0.03125000  1.0
  Ta  Ta15  1  0.66666667  0.16666667  0.03125000  1.0
  Ta  Ta16  1  0.66666667  0.50000000  0.03125000  1.0
  Ta  Ta17  1  0.66666667  0.83333333  0.03125000  1.0
  Ta  Ta18  1  0.00000000  0.08333333  0.01041667  1.0
  Ta  Ta19  1  0.00000000  0.41666667  0.01041667  1.0
  Ta  Ta20  1  0.00000000  0.75000000  0.01041667  1.0
  Ta  Ta21  1  0.33333333  0.08333333  0.01041667  1.0
  Ta  Ta22  1  0.33333333  0.41666667  0.01041667  1.0
  Ta  Ta23  1  0.33333333  0.75000000  0.01041667  1.0
  Ta  Ta24  1  0.66666667  0.08333333  0.01041667  1.0
  Ta  Ta25  1  0.66666667  0.41666667  0.01041667  1.0
  Ta  Ta26  1  0.66666667  0.75000000  0.01041667  1.0
  Ta  Ta27  1  0.00000000  0.25000000  0.05208333  1.0
  Ta  Ta28  1  0.00000000  0.58333333  0.05208333  1.0
  Ta  Ta29  1  0.00000000  0.91666667  0.05208333  1.0
  Ta  Ta30  1  0.33333333  0.25000000  0.05208333  1.0
  Ta  Ta31  1  0.33333333  0.58333333  0.05208333  1.0
  Ta  Ta32  1  0.33333333  0.91666667  0.05208333  1.0
  Ta  Ta33  1  0.66666667  0.25000000  0.05208333  1.0
  Ta  Ta34  1  0.66666667  0.58333333  0.05208333  1.0
  Ta  Ta35  1  0.66666667  0.91666667  0.05208333  1.0
  Ta  Ta36  1  0.00000000  0.04166667  0.05463017  1.0
  Ta  Ta37  1  0.00000000  0.37500000  0.05463017  1.0
  Ta  Ta38  1  0.00000000  0.70833333  0.05463017  1.0
  Ta  Ta39  1  0.33333333  0.04166667  0.05463017  1.0
  Ta  Ta40  1  0.33333333  0.37500000  0.05463017  1.0
  Ta  Ta41  1  0.33333333  0.70833333  0.05463017  1.0
  Ta  Ta42  1  0.66666667  0.04166667  0.05463017  1.0
  Ta  Ta43  1  0.66666667  0.37500000  0.05463017  1.0
  Ta  Ta44  1  0.66666667  0.70833333  0.05463017  1.0
  Ta  Ta45  1  0.00000000  0.20833333  0.01296350  1.0
  Ta  Ta46  1  0.00000000  0.54166667  0.01296350  1.0
  Ta  Ta47  1  0.00000000  0.87500000  0.01296350  1.0
  Ta  Ta48  1  0.33333333  0.20833333  0.01296350  1.0
  Ta  Ta49  1  0.33333333  0.54166667  0.01296350  1.0
  Ta  Ta50  1  0.33333333  0.87500000  0.01296350  1.0
  Ta  Ta51  1  0.66666667  0.20833333  0.01296350  1.0
  Ta  Ta52  1  0.66666667  0.54166667  0.01296350  1.0
  Ta  Ta53  1  0.66666667  0.87500000  0.01296350  1.0
  Ta  Ta54  1  0.21852067  0.04166667  0.05463017  1.0
  Ta  Ta55  1  0.21852067  0.37500000  0.05463017  1.0
  Ta  Ta56  1  0.21852067  0.70833333  0.05463017  1.0
  Ta  Ta57  1  0.55185400  0.04166667  0.05463017  1.0
  Ta  Ta58  1  0.55185400  0.37500000  0.05463017  1.0
  Ta  Ta59  1  0.55185400  0.70833333  0.05463017  1.0
  Ta  Ta60  1  0.88518733  0.04166667  0.05463017  1.0
  Ta  Ta61  1  0.88518733  0.37500000  0.05463017  1.0
  Ta  Ta62  1  0.88518733  0.70833333  0.05463017  1.0
  Ta  Ta63  1  0.21852067  0.20833333  0.01296350  1.0
  Ta  Ta64  1  0.21852067  0.54166667  0.01296350  1.0
  Ta  Ta65  1  0.21852067  0.87500000  0.01296350  1.0
  Ta  Ta66  1  0.55185400  0.20833333  0.01296350  1.0
  Ta  Ta67  1  0.55185400  0.54166667  0.01296350  1.0
  Ta  Ta68  1  0.55185400  0.87500000  0.01296350  1.0
  Ta  Ta69  1  0.88518733  0.20833333  0.01296350  1.0
  Ta  Ta70  1  0.88518733  0.54166667  0.01296350  1.0
  Ta  Ta71  1  0.88518733  0.87500000  0.01296350  1.0
  Ta  Ta72  1  0.11481267  0.04166667  0.05740633  1.0
  Ta  Ta73  1  0.11481267  0.37500000  0.05740633  1.0
  Ta  Ta74  1  0.11481267  0.70833333  0.05740633  1.0
  Ta  Ta75  1  0.44814600  0.04166667  0.05740633  1.0
  Ta  Ta76  1  0.44814600  0.37500000  0.05740633  1.0
  Ta  Ta77  1  0.44814600  0.70833333  0.05740633  1.0
  Ta  Ta78  1  0.78147933  0.04166667  0.05740633  1.0
  Ta  Ta79  1  0.78147933  0.37500000  0.05740633  1.0
  Ta  Ta80  1  0.78147933  0.70833333  0.05740633  1.0
  Ta  Ta81  1  0.11481267  0.20833333  0.01573967  1.0
  Ta  Ta82  1  0.11481267  0.54166667  0.01573967  1.0
  Ta  Ta83  1  0.11481267  0.87500000  0.01573967  1.0
  Ta  Ta84  1  0.44814600  0.20833333  0.01573967  1.0
  Ta  Ta85  1  0.44814600  0.54166667  0.01573967  1.0
  Ta  Ta86  1  0.44814600  0.87500000  0.01573967  1.0
  Ta  Ta87  1  0.78147933  0.20833333  0.01573967  1.0
  Ta  Ta88  1  0.78147933  0.54166667  0.01573967  1.0
  Ta  Ta89  1  0.78147933  0.87500000  0.01573967  1.0
  Ta  Ta90  1  0.00000000  0.12500000  0.04953650  1.0
  Ta  Ta91  1  0.00000000  0.45833333  0.04953650  1.0
  Ta  Ta92  1  0.00000000  0.79166667  0.04953650  1.0
  Ta  Ta93  1  0.33333333  0.12500000  0.04953650  1.0
  Ta  Ta94  1  0.33333333  0.45833333  0.04953650  1.0
  Ta  Ta95  1  0.33333333  0.79166667  0.04953650  1.0
  Ta  Ta96  1  0.66666667  0.12500000  0.04953650  1.0
  Ta  Ta97  1  0.66666667  0.45833333  0.04953650  1.0
  Ta  Ta98  1  0.66666667  0.79166667  0.04953650  1.0
  Ta  Ta99  1  0.00000000  0.29166667  0.00786983  1.0
  Ta  Ta100  1  0.00000000  0.62500000  0.00786983  1.0
  Ta  Ta101  1  0.00000000  0.95833333  0.00786983  1.0
  Ta  Ta102  1  0.33333333  0.29166667  0.00786983  1.0
  Ta  Ta103  1  0.33333333  0.62500000  0.00786983  1.0
  Ta  Ta104  1  0.33333333  0.95833333  0.00786983  1.0
  Ta  Ta105  1  0.66666667  0.29166667  0.00786983  1.0
  Ta  Ta106  1  0.66666667  0.62500000  0.00786983  1.0
  Ta  Ta107  1  0.66666667  0.95833333  0.00786983  1.0
  Ta  Ta108  1  0.11481267  0.12500000  0.04953650  1.0
  Ta  Ta109  1  0.11481267  0.45833333  0.04953650  1.0
  Ta  Ta110  1  0.11481267  0.79166667  0.04953650  1.0
  Ta  Ta111  1  0.44814600  0.12500000  0.04953650  1.0
  Ta  Ta112  1  0.44814600  0.45833333  0.04953650  1.0
  Ta  Ta113  1  0.44814600  0.79166667  0.04953650  1.0
  Ta  Ta114  1  0.78147933  0.12500000  0.04953650  1.0
  Ta  Ta115  1  0.78147933  0.45833333  0.04953650  1.0
  Ta  Ta116  1  0.78147933  0.79166667  0.04953650  1.0
  Ta  Ta117  1  0.11481267  0.29166667  0.00786983  1.0
  Ta  Ta118  1  0.11481267  0.62500000  0.00786983  1.0
  Ta  Ta119  1  0.11481267  0.95833333  0.00786983  1.0
  Ta  Ta120  1  0.44814600  0.29166667  0.00786983  1.0
  Ta  Ta121  1  0.44814600  0.62500000  0.00786983  1.0
  Ta  Ta122  1  0.44814600  0.95833333  0.00786983  1.0
  Ta  Ta123  1  0.78147933  0.29166667  0.00786983  1.0
  Ta  Ta124  1  0.78147933  0.62500000  0.00786983  1.0
  Ta  Ta125  1  0.78147933  0.95833333  0.00786983  1.0
  Ta  Ta126  1  0.21852067  0.12500000  0.04676033  1.0
  Ta  Ta127  1  0.21852067  0.45833333  0.04676033  1.0
  Ta  Ta128  1  0.21852067  0.79166667  0.04676033  1.0
  Ta  Ta129  1  0.55185400  0.12500000  0.04676033  1.0
  Ta  Ta130  1  0.55185400  0.45833333  0.04676033  1.0
  Ta  Ta131  1  0.55185400  0.79166667  0.04676033  1.0
  Ta  Ta132  1  0.88518733  0.12500000  0.04676033  1.0
  Ta  Ta133  1  0.88518733  0.45833333  0.04676033  1.0
  Ta  Ta134  1  0.88518733  0.79166667  0.04676033  1.0
  Ta  Ta135  1  0.21852067  0.29166667  0.00509367  1.0
  Ta  Ta136  1  0.21852067  0.62500000  0.00509367  1.0
  Ta  Ta137  1  0.21852067  0.95833333  0.00509367  1.0
  Ta  Ta138  1  0.55185400  0.29166667  0.00509367  1.0
  Ta  Ta139  1  0.55185400  0.62500000  0.00509367  1.0
  Ta  Ta140  1  0.55185400  0.95833333  0.00509367  1.0
  Ta  Ta141  1  0.88518733  0.29166667  0.00509367  1.0
  Ta  Ta142  1  0.88518733  0.62500000  0.00509367  1.0
  Ta  Ta143  1  0.88518733  0.95833333  0.00509367  1.0
  Ni  Ni144  1  0.22222222  0.00000000  0.07291667  1.0
  Ni  Ni145  1  0.22222222  0.33333333  0.07291667  1.0
  Ni  Ni146  1  0.22222222  0.66666667  0.07291667  1.0
  Ni  Ni147  1  0.55555556  0.00000000  0.07291667  1.0
  Ni  Ni148  1  0.55555556  0.33333333  0.07291667  1.0
  Ni  Ni149  1  0.55555556  0.66666667  0.07291667  1.0
  Ni  Ni150  1  0.88888889  0.00000000  0.07291667  1.0
  Ni  Ni151  1  0.88888889  0.33333333  0.07291667  1.0
  Ni  Ni152  1  0.88888889  0.66666667  0.07291667  1.0
  Ni  Ni153  1  0.22222222  0.16666667  0.03125000  1.0
  Ni  Ni154  1  0.22222222  0.50000000  0.03125000  1.0
  Ni  Ni155  1  0.22222222  0.83333333  0.03125000  1.0
  Ni  Ni156  1  0.55555556  0.16666667  0.03125000  1.0
  Ni  Ni157  1  0.55555556  0.50000000  0.03125000  1.0
  Ni  Ni158  1  0.55555556  0.83333333  0.03125000  1.0
  Ni  Ni159  1  0.88888889  0.16666667  0.03125000  1.0
  Ni  Ni160  1  0.88888889  0.50000000  0.03125000  1.0
  Ni  Ni161  1  0.88888889  0.83333333  0.03125000  1.0
  Ni  Ni162  1  0.22222222  0.08333333  0.01041667  1.0
  Ni  Ni163  1  0.22222222  0.41666667  0.01041667  1.0
  Ni  Ni164  1  0.22222222  0.75000000  0.01041667  1.0
  Ni  Ni165  1  0.55555556  0.08333333  0.01041667  1.0
  Ni  Ni166  1  0.55555556  0.41666667  0.01041667  1.0
  Ni  Ni167  1  0.55555556  0.75000000  0.01041667  1.0
  Ni  Ni168  1  0.88888889  0.08333333  0.01041667  1.0
  Ni  Ni169  1  0.88888889  0.41666667  0.01041667  1.0
  Ni  Ni170  1  0.88888889  0.75000000  0.01041667  1.0
  Ni  Ni171  1  0.22222222  0.25000000  0.05208333  1.0
  Ni  Ni172  1  0.22222222  0.58333333  0.05208333  1.0
  Ni  Ni173  1  0.22222222  0.91666667  0.05208333  1.0
  Ni  Ni174  1  0.55555556  0.25000000  0.05208333  1.0
  Ni  Ni175  1  0.55555556  0.58333333  0.05208333  1.0
  Ni  Ni176  1  0.55555556  0.91666667  0.05208333  1.0
  Ni  Ni177  1  0.88888889  0.25000000  0.05208333  1.0
  Ni  Ni178  1  0.88888889  0.58333333  0.05208333  1.0
  Ni  Ni179  1  0.88888889  0.91666667  0.05208333  1.0
  Ni  Ni180  1  0.11111111  0.00000000  0.07291667  1.0
  Ni  Ni181  1  0.11111111  0.33333333  0.07291667  1.0
  Ni  Ni182  1  0.11111111  0.66666667  0.07291667  1.0
  Ni  Ni183  1  0.44444444  0.00000000  0.07291667  1.0
  Ni  Ni184  1  0.44444444  0.33333333  0.07291667  1.0
  Ni  Ni185  1  0.44444444  0.66666667  0.07291667  1.0
  Ni  Ni186  1  0.77777778  0.00000000  0.07291667  1.0
  Ni  Ni187  1  0.77777778  0.33333333  0.07291667  1.0
  Ni  Ni188  1  0.77777778  0.66666667  0.07291667  1.0
  Ni  Ni189  1  0.11111111  0.16666667  0.03125000  1.0
  Ni  Ni190  1  0.11111111  0.50000000  0.03125000  1.0
  Ni  Ni191  1  0.11111111  0.83333333  0.03125000  1.0
  Ni  Ni192  1  0.44444444  0.16666667  0.03125000  1.0
  Ni  Ni193  1  0.44444444  0.50000000  0.03125000  1.0
  Ni  Ni194  1  0.44444444  0.83333333  0.03125000  1.0
  Ni  Ni195  1  0.77777778  0.16666667  0.03125000  1.0
  Ni  Ni196  1  0.77777778  0.50000000  0.03125000  1.0
  Ni  Ni197  1  0.77777778  0.83333333  0.03125000  1.0
  Ni  Ni198  1  0.11111111  0.08333333  0.01041667  1.0
  Ni  Ni199  1  0.11111111  0.41666667  0.01041667  1.0
  Ni  Ni200  1  0.11111111  0.75000000  0.01041667  1.0
  Ni  Ni201  1  0.44444444  0.08333333  0.01041667  1.0
  Ni  Ni202  1  0.44444444  0.41666667  0.01041667  1.0
  Ni  Ni203  1  0.44444444  0.75000000  0.01041667  1.0
  Ni  Ni204  1  0.77777778  0.08333333  0.01041667  1.0
  Ni  Ni205  1  0.77777778  0.41666667  0.01041667  1.0
  Ni  Ni206  1  0.77777778  0.75000000  0.01041667  1.0
  Ni  Ni207  1  0.11111111  0.25000000  0.05208333  1.0
  Ni  Ni208  1  0.11111111  0.58333333  0.05208333  1.0
  Ni  Ni209  1  0.11111111  0.91666667  0.05208333  1.0
  Ni  Ni210  1  0.44444444  0.25000000  0.05208333  1.0
  Ni  Ni211  1  0.44444444  0.58333333  0.05208333  1.0
  Ni  Ni212  1  0.44444444  0.91666667  0.05208333  1.0
  Ni  Ni213  1  0.77777778  0.25000000  0.05208333  1.0
  Ni  Ni214  1  0.77777778  0.58333333  0.05208333  1.0
  Ni  Ni215  1  0.77777778  0.91666667  0.05208333  1.0
  Ta  Ta216  1  0.00000000  0.00000000  0.15625000  1.0
  Ta  Ta217  1  0.00000000  0.33333333  0.15625000  1.0
  Ta  Ta218  1  0.00000000  0.66666667  0.15625000  1.0
  Ta  Ta219  1  0.33333333  0.00000000  0.15625000  1.0
  Ta  Ta220  1  0.33333333  0.33333333  0.15625000  1.0
  Ta  Ta221  1  0.33333333  0.66666667  0.15625000  1.0
  Ta  Ta222  1  0.66666667  0.00000000  0.15625000  1.0
  Ta  Ta223  1  0.66666667  0.33333333  0.15625000  1.0
  Ta  Ta224  1  0.66666667  0.66666667  0.15625000  1.0
  Ta  Ta225  1  0.00000000  0.16666667  0.11458333  1.0
  Ta  Ta226  1  0.00000000  0.50000000  0.11458333  1.0
  Ta  Ta227  1  0.00000000  0.83333333  0.11458333  1.0
  Ta  Ta228  1  0.33333333  0.16666667  0.11458333  1.0
  Ta  Ta229  1  0.33333333  0.50000000  0.11458333  1.0
  Ta  Ta230  1  0.33333333  0.83333333  0.11458333  1.0
  Ta  Ta231  1  0.66666667  0.16666667  0.11458333  1.0
  Ta  Ta232  1  0.66666667  0.50000000  0.11458333  1.0
  Ta  Ta233  1  0.66666667  0.83333333  0.11458333  1.0
  Ta  Ta234  1  0.00000000  0.08333333  0.09375000  1.0
  Ta  Ta235  1  0.00000000  0.41666667  0.09375000  1.0
  Ta  Ta236  1  0.00000000  0.75000000  0.09375000  1.0
  Ta  Ta237  1  0.33333333  0.08333333  0.09375000  1.0
  Ta  Ta238  1  0.33333333  0.41666667  0.09375000  1.0
  Ta  Ta239  1  0.33333333  0.75000000  0.09375000  1.0
  Ta  Ta240  1  0.66666667  0.08333333  0.09375000  1.0
  Ta  Ta241  1  0.66666667  0.41666667  0.09375000  1.0
  Ta  Ta242  1  0.66666667  0.75000000  0.09375000  1.0
  Ta  Ta243  1  0.00000000  0.25000000  0.13541667  1.0
  Ta  Ta244  1  0.00000000  0.58333333  0.13541667  1.0
  Ta  Ta245  1  0.00000000  0.91666667  0.13541667  1.0
  Ta  Ta246  1  0.33333333  0.25000000  0.13541667  1.0
  Ta  Ta247  1  0.33333333  0.58333333  0.13541667  1.0
  Ta  Ta248  1  0.33333333  0.91666667  0.13541667  1.0
  Ta  Ta249  1  0.66666667  0.25000000  0.13541667  1.0
  Ta  Ta250  1  0.66666667  0.58333333  0.13541667  1.0
  Ta  Ta251  1  0.66666667  0.91666667  0.13541667  1.0
  Ta  Ta252  1  0.00000000  0.04166667  0.13796350  1.0
  Ta  Ta253  1  0.00000000  0.37500000  0.13796350  1.0
  Ta  Ta254  1  0.00000000  0.70833333  0.13796350  1.0
  Ta  Ta255  1  0.33333333  0.04166667  0.13796350  1.0
  Ta  Ta256  1  0.33333333  0.37500000  0.13796350  1.0
  Ta  Ta257  1  0.33333333  0.70833333  0.13796350  1.0
  Ta  Ta258  1  0.66666667  0.04166667  0.13796350  1.0
  Ta  Ta259  1  0.66666667  0.37500000  0.13796350  1.0
  Ta  Ta260  1  0.66666667  0.70833333  0.13796350  1.0
  Ta  Ta261  1  0.00000000  0.20833333  0.09629683  1.0
  Ta  Ta262  1  0.00000000  0.54166667  0.09629683  1.0
  Ta  Ta263  1  0.00000000  0.87500000  0.09629683  1.0
  Ta  Ta264  1  0.33333333  0.20833333  0.09629683  1.0
  Ta  Ta265  1  0.33333333  0.54166667  0.09629683  1.0
  Ta  Ta266  1  0.33333333  0.87500000  0.09629683  1.0
  Ta  Ta267  1  0.66666667  0.20833333  0.09629683  1.0
  Ta  Ta268  1  0.66666667  0.54166667  0.09629683  1.0
  Ta  Ta269  1  0.66666667  0.87500000  0.09629683  1.0
  Ta  Ta270  1  0.21852067  0.04166667  0.13796350  1.0
  Ta  Ta271  1  0.21852067  0.37500000  0.13796350  1.0
  Ta  Ta272  1  0.21852067  0.70833333  0.13796350  1.0
  Ta  Ta273  1  0.55185400  0.04166667  0.13796350  1.0
  Ta  Ta274  1  0.55185400  0.37500000  0.13796350  1.0
  Ta  Ta275  1  0.55185400  0.70833333  0.13796350  1.0
  Ta  Ta276  1  0.88518733  0.04166667  0.13796350  1.0
  Ta  Ta277  1  0.88518733  0.37500000  0.13796350  1.0
  Ta  Ta278  1  0.88518733  0.70833333  0.13796350  1.0
  Ta  Ta279  1  0.21852067  0.20833333  0.09629683  1.0
  Ta  Ta280  1  0.21852067  0.54166667  0.09629683  1.0
  Ta  Ta281  1  0.21852067  0.87500000  0.09629683  1.0
  Ta  Ta282  1  0.55185400  0.20833333  0.09629683  1.0
  Ta  Ta283  1  0.55185400  0.54166667  0.09629683  1.0
  Ta  Ta284  1  0.55185400  0.87500000  0.09629683  1.0
  Ta  Ta285  1  0.88518733  0.20833333  0.09629683  1.0
  Ta  Ta286  1  0.88518733  0.54166667  0.09629683  1.0
  Ta  Ta287  1  0.88518733  0.87500000  0.09629683  1.0
  Ta  Ta288  1  0.11481267  0.04166667  0.14073967  1.0
  Ta  Ta289  1  0.11481267  0.37500000  0.14073967  1.0
  Ta  Ta290  1  0.11481267  0.70833333  0.14073967  1.0
  Ta  Ta291  1  0.44814600  0.04166667  0.14073967  1.0
  Ta  Ta292  1  0.44814600  0.37500000  0.14073967  1.0
  Ta  Ta293  1  0.44814600  0.70833333  0.14073967  1.0
  Ta  Ta294  1  0.78147933  0.04166667  0.14073967  1.0
  Ta  Ta295  1  0.78147933  0.37500000  0.14073967  1.0
  Ta  Ta296  1  0.78147933  0.70833333  0.14073967  1.0
  Ta  Ta297  1  0.11481267  0.20833333  0.09907300  1.0
  Ta  Ta298  1  0.11481267  0.54166667  0.09907300  1.0
  Ta  Ta299  1  0.11481267  0.87500000  0.09907300  1.0
  Ta  Ta300  1  0.44814600  0.20833333  0.09907300  1.0
  Ta  Ta301  1  0.44814600  0.54166667  0.09907300  1.0
  Ta  Ta302  1  0.44814600  0.87500000  0.09907300  1.0
  Ta  Ta303  1  0.78147933  0.20833333  0.09907300  1.0
  Ta  Ta304  1  0.78147933  0.54166667  0.09907300  1.0
  Ta  Ta305  1  0.78147933  0.87500000  0.09907300  1.0
  Ta  Ta306  1  0.00000000  0.12500000  0.13286983  1.0
  Ta  Ta307  1  0.00000000  0.45833333  0.13286983  1.0
  Ta  Ta308  1  0.00000000  0.79166667  0.13286983  1.0
  Ta  Ta309  1  0.33333333  0.12500000  0.13286983  1.0
  Ta  Ta310  1  0.33333333  0.45833333  0.13286983  1.0
  Ta  Ta311  1  0.33333333  0.79166667  0.13286983  1.0
  Ta  Ta312  1  0.66666667  0.12500000  0.13286983  1.0
  Ta  Ta313  1  0.66666667  0.45833333  0.13286983  1.0
  Ta  Ta314  1  0.66666667  0.79166667  0.13286983  1.0
  Ta  Ta315  1  0.00000000  0.29166667  0.09120317  1.0
  Ta  Ta316  1  0.00000000  0.62500000  0.09120317  1.0
  Ta  Ta317  1  0.00000000  0.95833333  0.09120317  1.0
  Ta  Ta318  1  0.33333333  0.29166667  0.09120317  1.0
  Ta  Ta319  1  0.33333333  0.62500000  0.09120317  1.0
  Ta  Ta320  1  0.33333333  0.95833333  0.09120317  1.0
  Ta  Ta321  1  0.66666667  0.29166667  0.09120317  1.0
  Ta  Ta322  1  0.66666667  0.62500000  0.09120317  1.0
  Ta  Ta323  1  0.66666667  0.95833333  0.09120317  1.0
  Ta  Ta324  1  0.11481267  0.12500000  0.13286983  1.0
  Ta  Ta325  1  0.11481267  0.45833333  0.13286983  1.0
  Ta  Ta326  1  0.11481267  0.79166667  0.13286983  1.0
  Ta  Ta327  1  0.44814600  0.12500000  0.13286983  1.0
  Ta  Ta328  1  0.44814600  0.45833333  0.13286983  1.0
  Ta  Ta329  1  0.44814600  0.79166667  0.13286983  1.0
  Ta  Ta330  1  0.78147933  0.12500000  0.13286983  1.0
  Ta  Ta331  1  0.78147933  0.45833333  0.13286983  1.0
  Ta  Ta332  1  0.78147933  0.79166667  0.13286983  1.0
  Ta  Ta333  1  0.11481267  0.29166667  0.09120317  1.0
  Ta  Ta334  1  0.11481267  0.62500000  0.09120317  1.0
  Ta  Ta335  1  0.11481267  0.95833333  0.09120317  1.0
  Ta  Ta336  1  0.44814600  0.29166667  0.09120317  1.0
  Ta  Ta337  1  0.44814600  0.62500000  0.09120317  1.0
  Ta  Ta338  1  0.44814600  0.95833333  0.09120317  1.0
  Ta  Ta339  1  0.78147933  0.29166667  0.09120317  1.0
  Ta  Ta340  1  0.78147933  0.62500000  0.09120317  1.0
  Ta  Ta341  1  0.78147933  0.95833333  0.09120317  1.0
  Ta  Ta342  1  0.21852067  0.12500000  0.13009367  1.0
  Ta  Ta343  1  0.21852067  0.45833333  0.13009367  1.0
  Ta  Ta344  1  0.21852067  0.79166667  0.13009367  1.0
  Ta  Ta345  1  0.55185400  0.12500000  0.13009367  1.0
  Ta  Ta346  1  0.55185400  0.45833333  0.13009367  1.0
  Ta  Ta347  1  0.55185400  0.79166667  0.13009367  1.0
  Ta  Ta348  1  0.88518733  0.12500000  0.13009367  1.0
  Ta  Ta349  1  0.88518733  0.45833333  0.13009367  1.0
  Ta  Ta350  1  0.88518733  0.79166667  0.13009367  1.0
  Ta  Ta351  1  0.21852067  0.29166667  0.08842700  1.0
  Ta  Ta352  1  0.21852067  0.62500000  0.08842700  1.0
  Ta  Ta353  1  0.21852067  0.95833333  0.08842700  1.0
  Ta  Ta354  1  0.55185400  0.29166667  0.08842700  1.0
  Ta  Ta355  1  0.55185400  0.62500000  0.08842700  1.0
  Ta  Ta356  1  0.55185400  0.95833333  0.08842700  1.0
  Ta  Ta357  1  0.88518733  0.29166667  0.08842700  1.0
  Ta  Ta358  1  0.88518733  0.62500000  0.08842700  1.0
  Ta  Ta359  1  0.88518733  0.95833333  0.08842700  1.0
  Ni  Ni360  1  0.22222222  0.00000000  0.15625000  1.0
  Ni  Ni361  1  0.22222222  0.33333333  0.15625000  1.0
  Ni  Ni362  1  0.22222222  0.66666667  0.15625000  1.0
  Ni  Ni363  1  0.55555556  0.00000000  0.15625000  1.0
  Ni  Ni364  1  0.55555556  0.33333333  0.15625000  1.0
  Ni  Ni365  1  0.55555556  0.66666667  0.15625000  1.0
  Ni  Ni366  1  0.88888889  0.00000000  0.15625000  1.0
  Ni  Ni367  1  0.88888889  0.33333333  0.15625000  1.0
  Ni  Ni368  1  0.88888889  0.66666667  0.15625000  1.0
  Ni  Ni369  1  0.22222222  0.16666667  0.11458333  1.0
  Ni  Ni370  1  0.22222222  0.50000000  0.11458333  1.0
  Ni  Ni371  1  0.22222222  0.83333333  0.11458333  1.0
  Ni  Ni372  1  0.55555556  0.16666667  0.11458333  1.0
  Ni  Ni373  1  0.55555556  0.50000000  0.11458333  1.0
  Ni  Ni374  1  0.55555556  0.83333333  0.11458333  1.0
  Ni  Ni375  1  0.88888889  0.16666667  0.11458333  1.0
  Ni  Ni376  1  0.88888889  0.50000000  0.11458333  1.0
  Ni  Ni377  1  0.88888889  0.83333333  0.11458333  1.0
  Ni  Ni378  1  0.22222222  0.08333333  0.09375000  1.0
  Ni  Ni379  1  0.22222222  0.41666667  0.09375000  1.0
  Ni  Ni380  1  0.22222222  0.75000000  0.09375000  1.0
  Ni  Ni381  1  0.55555556  0.08333333  0.09375000  1.0
  Ni  Ni382  1  0.55555556  0.41666667  0.09375000  1.0
  Ni  Ni383  1  0.55555556  0.75000000  0.09375000  1.0
  Ni  Ni384  1  0.88888889  0.08333333  0.09375000  1.0
  Ni  Ni385  1  0.88888889  0.41666667  0.09375000  1.0
  Ni  Ni386  1  0.88888889  0.75000000  0.09375000  1.0
  Ni  Ni387  1  0.22222222  0.25000000  0.13541667  1.0
  Ni  Ni388  1  0.22222222  0.58333333  0.13541667  1.0
  Ni  Ni389  1  0.22222222  0.91666667  0.13541667  1.0
  Ni  Ni390  1  0.55555556  0.25000000  0.13541667  1.0
  Ni  Ni391  1  0.55555556  0.58333333  0.13541667  1.0
  Ni  Ni392  1  0.55555556  0.91666667  0.13541667  1.0
  Ni  Ni393  1  0.88888889  0.25000000  0.13541667  1.0
  Ni  Ni394  1  0.88888889  0.58333333  0.13541667  1.0
  Ni  Ni395  1  0.88888889  0.91666667  0.13541667  1.0
  Ni  Ni396  1  0.11111111  0.00000000  0.15625000  1.0
  Ni  Ni397  1  0.11111111  0.33333333  0.15625000  1.0
  Ni  Ni398  1  0.11111111  0.66666667  0.15625000  1.0
  Ni  Ni399  1  0.44444444  0.00000000  0.15625000  1.0
  Ni  Ni400  1  0.44444444  0.33333333  0.15625000  1.0
  Ni  Ni401  1  0.44444444  0.66666667  0.15625000  1.0
  Ni  Ni402  1  0.77777778  0.00000000  0.15625000  1.0
  Ni  Ni403  1  0.77777778  0.33333333  0.15625000  1.0
  Ni  Ni404  1  0.77777778  0.66666667  0.15625000  1.0
  Ni  Ni405  1  0.11111111  0.16666667  0.11458333  1.0
  Ni  Ni406  1  0.11111111  0.50000000  0.11458333  1.0
  Ni  Ni407  1  0.11111111  0.83333333  0.11458333  1.0
  Ni  Ni408  1  0.44444444  0.16666667  0.11458333  1.0
  Ni  Ni409  1  0.44444444  0.50000000  0.11458333  1.0
  Ni  Ni410  1  0.44444444  0.83333333  0.11458333  1.0
  Ni  Ni411  1  0.77777778  0.16666667  0.11458333  1.0
  Ni  Ni412  1  0.77777778  0.50000000  0.11458333  1.0
  Ni  Ni413  1  0.77777778  0.83333333  0.11458333  1.0
  Ni  Ni414  1  0.11111111  0.08333333  0.09375000  1.0
  Ni  Ni415  1  0.11111111  0.41666667  0.09375000  1.0
  Ni  Ni416  1  0.11111111  0.75000000  0.09375000  1.0
  Ni  Ni417  1  0.44444444  0.08333333  0.09375000  1.0
  Ni  Ni418  1  0.44444444  0.41666667  0.09375000  1.0
  Ni  Ni419  1  0.44444444  0.75000000  0.09375000  1.0
  Ni  Ni420  1  0.77777778  0.08333333  0.09375000  1.0
  Ni  Ni421  1  0.77777778  0.41666667  0.09375000  1.0
  Ni  Ni422  1  0.77777778  0.75000000  0.09375000  1.0
  Ni  Ni423  1  0.11111111  0.25000000  0.13541667  1.0
  Ni  Ni424  1  0.11111111  0.58333333  0.13541667  1.0
  Ni  Ni425  1  0.11111111  0.91666667  0.13541667  1.0
  Ni  Ni426  1  0.44444444  0.25000000  0.13541667  1.0
  Ni  Ni427  1  0.44444444  0.58333333  0.13541667  1.0
  Ni  Ni428  1  0.44444444  0.91666667  0.13541667  1.0
  Ni  Ni429  1  0.77777778  0.25000000  0.13541667  1.0
  Ni  Ni430  1  0.77777778  0.58333333  0.13541667  1.0
  Ni  Ni431  1  0.77777778  0.91666667  0.13541667  1.0
  Ta  Ta432  1  0.00000000  0.00000000  0.23958333  1.0
  Ta  Ta433  1  0.00000000  0.33333333  0.23958333  1.0
  Ta  Ta434  1  0.00000000  0.66666667  0.23958333  1.0
  Ta  Ta435  1  0.33333333  0.00000000  0.23958333  1.0
  Ta  Ta436  1  0.33333333  0.33333333  0.23958333  1.0
  Ta  Ta437  1  0.33333333  0.66666667  0.23958333  1.0
  Ta  Ta438  1  0.66666667  0.00000000  0.23958333  1.0
  Ta  Ta439  1  0.66666667  0.33333333  0.23958333  1.0
  Ta  Ta440  1  0.66666667  0.66666667  0.23958333  1.0
  Ta  Ta441  1  0.00000000  0.16666667  0.19791667  1.0
  Ta  Ta442  1  0.00000000  0.50000000  0.19791667  1.0
  Ta  Ta443  1  0.00000000  0.83333333  0.19791667  1.0
  Ta  Ta444  1  0.33333333  0.16666667  0.19791667  1.0
  Ta  Ta445  1  0.33333333  0.50000000  0.19791667  1.0
  Ta  Ta446  1  0.33333333  0.83333333  0.19791667  1.0
  Ta  Ta447  1  0.66666667  0.16666667  0.19791667  1.0
  Ta  Ta448  1  0.66666667  0.50000000  0.19791667  1.0
  Ta  Ta449  1  0.66666667  0.83333333  0.19791667  1.0
  Ta  Ta450  1  0.00000000  0.08333333  0.17708333  1.0
  Ta  Ta451  1  0.00000000  0.41666667  0.17708333  1.0
  Ta  Ta452  1  0.00000000  0.75000000  0.17708333  1.0
  Ta  Ta453  1  0.33333333  0.08333333  0.17708333  1.0
  Ta  Ta454  1  0.33333333  0.41666667  0.17708333  1.0
  Ta  Ta455  1  0.33333333  0.75000000  0.17708333  1.0
  Ta  Ta456  1  0.66666667  0.08333333  0.17708333  1.0
  Ta  Ta457  1  0.66666667  0.41666667  0.17708333  1.0
  Ta  Ta458  1  0.66666667  0.75000000  0.17708333  1.0
  Ta  Ta459  1  0.00000000  0.25000000  0.21875000  1.0
  Ta  Ta460  1  0.00000000  0.58333333  0.21875000  1.0
  Ta  Ta461  1  0.00000000  0.91666667  0.21875000  1.0
  Ta  Ta462  1  0.33333333  0.25000000  0.21875000  1.0
  Ta  Ta463  1  0.33333333  0.58333333  0.21875000  1.0
  Ta  Ta464  1  0.33333333  0.91666667  0.21875000  1.0
  Ta  Ta465  1  0.66666667  0.25000000  0.21875000  1.0
  Ta  Ta466  1  0.66666667  0.58333333  0.21875000  1.0
  Ta  Ta467  1  0.66666667  0.91666667  0.21875000  1.0
  Ta  Ta468  1  0.00000000  0.04166667  0.22129683  1.0
  Ta  Ta469  1  0.00000000  0.37500000  0.22129683  1.0
  Ta  Ta470  1  0.00000000  0.70833333  0.22129683  1.0
  Ta  Ta471  1  0.33333333  0.04166667  0.22129683  1.0
  Ta  Ta472  1  0.33333333  0.37500000  0.22129683  1.0
  Ta  Ta473  1  0.33333333  0.70833333  0.22129683  1.0
  Ta  Ta474  1  0.66666667  0.04166667  0.22129683  1.0
  Ta  Ta475  1  0.66666667  0.37500000  0.22129683  1.0
  Ta  Ta476  1  0.66666667  0.70833333  0.22129683  1.0
  Ta  Ta477  1  0.00000000  0.20833333  0.17963017  1.0
  Ta  Ta478  1  0.00000000  0.54166667  0.17963017  1.0
  Ta  Ta479  1  0.00000000  0.87500000  0.17963017  1.0
  Ta  Ta480  1  0.33333333  0.20833333  0.17963017  1.0
  Ta  Ta481  1  0.33333333  0.54166667  0.17963017  1.0
  Ta  Ta482  1  0.33333333  0.87500000  0.17963017  1.0
  Ta  Ta483  1  0.66666667  0.20833333  0.17963017  1.0
  Ta  Ta484  1  0.66666667  0.54166667  0.17963017  1.0
  Ta  Ta485  1  0.66666667  0.87500000  0.17963017  1.0
  Ta  Ta486  1  0.21852067  0.04166667  0.22129683  1.0
  Ta  Ta487  1  0.21852067  0.37500000  0.22129683  1.0
  Ta  Ta488  1  0.21852067  0.70833333  0.22129683  1.0
  Ta  Ta489  1  0.55185400  0.04166667  0.22129683  1.0
  Ta  Ta490  1  0.55185400  0.37500000  0.22129683  1.0
  Ta  Ta491  1  0.55185400  0.70833333  0.22129683  1.0
  Ta  Ta492  1  0.88518733  0.04166667  0.22129683  1.0
  Ta  Ta493  1  0.88518733  0.37500000  0.22129683  1.0
  Ta  Ta494  1  0.88518733  0.70833333  0.22129683  1.0
  Ta  Ta495  1  0.21852067  0.20833333  0.17963017  1.0
  Ta  Ta496  1  0.21852067  0.54166667  0.17963017  1.0
  Ta  Ta497  1  0.21852067  0.87500000  0.17963017  1.0
  Ta  Ta498  1  0.55185400  0.20833333  0.17963017  1.0
  Ta  Ta499  1  0.55185400  0.54166667  0.17963017  1.0
  Ta  Ta500  1  0.55185400  0.87500000  0.17963017  1.0
  Ta  Ta501  1  0.88518733  0.20833333  0.17963017  1.0
  Ta  Ta502  1  0.88518733  0.54166667  0.17963017  1.0
  Ta  Ta503  1  0.88518733  0.87500000  0.17963017  1.0
  Ta  Ta504  1  0.11481267  0.04166667  0.22407300  1.0
  Ta  Ta505  1  0.11481267  0.37500000  0.22407300  1.0
  Ta  Ta506  1  0.11481267  0.70833333  0.22407300  1.0
  Ta  Ta507  1  0.44814600  0.04166667  0.22407300  1.0
  Ta  Ta508  1  0.44814600  0.37500000  0.22407300  1.0
  Ta  Ta509  1  0.44814600  0.70833333  0.22407300  1.0
  Ta  Ta510  1  0.78147933  0.04166667  0.22407300  1.0
  Ta  Ta511  1  0.78147933  0.37500000  0.22407300  1.0
  Ta  Ta512  1  0.78147933  0.70833333  0.22407300  1.0
  Ta  Ta513  1  0.11481267  0.20833333  0.18240633  1.0
  Ta  Ta514  1  0.11481267  0.54166667  0.18240633  1.0
  Ta  Ta515  1  0.11481267  0.87500000  0.18240633  1.0
  Ta  Ta516  1  0.44814600  0.20833333  0.18240633  1.0
  Ta  Ta517  1  0.44814600  0.54166667  0.18240633  1.0
  Ta  Ta518  1  0.44814600  0.87500000  0.18240633  1.0
  Ta  Ta519  1  0.78147933  0.20833333  0.18240633  1.0
  Ta  Ta520  1  0.78147933  0.54166667  0.18240633  1.0
  Ta  Ta521  1  0.78147933  0.87500000  0.18240633  1.0
  Ta  Ta522  1  0.00000000  0.12500000  0.21620317  1.0
  Ta  Ta523  1  0.00000000  0.45833333  0.21620317  1.0
  Ta  Ta524  1  0.00000000  0.79166667  0.21620317  1.0
  Ta  Ta525  1  0.33333333  0.12500000  0.21620317  1.0
  Ta  Ta526  1  0.33333333  0.45833333  0.21620317  1.0
  Ta  Ta527  1  0.33333333  0.79166667  0.21620317  1.0
  Ta  Ta528  1  0.66666667  0.12500000  0.21620317  1.0
  Ta  Ta529  1  0.66666667  0.45833333  0.21620317  1.0
  Ta  Ta530  1  0.66666667  0.79166667  0.21620317  1.0
  Ta  Ta531  1  0.00000000  0.29166667  0.17453650  1.0
  Ta  Ta532  1  0.00000000  0.62500000  0.17453650  1.0
  Ta  Ta533  1  0.00000000  0.95833333  0.17453650  1.0
  Ta  Ta534  1  0.33333333  0.29166667  0.17453650  1.0
  Ta  Ta535  1  0.33333333  0.62500000  0.17453650  1.0
  Ta  Ta536  1  0.33333333  0.95833333  0.17453650  1.0
  Ta  Ta537  1  0.66666667  0.29166667  0.17453650  1.0
  Ta  Ta538  1  0.66666667  0.62500000  0.17453650  1.0
  Ta  Ta539  1  0.66666667  0.95833333  0.17453650  1.0
  Ta  Ta540  1  0.11481267  0.12500000  0.21620317  1.0
  Ta  Ta541  1  0.11481267  0.45833333  0.21620317  1.0
  Ta  Ta542  1  0.11481267  0.79166667  0.21620317  1.0
  Ta  Ta543  1  0.44814600  0.12500000  0.21620317  1.0
  Ta  Ta544  1  0.44814600  0.45833333  0.21620317  1.0
  Ta  Ta545  1  0.44814600  0.79166667  0.21620317  1.0
  Ta  Ta546  1  0.78147933  0.12500000  0.21620317  1.0
  Ta  Ta547  1  0.78147933  0.45833333  0.21620317  1.0
  Ta  Ta548  1  0.78147933  0.79166667  0.21620317  1.0
  Ta  Ta549  1  0.11481267  0.29166667  0.17453650  1.0
  Ta  Ta550  1  0.11481267  0.62500000  0.17453650  1.0
  Ta  Ta551  1  0.11481267  0.95833333  0.17453650  1.0
  Ta  Ta552  1  0.44814600  0.29166667  0.17453650  1.0
  Ta  Ta553  1  0.44814600  0.62500000  0.17453650  1.0
  Ta  Ta554  1  0.44814600  0.95833333  0.17453650  1.0
  Ta  Ta555  1  0.78147933  0.29166667  0.17453650  1.0
  Ta  Ta556  1  0.78147933  0.62500000  0.17453650  1.0
  Ta  Ta557  1  0.78147933  0.95833333  0.17453650  1.0
  Ta  Ta558  1  0.21852067  0.12500000  0.21342700  1.0
  Ta  Ta559  1  0.21852067  0.45833333  0.21342700  1.0
  Ta  Ta560  1  0.21852067  0.79166667  0.21342700  1.0
  Ta  Ta561  1  0.55185400  0.12500000  0.21342700  1.0
  Ta  Ta562  1  0.55185400  0.45833333  0.21342700  1.0
  Ta  Ta563  1  0.55185400  0.79166667  0.21342700  1.0
  Ta  Ta564  1  0.88518733  0.12500000  0.21342700  1.0
  Ta  Ta565  1  0.88518733  0.45833333  0.21342700  1.0
  Ta  Ta566  1  0.88518733  0.79166667  0.21342700  1.0
  Ta  Ta567  1  0.21852067  0.29166667  0.17176033  1.0
  Ta  Ta568  1  0.21852067  0.62500000  0.17176033  1.0
  Ta  Ta569  1  0.21852067  0.95833333  0.17176033  1.0
  Ta  Ta570  1  0.55185400  0.29166667  0.17176033  1.0
  Ta  Ta571  1  0.55185400  0.62500000  0.17176033  1.0
  Ta  Ta572  1  0.55185400  0.95833333  0.17176033  1.0
  Ta  Ta573  1  0.88518733  0.29166667  0.17176033  1.0
  Ta  Ta574  1  0.88518733  0.62500000  0.17176033  1.0
  Ta  Ta575  1  0.88518733  0.95833333  0.17176033  1.0
  Ni  Ni576  1  0.22222222  0.00000000  0.23958333  1.0
  Ni  Ni577  1  0.22222222  0.33333333  0.23958333  1.0
  Ni  Ni578  1  0.22222222  0.66666667  0.23958333  1.0
  Ni  Ni579  1  0.55555556  0.00000000  0.23958333  1.0
  Ni  Ni580  1  0.55555556  0.33333333  0.23958333  1.0
  Ni  Ni581  1  0.55555556  0.66666667  0.23958333  1.0
  Ni  Ni582  1  0.88888889  0.00000000  0.23958333  1.0
  Ni  Ni583  1  0.88888889  0.33333333  0.23958333  1.0
  Ni  Ni584  1  0.88888889  0.66666667  0.23958333  1.0
  Ni  Ni585  1  0.22222222  0.16666667  0.19791667  1.0
  Ni  Ni586  1  0.22222222  0.50000000  0.19791667  1.0
  Ni  Ni587  1  0.22222222  0.83333333  0.19791667  1.0
  Ni  Ni588  1  0.55555556  0.16666667  0.19791667  1.0
  Ni  Ni589  1  0.55555556  0.50000000  0.19791667  1.0
  Ni  Ni590  1  0.55555556  0.83333333  0.19791667  1.0
  Ni  Ni591  1  0.88888889  0.16666667  0.19791667  1.0
  Ni  Ni592  1  0.88888889  0.50000000  0.19791667  1.0
  Ni  Ni593  1  0.88888889  0.83333333  0.19791667  1.0
  Ni  Ni594  1  0.22222222  0.08333333  0.17708333  1.0
  Ni  Ni595  1  0.22222222  0.41666667  0.17708333  1.0
  Ni  Ni596  1  0.22222222  0.75000000  0.17708333  1.0
  Ni  Ni597  1  0.55555556  0.08333333  0.17708333  1.0
  Ni  Ni598  1  0.55555556  0.41666667  0.17708333  1.0
  Ni  Ni599  1  0.55555556  0.75000000  0.17708333  1.0
  Ni  Ni600  1  0.88888889  0.08333333  0.17708333  1.0
  Ni  Ni601  1  0.88888889  0.41666667  0.17708333  1.0
  Ni  Ni602  1  0.88888889  0.75000000  0.17708333  1.0
  Ni  Ni603  1  0.22222222  0.25000000  0.21875000  1.0
  Ni  Ni604  1  0.22222222  0.58333333  0.21875000  1.0
  Ni  Ni605  1  0.22222222  0.91666667  0.21875000  1.0
  Ni  Ni606  1  0.55555556  0.25000000  0.21875000  1.0
  Ni  Ni607  1  0.55555556  0.58333333  0.21875000  1.0
  Ni  Ni608  1  0.55555556  0.91666667  0.21875000  1.0
  Ni  Ni609  1  0.88888889  0.25000000  0.21875000  1.0
  Ni  Ni610  1  0.88888889  0.58333333  0.21875000  1.0
  Ni  Ni611  1  0.88888889  0.91666667  0.21875000  1.0
  Ni  Ni612  1  0.11111111  0.00000000  0.23958333  1.0
  Ni  Ni613  1  0.11111111  0.33333333  0.23958333  1.0
  Ni  Ni614  1  0.11111111  0.66666667  0.23958333  1.0
  Ni  Ni615  1  0.44444444  0.00000000  0.23958333  1.0
  Ni  Ni616  1  0.44444444  0.33333333  0.23958333  1.0
  Ni  Ni617  1  0.44444444  0.66666667  0.23958333  1.0
  Ni  Ni618  1  0.77777778  0.00000000  0.23958333  1.0
  Ni  Ni619  1  0.77777778  0.33333333  0.23958333  1.0
  Ni  Ni620  1  0.77777778  0.66666667  0.23958333  1.0
  Ni  Ni621  1  0.11111111  0.16666667  0.19791667  1.0
  Ni  Ni622  1  0.11111111  0.50000000  0.19791667  1.0
  Ni  Ni623  1  0.11111111  0.83333333  0.19791667  1.0
  Ni  Ni624  1  0.44444444  0.16666667  0.19791667  1.0
  Ni  Ni625  1  0.44444444  0.50000000  0.19791667  1.0
  Ni  Ni626  1  0.44444444  0.83333333  0.19791667  1.0
  Ni  Ni627  1  0.77777778  0.16666667  0.19791667  1.0
  Ni  Ni628  1  0.77777778  0.50000000  0.19791667  1.0
  Ni  Ni629  1  0.77777778  0.83333333  0.19791667  1.0
  Ni  Ni630  1  0.11111111  0.08333333  0.17708333  1.0
  Ni  Ni631  1  0.11111111  0.41666667  0.17708333  1.0
  Ni  Ni632  1  0.11111111  0.75000000  0.17708333  1.0
  Ni  Ni633  1  0.44444444  0.08333333  0.17708333  1.0
  Ni  Ni634  1  0.44444444  0.41666667  0.17708333  1.0
  Ni  Ni635  1  0.44444444  0.75000000  0.17708333  1.0
  Ni  Ni636  1  0.77777778  0.08333333  0.17708333  1.0
  Ni  Ni637  1  0.77777778  0.41666667  0.17708333  1.0
  Ni  Ni638  1  0.77777778  0.75000000  0.17708333  1.0
  Ni  Ni639  1  0.11111111  0.25000000  0.21875000  1.0
  Ni  Ni640  1  0.11111111  0.58333333  0.21875000  1.0
  Ni  Ni641  1  0.11111111  0.91666667  0.21875000  1.0
  Ni  Ni642  1  0.44444444  0.25000000  0.21875000  1.0
  Ni  Ni643  1  0.44444444  0.58333333  0.21875000  1.0
  Ni  Ni644  1  0.44444444  0.91666667  0.21875000  1.0
  Ni  Ni645  1  0.77777778  0.25000000  0.21875000  1.0
  Ni  Ni646  1  0.77777778  0.58333333  0.21875000  1.0
  Ni  Ni647  1  0.77777778  0.91666667  0.21875000  1.0
  Ta  Ta648  1  0.00000000  0.00000000  0.32291667  1.0
  Ta  Ta649  1  0.00000000  0.33333333  0.32291667  1.0
  Ta  Ta650  1  0.00000000  0.66666667  0.32291667  1.0
  Ta  Ta651  1  0.33333333  0.00000000  0.32291667  1.0
  Ta  Ta652  1  0.33333333  0.33333333  0.32291667  1.0
  Ta  Ta653  1  0.33333333  0.66666667  0.32291667  1.0
  Ta  Ta654  1  0.66666667  0.00000000  0.32291667  1.0
  Ta  Ta655  1  0.66666667  0.33333333  0.32291667  1.0
  Ta  Ta656  1  0.66666667  0.66666667  0.32291667  1.0
  Ta  Ta657  1  0.00000000  0.16666667  0.28125000  1.0
  Ta  Ta658  1  0.00000000  0.50000000  0.28125000  1.0
  Ta  Ta659  1  0.00000000  0.83333333  0.28125000  1.0
  Ta  Ta660  1  0.33333333  0.16666667  0.28125000  1.0
  Ta  Ta661  1  0.33333333  0.50000000  0.28125000  1.0
  Ta  Ta662  1  0.33333333  0.83333333  0.28125000  1.0
  Ta  Ta663  1  0.66666667  0.16666667  0.28125000  1.0
  Ta  Ta664  1  0.66666667  0.50000000  0.28125000  1.0
  Ta  Ta665  1  0.66666667  0.83333333  0.28125000  1.0
  Ta  Ta666  1  0.00000000  0.08333333  0.26041667  1.0
  Ta  Ta667  1  0.00000000  0.41666667  0.26041667  1.0
  Ta  Ta668  1  0.00000000  0.75000000  0.26041667  1.0
  Ta  Ta669  1  0.33333333  0.08333333  0.26041667  1.0
  Ta  Ta670  1  0.33333333  0.41666667  0.26041667  1.0
  Ta  Ta671  1  0.33333333  0.75000000  0.26041667  1.0
  Ta  Ta672  1  0.66666667  0.08333333  0.26041667  1.0
  Ta  Ta673  1  0.66666667  0.41666667  0.26041667  1.0
  Ta  Ta674  1  0.66666667  0.75000000  0.26041667  1.0
  Ta  Ta675  1  0.00000000  0.25000000  0.30208333  1.0
  Ta  Ta676  1  0.00000000  0.58333333  0.30208333  1.0
  Ta  Ta677  1  0.00000000  0.91666667  0.30208333  1.0
  Ta  Ta678  1  0.33333333  0.25000000  0.30208333  1.0
  Ta  Ta679  1  0.33333333  0.58333333  0.30208333  1.0
  Ta  Ta680  1  0.33333333  0.91666667  0.30208333  1.0
  Ta  Ta681  1  0.66666667  0.25000000  0.30208333  1.0
  Ta  Ta682  1  0.66666667  0.58333333  0.30208333  1.0
  Ta  Ta683  1  0.66666667  0.91666667  0.30208333  1.0
  Ta  Ta684  1  0.00000000  0.04166667  0.30463017  1.0
  Ta  Ta685  1  0.00000000  0.37500000  0.30463017  1.0
  Ta  Ta686  1  0.00000000  0.70833333  0.30463017  1.0
  Ta  Ta687  1  0.33333333  0.04166667  0.30463017  1.0
  Ta  Ta688  1  0.33333333  0.37500000  0.30463017  1.0
  Ta  Ta689  1  0.33333333  0.70833333  0.30463017  1.0
  Ta  Ta690  1  0.66666667  0.04166667  0.30463017  1.0
  Ta  Ta691  1  0.66666667  0.37500000  0.30463017  1.0
  Ta  Ta692  1  0.66666667  0.70833333  0.30463017  1.0
  Ta  Ta693  1  0.00000000  0.20833333  0.26296350  1.0
  Ta  Ta694  1  0.00000000  0.54166667  0.26296350  1.0
  Ta  Ta695  1  0.00000000  0.87500000  0.26296350  1.0
  Ta  Ta696  1  0.33333333  0.20833333  0.26296350  1.0
  Ta  Ta697  1  0.33333333  0.54166667  0.26296350  1.0
  Ta  Ta698  1  0.33333333  0.87500000  0.26296350  1.0
  Ta  Ta699  1  0.66666667  0.20833333  0.26296350  1.0
  Ta  Ta700  1  0.66666667  0.54166667  0.26296350  1.0
  Ta  Ta701  1  0.66666667  0.87500000  0.26296350  1.0
  Ta  Ta702  1  0.21852067  0.04166667  0.30463017  1.0
  Ta  Ta703  1  0.21852067  0.37500000  0.30463017  1.0
  Ta  Ta704  1  0.21852067  0.70833333  0.30463017  1.0
  Ta  Ta705  1  0.55185400  0.04166667  0.30463017  1.0
  Ta  Ta706  1  0.55185400  0.37500000  0.30463017  1.0
  Ta  Ta707  1  0.55185400  0.70833333  0.30463017  1.0
  Ta  Ta708  1  0.88518733  0.04166667  0.30463017  1.0
  Ta  Ta709  1  0.88518733  0.37500000  0.30463017  1.0
  Ta  Ta710  1  0.88518733  0.70833333  0.30463017  1.0
  Ta  Ta711  1  0.21852067  0.20833333  0.26296350  1.0
  Ta  Ta712  1  0.21852067  0.54166667  0.26296350  1.0
  Ta  Ta713  1  0.21852067  0.87500000  0.26296350  1.0
  Ta  Ta714  1  0.55185400  0.20833333  0.26296350  1.0
  Ta  Ta715  1  0.55185400  0.54166667  0.26296350  1.0
  Ta  Ta716  1  0.55185400  0.87500000  0.26296350  1.0
  Ta  Ta717  1  0.88518733  0.20833333  0.26296350  1.0
  Ta  Ta718  1  0.88518733  0.54166667  0.26296350  1.0
  Ta  Ta719  1  0.88518733  0.87500000  0.26296350  1.0
  Ta  Ta720  1  0.11481267  0.04166667  0.30740633  1.0
  Ta  Ta721  1  0.11481267  0.37500000  0.30740633  1.0
  Ta  Ta722  1  0.11481267  0.70833333  0.30740633  1.0
  Ta  Ta723  1  0.44814600  0.04166667  0.30740633  1.0
  Ta  Ta724  1  0.44814600  0.37500000  0.30740633  1.0
  Ta  Ta725  1  0.44814600  0.70833333  0.30740633  1.0
  Ta  Ta726  1  0.78147933  0.04166667  0.30740633  1.0
  Ta  Ta727  1  0.78147933  0.37500000  0.30740633  1.0
  Ta  Ta728  1  0.78147933  0.70833333  0.30740633  1.0
  Ta  Ta729  1  0.11481267  0.20833333  0.26573967  1.0
  Ta  Ta730  1  0.11481267  0.54166667  0.26573967  1.0
  Ta  Ta731  1  0.11481267  0.87500000  0.26573967  1.0
  Ta  Ta732  1  0.44814600  0.20833333  0.26573967  1.0
  Ta  Ta733  1  0.44814600  0.54166667  0.26573967  1.0
  Ta  Ta734  1  0.44814600  0.87500000  0.26573967  1.0
  Ta  Ta735  1  0.78147933  0.20833333  0.26573967  1.0
  Ta  Ta736  1  0.78147933  0.54166667  0.26573967  1.0
  Ta  Ta737  1  0.78147933  0.87500000  0.26573967  1.0
  Ta  Ta738  1  0.00000000  0.12500000  0.29953650  1.0
  Ta  Ta739  1  0.00000000  0.45833333  0.29953650  1.0
  Ta  Ta740  1  0.00000000  0.79166667  0.29953650  1.0
  Ta  Ta741  1  0.33333333  0.12500000  0.29953650  1.0
  Ta  Ta742  1  0.33333333  0.45833333  0.29953650  1.0
  Ta  Ta743  1  0.33333333  0.79166667  0.29953650  1.0
  Ta  Ta744  1  0.66666667  0.12500000  0.29953650  1.0
  Ta  Ta745  1  0.66666667  0.45833333  0.29953650  1.0
  Ta  Ta746  1  0.66666667  0.79166667  0.29953650  1.0
  Ta  Ta747  1  0.00000000  0.29166667  0.25786983  1.0
  Ta  Ta748  1  0.00000000  0.62500000  0.25786983  1.0
  Ta  Ta749  1  0.00000000  0.95833333  0.25786983  1.0
  Ta  Ta750  1  0.33333333  0.29166667  0.25786983  1.0
  Ta  Ta751  1  0.33333333  0.62500000  0.25786983  1.0
  Ta  Ta752  1  0.33333333  0.95833333  0.25786983  1.0
  Ta  Ta753  1  0.66666667  0.29166667  0.25786983  1.0
  Ta  Ta754  1  0.66666667  0.62500000  0.25786983  1.0
  Ta  Ta755  1  0.66666667  0.95833333  0.25786983  1.0
  Ta  Ta756  1  0.11481267  0.12500000  0.29953650  1.0
  Ta  Ta757  1  0.11481267  0.45833333  0.29953650  1.0
  Ta  Ta758  1  0.11481267  0.79166667  0.29953650  1.0
  Ta  Ta759  1  0.44814600  0.12500000  0.29953650  1.0
  Ta  Ta760  1  0.44814600  0.45833333  0.29953650  1.0
  Ta  Ta761  1  0.44814600  0.79166667  0.29953650  1.0
  Ta  Ta762  1  0.78147933  0.12500000  0.29953650  1.0
  Ta  Ta763  1  0.78147933  0.45833333  0.29953650  1.0
  Ta  Ta764  1  0.78147933  0.79166667  0.29953650  1.0
  Ta  Ta765  1  0.11481267  0.29166667  0.25786983  1.0
  Ta  Ta766  1  0.11481267  0.62500000  0.25786983  1.0
  Ta  Ta767  1  0.11481267  0.95833333  0.25786983  1.0
  Ta  Ta768  1  0.44814600  0.29166667  0.25786983  1.0
  Ta  Ta769  1  0.44814600  0.62500000  0.25786983  1.0
  Ta  Ta770  1  0.44814600  0.95833333  0.25786983  1.0
  Ta  Ta771  1  0.78147933  0.29166667  0.25786983  1.0
  Ta  Ta772  1  0.78147933  0.62500000  0.25786983  1.0
  Ta  Ta773  1  0.78147933  0.95833333  0.25786983  1.0
  Ta  Ta774  1  0.21852067  0.12500000  0.29676033  1.0
  Ta  Ta775  1  0.21852067  0.45833333  0.29676033  1.0
  Ta  Ta776  1  0.21852067  0.79166667  0.29676033  1.0
  Ta  Ta777  1  0.55185400  0.12500000  0.29676033  1.0
  Ta  Ta778  1  0.55185400  0.45833333  0.29676033  1.0
  Ta  Ta779  1  0.55185400  0.79166667  0.29676033  1.0
  Ta  Ta780  1  0.88518733  0.12500000  0.29676033  1.0
  Ta  Ta781  1  0.88518733  0.45833333  0.29676033  1.0
  Ta  Ta782  1  0.88518733  0.79166667  0.29676033  1.0
  Ta  Ta783  1  0.21852067  0.29166667  0.25509367  1.0
  Ta  Ta784  1  0.21852067  0.62500000  0.25509367  1.0
  Ta  Ta785  1  0.21852067  0.95833333  0.25509367  1.0
  Ta  Ta786  1  0.55185400  0.29166667  0.25509367  1.0
  Ta  Ta787  1  0.55185400  0.62500000  0.25509367  1.0
  Ta  Ta788  1  0.55185400  0.95833333  0.25509367  1.0
  Ta  Ta789  1  0.88518733  0.29166667  0.25509367  1.0
  Ta  Ta790  1  0.88518733  0.62500000  0.25509367  1.0
  Ta  Ta791  1  0.88518733  0.95833333  0.25509367  1.0
  Ni  Ni792  1  0.22222222  0.00000000  0.32291667  1.0
  Ni  Ni793  1  0.22222222  0.33333333  0.32291667  1.0
  Ni  Ni794  1  0.22222222  0.66666667  0.32291667  1.0
  Ni  Ni795  1  0.55555556  0.00000000  0.32291667  1.0
  Ni  Ni796  1  0.55555556  0.33333333  0.32291667  1.0
  Ni  Ni797  1  0.55555556  0.66666667  0.32291667  1.0
  Ni  Ni798  1  0.88888889  0.00000000  0.32291667  1.0
  Ni  Ni799  1  0.88888889  0.33333333  0.32291667  1.0
  Ni  Ni800  1  0.88888889  0.66666667  0.32291667  1.0
  Ni  Ni801  1  0.22222222  0.16666667  0.28125000  1.0
  Ni  Ni802  1  0.22222222  0.50000000  0.28125000  1.0
  Ni  Ni803  1  0.22222222  0.83333333  0.28125000  1.0
  Ni  Ni804  1  0.55555556  0.16666667  0.28125000  1.0
  Ni  Ni805  1  0.55555556  0.50000000  0.28125000  1.0
  Ni  Ni806  1  0.55555556  0.83333333  0.28125000  1.0
  Ni  Ni807  1  0.88888889  0.16666667  0.28125000  1.0
  Ni  Ni808  1  0.88888889  0.50000000  0.28125000  1.0
  Ni  Ni809  1  0.88888889  0.83333333  0.28125000  1.0
  Ni  Ni810  1  0.22222222  0.08333333  0.26041667  1.0
  Ni  Ni811  1  0.22222222  0.41666667  0.26041667  1.0
  Ni  Ni812  1  0.22222222  0.75000000  0.26041667  1.0
  Ni  Ni813  1  0.55555556  0.08333333  0.26041667  1.0
  Ni  Ni814  1  0.55555556  0.41666667  0.26041667  1.0
  Ni  Ni815  1  0.55555556  0.75000000  0.26041667  1.0
  Ni  Ni816  1  0.88888889  0.08333333  0.26041667  1.0
  Ni  Ni817  1  0.88888889  0.41666667  0.26041667  1.0
  Ni  Ni818  1  0.88888889  0.75000000  0.26041667  1.0
  Ni  Ni819  1  0.22222222  0.25000000  0.30208333  1.0
  Ni  Ni820  1  0.22222222  0.58333333  0.30208333  1.0
  Ni  Ni821  1  0.22222222  0.91666667  0.30208333  1.0
  Ni  Ni822  1  0.55555556  0.25000000  0.30208333  1.0
  Ni  Ni823  1  0.55555556  0.58333333  0.30208333  1.0
  Ni  Ni824  1  0.55555556  0.91666667  0.30208333  1.0
  Ni  Ni825  1  0.88888889  0.25000000  0.30208333  1.0
  Ni  Ni826  1  0.88888889  0.58333333  0.30208333  1.0
  Ni  Ni827  1  0.88888889  0.91666667  0.30208333  1.0
  Ni  Ni828  1  0.11111111  0.00000000  0.32291667  1.0
  Ni  Ni829  1  0.11111111  0.33333333  0.32291667  1.0
  Ni  Ni830  1  0.11111111  0.66666667  0.32291667  1.0
  Ni  Ni831  1  0.44444444  0.00000000  0.32291667  1.0
  Ni  Ni832  1  0.44444444  0.33333333  0.32291667  1.0
  Ni  Ni833  1  0.44444444  0.66666667  0.32291667  1.0
  Ni  Ni834  1  0.77777778  0.00000000  0.32291667  1.0
  Ni  Ni835  1  0.77777778  0.33333333  0.32291667  1.0
  Ni  Ni836  1  0.77777778  0.66666667  0.32291667  1.0
  Ni  Ni837  1  0.11111111  0.16666667  0.28125000  1.0
  Ni  Ni838  1  0.11111111  0.50000000  0.28125000  1.0
  Ni  Ni839  1  0.11111111  0.83333333  0.28125000  1.0
  Ni  Ni840  1  0.44444444  0.16666667  0.28125000  1.0
  Ni  Ni841  1  0.44444444  0.50000000  0.28125000  1.0
  Ni  Ni842  1  0.44444444  0.83333333  0.28125000  1.0
  Ni  Ni843  1  0.77777778  0.16666667  0.28125000  1.0
  Ni  Ni844  1  0.77777778  0.50000000  0.28125000  1.0
  Ni  Ni845  1  0.77777778  0.83333333  0.28125000  1.0
  Ni  Ni846  1  0.11111111  0.08333333  0.26041667  1.0
  Ni  Ni847  1  0.11111111  0.41666667  0.26041667  1.0
  Ni  Ni848  1  0.11111111  0.75000000  0.26041667  1.0
  Ni  Ni849  1  0.44444444  0.08333333  0.26041667  1.0
  Ni  Ni850  1  0.44444444  0.41666667  0.26041667  1.0
  Ni  Ni851  1  0.44444444  0.75000000  0.26041667  1.0
  Ni  Ni852  1  0.77777778  0.08333333  0.26041667  1.0
  Ni  Ni853  1  0.77777778  0.41666667  0.26041667  1.0
  Ni  Ni854  1  0.77777778  0.75000000  0.26041667  1.0
  Ni  Ni855  1  0.11111111  0.25000000  0.30208333  1.0
  Ni  Ni856  1  0.11111111  0.58333333  0.30208333  1.0
  Ni  Ni857  1  0.11111111  0.91666667  0.30208333  1.0
  Ni  Ni858  1  0.44444444  0.25000000  0.30208333  1.0
  Ni  Ni859  1  0.44444444  0.58333333  0.30208333  1.0
  Ni  Ni860  1  0.44444444  0.91666667  0.30208333  1.0
  Ni  Ni861  1  0.77777778  0.25000000  0.30208333  1.0
  Ni  Ni862  1  0.77777778  0.58333333  0.30208333  1.0
  Ni  Ni863  1  0.77777778  0.91666667  0.30208333  1.0
  Ta  Ta864  1  0.00000000  0.00000000  0.40625000  1.0
  Ta  Ta865  1  0.00000000  0.33333333  0.40625000  1.0
  Ta  Ta866  1  0.00000000  0.66666667  0.40625000  1.0
  Ta  Ta867  1  0.33333333  0.00000000  0.40625000  1.0
  Ta  Ta868  1  0.33333333  0.33333333  0.40625000  1.0
  Ta  Ta869  1  0.33333333  0.66666667  0.40625000  1.0
  Ta  Ta870  1  0.66666667  0.00000000  0.40625000  1.0
  Ta  Ta871  1  0.66666667  0.33333333  0.40625000  1.0
  Ta  Ta872  1  0.66666667  0.66666667  0.40625000  1.0
  Ta  Ta873  1  0.00000000  0.16666667  0.36458333  1.0
  Ta  Ta874  1  0.00000000  0.50000000  0.36458333  1.0
  Ta  Ta875  1  0.00000000  0.83333333  0.36458333  1.0
  Ta  Ta876  1  0.33333333  0.16666667  0.36458333  1.0
  Ta  Ta877  1  0.33333333  0.50000000  0.36458333  1.0
  Ta  Ta878  1  0.33333333  0.83333333  0.36458333  1.0
  Ta  Ta879  1  0.66666667  0.16666667  0.36458333  1.0
  Ta  Ta880  1  0.66666667  0.50000000  0.36458333  1.0
  Ta  Ta881  1  0.66666667  0.83333333  0.36458333  1.0
  Ta  Ta882  1  0.00000000  0.08333333  0.34375000  1.0
  Ta  Ta883  1  0.00000000  0.41666667  0.34375000  1.0
  Ta  Ta884  1  0.00000000  0.75000000  0.34375000  1.0
  Ta  Ta885  1  0.33333333  0.08333333  0.34375000  1.0
  Ta  Ta886  1  0.33333333  0.41666667  0.34375000  1.0
  Ta  Ta887  1  0.33333333  0.75000000  0.34375000  1.0
  Ta  Ta888  1  0.66666667  0.08333333  0.34375000  1.0
  Ta  Ta889  1  0.66666667  0.41666667  0.34375000  1.0
  Ta  Ta890  1  0.66666667  0.75000000  0.34375000  1.0
  Ta  Ta891  1  0.00000000  0.25000000  0.38541667  1.0
  Ta  Ta892  1  0.00000000  0.58333333  0.38541667  1.0
  Ta  Ta893  1  0.00000000  0.91666667  0.38541667  1.0
  Ta  Ta894  1  0.33333333  0.25000000  0.38541667  1.0
  Ta  Ta895  1  0.33333333  0.58333333  0.38541667  1.0
  Ta  Ta896  1  0.33333333  0.91666667  0.38541667  1.0
  Ta  Ta897  1  0.66666667  0.25000000  0.38541667  1.0
  Ta  Ta898  1  0.66666667  0.58333333  0.38541667  1.0
  Ta  Ta899  1  0.66666667  0.91666667  0.38541667  1.0
  Ta  Ta900  1  0.00000000  0.04166667  0.38796350  1.0
  Ta  Ta901  1  0.00000000  0.37500000  0.38796350  1.0
  Ta  Ta902  1  0.00000000  0.70833333  0.38796350  1.0
  Ta  Ta903  1  0.33333333  0.04166667  0.38796350  1.0
  Ta  Ta904  1  0.33333333  0.37500000  0.38796350  1.0
  Ta  Ta905  1  0.33333333  0.70833333  0.38796350  1.0
  Ta  Ta906  1  0.66666667  0.04166667  0.38796350  1.0
  Ta  Ta907  1  0.66666667  0.37500000  0.38796350  1.0
  Ta  Ta908  1  0.66666667  0.70833333  0.38796350  1.0
  Ta  Ta909  1  0.00000000  0.20833333  0.34629683  1.0
  Ta  Ta910  1  0.00000000  0.54166667  0.34629683  1.0
  Ta  Ta911  1  0.00000000  0.87500000  0.34629683  1.0
  Ta  Ta912  1  0.33333333  0.20833333  0.34629683  1.0
  Ta  Ta913  1  0.33333333  0.54166667  0.34629683  1.0
  Ta  Ta914  1  0.33333333  0.87500000  0.34629683  1.0
  Ta  Ta915  1  0.66666667  0.20833333  0.34629683  1.0
  Ta  Ta916  1  0.66666667  0.54166667  0.34629683  1.0
  Ta  Ta917  1  0.66666667  0.87500000  0.34629683  1.0
  Ta  Ta918  1  0.21852067  0.04166667  0.38796350  1.0
  Ta  Ta919  1  0.21852067  0.37500000  0.38796350  1.0
  Ta  Ta920  1  0.21852067  0.70833333  0.38796350  1.0
  Ta  Ta921  1  0.55185400  0.04166667  0.38796350  1.0
  Ta  Ta922  1  0.55185400  0.37500000  0.38796350  1.0
  Ta  Ta923  1  0.55185400  0.70833333  0.38796350  1.0
  Ta  Ta924  1  0.88518733  0.04166667  0.38796350  1.0
  Ta  Ta925  1  0.88518733  0.37500000  0.38796350  1.0
  Ta  Ta926  1  0.88518733  0.70833333  0.38796350  1.0
  Ta  Ta927  1  0.21852067  0.20833333  0.34629683  1.0
  Ta  Ta928  1  0.21852067  0.54166667  0.34629683  1.0
  Ta  Ta929  1  0.21852067  0.87500000  0.34629683  1.0
  Ta  Ta930  1  0.55185400  0.20833333  0.34629683  1.0
  Ta  Ta931  1  0.55185400  0.54166667  0.34629683  1.0
  Ta  Ta932  1  0.55185400  0.87500000  0.34629683  1.0
  Ta  Ta933  1  0.88518733  0.20833333  0.34629683  1.0
  Ta  Ta934  1  0.88518733  0.54166667  0.34629683  1.0
  Ta  Ta935  1  0.88518733  0.87500000  0.34629683  1.0
  Ta  Ta936  1  0.11481267  0.04166667  0.39073967  1.0
  Ta  Ta937  1  0.11481267  0.37500000  0.39073967  1.0
  Ta  Ta938  1  0.11481267  0.70833333  0.39073967  1.0
  Ta  Ta939  1  0.44814600  0.04166667  0.39073967  1.0
  Ta  Ta940  1  0.44814600  0.37500000  0.39073967  1.0
  Ta  Ta941  1  0.44814600  0.70833333  0.39073967  1.0
  Ta  Ta942  1  0.78147933  0.04166667  0.39073967  1.0
  Ta  Ta943  1  0.78147933  0.37500000  0.39073967  1.0
  Ta  Ta944  1  0.78147933  0.70833333  0.39073967  1.0
  Ta  Ta945  1  0.11481267  0.20833333  0.34907300  1.0
  Ta  Ta946  1  0.11481267  0.54166667  0.34907300  1.0
  Ta  Ta947  1  0.11481267  0.87500000  0.34907300  1.0
  Ta  Ta948  1  0.44814600  0.20833333  0.34907300  1.0
  Ta  Ta949  1  0.44814600  0.54166667  0.34907300  1.0
  Ta  Ta950  1  0.44814600  0.87500000  0.34907300  1.0
  Ta  Ta951  1  0.78147933  0.20833333  0.34907300  1.0
  Ta  Ta952  1  0.78147933  0.54166667  0.34907300  1.0
  Ta  Ta953  1  0.78147933  0.87500000  0.34907300  1.0
  Ta  Ta954  1  0.00000000  0.12500000  0.38286983  1.0
  Ta  Ta955  1  0.00000000  0.45833333  0.38286983  1.0
  Ta  Ta956  1  0.00000000  0.79166667  0.38286983  1.0
  Ta  Ta957  1  0.33333333  0.12500000  0.38286983  1.0
  Ta  Ta958  1  0.33333333  0.45833333  0.38286983  1.0
  Ta  Ta959  1  0.33333333  0.79166667  0.38286983  1.0
  Ta  Ta960  1  0.66666667  0.12500000  0.38286983  1.0
  Ta  Ta961  1  0.66666667  0.45833333  0.38286983  1.0
  Ta  Ta962  1  0.66666667  0.79166667  0.38286983  1.0
  Ta  Ta963  1  0.00000000  0.29166667  0.34120317  1.0
  Ta  Ta964  1  0.00000000  0.62500000  0.34120317  1.0
  Ta  Ta965  1  0.00000000  0.95833333  0.34120317  1.0
  Ta  Ta966  1  0.33333333  0.29166667  0.34120317  1.0
  Ta  Ta967  1  0.33333333  0.62500000  0.34120317  1.0
  Ta  Ta968  1  0.33333333  0.95833333  0.34120317  1.0
  Ta  Ta969  1  0.66666667  0.29166667  0.34120317  1.0
  Ta  Ta970  1  0.66666667  0.62500000  0.34120317  1.0
  Ta  Ta971  1  0.66666667  0.95833333  0.34120317  1.0
  Ta  Ta972  1  0.11481267  0.12500000  0.38286983  1.0
  Ta  Ta973  1  0.11481267  0.45833333  0.38286983  1.0
  Ta  Ta974  1  0.11481267  0.79166667  0.38286983  1.0
  Ta  Ta975  1  0.44814600  0.12500000  0.38286983  1.0
  Ta  Ta976  1  0.44814600  0.45833333  0.38286983  1.0
  Ta  Ta977  1  0.44814600  0.79166667  0.38286983  1.0
  Ta  Ta978  1  0.78147933  0.12500000  0.38286983  1.0
  Ta  Ta979  1  0.78147933  0.45833333  0.38286983  1.0
  Ta  Ta980  1  0.78147933  0.79166667  0.38286983  1.0
  Ta  Ta981  1  0.11481267  0.29166667  0.34120317  1.0
  Ta  Ta982  1  0.11481267  0.62500000  0.34120317  1.0
  Ta  Ta983  1  0.11481267  0.95833333  0.34120317  1.0
  Ta  Ta984  1  0.44814600  0.29166667  0.34120317  1.0
  Ta  Ta985  1  0.44814600  0.62500000  0.34120317  1.0
  Ta  Ta986  1  0.44814600  0.95833333  0.34120317  1.0
  Ta  Ta987  1  0.78147933  0.29166667  0.34120317  1.0
  Ta  Ta988  1  0.78147933  0.62500000  0.34120317  1.0
  Ta  Ta989  1  0.78147933  0.95833333  0.34120317  1.0
  Ta  Ta990  1  0.21852067  0.12500000  0.38009367  1.0
  Ta  Ta991  1  0.21852067  0.45833333  0.38009367  1.0
  Ta  Ta992  1  0.21852067  0.79166667  0.38009367  1.0
  Ta  Ta993  1  0.55185400  0.12500000  0.38009367  1.0
  Ta  Ta994  1  0.55185400  0.45833333  0.38009367  1.0
  Ta  Ta995  1  0.55185400  0.79166667  0.38009367  1.0
  Ta  Ta996  1  0.88518733  0.12500000  0.38009367  1.0
  Ta  Ta997  1  0.88518733  0.45833333  0.38009367  1.0
  Ta  Ta998  1  0.88518733  0.79166667  0.38009367  1.0
  Ta  Ta999  1  0.21852067  0.29166667  0.33842700  1.0
  Ta  Ta1000  1  0.21852067  0.62500000  0.33842700  1.0
  Ta  Ta1001  1  0.21852067  0.95833333  0.33842700  1.0
  Ta  Ta1002  1  0.55185400  0.29166667  0.33842700  1.0
  Ta  Ta1003  1  0.55185400  0.62500000  0.33842700  1.0
  Ta  Ta1004  1  0.55185400  0.95833333  0.33842700  1.0
  Ta  Ta1005  1  0.88518733  0.29166667  0.33842700  1.0
  Ta  Ta1006  1  0.88518733  0.62500000  0.33842700  1.0
  Ta  Ta1007  1  0.88518733  0.95833333  0.33842700  1.0
  Ni  Ni1008  1  0.22222222  0.00000000  0.40625000  1.0
  Ni  Ni1009  1  0.22222222  0.33333333  0.40625000  1.0
  Ni  Ni1010  1  0.22222222  0.66666667  0.40625000  1.0
  Ni  Ni1011  1  0.55555556  0.00000000  0.40625000  1.0
  Ni  Ni1012  1  0.55555556  0.33333333  0.40625000  1.0
  Ni  Ni1013  1  0.55555556  0.66666667  0.40625000  1.0
  Ni  Ni1014  1  0.88888889  0.00000000  0.40625000  1.0
  Ni  Ni1015  1  0.88888889  0.33333333  0.40625000  1.0
  Ni  Ni1016  1  0.88888889  0.66666667  0.40625000  1.0
  Ni  Ni1017  1  0.22222222  0.16666667  0.36458333  1.0
  Ni  Ni1018  1  0.22222222  0.50000000  0.36458333  1.0
  Ni  Ni1019  1  0.22222222  0.83333333  0.36458333  1.0
  Ni  Ni1020  1  0.55555556  0.16666667  0.36458333  1.0
  Ni  Ni1021  1  0.55555556  0.50000000  0.36458333  1.0
  Ni  Ni1022  1  0.55555556  0.83333333  0.36458333  1.0
  Ni  Ni1023  1  0.88888889  0.16666667  0.36458333  1.0
  Ni  Ni1024  1  0.88888889  0.50000000  0.36458333  1.0
  Ni  Ni1025  1  0.88888889  0.83333333  0.36458333  1.0
  Ni  Ni1026  1  0.22222222  0.08333333  0.34375000  1.0
  Ni  Ni1027  1  0.22222222  0.41666667  0.34375000  1.0
  Ni  Ni1028  1  0.22222222  0.75000000  0.34375000  1.0
  Ni  Ni1029  1  0.55555556  0.08333333  0.34375000  1.0
  Ni  Ni1030  1  0.55555556  0.41666667  0.34375000  1.0
  Ni  Ni1031  1  0.55555556  0.75000000  0.34375000  1.0
  Ni  Ni1032  1  0.88888889  0.08333333  0.34375000  1.0
  Ni  Ni1033  1  0.88888889  0.41666667  0.34375000  1.0
  Ni  Ni1034  1  0.88888889  0.75000000  0.34375000  1.0
  Ni  Ni1035  1  0.22222222  0.25000000  0.38541667  1.0
  Ni  Ni1036  1  0.22222222  0.58333333  0.38541667  1.0
  Ni  Ni1037  1  0.22222222  0.91666667  0.38541667  1.0
  Ni  Ni1038  1  0.55555556  0.25000000  0.38541667  1.0
  Ni  Ni1039  1  0.55555556  0.58333333  0.38541667  1.0
  Ni  Ni1040  1  0.55555556  0.91666667  0.38541667  1.0
  Ni  Ni1041  1  0.88888889  0.25000000  0.38541667  1.0
  Ni  Ni1042  1  0.88888889  0.58333333  0.38541667  1.0
  Ni  Ni1043  1  0.88888889  0.91666667  0.38541667  1.0
  Ni  Ni1044  1  0.11111111  0.00000000  0.40625000  1.0
  Ni  Ni1045  1  0.11111111  0.33333333  0.40625000  1.0
  Ni  Ni1046  1  0.11111111  0.66666667  0.40625000  1.0
  Ni  Ni1047  1  0.44444444  0.00000000  0.40625000  1.0
  Ni  Ni1048  1  0.44444444  0.33333333  0.40625000  1.0
  Ni  Ni1049  1  0.44444444  0.66666667  0.40625000  1.0
  Ni  Ni1050  1  0.77777778  0.00000000  0.40625000  1.0
  Ni  Ni1051  1  0.77777778  0.33333333  0.40625000  1.0
  Ni  Ni1052  1  0.77777778  0.66666667  0.40625000  1.0
  Ni  Ni1053  1  0.11111111  0.16666667  0.36458333  1.0
  Ni  Ni1054  1  0.11111111  0.50000000  0.36458333  1.0
  Ni  Ni1055  1  0.11111111  0.83333333  0.36458333  1.0
  Ni  Ni1056  1  0.44444444  0.16666667  0.36458333  1.0
  Ni  Ni1057  1  0.44444444  0.50000000  0.36458333  1.0
  Ni  Ni1058  1  0.44444444  0.83333333  0.36458333  1.0
  Ni  Ni1059  1  0.77777778  0.16666667  0.36458333  1.0
  Ni  Ni1060  1  0.77777778  0.50000000  0.36458333  1.0
  Ni  Ni1061  1  0.77777778  0.83333333  0.36458333  1.0
  Ni  Ni1062  1  0.11111111  0.08333333  0.34375000  1.0
  Ni  Ni1063  1  0.11111111  0.41666667  0.34375000  1.0
  Ni  Ni1064  1  0.11111111  0.75000000  0.34375000  1.0
  Ni  Ni1065  1  0.44444444  0.08333333  0.34375000  1.0
  Ni  Ni1066  1  0.44444444  0.41666667  0.34375000  1.0
  Ni  Ni1067  1  0.44444444  0.75000000  0.34375000  1.0
  Ni  Ni1068  1  0.77777778  0.08333333  0.34375000  1.0
  Ni  Ni1069  1  0.77777778  0.41666667  0.34375000  1.0
  Ni  Ni1070  1  0.77777778  0.75000000  0.34375000  1.0
  Ni  Ni1071  1  0.11111111  0.25000000  0.38541667  1.0
  Ni  Ni1072  1  0.11111111  0.58333333  0.38541667  1.0
  Ni  Ni1073  1  0.11111111  0.91666667  0.38541667  1.0
  Ni  Ni1074  1  0.44444444  0.25000000  0.38541667  1.0
  Ni  Ni1075  1  0.44444444  0.58333333  0.38541667  1.0
  Ni  Ni1076  1  0.44444444  0.91666667  0.38541667  1.0
  Ni  Ni1077  1  0.77777778  0.25000000  0.38541667  1.0
  Ni  Ni1078  1  0.77777778  0.58333333  0.38541667  1.0
  Ni  Ni1079  1  0.77777778  0.91666667  0.38541667  1.0
