# generated using pymatgen
data_Ta5Ni
_symmetry_space_group_name_H-M   'P 1'
_cell_length_a   25.22430624
_cell_length_b   35.67255599
_cell_length_c   33.63240832
_cell_angle_alpha   90.00000000
_cell_angle_beta   90.00000000
_cell_angle_gamma   90.00000000
_symmetry_Int_Tables_number   1
_chemical_formula_structural   Ta5Ni
_chemical_formula_sum   'Ta720 Ni144'
_cell_volume   30262.96152018
_cell_formula_units_Z   144
loop_
 _symmetry_equiv_pos_site_id
 _symmetry_equiv_pos_as_xyz
  1  'x, y, z'
loop_
 _atom_site_type_symbol
 _atom_site_label
 _atom_site_symmetry_multiplicity
 _atom_site_fract_x
 _atom_site_fract_y
 _atom_site_fract_z
 _atom_site_occupancy
  Ni  Ni0  1  0.00000000  0.04166667  0.83407108  1.0
  Ni  Ni1  1  0.00000000  0.37500000  0.83407108  1.0
  Ni  Ni2  1  0.00000000  0.70833333  0.83407108  1.0
  Ni  Ni3  1  0.33333333  0.04166667  0.83407108  1.0
  Ni  Ni4  1  0.33333333  0.37500000  0.83407108  1.0
  Ni  Ni5  1  0.33333333  0.70833333  0.83407108  1.0
  Ni  Ni6  1  0.66666667  0.04166667  0.83407108  1.0
  Ni  Ni7  1  0.66666667  0.37500000  0.83407108  1.0
  Ni  Ni8  1  0.66666667  0.70833333  0.83407108  1.0
  Ni  Ni9  1  0.16666667  0.20833333  0.95907108  1.0
  Ni  Ni10  1  0.16666667  0.54166667  0.95907108  1.0
  Ni  Ni11  1  0.16666667  0.87500000  0.95907108  1.0
  Ni  Ni12  1  0.50000000  0.20833333  0.95907108  1.0
  Ni  Ni13  1  0.50000000  0.54166667  0.95907108  1.0
  Ni  Ni14  1  0.50000000  0.87500000  0.95907108  1.0
  Ni  Ni15  1  0.83333333  0.20833333  0.95907108  1.0
  Ni  Ni16  1  0.83333333  0.54166667  0.95907108  1.0
  Ni  Ni17  1  0.83333333  0.87500000  0.95907108  1.0
  Ni  Ni18  1  0.25000000  0.12500000  0.89657108  1.0
  Ni  Ni19  1  0.25000000  0.45833333  0.89657108  1.0
  Ni  Ni20  1  0.25000000  0.79166667  0.89657108  1.0
  Ni  Ni21  1  0.58333333  0.12500000  0.89657108  1.0
  Ni  Ni22  1  0.58333333  0.45833333  0.89657108  1.0
  Ni  Ni23  1  0.58333333  0.79166667  0.89657108  1.0
  Ni  Ni24  1  0.91666667  0.12500000  0.89657108  1.0
  Ni  Ni25  1  0.91666667  0.45833333  0.89657108  1.0
  Ni  Ni26  1  0.91666667  0.79166667  0.89657108  1.0
  Ni  Ni27  1  0.08333333  0.29166667  0.77157108  1.0
  Ni  Ni28  1  0.08333333  0.62500000  0.77157108  1.0
  Ni  Ni29  1  0.08333333  0.95833333  0.77157108  1.0
  Ni  Ni30  1  0.41666667  0.29166667  0.77157108  1.0
  Ni  Ni31  1  0.41666667  0.62500000  0.77157108  1.0
  Ni  Ni32  1  0.41666667  0.95833333  0.77157108  1.0
  Ni  Ni33  1  0.75000000  0.29166667  0.77157108  1.0
  Ni  Ni34  1  0.75000000  0.62500000  0.77157108  1.0
  Ni  Ni35  1  0.75000000  0.95833333  0.77157108  1.0
  Ni  Ni36  1  0.08333333  0.12500000  0.89657108  1.0
  Ni  Ni37  1  0.08333333  0.45833333  0.89657108  1.0
  Ni  Ni38  1  0.08333333  0.79166667  0.89657108  1.0
  Ni  Ni39  1  0.41666667  0.12500000  0.89657108  1.0
  Ni  Ni40  1  0.41666667  0.45833333  0.89657108  1.0
  Ni  Ni41  1  0.41666667  0.79166667  0.89657108  1.0
  Ni  Ni42  1  0.75000000  0.12500000  0.89657108  1.0
  Ni  Ni43  1  0.75000000  0.45833333  0.89657108  1.0
  Ni  Ni44  1  0.75000000  0.79166667  0.89657108  1.0
  Ni  Ni45  1  0.25000000  0.29166667  0.77157108  1.0
  Ni  Ni46  1  0.25000000  0.62500000  0.77157108  1.0
  Ni  Ni47  1  0.25000000  0.95833333  0.77157108  1.0
  Ni  Ni48  1  0.58333333  0.29166667  0.77157108  1.0
  Ni  Ni49  1  0.58333333  0.62500000  0.77157108  1.0
  Ni  Ni50  1  0.58333333  0.95833333  0.77157108  1.0
  Ni  Ni51  1  0.91666667  0.29166667  0.77157108  1.0
  Ni  Ni52  1  0.91666667  0.62500000  0.77157108  1.0
  Ni  Ni53  1  0.91666667  0.95833333  0.77157108  1.0
  Ni  Ni54  1  0.00000000  0.04166667  0.95907108  1.0
  Ni  Ni55  1  0.00000000  0.37500000  0.95907108  1.0
  Ni  Ni56  1  0.00000000  0.70833333  0.95907108  1.0
  Ni  Ni57  1  0.33333333  0.04166667  0.95907108  1.0
  Ni  Ni58  1  0.33333333  0.37500000  0.95907108  1.0
  Ni  Ni59  1  0.33333333  0.70833333  0.95907108  1.0
  Ni  Ni60  1  0.66666667  0.04166667  0.95907108  1.0
  Ni  Ni61  1  0.66666667  0.37500000  0.95907108  1.0
  Ni  Ni62  1  0.66666667  0.70833333  0.95907108  1.0
  Ni  Ni63  1  0.16666667  0.20833333  0.83407108  1.0
  Ni  Ni64  1  0.16666667  0.54166667  0.83407108  1.0
  Ni  Ni65  1  0.16666667  0.87500000  0.83407108  1.0
  Ni  Ni66  1  0.50000000  0.20833333  0.83407108  1.0
  Ni  Ni67  1  0.50000000  0.54166667  0.83407108  1.0
  Ni  Ni68  1  0.50000000  0.87500000  0.83407108  1.0
  Ni  Ni69  1  0.83333333  0.20833333  0.83407108  1.0
  Ni  Ni70  1  0.83333333  0.54166667  0.83407108  1.0
  Ni  Ni71  1  0.83333333  0.87500000  0.83407108  1.0
  Ni  Ni72  1  0.00000000  0.04166667  0.58407108  1.0
  Ni  Ni73  1  0.00000000  0.37500000  0.58407108  1.0
  Ni  Ni74  1  0.00000000  0.70833333  0.58407108  1.0
  Ni  Ni75  1  0.33333333  0.04166667  0.58407108  1.0
  Ni  Ni76  1  0.33333333  0.37500000  0.58407108  1.0
  Ni  Ni77  1  0.33333333  0.70833333  0.58407108  1.0
  Ni  Ni78  1  0.66666667  0.04166667  0.58407108  1.0
  Ni  Ni79  1  0.66666667  0.37500000  0.58407108  1.0
  Ni  Ni80  1  0.66666667  0.70833333  0.58407108  1.0
  Ni  Ni81  1  0.16666667  0.20833333  0.70907108  1.0
  Ni  Ni82  1  0.16666667  0.54166667  0.70907108  1.0
  Ni  Ni83  1  0.16666667  0.87500000  0.70907108  1.0
  Ni  Ni84  1  0.50000000  0.20833333  0.70907108  1.0
  Ni  Ni85  1  0.50000000  0.54166667  0.70907108  1.0
  Ni  Ni86  1  0.50000000  0.87500000  0.70907108  1.0
  Ni  Ni87  1  0.83333333  0.20833333  0.70907108  1.0
  Ni  Ni88  1  0.83333333  0.54166667  0.70907108  1.0
  Ni  Ni89  1  0.83333333  0.87500000  0.70907108  1.0
  Ni  Ni90  1  0.25000000  0.12500000  0.64657108  1.0
  Ni  Ni91  1  0.25000000  0.45833333  0.64657108  1.0
  Ni  Ni92  1  0.25000000  0.79166667  0.64657108  1.0
  Ni  Ni93  1  0.58333333  0.12500000  0.64657108  1.0
  Ni  Ni94  1  0.58333333  0.45833333  0.64657108  1.0
  Ni  Ni95  1  0.58333333  0.79166667  0.64657108  1.0
  Ni  Ni96  1  0.91666667  0.12500000  0.64657108  1.0
  Ni  Ni97  1  0.91666667  0.45833333  0.64657108  1.0
  Ni  Ni98  1  0.91666667  0.79166667  0.64657108  1.0
  Ni  Ni99  1  0.08333333  0.29166667  0.52157108  1.0
  Ni  Ni100  1  0.08333333  0.62500000  0.52157108  1.0
  Ni  Ni101  1  0.08333333  0.95833333  0.52157108  1.0
  Ni  Ni102  1  0.41666667  0.29166667  0.52157108  1.0
  Ni  Ni103  1  0.41666667  0.62500000  0.52157108  1.0
  Ni  Ni104  1  0.41666667  0.95833333  0.52157108  1.0
  Ni  Ni105  1  0.75000000  0.29166667  0.52157108  1.0
  Ni  Ni106  1  0.75000000  0.62500000  0.52157108  1.0
  Ni  Ni107  1  0.75000000  0.95833333  0.52157108  1.0
  Ni  Ni108  1  0.08333333  0.12500000  0.64657108  1.0
  Ni  Ni109  1  0.08333333  0.45833333  0.64657108  1.0
  Ni  Ni110  1  0.08333333  0.79166667  0.64657108  1.0
  Ni  Ni111  1  0.41666667  0.12500000  0.64657108  1.0
  Ni  Ni112  1  0.41666667  0.45833333  0.64657108  1.0
  Ni  Ni113  1  0.41666667  0.79166667  0.64657108  1.0
  Ni  Ni114  1  0.75000000  0.12500000  0.64657108  1.0
  Ni  Ni115  1  0.75000000  0.45833333  0.64657108  1.0
  Ni  Ni116  1  0.75000000  0.79166667  0.64657108  1.0
  Ni  Ni117  1  0.25000000  0.29166667  0.52157108  1.0
  Ni  Ni118  1  0.25000000  0.62500000  0.52157108  1.0
  Ni  Ni119  1  0.25000000  0.95833333  0.52157108  1.0
  Ni  Ni120  1  0.58333333  0.29166667  0.52157108  1.0
  Ni  Ni121  1  0.58333333  0.62500000  0.52157108  1.0
  Ni  Ni122  1  0.58333333  0.95833333  0.52157108  1.0
  Ni  Ni123  1  0.91666667  0.29166667  0.52157108  1.0
  Ni  Ni124  1  0.91666667  0.62500000  0.52157108  1.0
  Ni  Ni125  1  0.91666667  0.95833333  0.52157108  1.0
  Ni  Ni126  1  0.33333333  0.04166667  0.70907108  1.0
  Ni  Ni127  1  0.33333333  0.37500000  0.70907108  1.0
  Ni  Ni128  1  0.33333333  0.70833333  0.70907108  1.0
  Ni  Ni129  1  0.66666667  0.04166667  0.70907108  1.0
  Ni  Ni130  1  0.66666667  0.37500000  0.70907108  1.0
  Ni  Ni131  1  0.66666667  0.70833333  0.70907108  1.0
  Ni  Ni132  1  0.00000000  0.04166667  0.70907108  1.0
  Ni  Ni133  1  1.00000000  0.37500000  0.70907108  1.0
  Ni  Ni134  1  1.00000000  0.70833333  0.70907108  1.0
  Ni  Ni135  1  0.16666667  0.20833333  0.58407108  1.0
  Ni  Ni136  1  0.16666667  0.54166667  0.58407108  1.0
  Ni  Ni137  1  0.16666667  0.87500000  0.58407108  1.0
  Ni  Ni138  1  0.50000000  0.20833333  0.58407108  1.0
  Ni  Ni139  1  0.50000000  0.54166667  0.58407108  1.0
  Ni  Ni140  1  0.50000000  0.87500000  0.58407108  1.0
  Ni  Ni141  1  0.83333333  0.20833333  0.58407108  1.0
  Ni  Ni142  1  0.83333333  0.54166667  0.58407108  1.0
  Ni  Ni143  1  0.83333333  0.87500000  0.58407108  1.0
  Ta  Ta144  1  0.33333333  0.30457189  0.97842892  1.0
  Ta  Ta145  1  0.33333333  0.63790522  0.97842892  1.0
  Ta  Ta146  1  0.33333333  0.97123856  0.97842891  1.0
  Ta  Ta147  1  0.66666667  0.30457189  0.97842892  1.0
  Ta  Ta148  1  0.66666667  0.63790522  0.97842892  1.0
  Ta  Ta149  1  0.66666667  0.97123856  0.97842892  1.0
  Ta  Ta150  1  1.00000000  0.30457189  0.97842892  1.0
  Ta  Ta151  1  1.00000000  0.63790522  0.97842892  1.0
  Ta  Ta152  1  1.00000000  0.97123856  0.97842892  1.0
  Ta  Ta153  1  0.16666667  0.13790522  0.85342891  1.0
  Ta  Ta154  1  0.16666667  0.47123856  0.85342891  1.0
  Ta  Ta155  1  0.16666667  0.80457189  0.85342891  1.0
  Ta  Ta156  1  0.50000000  0.13790522  0.85342891  1.0
  Ta  Ta157  1  0.50000000  0.47123856  0.85342892  1.0
  Ta  Ta158  1  0.50000000  0.80457189  0.85342891  1.0
  Ta  Ta159  1  0.83333333  0.13790522  0.85342891  1.0
  Ta  Ta160  1  0.83333333  0.47123856  0.85342891  1.0
  Ta  Ta161  1  0.83333333  0.80457189  0.85342891  1.0
  Ta  Ta162  1  0.10914378  0.19542811  0.89657108  1.0
  Ta  Ta163  1  0.10914378  0.52876145  0.89657108  1.0
  Ta  Ta164  1  0.10914378  0.86209478  0.89657108  1.0
  Ta  Ta165  1  0.44247711  0.19542811  0.89657108  1.0
  Ta  Ta166  1  0.44247711  0.52876145  0.89657108  1.0
  Ta  Ta167  1  0.44247711  0.86209478  0.89657108  1.0
  Ta  Ta168  1  0.77581044  0.19542811  0.89657108  1.0
  Ta  Ta169  1  0.77581044  0.52876145  0.89657108  1.0
  Ta  Ta170  1  0.77581044  0.86209478  0.89657108  1.0
  Ta  Ta171  1  0.27581045  0.02876145  0.77157108  1.0
  Ta  Ta172  1  0.27581045  0.36209478  0.77157108  1.0
  Ta  Ta173  1  0.27581045  0.69542811  0.77157108  1.0
  Ta  Ta174  1  0.60914378  0.02876145  0.77157108  1.0
  Ta  Ta175  1  0.60914378  0.36209478  0.77157108  1.0
  Ta  Ta176  1  0.60914378  0.69542811  0.77157108  1.0
  Ta  Ta177  1  0.94247711  0.02876145  0.77157108  1.0
  Ta  Ta178  1  0.94247711  0.36209478  0.77157108  1.0
  Ta  Ta179  1  0.94247711  0.69542811  0.77157108  1.0
  Ta  Ta180  1  0.22418955  0.19542811  0.89657108  1.0
  Ta  Ta181  1  0.22418955  0.52876145  0.89657108  1.0
  Ta  Ta182  1  0.22418955  0.86209478  0.89657108  1.0
  Ta  Ta183  1  0.55752289  0.19542811  0.89657108  1.0
  Ta  Ta184  1  0.55752289  0.52876145  0.89657108  1.0
  Ta  Ta185  1  0.55752289  0.86209478  0.89657108  1.0
  Ta  Ta186  1  0.89085622  0.19542811  0.89657108  1.0
  Ta  Ta187  1  0.89085622  0.52876145  0.89657108  1.0
  Ta  Ta188  1  0.89085622  0.86209478  0.89657108  1.0
  Ta  Ta189  1  0.05752289  0.02876145  0.77157108  1.0
  Ta  Ta190  1  0.05752289  0.36209478  0.77157108  1.0
  Ta  Ta191  1  0.05752289  0.69542811  0.77157108  1.0
  Ta  Ta192  1  0.39085622  0.02876145  0.77157108  1.0
  Ta  Ta193  1  0.39085622  0.36209478  0.77157108  1.0
  Ta  Ta194  1  0.39085622  0.69542811  0.77157108  1.0
  Ta  Ta195  1  0.72418956  0.02876145  0.77157108  1.0
  Ta  Ta196  1  0.72418956  0.36209478  0.77157108  1.0
  Ta  Ta197  1  0.72418956  0.69542811  0.77157108  1.0
  Ta  Ta198  1  0.00000000  0.30457189  0.81471325  1.0
  Ta  Ta199  1  0.00000000  0.63790522  0.81471325  1.0
  Ta  Ta200  1  0.00000000  0.97123856  0.81471325  1.0
  Ta  Ta201  1  0.33333333  0.30457189  0.81471325  1.0
  Ta  Ta202  1  0.33333333  0.63790522  0.81471325  1.0
  Ta  Ta203  1  0.33333333  0.97123856  0.81471325  1.0
  Ta  Ta204  1  0.66666667  0.30457189  0.81471325  1.0
  Ta  Ta205  1  0.66666667  0.63790522  0.81471325  1.0
  Ta  Ta206  1  0.66666667  0.97123856  0.81471325  1.0
  Ta  Ta207  1  0.16666667  0.13790522  0.93971325  1.0
  Ta  Ta208  1  0.16666667  0.47123856  0.93971325  1.0
  Ta  Ta209  1  0.16666667  0.80457189  0.93971325  1.0
  Ta  Ta210  1  0.50000000  0.13790522  0.93971325  1.0
  Ta  Ta211  1  0.50000000  0.47123856  0.93971325  1.0
  Ta  Ta212  1  0.50000000  0.80457189  0.93971325  1.0
  Ta  Ta213  1  0.83333333  0.13790522  0.93971325  1.0
  Ta  Ta214  1  0.83333333  0.47123856  0.93971325  1.0
  Ta  Ta215  1  0.83333333  0.80457189  0.93971325  1.0
  Ta  Ta216  1  0.00000000  0.11209478  0.93971325  1.0
  Ta  Ta217  1  0.00000000  0.44542811  0.93971325  1.0
  Ta  Ta218  1  0.00000000  0.77876144  0.93971325  1.0
  Ta  Ta219  1  0.33333333  0.11209478  0.93971325  1.0
  Ta  Ta220  1  0.33333333  0.44542811  0.93971325  1.0
  Ta  Ta221  1  0.33333333  0.77876144  0.93971325  1.0
  Ta  Ta222  1  0.66666667  0.11209478  0.93971325  1.0
  Ta  Ta223  1  0.66666667  0.44542811  0.93971325  1.0
  Ta  Ta224  1  0.66666667  0.77876144  0.93971325  1.0
  Ta  Ta225  1  0.16666667  0.27876144  0.81471325  1.0
  Ta  Ta226  1  0.16666667  0.61209478  0.81471325  1.0
  Ta  Ta227  1  0.16666667  0.94542811  0.81471325  1.0
  Ta  Ta228  1  0.50000000  0.27876144  0.81471325  1.0
  Ta  Ta229  1  0.50000000  0.61209478  0.81471325  1.0
  Ta  Ta230  1  0.50000000  0.94542811  0.81471325  1.0
  Ta  Ta231  1  0.83333333  0.27876144  0.81471325  1.0
  Ta  Ta232  1  0.83333333  0.61209478  0.81471325  1.0
  Ta  Ta233  1  0.83333333  0.94542811  0.81471325  1.0
  Ta  Ta234  1  0.22418956  0.22123856  0.77157108  1.0
  Ta  Ta235  1  0.22418956  0.55457189  0.77157108  1.0
  Ta  Ta236  1  0.22418956  0.88790522  0.77157108  1.0
  Ta  Ta237  1  0.55752289  0.22123856  0.77157108  1.0
  Ta  Ta238  1  0.55752289  0.55457189  0.77157108  1.0
  Ta  Ta239  1  0.55752289  0.88790522  0.77157108  1.0
  Ta  Ta240  1  0.89085622  0.22123856  0.77157108  1.0
  Ta  Ta241  1  0.89085622  0.55457189  0.77157108  1.0
  Ta  Ta242  1  0.89085622  0.88790522  0.77157108  1.0
  Ta  Ta243  1  0.05752289  0.05457189  0.89657108  1.0
  Ta  Ta244  1  0.05752289  0.38790522  0.89657108  1.0
  Ta  Ta245  1  0.05752289  0.72123856  0.89657108  1.0
  Ta  Ta246  1  0.39085622  0.05457189  0.89657108  1.0
  Ta  Ta247  1  0.39085622  0.38790522  0.89657108  1.0
  Ta  Ta248  1  0.39085622  0.72123856  0.89657108  1.0
  Ta  Ta249  1  0.72418956  0.05457189  0.89657108  1.0
  Ta  Ta250  1  0.72418956  0.38790522  0.89657108  1.0
  Ta  Ta251  1  0.72418956  0.72123856  0.89657108  1.0
  Ta  Ta252  1  0.10914378  0.22123856  0.77157108  1.0
  Ta  Ta253  1  0.10914378  0.55457189  0.77157108  1.0
  Ta  Ta254  1  0.10914378  0.88790522  0.77157108  1.0
  Ta  Ta255  1  0.44247711  0.22123856  0.77157108  1.0
  Ta  Ta256  1  0.44247711  0.55457189  0.77157108  1.0
  Ta  Ta257  1  0.44247711  0.88790522  0.77157108  1.0
  Ta  Ta258  1  0.77581045  0.22123856  0.77157108  1.0
  Ta  Ta259  1  0.77581045  0.55457189  0.77157108  1.0
  Ta  Ta260  1  0.77581044  0.88790522  0.77157108  1.0
  Ta  Ta261  1  0.27581045  0.05457189  0.89657108  1.0
  Ta  Ta262  1  0.27581045  0.38790522  0.89657108  1.0
  Ta  Ta263  1  0.27581045  0.72123856  0.89657108  1.0
  Ta  Ta264  1  0.60914378  0.05457189  0.89657108  1.0
  Ta  Ta265  1  0.60914378  0.38790522  0.89657108  1.0
  Ta  Ta266  1  0.60914378  0.72123856  0.89657108  1.0
  Ta  Ta267  1  0.94247711  0.05457189  0.89657108  1.0
  Ta  Ta268  1  0.94247711  0.38790522  0.89657108  1.0
  Ta  Ta269  1  0.94247711  0.72123856  0.89657108  1.0
  Ta  Ta270  1  0.00000000  0.11209478  0.85342892  1.0
  Ta  Ta271  1  0.00000000  0.44542811  0.85342892  1.0
  Ta  Ta272  1  0.00000000  0.77876144  0.85342892  1.0
  Ta  Ta273  1  0.33333333  0.11209478  0.85342892  1.0
  Ta  Ta274  1  0.33333333  0.44542811  0.85342892  1.0
  Ta  Ta275  1  0.33333333  0.77876144  0.85342892  1.0
  Ta  Ta276  1  0.66666667  0.11209478  0.85342892  1.0
  Ta  Ta277  1  0.66666667  0.44542811  0.85342892  1.0
  Ta  Ta278  1  0.66666667  0.77876144  0.85342892  1.0
  Ta  Ta279  1  0.16666667  0.27876144  0.97842892  1.0
  Ta  Ta280  1  0.16666667  0.61209478  0.97842892  1.0
  Ta  Ta281  1  0.16666667  0.94542811  0.97842892  1.0
  Ta  Ta282  1  0.50000000  0.27876144  0.97842892  1.0
  Ta  Ta283  1  0.50000000  0.61209478  0.97842892  1.0
  Ta  Ta284  1  0.50000000  0.94542811  0.97842892  1.0
  Ta  Ta285  1  0.83333333  0.27876144  0.97842892  1.0
  Ta  Ta286  1  0.83333333  0.61209478  0.97842892  1.0
  Ta  Ta287  1  0.83333333  0.94542811  0.97842892  1.0
  Ta  Ta288  1  0.06226133  0.16666667  0.81826708  1.0
  Ta  Ta289  1  0.06226133  0.50000000  0.81826708  1.0
  Ta  Ta290  1  0.06226133  0.83333333  0.81826708  1.0
  Ta  Ta291  1  0.39559467  0.16666667  0.81826708  1.0
  Ta  Ta292  1  0.39559467  0.50000000  0.81826708  1.0
  Ta  Ta293  1  0.39559467  0.83333333  0.81826708  1.0
  Ta  Ta294  1  0.72892800  0.16666667  0.81826708  1.0
  Ta  Ta295  1  0.72892800  0.50000000  0.81826708  1.0
  Ta  Ta296  1  0.72892800  0.83333333  0.81826708  1.0
  Ta  Ta297  1  0.22892800  0.00000000  0.94326708  1.0
  Ta  Ta298  1  0.22892800  0.33333333  0.94326708  1.0
  Ta  Ta299  1  0.22892800  0.66666667  0.94326708  1.0
  Ta  Ta300  1  0.56226133  0.00000000  0.94326708  1.0
  Ta  Ta301  1  0.56226133  0.33333333  0.94326708  1.0
  Ta  Ta302  1  0.56226133  0.66666667  0.94326708  1.0
  Ta  Ta303  1  0.89559467  0.00000000  0.94326708  1.0
  Ta  Ta304  1  0.89559467  0.33333333  0.94326708  1.0
  Ta  Ta305  1  0.89559467  0.66666667  0.94326708  1.0
  Ta  Ta306  1  0.27107200  0.16666667  0.97487508  1.0
  Ta  Ta307  1  0.27107200  0.50000000  0.97487508  1.0
  Ta  Ta308  1  0.27107200  0.83333333  0.97487508  1.0
  Ta  Ta309  1  0.60440533  0.16666667  0.97487508  1.0
  Ta  Ta310  1  0.60440533  0.50000000  0.97487508  1.0
  Ta  Ta311  1  0.60440533  0.83333333  0.97487508  1.0
  Ta  Ta312  1  0.93773867  0.16666667  0.97487508  1.0
  Ta  Ta313  1  0.93773867  0.50000000  0.97487508  1.0
  Ta  Ta314  1  0.93773867  0.83333333  0.97487508  1.0
  Ta  Ta315  1  0.10440533  0.00000000  0.84987508  1.0
  Ta  Ta316  1  0.10440533  0.33333333  0.84987508  1.0
  Ta  Ta317  1  0.10440533  0.66666667  0.84987508  1.0
  Ta  Ta318  1  0.43773867  0.00000000  0.84987508  1.0
  Ta  Ta319  1  0.43773867  0.33333333  0.84987508  1.0
  Ta  Ta320  1  0.43773867  0.66666667  0.84987508  1.0
  Ta  Ta321  1  0.77107200  0.00000000  0.84987508  1.0
  Ta  Ta322  1  0.77107200  0.33333333  0.84987508  1.0
  Ta  Ta323  1  0.77107200  0.66666667  0.84987508  1.0
  Ta  Ta324  1  0.27107200  0.16666667  0.81826708  1.0
  Ta  Ta325  1  0.27107200  0.50000000  0.81826708  1.0
  Ta  Ta326  1  0.27107200  0.83333333  0.81826708  1.0
  Ta  Ta327  1  0.60440533  0.16666667  0.81826708  1.0
  Ta  Ta328  1  0.60440533  0.50000000  0.81826708  1.0
  Ta  Ta329  1  0.60440533  0.83333333  0.81826708  1.0
  Ta  Ta330  1  0.93773867  0.16666667  0.81826708  1.0
  Ta  Ta331  1  0.93773867  0.50000000  0.81826708  1.0
  Ta  Ta332  1  0.93773867  0.83333333  0.81826708  1.0
  Ta  Ta333  1  0.10440533  0.00000000  0.94326708  1.0
  Ta  Ta334  1  0.10440533  0.33333333  0.94326708  1.0
  Ta  Ta335  1  0.10440533  0.66666667  0.94326708  1.0
  Ta  Ta336  1  0.43773867  0.00000000  0.94326708  1.0
  Ta  Ta337  1  0.43773867  0.33333333  0.94326708  1.0
  Ta  Ta338  1  0.43773867  0.66666667  0.94326708  1.0
  Ta  Ta339  1  0.77107200  0.00000000  0.94326708  1.0
  Ta  Ta340  1  0.77107200  0.33333333  0.94326708  1.0
  Ta  Ta341  1  0.77107200  0.66666667  0.94326708  1.0
  Ta  Ta342  1  0.06226133  0.16666667  0.97487508  1.0
  Ta  Ta343  1  0.06226133  0.50000000  0.97487508  1.0
  Ta  Ta344  1  0.06226133  0.83333333  0.97487508  1.0
  Ta  Ta345  1  0.39559467  0.16666667  0.97487508  1.0
  Ta  Ta346  1  0.39559467  0.50000000  0.97487508  1.0
  Ta  Ta347  1  0.39559467  0.83333333  0.97487508  1.0
  Ta  Ta348  1  0.72892800  0.16666667  0.97487508  1.0
  Ta  Ta349  1  0.72892800  0.50000000  0.97487508  1.0
  Ta  Ta350  1  0.72892800  0.83333333  0.97487508  1.0
  Ta  Ta351  1  0.22892800  0.00000000  0.84987508  1.0
  Ta  Ta352  1  0.22892800  0.33333333  0.84987508  1.0
  Ta  Ta353  1  0.22892800  0.66666667  0.84987508  1.0
  Ta  Ta354  1  0.56226133  0.00000000  0.84987508  1.0
  Ta  Ta355  1  0.56226133  0.33333333  0.84987508  1.0
  Ta  Ta356  1  0.56226133  0.66666667  0.84987508  1.0
  Ta  Ta357  1  0.89559467  0.00000000  0.84987508  1.0
  Ta  Ta358  1  0.89559467  0.33333333  0.84987508  1.0
  Ta  Ta359  1  0.89559467  0.66666667  0.84987508  1.0
  Ta  Ta360  1  0.00000000  0.10440533  0.77157108  1.0
  Ta  Ta361  1  0.00000000  0.43773867  0.77157108  1.0
  Ta  Ta362  1  0.00000000  0.77107200  0.77157108  1.0
  Ta  Ta363  1  0.33333333  0.10440533  0.77157108  1.0
  Ta  Ta364  1  0.33333333  0.43773867  0.77157108  1.0
  Ta  Ta365  1  0.33333333  0.77107200  0.77157108  1.0
  Ta  Ta366  1  0.66666667  0.10440533  0.77157108  1.0
  Ta  Ta367  1  0.66666667  0.43773867  0.77157108  1.0
  Ta  Ta368  1  0.66666667  0.77107200  0.77157108  1.0
  Ta  Ta369  1  0.16666667  0.27107200  0.89657108  1.0
  Ta  Ta370  1  0.16666667  0.60440533  0.89657108  1.0
  Ta  Ta371  1  0.16666667  0.93773867  0.89657108  1.0
  Ta  Ta372  1  0.50000000  0.27107200  0.89657108  1.0
  Ta  Ta373  1  0.50000000  0.60440533  0.89657108  1.0
  Ta  Ta374  1  0.50000000  0.93773867  0.89657108  1.0
  Ta  Ta375  1  0.83333333  0.27107200  0.89657108  1.0
  Ta  Ta376  1  0.83333333  0.60440533  0.89657108  1.0
  Ta  Ta377  1  0.83333333  0.93773867  0.89657108  1.0
  Ta  Ta378  1  0.00000000  0.22892800  0.77157108  1.0
  Ta  Ta379  1  0.00000000  0.56226133  0.77157108  1.0
  Ta  Ta380  1  0.00000000  0.89559467  0.77157108  1.0
  Ta  Ta381  1  0.33333333  0.22892800  0.77157108  1.0
  Ta  Ta382  1  0.33333333  0.56226133  0.77157108  1.0
  Ta  Ta383  1  0.33333333  0.89559467  0.77157108  1.0
  Ta  Ta384  1  0.66666667  0.22892800  0.77157108  1.0
  Ta  Ta385  1  0.66666667  0.56226133  0.77157108  1.0
  Ta  Ta386  1  0.66666667  0.89559467  0.77157108  1.0
  Ta  Ta387  1  0.16666667  0.06226133  0.89657108  1.0
  Ta  Ta388  1  0.16666667  0.39559467  0.89657108  1.0
  Ta  Ta389  1  0.16666667  0.72892800  0.89657108  1.0
  Ta  Ta390  1  0.50000000  0.06226133  0.89657108  1.0
  Ta  Ta391  1  0.50000000  0.39559467  0.89657108  1.0
  Ta  Ta392  1  0.50000000  0.72892800  0.89657108  1.0
  Ta  Ta393  1  0.83333333  0.06226133  0.89657108  1.0
  Ta  Ta394  1  0.83333333  0.39559467  0.89657108  1.0
  Ta  Ta395  1  0.83333333  0.72892800  0.89657108  1.0
  Ta  Ta396  1  0.27107200  0.25000000  0.84987508  1.0
  Ta  Ta397  1  0.27107200  0.58333333  0.84987508  1.0
  Ta  Ta398  1  0.27107200  0.91666667  0.84987508  1.0
  Ta  Ta399  1  0.60440533  0.25000000  0.84987508  1.0
  Ta  Ta400  1  0.60440533  0.58333333  0.84987508  1.0
  Ta  Ta401  1  0.60440533  0.91666667  0.84987508  1.0
  Ta  Ta402  1  0.93773867  0.25000000  0.84987508  1.0
  Ta  Ta403  1  0.93773867  0.58333333  0.84987508  1.0
  Ta  Ta404  1  0.93773867  0.91666667  0.84987508  1.0
  Ta  Ta405  1  0.10440533  0.08333333  0.97487508  1.0
  Ta  Ta406  1  0.10440533  0.41666667  0.97487508  1.0
  Ta  Ta407  1  0.10440533  0.75000000  0.97487508  1.0
  Ta  Ta408  1  0.43773867  0.08333333  0.97487508  1.0
  Ta  Ta409  1  0.43773867  0.41666667  0.97487508  1.0
  Ta  Ta410  1  0.43773867  0.75000000  0.97487508  1.0
  Ta  Ta411  1  0.77107200  0.08333333  0.97487508  1.0
  Ta  Ta412  1  0.77107200  0.41666667  0.97487508  1.0
  Ta  Ta413  1  0.77107200  0.75000000  0.97487508  1.0
  Ta  Ta414  1  0.06226133  0.25000000  0.94326708  1.0
  Ta  Ta415  1  0.06226133  0.58333333  0.94326708  1.0
  Ta  Ta416  1  0.06226133  0.91666667  0.94326708  1.0
  Ta  Ta417  1  0.39559467  0.25000000  0.94326708  1.0
  Ta  Ta418  1  0.39559467  0.58333333  0.94326708  1.0
  Ta  Ta419  1  0.39559467  0.91666667  0.94326708  1.0
  Ta  Ta420  1  0.72892800  0.25000000  0.94326708  1.0
  Ta  Ta421  1  0.72892800  0.58333333  0.94326708  1.0
  Ta  Ta422  1  0.72892800  0.91666667  0.94326708  1.0
  Ta  Ta423  1  0.22892800  0.08333333  0.81826708  1.0
  Ta  Ta424  1  0.22892800  0.41666667  0.81826708  1.0
  Ta  Ta425  1  0.22892800  0.75000000  0.81826708  1.0
  Ta  Ta426  1  0.56226133  0.08333333  0.81826708  1.0
  Ta  Ta427  1  0.56226133  0.41666667  0.81826708  1.0
  Ta  Ta428  1  0.56226133  0.75000000  0.81826708  1.0
  Ta  Ta429  1  0.89559467  0.08333333  0.81826708  1.0
  Ta  Ta430  1  0.89559467  0.41666667  0.81826708  1.0
  Ta  Ta431  1  0.89559467  0.75000000  0.81826708  1.0
  Ta  Ta432  1  0.06226133  0.25000000  0.84987508  1.0
  Ta  Ta433  1  0.06226133  0.58333333  0.84987508  1.0
  Ta  Ta434  1  0.06226133  0.91666667  0.84987508  1.0
  Ta  Ta435  1  0.39559467  0.25000000  0.84987508  1.0
  Ta  Ta436  1  0.39559467  0.58333333  0.84987508  1.0
  Ta  Ta437  1  0.39559467  0.91666667  0.84987508  1.0
  Ta  Ta438  1  0.72892800  0.25000000  0.84987508  1.0
  Ta  Ta439  1  0.72892800  0.58333333  0.84987508  1.0
  Ta  Ta440  1  0.72892800  0.91666667  0.84987508  1.0
  Ta  Ta441  1  0.22892800  0.08333333  0.97487508  1.0
  Ta  Ta442  1  0.22892800  0.41666667  0.97487508  1.0
  Ta  Ta443  1  0.22892800  0.75000000  0.97487508  1.0
  Ta  Ta444  1  0.56226133  0.08333333  0.97487508  1.0
  Ta  Ta445  1  0.56226133  0.41666667  0.97487508  1.0
  Ta  Ta446  1  0.56226133  0.75000000  0.97487508  1.0
  Ta  Ta447  1  0.89559467  0.08333333  0.97487508  1.0
  Ta  Ta448  1  0.89559467  0.41666667  0.97487508  1.0
  Ta  Ta449  1  0.89559467  0.75000000  0.97487508  1.0
  Ta  Ta450  1  0.27107200  0.25000000  0.94326708  1.0
  Ta  Ta451  1  0.27107200  0.58333333  0.94326708  1.0
  Ta  Ta452  1  0.27107200  0.91666667  0.94326708  1.0
  Ta  Ta453  1  0.60440533  0.25000000  0.94326708  1.0
  Ta  Ta454  1  0.60440533  0.58333333  0.94326708  1.0
  Ta  Ta455  1  0.60440533  0.91666667  0.94326708  1.0
  Ta  Ta456  1  0.93773867  0.25000000  0.94326708  1.0
  Ta  Ta457  1  0.93773867  0.58333333  0.94326708  1.0
  Ta  Ta458  1  0.93773867  0.91666667  0.94326708  1.0
  Ta  Ta459  1  0.10440533  0.08333333  0.81826708  1.0
  Ta  Ta460  1  0.10440533  0.41666667  0.81826708  1.0
  Ta  Ta461  1  0.10440533  0.75000000  0.81826708  1.0
  Ta  Ta462  1  0.43773867  0.08333333  0.81826708  1.0
  Ta  Ta463  1  0.43773867  0.41666667  0.81826708  1.0
  Ta  Ta464  1  0.43773867  0.75000000  0.81826708  1.0
  Ta  Ta465  1  0.77107200  0.08333333  0.81826708  1.0
  Ta  Ta466  1  0.77107200  0.41666667  0.81826708  1.0
  Ta  Ta467  1  0.77107200  0.75000000  0.81826708  1.0
  Ta  Ta468  1  0.00000000  0.31226133  0.89657108  1.0
  Ta  Ta469  1  0.00000000  0.64559467  0.89657108  1.0
  Ta  Ta470  1  0.00000000  0.97892800  0.89657108  1.0
  Ta  Ta471  1  0.33333333  0.31226133  0.89657108  1.0
  Ta  Ta472  1  0.33333333  0.64559467  0.89657108  1.0
  Ta  Ta473  1  0.33333333  0.97892800  0.89657108  1.0
  Ta  Ta474  1  0.66666667  0.31226133  0.89657108  1.0
  Ta  Ta475  1  0.66666667  0.64559467  0.89657108  1.0
  Ta  Ta476  1  0.66666667  0.97892800  0.89657108  1.0
  Ta  Ta477  1  0.16666667  0.14559467  0.77157108  1.0
  Ta  Ta478  1  0.16666667  0.47892800  0.77157108  1.0
  Ta  Ta479  1  0.16666667  0.81226133  0.77157108  1.0
  Ta  Ta480  1  0.50000000  0.14559467  0.77157108  1.0
  Ta  Ta481  1  0.50000000  0.47892800  0.77157108  1.0
  Ta  Ta482  1  0.50000000  0.81226133  0.77157108  1.0
  Ta  Ta483  1  0.83333333  0.14559467  0.77157108  1.0
  Ta  Ta484  1  0.83333333  0.47892800  0.77157108  1.0
  Ta  Ta485  1  0.83333333  0.81226133  0.77157108  1.0
  Ta  Ta486  1  0.00000000  0.18773867  0.89657108  1.0
  Ta  Ta487  1  0.00000000  0.52107200  0.89657108  1.0
  Ta  Ta488  1  0.00000000  0.85440533  0.89657108  1.0
  Ta  Ta489  1  0.33333333  0.18773867  0.89657108  1.0
  Ta  Ta490  1  0.33333333  0.52107200  0.89657108  1.0
  Ta  Ta491  1  0.33333333  0.85440533  0.89657108  1.0
  Ta  Ta492  1  0.66666667  0.18773867  0.89657108  1.0
  Ta  Ta493  1  0.66666667  0.52107200  0.89657108  1.0
  Ta  Ta494  1  0.66666667  0.85440533  0.89657108  1.0
  Ta  Ta495  1  0.16666667  0.02107200  0.77157108  1.0
  Ta  Ta496  1  0.16666667  0.35440533  0.77157108  1.0
  Ta  Ta497  1  0.16666667  0.68773867  0.77157108  1.0
  Ta  Ta498  1  0.50000000  0.02107200  0.77157108  1.0
  Ta  Ta499  1  0.50000000  0.35440533  0.77157108  1.0
  Ta  Ta500  1  0.50000000  0.68773867  0.77157108  1.0
  Ta  Ta501  1  0.83333333  0.02107200  0.77157108  1.0
  Ta  Ta502  1  0.83333333  0.35440533  0.77157108  1.0
  Ta  Ta503  1  0.83333333  0.68773867  0.77157108  1.0
  Ta  Ta504  1  0.33333333  0.30457189  0.72842892  1.0
  Ta  Ta505  1  0.33333333  0.63790522  0.72842892  1.0
  Ta  Ta506  1  0.33333333  0.97123856  0.72842892  1.0
  Ta  Ta507  1  0.66666667  0.30457189  0.72842892  1.0
  Ta  Ta508  1  0.66666667  0.63790522  0.72842892  1.0
  Ta  Ta509  1  0.66666667  0.97123856  0.72842892  1.0
  Ta  Ta510  1  1.00000000  0.30457189  0.72842892  1.0
  Ta  Ta511  1  1.00000000  0.63790522  0.72842892  1.0
  Ta  Ta512  1  1.00000000  0.97123856  0.72842892  1.0
  Ta  Ta513  1  0.16666667  0.13790522  0.60342891  1.0
  Ta  Ta514  1  0.16666667  0.47123856  0.60342891  1.0
  Ta  Ta515  1  0.16666667  0.80457189  0.60342891  1.0
  Ta  Ta516  1  0.50000000  0.13790522  0.60342891  1.0
  Ta  Ta517  1  0.50000000  0.47123856  0.60342892  1.0
  Ta  Ta518  1  0.50000000  0.80457189  0.60342891  1.0
  Ta  Ta519  1  0.83333333  0.13790522  0.60342891  1.0
  Ta  Ta520  1  0.83333333  0.47123856  0.60342891  1.0
  Ta  Ta521  1  0.83333333  0.80457189  0.60342891  1.0
  Ta  Ta522  1  0.10914378  0.19542811  0.64657108  1.0
  Ta  Ta523  1  0.10914378  0.52876145  0.64657108  1.0
  Ta  Ta524  1  0.10914378  0.86209478  0.64657108  1.0
  Ta  Ta525  1  0.44247711  0.19542811  0.64657108  1.0
  Ta  Ta526  1  0.44247711  0.52876145  0.64657108  1.0
  Ta  Ta527  1  0.44247711  0.86209478  0.64657108  1.0
  Ta  Ta528  1  0.77581044  0.19542811  0.64657108  1.0
  Ta  Ta529  1  0.77581044  0.52876145  0.64657108  1.0
  Ta  Ta530  1  0.77581044  0.86209478  0.64657108  1.0
  Ta  Ta531  1  0.27581045  0.02876145  0.52157108  1.0
  Ta  Ta532  1  0.27581045  0.36209478  0.52157108  1.0
  Ta  Ta533  1  0.27581045  0.69542811  0.52157108  1.0
  Ta  Ta534  1  0.60914378  0.02876145  0.52157108  1.0
  Ta  Ta535  1  0.60914378  0.36209478  0.52157108  1.0
  Ta  Ta536  1  0.60914378  0.69542811  0.52157108  1.0
  Ta  Ta537  1  0.94247711  0.02876145  0.52157108  1.0
  Ta  Ta538  1  0.94247711  0.36209478  0.52157108  1.0
  Ta  Ta539  1  0.94247711  0.69542811  0.52157108  1.0
  Ta  Ta540  1  0.22418955  0.19542811  0.64657108  1.0
  Ta  Ta541  1  0.22418955  0.52876145  0.64657108  1.0
  Ta  Ta542  1  0.22418955  0.86209478  0.64657108  1.0
  Ta  Ta543  1  0.55752289  0.19542811  0.64657108  1.0
  Ta  Ta544  1  0.55752289  0.52876145  0.64657108  1.0
  Ta  Ta545  1  0.55752289  0.86209478  0.64657108  1.0
  Ta  Ta546  1  0.89085622  0.19542811  0.64657108  1.0
  Ta  Ta547  1  0.89085622  0.52876145  0.64657108  1.0
  Ta  Ta548  1  0.89085622  0.86209478  0.64657108  1.0
  Ta  Ta549  1  0.05752289  0.02876145  0.52157108  1.0
  Ta  Ta550  1  0.05752289  0.36209478  0.52157108  1.0
  Ta  Ta551  1  0.05752289  0.69542811  0.52157108  1.0
  Ta  Ta552  1  0.39085622  0.02876145  0.52157108  1.0
  Ta  Ta553  1  0.39085622  0.36209478  0.52157108  1.0
  Ta  Ta554  1  0.39085622  0.69542811  0.52157108  1.0
  Ta  Ta555  1  0.72418956  0.02876145  0.52157108  1.0
  Ta  Ta556  1  0.72418956  0.36209478  0.52157108  1.0
  Ta  Ta557  1  0.72418956  0.69542811  0.52157108  1.0
  Ta  Ta558  1  0.00000000  0.30457189  0.56471325  1.0
  Ta  Ta559  1  0.00000000  0.63790522  0.56471325  1.0
  Ta  Ta560  1  0.00000000  0.97123856  0.56471325  1.0
  Ta  Ta561  1  0.33333333  0.30457189  0.56471325  1.0
  Ta  Ta562  1  0.33333333  0.63790522  0.56471325  1.0
  Ta  Ta563  1  0.33333333  0.97123856  0.56471325  1.0
  Ta  Ta564  1  0.66666667  0.30457189  0.56471325  1.0
  Ta  Ta565  1  0.66666667  0.63790522  0.56471325  1.0
  Ta  Ta566  1  0.66666667  0.97123856  0.56471325  1.0
  Ta  Ta567  1  0.16666667  0.13790522  0.68971325  1.0
  Ta  Ta568  1  0.16666667  0.47123856  0.68971325  1.0
  Ta  Ta569  1  0.16666667  0.80457189  0.68971325  1.0
  Ta  Ta570  1  0.50000000  0.13790522  0.68971325  1.0
  Ta  Ta571  1  0.50000000  0.47123856  0.68971325  1.0
  Ta  Ta572  1  0.50000000  0.80457189  0.68971325  1.0
  Ta  Ta573  1  0.83333333  0.13790522  0.68971325  1.0
  Ta  Ta574  1  0.83333333  0.47123856  0.68971325  1.0
  Ta  Ta575  1  0.83333333  0.80457189  0.68971325  1.0
  Ta  Ta576  1  0.00000000  0.11209478  0.68971325  1.0
  Ta  Ta577  1  0.00000000  0.44542811  0.68971325  1.0
  Ta  Ta578  1  0.00000000  0.77876144  0.68971325  1.0
  Ta  Ta579  1  0.33333333  0.11209478  0.68971325  1.0
  Ta  Ta580  1  0.33333333  0.44542811  0.68971325  1.0
  Ta  Ta581  1  0.33333333  0.77876144  0.68971325  1.0
  Ta  Ta582  1  0.66666667  0.11209478  0.68971325  1.0
  Ta  Ta583  1  0.66666667  0.44542811  0.68971325  1.0
  Ta  Ta584  1  0.66666667  0.77876144  0.68971325  1.0
  Ta  Ta585  1  0.16666667  0.27876144  0.56471325  1.0
  Ta  Ta586  1  0.16666667  0.61209478  0.56471325  1.0
  Ta  Ta587  1  0.16666667  0.94542811  0.56471325  1.0
  Ta  Ta588  1  0.50000000  0.27876144  0.56471325  1.0
  Ta  Ta589  1  0.50000000  0.61209478  0.56471325  1.0
  Ta  Ta590  1  0.50000000  0.94542811  0.56471325  1.0
  Ta  Ta591  1  0.83333333  0.27876144  0.56471325  1.0
  Ta  Ta592  1  0.83333333  0.61209478  0.56471325  1.0
  Ta  Ta593  1  0.83333333  0.94542811  0.56471325  1.0
  Ta  Ta594  1  0.22418955  0.22123856  0.52157108  1.0
  Ta  Ta595  1  0.22418955  0.55457189  0.52157108  1.0
  Ta  Ta596  1  0.22418955  0.88790522  0.52157108  1.0
  Ta  Ta597  1  0.55752289  0.22123856  0.52157108  1.0
  Ta  Ta598  1  0.55752289  0.55457189  0.52157108  1.0
  Ta  Ta599  1  0.55752289  0.88790522  0.52157108  1.0
  Ta  Ta600  1  0.89085622  0.22123856  0.52157108  1.0
  Ta  Ta601  1  0.89085622  0.55457189  0.52157108  1.0
  Ta  Ta602  1  0.89085622  0.88790522  0.52157108  1.0
  Ta  Ta603  1  0.05752289  0.05457189  0.64657108  1.0
  Ta  Ta604  1  0.05752289  0.38790522  0.64657108  1.0
  Ta  Ta605  1  0.05752289  0.72123856  0.64657108  1.0
  Ta  Ta606  1  0.39085622  0.05457189  0.64657108  1.0
  Ta  Ta607  1  0.39085622  0.38790522  0.64657108  1.0
  Ta  Ta608  1  0.39085622  0.72123856  0.64657108  1.0
  Ta  Ta609  1  0.72418956  0.05457189  0.64657108  1.0
  Ta  Ta610  1  0.72418956  0.38790522  0.64657108  1.0
  Ta  Ta611  1  0.72418956  0.72123856  0.64657108  1.0
  Ta  Ta612  1  0.10914378  0.22123856  0.52157108  1.0
  Ta  Ta613  1  0.10914378  0.55457189  0.52157108  1.0
  Ta  Ta614  1  0.10914378  0.88790522  0.52157108  1.0
  Ta  Ta615  1  0.44247711  0.22123856  0.52157108  1.0
  Ta  Ta616  1  0.44247711  0.55457189  0.52157108  1.0
  Ta  Ta617  1  0.44247711  0.88790522  0.52157108  1.0
  Ta  Ta618  1  0.77581044  0.22123856  0.52157108  1.0
  Ta  Ta619  1  0.77581044  0.55457189  0.52157108  1.0
  Ta  Ta620  1  0.77581044  0.88790522  0.52157108  1.0
  Ta  Ta621  1  0.27581045  0.05457189  0.64657108  1.0
  Ta  Ta622  1  0.27581045  0.38790522  0.64657108  1.0
  Ta  Ta623  1  0.27581045  0.72123856  0.64657108  1.0
  Ta  Ta624  1  0.60914378  0.05457189  0.64657108  1.0
  Ta  Ta625  1  0.60914378  0.38790522  0.64657108  1.0
  Ta  Ta626  1  0.60914378  0.72123856  0.64657108  1.0
  Ta  Ta627  1  0.94247711  0.05457189  0.64657108  1.0
  Ta  Ta628  1  0.94247711  0.38790522  0.64657108  1.0
  Ta  Ta629  1  0.94247711  0.72123856  0.64657108  1.0
  Ta  Ta630  1  0.00000000  0.11209478  0.60342892  1.0
  Ta  Ta631  1  0.00000000  0.44542811  0.60342892  1.0
  Ta  Ta632  1  0.00000000  0.77876144  0.60342892  1.0
  Ta  Ta633  1  0.33333333  0.11209478  0.60342892  1.0
  Ta  Ta634  1  0.33333333  0.44542811  0.60342892  1.0
  Ta  Ta635  1  0.33333333  0.77876144  0.60342892  1.0
  Ta  Ta636  1  0.66666667  0.11209478  0.60342892  1.0
  Ta  Ta637  1  0.66666667  0.44542811  0.60342892  1.0
  Ta  Ta638  1  0.66666667  0.77876144  0.60342892  1.0
  Ta  Ta639  1  0.16666667  0.27876144  0.72842892  1.0
  Ta  Ta640  1  0.16666667  0.61209478  0.72842892  1.0
  Ta  Ta641  1  0.16666667  0.94542811  0.72842892  1.0
  Ta  Ta642  1  0.50000000  0.27876144  0.72842892  1.0
  Ta  Ta643  1  0.50000000  0.61209478  0.72842892  1.0
  Ta  Ta644  1  0.50000000  0.94542811  0.72842892  1.0
  Ta  Ta645  1  0.83333333  0.27876144  0.72842892  1.0
  Ta  Ta646  1  0.83333333  0.61209478  0.72842892  1.0
  Ta  Ta647  1  0.83333333  0.94542811  0.72842892  1.0
  Ta  Ta648  1  0.06226133  0.16666667  0.56826708  1.0
  Ta  Ta649  1  0.06226133  0.50000000  0.56826708  1.0
  Ta  Ta650  1  0.06226133  0.83333333  0.56826708  1.0
  Ta  Ta651  1  0.39559467  0.16666667  0.56826708  1.0
  Ta  Ta652  1  0.39559467  0.50000000  0.56826708  1.0
  Ta  Ta653  1  0.39559467  0.83333333  0.56826708  1.0
  Ta  Ta654  1  0.72892800  0.16666667  0.56826708  1.0
  Ta  Ta655  1  0.72892800  0.50000000  0.56826708  1.0
  Ta  Ta656  1  0.72892800  0.83333333  0.56826708  1.0
  Ta  Ta657  1  0.22892800  0.00000000  0.69326708  1.0
  Ta  Ta658  1  0.22892800  0.33333333  0.69326708  1.0
  Ta  Ta659  1  0.22892800  0.66666667  0.69326708  1.0
  Ta  Ta660  1  0.56226133  0.00000000  0.69326708  1.0
  Ta  Ta661  1  0.56226133  0.33333333  0.69326708  1.0
  Ta  Ta662  1  0.56226133  0.66666667  0.69326708  1.0
  Ta  Ta663  1  0.89559467  0.00000000  0.69326708  1.0
  Ta  Ta664  1  0.89559467  0.33333333  0.69326708  1.0
  Ta  Ta665  1  0.89559467  0.66666667  0.69326708  1.0
  Ta  Ta666  1  0.27107200  0.16666667  0.72487508  1.0
  Ta  Ta667  1  0.27107200  0.50000000  0.72487508  1.0
  Ta  Ta668  1  0.27107200  0.83333333  0.72487508  1.0
  Ta  Ta669  1  0.60440533  0.16666667  0.72487508  1.0
  Ta  Ta670  1  0.60440533  0.50000000  0.72487508  1.0
  Ta  Ta671  1  0.60440533  0.83333333  0.72487508  1.0
  Ta  Ta672  1  0.93773867  0.16666667  0.72487508  1.0
  Ta  Ta673  1  0.93773867  0.50000000  0.72487508  1.0
  Ta  Ta674  1  0.93773867  0.83333333  0.72487508  1.0
  Ta  Ta675  1  0.10440533  0.00000000  0.59987508  1.0
  Ta  Ta676  1  0.10440533  0.33333333  0.59987508  1.0
  Ta  Ta677  1  0.10440533  0.66666667  0.59987508  1.0
  Ta  Ta678  1  0.43773867  0.00000000  0.59987508  1.0
  Ta  Ta679  1  0.43773867  0.33333333  0.59987508  1.0
  Ta  Ta680  1  0.43773867  0.66666667  0.59987508  1.0
  Ta  Ta681  1  0.77107200  0.00000000  0.59987508  1.0
  Ta  Ta682  1  0.77107200  0.33333333  0.59987508  1.0
  Ta  Ta683  1  0.77107200  0.66666667  0.59987508  1.0
  Ta  Ta684  1  0.27107200  0.16666667  0.56826708  1.0
  Ta  Ta685  1  0.27107200  0.50000000  0.56826708  1.0
  Ta  Ta686  1  0.27107200  0.83333333  0.56826708  1.0
  Ta  Ta687  1  0.60440533  0.16666667  0.56826708  1.0
  Ta  Ta688  1  0.60440533  0.50000000  0.56826708  1.0
  Ta  Ta689  1  0.60440533  0.83333333  0.56826708  1.0
  Ta  Ta690  1  0.93773867  0.16666667  0.56826708  1.0
  Ta  Ta691  1  0.93773867  0.50000000  0.56826708  1.0
  Ta  Ta692  1  0.93773867  0.83333333  0.56826708  1.0
  Ta  Ta693  1  0.10440533  0.00000000  0.69326708  1.0
  Ta  Ta694  1  0.10440533  0.33333333  0.69326708  1.0
  Ta  Ta695  1  0.10440533  0.66666667  0.69326708  1.0
  Ta  Ta696  1  0.43773867  0.00000000  0.69326708  1.0
  Ta  Ta697  1  0.43773867  0.33333333  0.69326708  1.0
  Ta  Ta698  1  0.43773867  0.66666667  0.69326708  1.0
  Ta  Ta699  1  0.77107200  0.00000000  0.69326708  1.0
  Ta  Ta700  1  0.77107200  0.33333333  0.69326708  1.0
  Ta  Ta701  1  0.77107200  0.66666667  0.69326708  1.0
  Ta  Ta702  1  0.06226133  0.16666667  0.72487508  1.0
  Ta  Ta703  1  0.06226133  0.50000000  0.72487508  1.0
  Ta  Ta704  1  0.06226133  0.83333333  0.72487508  1.0
  Ta  Ta705  1  0.39559467  0.16666667  0.72487508  1.0
  Ta  Ta706  1  0.39559467  0.50000000  0.72487508  1.0
  Ta  Ta707  1  0.39559467  0.83333333  0.72487508  1.0
  Ta  Ta708  1  0.72892800  0.16666667  0.72487508  1.0
  Ta  Ta709  1  0.72892800  0.50000000  0.72487508  1.0
  Ta  Ta710  1  0.72892800  0.83333333  0.72487508  1.0
  Ta  Ta711  1  0.22892800  0.00000000  0.59987508  1.0
  Ta  Ta712  1  0.22892800  0.33333333  0.59987508  1.0
  Ta  Ta713  1  0.22892800  0.66666667  0.59987508  1.0
  Ta  Ta714  1  0.56226133  0.00000000  0.59987508  1.0
  Ta  Ta715  1  0.56226133  0.33333333  0.59987508  1.0
  Ta  Ta716  1  0.56226133  0.66666667  0.59987508  1.0
  Ta  Ta717  1  0.89559467  0.00000000  0.59987508  1.0
  Ta  Ta718  1  0.89559467  0.33333333  0.59987508  1.0
  Ta  Ta719  1  0.89559467  0.66666667  0.59987508  1.0
  Ta  Ta720  1  0.00000000  0.10440533  0.52157108  1.0
  Ta  Ta721  1  0.00000000  0.43773867  0.52157108  1.0
  Ta  Ta722  1  0.00000000  0.77107200  0.52157108  1.0
  Ta  Ta723  1  0.33333333  0.10440533  0.52157108  1.0
  Ta  Ta724  1  0.33333333  0.43773867  0.52157108  1.0
  Ta  Ta725  1  0.33333333  0.77107200  0.52157108  1.0
  Ta  Ta726  1  0.66666667  0.10440533  0.52157108  1.0
  Ta  Ta727  1  0.66666667  0.43773867  0.52157108  1.0
  Ta  Ta728  1  0.66666667  0.77107200  0.52157108  1.0
  Ta  Ta729  1  0.16666667  0.27107200  0.64657108  1.0
  Ta  Ta730  1  0.16666667  0.60440533  0.64657108  1.0
  Ta  Ta731  1  0.16666667  0.93773867  0.64657108  1.0
  Ta  Ta732  1  0.50000000  0.27107200  0.64657108  1.0
  Ta  Ta733  1  0.50000000  0.60440533  0.64657108  1.0
  Ta  Ta734  1  0.50000000  0.93773867  0.64657108  1.0
  Ta  Ta735  1  0.83333333  0.27107200  0.64657108  1.0
  Ta  Ta736  1  0.83333333  0.60440533  0.64657108  1.0
  Ta  Ta737  1  0.83333333  0.93773867  0.64657108  1.0
  Ta  Ta738  1  0.00000000  0.22892800  0.52157108  1.0
  Ta  Ta739  1  0.00000000  0.56226133  0.52157108  1.0
  Ta  Ta740  1  0.00000000  0.89559467  0.52157108  1.0
  Ta  Ta741  1  0.33333333  0.22892800  0.52157108  1.0
  Ta  Ta742  1  0.33333333  0.56226133  0.52157108  1.0
  Ta  Ta743  1  0.33333333  0.89559467  0.52157108  1.0
  Ta  Ta744  1  0.66666667  0.22892800  0.52157108  1.0
  Ta  Ta745  1  0.66666667  0.56226133  0.52157108  1.0
  Ta  Ta746  1  0.66666667  0.89559467  0.52157108  1.0
  Ta  Ta747  1  0.16666667  0.06226133  0.64657108  1.0
  Ta  Ta748  1  0.16666667  0.39559467  0.64657108  1.0
  Ta  Ta749  1  0.16666667  0.72892800  0.64657108  1.0
  Ta  Ta750  1  0.50000000  0.06226133  0.64657108  1.0
  Ta  Ta751  1  0.50000000  0.39559467  0.64657108  1.0
  Ta  Ta752  1  0.50000000  0.72892800  0.64657108  1.0
  Ta  Ta753  1  0.83333333  0.06226133  0.64657108  1.0
  Ta  Ta754  1  0.83333333  0.39559467  0.64657108  1.0
  Ta  Ta755  1  0.83333333  0.72892800  0.64657108  1.0
  Ta  Ta756  1  0.27107200  0.25000000  0.59987508  1.0
  Ta  Ta757  1  0.27107200  0.58333333  0.59987508  1.0
  Ta  Ta758  1  0.27107200  0.91666667  0.59987508  1.0
  Ta  Ta759  1  0.60440533  0.25000000  0.59987508  1.0
  Ta  Ta760  1  0.60440533  0.58333333  0.59987508  1.0
  Ta  Ta761  1  0.60440533  0.91666667  0.59987508  1.0
  Ta  Ta762  1  0.93773867  0.25000000  0.59987508  1.0
  Ta  Ta763  1  0.93773867  0.58333333  0.59987508  1.0
  Ta  Ta764  1  0.93773867  0.91666667  0.59987508  1.0
  Ta  Ta765  1  0.10440533  0.08333333  0.72487508  1.0
  Ta  Ta766  1  0.10440533  0.41666667  0.72487508  1.0
  Ta  Ta767  1  0.10440533  0.75000000  0.72487508  1.0
  Ta  Ta768  1  0.43773867  0.08333333  0.72487508  1.0
  Ta  Ta769  1  0.43773867  0.41666667  0.72487508  1.0
  Ta  Ta770  1  0.43773867  0.75000000  0.72487508  1.0
  Ta  Ta771  1  0.77107200  0.08333333  0.72487508  1.0
  Ta  Ta772  1  0.77107200  0.41666667  0.72487508  1.0
  Ta  Ta773  1  0.77107200  0.75000000  0.72487508  1.0
  Ta  Ta774  1  0.06226133  0.25000000  0.69326708  1.0
  Ta  Ta775  1  0.06226133  0.58333333  0.69326708  1.0
  Ta  Ta776  1  0.06226133  0.91666667  0.69326708  1.0
  Ta  Ta777  1  0.39559467  0.25000000  0.69326708  1.0
  Ta  Ta778  1  0.39559467  0.58333333  0.69326708  1.0
  Ta  Ta779  1  0.39559467  0.91666667  0.69326708  1.0
  Ta  Ta780  1  0.72892800  0.25000000  0.69326708  1.0
  Ta  Ta781  1  0.72892800  0.58333333  0.69326708  1.0
  Ta  Ta782  1  0.72892800  0.91666667  0.69326708  1.0
  Ta  Ta783  1  0.22892800  0.08333333  0.56826708  1.0
  Ta  Ta784  1  0.22892800  0.41666667  0.56826708  1.0
  Ta  Ta785  1  0.22892800  0.75000000  0.56826708  1.0
  Ta  Ta786  1  0.56226133  0.08333333  0.56826708  1.0
  Ta  Ta787  1  0.56226133  0.41666667  0.56826708  1.0
  Ta  Ta788  1  0.56226133  0.75000000  0.56826708  1.0
  Ta  Ta789  1  0.89559467  0.08333333  0.56826708  1.0
  Ta  Ta790  1  0.89559467  0.41666667  0.56826708  1.0
  Ta  Ta791  1  0.89559467  0.75000000  0.56826708  1.0
  Ta  Ta792  1  0.06226133  0.25000000  0.59987508  1.0
  Ta  Ta793  1  0.06226133  0.58333333  0.59987508  1.0
  Ta  Ta794  1  0.06226133  0.91666667  0.59987508  1.0
  Ta  Ta795  1  0.39559467  0.25000000  0.59987508  1.0
  Ta  Ta796  1  0.39559467  0.58333333  0.59987508  1.0
  Ta  Ta797  1  0.39559467  0.91666667  0.59987508  1.0
  Ta  Ta798  1  0.72892800  0.25000000  0.59987508  1.0
  Ta  Ta799  1  0.72892800  0.58333333  0.59987508  1.0
  Ta  Ta800  1  0.72892800  0.91666667  0.59987508  1.0
  Ta  Ta801  1  0.22892800  0.08333333  0.72487508  1.0
  Ta  Ta802  1  0.22892800  0.41666667  0.72487508  1.0
  Ta  Ta803  1  0.22892800  0.75000000  0.72487508  1.0
  Ta  Ta804  1  0.56226133  0.08333333  0.72487508  1.0
  Ta  Ta805  1  0.56226133  0.41666667  0.72487508  1.0
  Ta  Ta806  1  0.56226133  0.75000000  0.72487508  1.0
  Ta  Ta807  1  0.89559467  0.08333333  0.72487508  1.0
  Ta  Ta808  1  0.89559467  0.41666667  0.72487508  1.0
  Ta  Ta809  1  0.89559467  0.75000000  0.72487508  1.0
  Ta  Ta810  1  0.27107200  0.25000000  0.69326708  1.0
  Ta  Ta811  1  0.27107200  0.58333333  0.69326708  1.0
  Ta  Ta812  1  0.27107200  0.91666667  0.69326708  1.0
  Ta  Ta813  1  0.60440533  0.25000000  0.69326708  1.0
  Ta  Ta814  1  0.60440533  0.58333333  0.69326708  1.0
  Ta  Ta815  1  0.60440533  0.91666667  0.69326708  1.0
  Ta  Ta816  1  0.93773867  0.25000000  0.69326708  1.0
  Ta  Ta817  1  0.93773867  0.58333333  0.69326708  1.0
  Ta  Ta818  1  0.93773867  0.91666667  0.69326708  1.0
  Ta  Ta819  1  0.10440533  0.08333333  0.56826708  1.0
  Ta  Ta820  1  0.10440533  0.41666667  0.56826708  1.0
  Ta  Ta821  1  0.10440533  0.75000000  0.56826708  1.0
  Ta  Ta822  1  0.43773867  0.08333333  0.56826708  1.0
  Ta  Ta823  1  0.43773867  0.41666667  0.56826708  1.0
  Ta  Ta824  1  0.43773867  0.75000000  0.56826708  1.0
  Ta  Ta825  1  0.77107200  0.08333333  0.56826708  1.0
  Ta  Ta826  1  0.77107200  0.41666667  0.56826708  1.0
  Ta  Ta827  1  0.77107200  0.75000000  0.56826708  1.0
  Ta  Ta828  1  0.00000000  0.31226133  0.64657108  1.0
  Ta  Ta829  1  0.00000000  0.64559467  0.64657108  1.0
  Ta  Ta830  1  0.00000000  0.97892800  0.64657108  1.0
  Ta  Ta831  1  0.33333333  0.31226133  0.64657108  1.0
  Ta  Ta832  1  0.33333333  0.64559467  0.64657108  1.0
  Ta  Ta833  1  0.33333333  0.97892800  0.64657108  1.0
  Ta  Ta834  1  0.66666667  0.31226133  0.64657108  1.0
  Ta  Ta835  1  0.66666667  0.64559467  0.64657108  1.0
  Ta  Ta836  1  0.66666667  0.97892800  0.64657108  1.0
  Ta  Ta837  1  0.16666667  0.14559467  0.52157108  1.0
  Ta  Ta838  1  0.16666667  0.47892800  0.52157108  1.0
  Ta  Ta839  1  0.16666667  0.81226133  0.52157108  1.0
  Ta  Ta840  1  0.50000000  0.14559467  0.52157108  1.0
  Ta  Ta841  1  0.50000000  0.47892800  0.52157108  1.0
  Ta  Ta842  1  0.50000000  0.81226133  0.52157108  1.0
  Ta  Ta843  1  0.83333333  0.14559467  0.52157108  1.0
  Ta  Ta844  1  0.83333333  0.47892800  0.52157108  1.0
  Ta  Ta845  1  0.83333333  0.81226133  0.52157108  1.0
  Ta  Ta846  1  0.00000000  0.18773867  0.64657108  1.0
  Ta  Ta847  1  0.00000000  0.52107200  0.64657108  1.0
  Ta  Ta848  1  0.00000000  0.85440533  0.64657108  1.0
  Ta  Ta849  1  0.33333333  0.18773867  0.64657108  1.0
  Ta  Ta850  1  0.33333333  0.52107200  0.64657108  1.0
  Ta  Ta851  1  0.33333333  0.85440533  0.64657108  1.0
  Ta  Ta852  1  0.66666667  0.18773867  0.64657108  1.0
  Ta  Ta853  1  0.66666667  0.52107200  0.64657108  1.0
  Ta  Ta854  1  0.66666667  0.85440533  0.64657108  1.0
  Ta  Ta855  1  0.16666667  0.02107200  0.52157108  1.0
  Ta  Ta856  1  0.16666667  0.35440533  0.52157108  1.0
  Ta  Ta857  1  0.16666667  0.68773867  0.52157108  1.0
  Ta  Ta858  1  0.50000000  0.02107200  0.52157108  1.0
  Ta  Ta859  1  0.50000000  0.35440533  0.52157108  1.0
  Ta  Ta860  1  0.50000000  0.68773867  0.52157108  1.0
  Ta  Ta861  1  0.83333333  0.02107200  0.52157108  1.0
  Ta  Ta862  1  0.83333333  0.35440533  0.52157108  1.0
  Ta  Ta863  1  0.83333333  0.68773867  0.52157108  1.0
