# generated using pymatgen
data_Ta5Ni
_symmetry_space_group_name_H-M   'P 1'
_cell_length_a   43.68977999
_cell_length_b   43.68977999
_cell_length_c   58.85671456
_cell_angle_alpha   30.00000000
_cell_angle_beta   106.77865488
_cell_angle_gamma   99.59406823
_symmetry_Int_Tables_number   1
_chemical_formula_structural   Ta5Ni
_chemical_formula_sum   'Ta1080 Ni216'
_cell_volume   52960.18266032
_cell_formula_units_Z   216
loop_
 _symmetry_equiv_pos_site_id
 _symmetry_equiv_pos_as_xyz
  1  'x, y, z'
loop_
 _atom_site_type_symbol
 _atom_site_label
 _atom_site_symmetry_multiplicity
 _atom_site_fract_x
 _atom_site_fract_y
 _atom_site_fract_z
 _atom_site_occupancy
  Ta  Ta0  1  0.18104739  0.23857028  0.02818412  1.0
  Ta  Ta1  1  0.18104739  0.57190361  0.02818412  1.0
  Ta  Ta2  1  0.18104739  0.90523694  0.02818412  1.0
  Ta  Ta3  1  0.51438072  0.23857028  0.02818412  1.0
  Ta  Ta4  1  0.51438072  0.57190361  0.02818412  1.0
  Ta  Ta5  1  0.51438072  0.90523694  0.02818412  1.0
  Ta  Ta6  1  0.84771406  0.23857028  0.02818412  1.0
  Ta  Ta7  1  0.84771405  0.57190361  0.02818412  1.0
  Ta  Ta8  1  0.84771405  0.90523694  0.02818412  1.0
  Ta  Ta9  1  0.01438072  0.07190361  0.09961269  1.0
  Ta  Ta10  1  0.01438072  0.40523694  0.09961269  1.0
  Ta  Ta11  1  0.01438072  0.73857028  0.09961269  1.0
  Ta  Ta12  1  0.34771405  0.07190361  0.09961269  1.0
  Ta  Ta13  1  0.34771406  0.40523694  0.09961269  1.0
  Ta  Ta14  1  0.34771405  0.73857028  0.09961269  1.0
  Ta  Ta15  1  0.68104739  0.07190361  0.09961269  1.0
  Ta  Ta16  1  0.68104739  0.40523694  0.09961269  1.0
  Ta  Ta17  1  0.68104739  0.73857028  0.09961269  1.0
  Ta  Ta18  1  0.29019117  0.01438072  0.12426536  1.0
  Ta  Ta19  1  0.29019117  0.34771406  0.12426536  1.0
  Ta  Ta20  1  0.29019117  0.68104739  0.12426536  1.0
  Ta  Ta21  1  0.62352450  0.01438072  0.12426536  1.0
  Ta  Ta22  1  0.62352450  0.34771406  0.12426536  1.0
  Ta  Ta23  1  0.62352450  0.68104739  0.12426536  1.0
  Ta  Ta24  1  0.95685783  0.01438072  0.12426536  1.0
  Ta  Ta25  1  0.95685783  0.34771406  0.12426536  1.0
  Ta  Ta26  1  0.95685783  0.68104739  0.12426536  1.0
  Ta  Ta27  1  0.12352450  0.18104739  0.05283679  1.0
  Ta  Ta28  1  0.12352450  0.51438072  0.05283679  1.0
  Ta  Ta29  1  0.12352450  0.84771406  0.05283679  1.0
  Ta  Ta30  1  0.45685783  0.18104739  0.05283679  1.0
  Ta  Ta31  1  0.45685783  0.51438072  0.05283679  1.0
  Ta  Ta32  1  0.45685783  0.84771406  0.05283679  1.0
  Ta  Ta33  1  0.79019117  0.18104739  0.05283679  1.0
  Ta  Ta34  1  0.79019117  0.51438072  0.05283679  1.0
  Ta  Ta35  1  0.79019117  0.84771406  0.05283679  1.0
  Ta  Ta36  1  0.18104739  0.12352450  0.12679478  1.0
  Ta  Ta37  1  0.18104739  0.45685784  0.12679479  1.0
  Ta  Ta38  1  0.18104739  0.79019117  0.12679479  1.0
  Ta  Ta39  1  0.51438072  0.12352450  0.12679479  1.0
  Ta  Ta40  1  0.51438072  0.45685784  0.12679478  1.0
  Ta  Ta41  1  0.51438072  0.79019117  0.12679479  1.0
  Ta  Ta42  1  0.84771405  0.12352450  0.12679478  1.0
  Ta  Ta43  1  0.84771406  0.45685784  0.12679478  1.0
  Ta  Ta44  1  0.84771405  0.79019117  0.12679479  1.0
  Ta  Ta45  1  0.01438072  0.29019117  0.05536621  1.0
  Ta  Ta46  1  0.01438072  0.62352450  0.05536621  1.0
  Ta  Ta47  1  0.01438072  0.95685783  0.05536621  1.0
  Ta  Ta48  1  0.34771406  0.29019117  0.05536621  1.0
  Ta  Ta49  1  0.34771406  0.62352450  0.05536621  1.0
  Ta  Ta50  1  0.34771406  0.95685783  0.05536621  1.0
  Ta  Ta51  1  0.68104739  0.29019117  0.05536621  1.0
  Ta  Ta52  1  0.68104739  0.62352450  0.05536621  1.0
  Ta  Ta53  1  0.68104739  0.95685783  0.05536621  1.0
  Ta  Ta54  1  0.18104739  0.12352450  0.07748945  1.0
  Ta  Ta55  1  0.18104739  0.45685784  0.07748945  1.0
  Ta  Ta56  1  0.18104739  0.79019117  0.07748945  1.0
  Ta  Ta57  1  0.51438072  0.12352450  0.07748945  1.0
  Ta  Ta58  1  0.51438072  0.45685784  0.07748945  1.0
  Ta  Ta59  1  0.51438072  0.79019117  0.07748945  1.0
  Ta  Ta60  1  0.84771405  0.12352450  0.07748945  1.0
  Ta  Ta61  1  0.84771406  0.45685784  0.07748945  1.0
  Ta  Ta62  1  0.84771405  0.79019117  0.07748945  1.0
  Ta  Ta63  1  0.01438072  0.29019117  0.00606088  1.0
  Ta  Ta64  1  0.01438072  0.62352450  0.00606088  1.0
  Ta  Ta65  1  0.01438072  0.95685783  0.00606088  1.0
  Ta  Ta66  1  0.34771406  0.29019117  0.00606088  1.0
  Ta  Ta67  1  0.34771406  0.62352450  0.00606088  1.0
  Ta  Ta68  1  0.34771406  0.95685783  0.00606088  1.0
  Ta  Ta69  1  0.68104739  0.29019117  0.00606088  1.0
  Ta  Ta70  1  0.68104739  0.62352450  0.00606088  1.0
  Ta  Ta71  1  0.68104739  0.95685783  0.00606088  1.0
  Ta  Ta72  1  0.27728595  0.05309639  0.02518274  1.0
  Ta  Ta73  1  0.27728595  0.38642972  0.02518274  1.0
  Ta  Ta74  1  0.27728595  0.71976305  0.02518274  1.0
  Ta  Ta75  1  0.61061928  0.05309639  0.02518274  1.0
  Ta  Ta76  1  0.61061928  0.38642972  0.02518274  1.0
  Ta  Ta77  1  0.61061928  0.71976305  0.02518274  1.0
  Ta  Ta78  1  0.94395261  0.05309639  0.02518274  1.0
  Ta  Ta79  1  0.94395261  0.38642972  0.02518274  1.0
  Ta  Ta80  1  0.94395261  0.71976305  0.02518274  1.0
  Ta  Ta81  1  0.11061928  0.21976305  0.09661131  1.0
  Ta  Ta82  1  0.11061928  0.55309639  0.09661131  1.0
  Ta  Ta83  1  0.11061928  0.88642972  0.09661131  1.0
  Ta  Ta84  1  0.44395261  0.21976305  0.09661131  1.0
  Ta  Ta85  1  0.44395261  0.55309639  0.09661131  1.0
  Ta  Ta86  1  0.44395261  0.88642972  0.09661131  1.0
  Ta  Ta87  1  0.77728595  0.21976305  0.09661131  1.0
  Ta  Ta88  1  0.77728594  0.55309639  0.09661131  1.0
  Ta  Ta89  1  0.77728594  0.88642972  0.09661131  1.0
  Ta  Ta90  1  0.16814217  0.27728594  0.07195864  1.0
  Ta  Ta91  1  0.16814217  0.61061928  0.07195864  1.0
  Ta  Ta92  1  0.16814217  0.94395261  0.07195864  1.0
  Ta  Ta93  1  0.50147550  0.27728594  0.07195864  1.0
  Ta  Ta94  1  0.50147550  0.61061928  0.07195864  1.0
  Ta  Ta95  1  0.50147550  0.94395261  0.07195864  1.0
  Ta  Ta96  1  0.83480883  0.27728594  0.07195864  1.0
  Ta  Ta97  1  0.83480883  0.61061928  0.07195864  1.0
  Ta  Ta98  1  0.83480883  0.94395261  0.07195864  1.0
  Ta  Ta99  1  0.00147550  0.11061928  0.00053007  1.0
  Ta  Ta100  1  0.00147550  0.44395261  0.00053007  1.0
  Ta  Ta101  1  0.00147550  0.77728594  0.00053007  1.0
  Ta  Ta102  1  0.33480883  0.11061928  0.00053007  1.0
  Ta  Ta103  1  0.33480883  0.44395261  0.00053007  1.0
  Ta  Ta104  1  0.33480883  0.77728594  0.00053007  1.0
  Ta  Ta105  1  0.66814217  0.11061928  0.00053007  1.0
  Ta  Ta106  1  0.66814217  0.44395261  0.00053007  1.0
  Ta  Ta107  1  0.66814217  0.77728594  0.00053007  1.0
  Ta  Ta108  1  0.27728594  0.16814217  0.06942921  1.0
  Ta  Ta109  1  0.27728594  0.50147550  0.06942921  1.0
  Ta  Ta110  1  0.27728594  0.83480883  0.06942921  1.0
  Ta  Ta111  1  0.61061928  0.16814217  0.06942921  1.0
  Ta  Ta112  1  0.61061928  0.50147550  0.06942921  1.0
  Ta  Ta113  1  0.61061928  0.83480883  0.06942921  1.0
  Ta  Ta114  1  0.94395261  0.16814217  0.06942922  1.0
  Ta  Ta115  1  0.94395261  0.50147550  0.06942921  1.0
  Ta  Ta116  1  0.94395261  0.83480883  0.06942921  1.0
  Ta  Ta117  1  0.11061928  0.00147550  0.14085779  1.0
  Ta  Ta118  1  0.11061928  0.33480883  0.14085779  1.0
  Ta  Ta119  1  0.11061928  0.66814217  0.14085779  1.0
  Ta  Ta120  1  0.44395261  0.00147550  0.14085779  1.0
  Ta  Ta121  1  0.44395261  0.33480883  0.14085779  1.0
  Ta  Ta122  1  0.44395261  0.66814217  0.14085779  1.0
  Ta  Ta123  1  0.77728594  0.00147550  0.14085779  1.0
  Ta  Ta124  1  0.77728594  0.33480883  0.14085779  1.0
  Ta  Ta125  1  0.77728594  0.66814217  0.14085779  1.0
  Ta  Ta126  1  0.27728594  0.16814217  0.11873455  1.0
  Ta  Ta127  1  0.27728594  0.50147550  0.11873455  1.0
  Ta  Ta128  1  0.27728594  0.83480883  0.11873455  1.0
  Ta  Ta129  1  0.61061928  0.16814217  0.11873455  1.0
  Ta  Ta130  1  0.61061928  0.50147550  0.11873455  1.0
  Ta  Ta131  1  0.61061928  0.83480883  0.11873455  1.0
  Ta  Ta132  1  0.94395261  0.16814217  0.11873455  1.0
  Ta  Ta133  1  0.94395261  0.50147550  0.11873455  1.0
  Ta  Ta134  1  0.94395261  0.83480883  0.11873455  1.0
  Ta  Ta135  1  0.11061928  0.00147550  0.04730598  1.0
  Ta  Ta136  1  0.11061928  0.33480883  0.04730598  1.0
  Ta  Ta137  1  0.11061928  0.66814217  0.04730598  1.0
  Ta  Ta138  1  0.44395261  0.00147550  0.04730598  1.0
  Ta  Ta139  1  0.44395261  0.33480883  0.04730598  1.0
  Ta  Ta140  1  0.44395261  0.66814217  0.04730598  1.0
  Ta  Ta141  1  0.77728594  0.00147550  0.04730598  1.0
  Ta  Ta142  1  0.77728594  0.33480883  0.04730598  1.0
  Ta  Ta143  1  0.77728594  0.66814217  0.04730598  1.0
  Ta  Ta144  1  0.28113067  0.15660800  0.03089200  1.0
  Ta  Ta145  1  0.28113067  0.48994133  0.03089200  1.0
  Ta  Ta146  1  0.28113067  0.82327467  0.03089200  1.0
  Ta  Ta147  1  0.61446400  0.15660800  0.03089200  1.0
  Ta  Ta148  1  0.61446400  0.48994133  0.03089200  1.0
  Ta  Ta149  1  0.61446400  0.82327467  0.03089200  1.0
  Ta  Ta150  1  0.94779733  0.15660800  0.03089200  1.0
  Ta  Ta151  1  0.94779733  0.48994133  0.03089200  1.0
  Ta  Ta152  1  0.94779733  0.82327467  0.03089200  1.0
  Ta  Ta153  1  0.11446400  0.32327467  0.10232057  1.0
  Ta  Ta154  1  0.11446400  0.65660800  0.10232057  1.0
  Ta  Ta155  1  0.11446400  0.98994133  0.10232057  1.0
  Ta  Ta156  1  0.44779733  0.32327467  0.10232057  1.0
  Ta  Ta157  1  0.44779733  0.65660800  0.10232057  1.0
  Ta  Ta158  1  0.44779733  0.98994133  0.10232057  1.0
  Ta  Ta159  1  0.78113067  0.32327467  0.10232057  1.0
  Ta  Ta160  1  0.78113067  0.65660800  0.10232057  1.0
  Ta  Ta161  1  0.78113067  0.98994133  0.10232057  1.0
  Ta  Ta162  1  0.21886933  0.01005867  0.04033200  1.0
  Ta  Ta163  1  0.21886933  0.34339200  0.04033200  1.0
  Ta  Ta164  1  0.21886933  0.67672533  0.04033200  1.0
  Ta  Ta165  1  0.55220267  0.01005867  0.04033200  1.0
  Ta  Ta166  1  0.55220267  0.34339200  0.04033200  1.0
  Ta  Ta167  1  0.55220267  0.67672533  0.04033200  1.0
  Ta  Ta168  1  0.88553600  0.01005867  0.04033200  1.0
  Ta  Ta169  1  0.88553600  0.34339200  0.04033200  1.0
  Ta  Ta170  1  0.88553600  0.67672533  0.04033200  1.0
  Ta  Ta171  1  0.05220267  0.17672533  0.11176057  1.0
  Ta  Ta172  1  0.05220267  0.51005867  0.11176057  1.0
  Ta  Ta173  1  0.05220267  0.84339200  0.11176057  1.0
  Ta  Ta174  1  0.38553600  0.17672533  0.11176057  1.0
  Ta  Ta175  1  0.38553600  0.51005867  0.11176057  1.0
  Ta  Ta176  1  0.38553600  0.84339200  0.11176057  1.0
  Ta  Ta177  1  0.71886933  0.17672533  0.11176057  1.0
  Ta  Ta178  1  0.71886933  0.51005867  0.11176057  1.0
  Ta  Ta179  1  0.71886933  0.84339200  0.11176057  1.0
  Ta  Ta180  1  0.21886933  0.21886933  0.09369886  1.0
  Ta  Ta181  1  0.21886933  0.55220267  0.09369886  1.0
  Ta  Ta182  1  0.21886933  0.88553600  0.09369886  1.0
  Ta  Ta183  1  0.55220267  0.21886933  0.09369886  1.0
  Ta  Ta184  1  0.55220267  0.55220267  0.09369886  1.0
  Ta  Ta185  1  0.55220267  0.88553600  0.09369886  1.0
  Ta  Ta186  1  0.88553600  0.21886933  0.09369886  1.0
  Ta  Ta187  1  0.88553600  0.55220267  0.09369886  1.0
  Ta  Ta188  1  0.88553600  0.88553600  0.09369886  1.0
  Ta  Ta189  1  0.05220267  0.05220267  0.02227029  1.0
  Ta  Ta190  1  0.05220267  0.38553600  0.02227029  1.0
  Ta  Ta191  1  0.05220267  0.71886933  0.02227029  1.0
  Ta  Ta192  1  0.38553600  0.05220267  0.02227029  1.0
  Ta  Ta193  1  0.38553600  0.38553600  0.02227029  1.0
  Ta  Ta194  1  0.38553600  0.71886933  0.02227029  1.0
  Ta  Ta195  1  0.71886933  0.05220267  0.02227029  1.0
  Ta  Ta196  1  0.71886933  0.38553600  0.02227029  1.0
  Ta  Ta197  1  0.71886933  0.71886933  0.02227029  1.0
  Ta  Ta198  1  0.28113067  0.28113067  0.12038229  1.0
  Ta  Ta199  1  0.28113067  0.61446400  0.12038229  1.0
  Ta  Ta200  1  0.28113067  0.94779733  0.12038229  1.0
  Ta  Ta201  1  0.61446400  0.28113067  0.12038229  1.0
  Ta  Ta202  1  0.61446400  0.61446400  0.12038229  1.0
  Ta  Ta203  1  0.61446400  0.94779733  0.12038229  1.0
  Ta  Ta204  1  0.94779733  0.28113067  0.12038229  1.0
  Ta  Ta205  1  0.94779733  0.61446400  0.12038229  1.0
  Ta  Ta206  1  0.94779733  0.94779733  0.12038229  1.0
  Ta  Ta207  1  0.11446400  0.11446400  0.04895371  1.0
  Ta  Ta208  1  0.11446400  0.44779733  0.04895371  1.0
  Ta  Ta209  1  0.11446400  0.78113067  0.04895371  1.0
  Ta  Ta210  1  0.44779733  0.11446400  0.04895371  1.0
  Ta  Ta211  1  0.44779733  0.44779733  0.04895371  1.0
  Ta  Ta212  1  0.44779733  0.78113067  0.04895371  1.0
  Ta  Ta213  1  0.78113067  0.11446400  0.04895371  1.0
  Ta  Ta214  1  0.78113067  0.44779733  0.04895371  1.0
  Ta  Ta215  1  0.78113067  0.78113067  0.04895371  1.0
  Ta  Ta216  1  0.28113067  0.28113067  0.06701543  1.0
  Ta  Ta217  1  0.28113067  0.61446400  0.06701543  1.0
  Ta  Ta218  1  0.28113067  0.94779733  0.06701543  1.0
  Ta  Ta219  1  0.61446400  0.28113067  0.06701543  1.0
  Ta  Ta220  1  0.61446400  0.61446400  0.06701543  1.0
  Ta  Ta221  1  0.61446400  0.94779733  0.06701543  1.0
  Ta  Ta222  1  0.94779733  0.28113067  0.06701543  1.0
  Ta  Ta223  1  0.94779733  0.61446400  0.06701543  1.0
  Ta  Ta224  1  0.94779733  0.94779733  0.06701543  1.0
  Ta  Ta225  1  0.11446400  0.11446400  0.13844400  1.0
  Ta  Ta226  1  0.11446400  0.44779733  0.13844400  1.0
  Ta  Ta227  1  0.11446400  0.78113067  0.13844400  1.0
  Ta  Ta228  1  0.44779733  0.11446400  0.13844400  1.0
  Ta  Ta229  1  0.44779733  0.44779733  0.13844400  1.0
  Ta  Ta230  1  0.44779733  0.78113067  0.13844400  1.0
  Ta  Ta231  1  0.78113067  0.11446400  0.13844400  1.0
  Ta  Ta232  1  0.78113067  0.44779733  0.13844400  1.0
  Ta  Ta233  1  0.78113067  0.78113067  0.13844400  1.0
  Ta  Ta234  1  0.21886933  0.21886933  0.00420857  1.0
  Ta  Ta235  1  0.21886933  0.55220267  0.00420857  1.0
  Ta  Ta236  1  0.21886933  0.88553600  0.00420857  1.0
  Ta  Ta237  1  0.55220267  0.21886933  0.00420857  1.0
  Ta  Ta238  1  0.55220267  0.55220267  0.00420857  1.0
  Ta  Ta239  1  0.55220267  0.88553600  0.00420857  1.0
  Ta  Ta240  1  0.88553600  0.21886933  0.00420857  1.0
  Ta  Ta241  1  0.88553600  0.55220267  0.00420857  1.0
  Ta  Ta242  1  0.88553600  0.88553600  0.00420857  1.0
  Ta  Ta243  1  0.05220267  0.05220267  0.07563714  1.0
  Ta  Ta244  1  0.05220267  0.38553600  0.07563714  1.0
  Ta  Ta245  1  0.05220267  0.71886933  0.07563714  1.0
  Ta  Ta246  1  0.38553600  0.05220267  0.07563714  1.0
  Ta  Ta247  1  0.38553600  0.38553600  0.07563714  1.0
  Ta  Ta248  1  0.38553600  0.71886933  0.07563714  1.0
  Ta  Ta249  1  0.71886933  0.05220267  0.07563714  1.0
  Ta  Ta250  1  0.71886933  0.38553600  0.07563714  1.0
  Ta  Ta251  1  0.71886933  0.71886933  0.07563714  1.0
  Ta  Ta252  1  0.17720267  0.13505867  0.02247486  1.0
  Ta  Ta253  1  0.17720267  0.46839200  0.02247486  1.0
  Ta  Ta254  1  0.17720267  0.80172533  0.02247486  1.0
  Ta  Ta255  1  0.51053600  0.13505867  0.02247486  1.0
  Ta  Ta256  1  0.51053600  0.46839200  0.02247486  1.0
  Ta  Ta257  1  0.51053600  0.80172533  0.02247486  1.0
  Ta  Ta258  1  0.84386933  0.13505867  0.02247486  1.0
  Ta  Ta259  1  0.84386933  0.46839200  0.02247486  1.0
  Ta  Ta260  1  0.84386933  0.80172533  0.02247486  1.0
  Ta  Ta261  1  0.01053600  0.30172533  0.09390343  1.0
  Ta  Ta262  1  0.01053600  0.63505867  0.09390343  1.0
  Ta  Ta263  1  0.01053600  0.96839200  0.09390343  1.0
  Ta  Ta264  1  0.34386933  0.30172533  0.09390343  1.0
  Ta  Ta265  1  0.34386933  0.63505867  0.09390343  1.0
  Ta  Ta266  1  0.34386933  0.96839200  0.09390343  1.0
  Ta  Ta267  1  0.67720267  0.30172533  0.09390343  1.0
  Ta  Ta268  1  0.67720267  0.63505867  0.09390343  1.0
  Ta  Ta269  1  0.67720267  0.96839200  0.09390343  1.0
  Ta  Ta270  1  0.23946400  0.28160800  0.01303486  1.0
  Ta  Ta271  1  0.23946400  0.61494133  0.01303486  1.0
  Ta  Ta272  1  0.23946400  0.94827467  0.01303486  1.0
  Ta  Ta273  1  0.57279733  0.28160800  0.01303486  1.0
  Ta  Ta274  1  0.57279733  0.61494133  0.01303486  1.0
  Ta  Ta275  1  0.57279733  0.94827467  0.01303486  1.0
  Ta  Ta276  1  0.90613067  0.28160800  0.01303486  1.0
  Ta  Ta277  1  0.90613067  0.61494133  0.01303486  1.0
  Ta  Ta278  1  0.90613067  0.94827467  0.01303486  1.0
  Ta  Ta279  1  0.07279733  0.11494133  0.08446343  1.0
  Ta  Ta280  1  0.07279733  0.44827467  0.08446343  1.0
  Ta  Ta281  1  0.07279733  0.78160800  0.08446343  1.0
  Ta  Ta282  1  0.40613067  0.11494133  0.08446343  1.0
  Ta  Ta283  1  0.40613067  0.44827467  0.08446343  1.0
  Ta  Ta284  1  0.40613067  0.78160800  0.08446343  1.0
  Ta  Ta285  1  0.73946400  0.11494133  0.08446343  1.0
  Ta  Ta286  1  0.73946400  0.44827467  0.08446343  1.0
  Ta  Ta287  1  0.73946400  0.78160800  0.08446343  1.0
  Ta  Ta288  1  0.23946400  0.07279733  0.10252514  1.0
  Ta  Ta289  1  0.23946400  0.40613067  0.10252514  1.0
  Ta  Ta290  1  0.23946400  0.73946400  0.10252514  1.0
  Ta  Ta291  1  0.57279733  0.07279733  0.10252514  1.0
  Ta  Ta292  1  0.57279733  0.40613067  0.10252514  1.0
  Ta  Ta293  1  0.57279733  0.73946400  0.10252514  1.0
  Ta  Ta294  1  0.90613067  0.07279733  0.10252514  1.0
  Ta  Ta295  1  0.90613067  0.40613067  0.10252514  1.0
  Ta  Ta296  1  0.90613067  0.73946400  0.10252514  1.0
  Ta  Ta297  1  0.07279733  0.23946400  0.03109657  1.0
  Ta  Ta298  1  0.07279733  0.57279733  0.03109657  1.0
  Ta  Ta299  1  0.07279733  0.90613067  0.03109657  1.0
  Ta  Ta300  1  0.40613067  0.23946400  0.03109657  1.0
  Ta  Ta301  1  0.40613067  0.57279733  0.03109657  1.0
  Ta  Ta302  1  0.40613067  0.90613067  0.03109657  1.0
  Ta  Ta303  1  0.73946400  0.23946400  0.03109657  1.0
  Ta  Ta304  1  0.73946400  0.57279733  0.03109657  1.0
  Ta  Ta305  1  0.73946400  0.90613067  0.03109657  1.0
  Ta  Ta306  1  0.17720267  0.01053600  0.07584171  1.0
  Ta  Ta307  1  0.17720267  0.34386933  0.07584171  1.0
  Ta  Ta308  1  0.17720267  0.67720267  0.07584171  1.0
  Ta  Ta309  1  0.51053600  0.01053600  0.07584171  1.0
  Ta  Ta310  1  0.51053600  0.34386933  0.07584171  1.0
  Ta  Ta311  1  0.51053600  0.67720267  0.07584171  1.0
  Ta  Ta312  1  0.84386933  0.01053600  0.07584171  1.0
  Ta  Ta313  1  0.84386933  0.34386933  0.07584171  1.0
  Ta  Ta314  1  0.84386933  0.67720267  0.07584171  1.0
  Ta  Ta315  1  0.01053600  0.17720267  0.00441314  1.0
  Ta  Ta316  1  0.01053600  0.51053600  0.00441314  1.0
  Ta  Ta317  1  0.01053600  0.84386933  0.00441314  1.0
  Ta  Ta318  1  0.34386933  0.17720267  0.00441314  1.0
  Ta  Ta319  1  0.34386933  0.51053600  0.00441314  1.0
  Ta  Ta320  1  0.34386933  0.84386933  0.00441314  1.0
  Ta  Ta321  1  0.67720267  0.17720267  0.00441314  1.0
  Ta  Ta322  1  0.67720267  0.51053600  0.00441314  1.0
  Ta  Ta323  1  0.67720267  0.84386933  0.00441314  1.0
  Ta  Ta324  1  0.17720267  0.01053600  0.12920857  1.0
  Ta  Ta325  1  0.17720267  0.34386933  0.12920857  1.0
  Ta  Ta326  1  0.17720267  0.67720267  0.12920857  1.0
  Ta  Ta327  1  0.51053600  0.01053600  0.12920857  1.0
  Ta  Ta328  1  0.51053600  0.34386933  0.12920857  1.0
  Ta  Ta329  1  0.51053600  0.67720267  0.12920857  1.0
  Ta  Ta330  1  0.84386933  0.01053600  0.12920857  1.0
  Ta  Ta331  1  0.84386933  0.34386933  0.12920857  1.0
  Ta  Ta332  1  0.84386933  0.67720267  0.12920857  1.0
  Ta  Ta333  1  0.01053600  0.17720267  0.05778000  1.0
  Ta  Ta334  1  0.01053600  0.51053600  0.05778000  1.0
  Ta  Ta335  1  0.01053600  0.84386933  0.05778000  1.0
  Ta  Ta336  1  0.34386933  0.17720267  0.05778000  1.0
  Ta  Ta337  1  0.34386933  0.51053600  0.05778000  1.0
  Ta  Ta338  1  0.34386933  0.84386933  0.05778000  1.0
  Ta  Ta339  1  0.67720267  0.17720267  0.05778000  1.0
  Ta  Ta340  1  0.67720267  0.51053600  0.05778000  1.0
  Ta  Ta341  1  0.67720267  0.84386933  0.05778000  1.0
  Ta  Ta342  1  0.23946400  0.07279733  0.04915829  1.0
  Ta  Ta343  1  0.23946400  0.40613067  0.04915829  1.0
  Ta  Ta344  1  0.23946400  0.73946400  0.04915829  1.0
  Ta  Ta345  1  0.57279733  0.07279733  0.04915829  1.0
  Ta  Ta346  1  0.57279733  0.40613067  0.04915829  1.0
  Ta  Ta347  1  0.57279733  0.73946400  0.04915829  1.0
  Ta  Ta348  1  0.90613067  0.07279733  0.04915829  1.0
  Ta  Ta349  1  0.90613067  0.40613067  0.04915829  1.0
  Ta  Ta350  1  0.90613067  0.73946400  0.04915829  1.0
  Ta  Ta351  1  0.07279733  0.23946400  0.12058686  1.0
  Ta  Ta352  1  0.07279733  0.57279733  0.12058686  1.0
  Ta  Ta353  1  0.07279733  0.90613067  0.12058686  1.0
  Ta  Ta354  1  0.40613067  0.23946400  0.12058686  1.0
  Ta  Ta355  1  0.40613067  0.57279733  0.12058686  1.0
  Ta  Ta356  1  0.40613067  0.90613067  0.12058686  1.0
  Ta  Ta357  1  0.73946400  0.23946400  0.12058686  1.0
  Ta  Ta358  1  0.73946400  0.57279733  0.12058686  1.0
  Ta  Ta359  1  0.73946400  0.90613067  0.12058686  1.0
  Ni  Ni360  1  0.31250000  0.22916667  0.06239771  1.0
  Ni  Ni361  1  0.31250000  0.56250000  0.06239771  1.0
  Ni  Ni362  1  0.31250000  0.89583333  0.06239771  1.0
  Ni  Ni363  1  0.64583333  0.22916667  0.06239771  1.0
  Ni  Ni364  1  0.64583333  0.56250000  0.06239771  1.0
  Ni  Ni365  1  0.64583333  0.89583333  0.06239771  1.0
  Ni  Ni366  1  0.97916667  0.22916667  0.06239771  1.0
  Ni  Ni367  1  0.97916667  0.56250000  0.06239771  1.0
  Ni  Ni368  1  0.97916667  0.89583333  0.06239771  1.0
  Ni  Ni369  1  0.14583333  0.06250000  0.13382629  1.0
  Ni  Ni370  1  0.14583333  0.39583333  0.13382629  1.0
  Ni  Ni371  1  0.14583333  0.72916667  0.13382629  1.0
  Ni  Ni372  1  0.47916667  0.06250000  0.13382629  1.0
  Ni  Ni373  1  0.47916667  0.39583333  0.13382629  1.0
  Ni  Ni374  1  0.47916667  0.72916667  0.13382629  1.0
  Ni  Ni375  1  0.81250000  0.06250000  0.13382629  1.0
  Ni  Ni376  1  0.81250000  0.39583333  0.13382629  1.0
  Ni  Ni377  1  0.81250000  0.72916667  0.13382629  1.0
  Ni  Ni378  1  0.22916667  0.14583333  0.09811200  1.0
  Ni  Ni379  1  0.22916667  0.47916667  0.09811200  1.0
  Ni  Ni380  1  0.22916667  0.81250000  0.09811200  1.0
  Ni  Ni381  1  0.56250000  0.14583333  0.09811200  1.0
  Ni  Ni382  1  0.56250000  0.47916667  0.09811200  1.0
  Ni  Ni383  1  0.56250000  0.81250000  0.09811200  1.0
  Ni  Ni384  1  0.89583333  0.14583333  0.09811200  1.0
  Ni  Ni385  1  0.89583333  0.47916667  0.09811200  1.0
  Ni  Ni386  1  0.89583333  0.81250000  0.09811200  1.0
  Ni  Ni387  1  0.06250000  0.31250000  0.02668343  1.0
  Ni  Ni388  1  0.06250000  0.64583333  0.02668343  1.0
  Ni  Ni389  1  0.06250000  0.97916667  0.02668343  1.0
  Ni  Ni390  1  0.39583333  0.31250000  0.02668343  1.0
  Ni  Ni391  1  0.39583333  0.64583333  0.02668343  1.0
  Ni  Ni392  1  0.39583333  0.97916667  0.02668343  1.0
  Ni  Ni393  1  0.72916667  0.31250000  0.02668343  1.0
  Ni  Ni394  1  0.72916667  0.64583333  0.02668343  1.0
  Ni  Ni395  1  0.72916667  0.97916667  0.02668343  1.0
  Ni  Ni396  1  0.31250000  0.06250000  0.06239771  1.0
  Ni  Ni397  1  0.31250000  0.39583333  0.06239771  1.0
  Ni  Ni398  1  0.31250000  0.72916667  0.06239771  1.0
  Ni  Ni399  1  0.64583333  0.06250000  0.06239771  1.0
  Ni  Ni400  1  0.64583333  0.39583333  0.06239771  1.0
  Ni  Ni401  1  0.64583333  0.72916667  0.06239771  1.0
  Ni  Ni402  1  0.97916667  0.06250000  0.06239771  1.0
  Ni  Ni403  1  0.97916667  0.39583333  0.06239771  1.0
  Ni  Ni404  1  0.97916667  0.72916667  0.06239771  1.0
  Ni  Ni405  1  0.14583333  0.22916667  0.13382629  1.0
  Ni  Ni406  1  0.14583333  0.56250000  0.13382629  1.0
  Ni  Ni407  1  0.14583333  0.89583333  0.13382629  1.0
  Ni  Ni408  1  0.47916667  0.22916667  0.13382629  1.0
  Ni  Ni409  1  0.47916667  0.56250000  0.13382629  1.0
  Ni  Ni410  1  0.47916667  0.89583333  0.13382629  1.0
  Ni  Ni411  1  0.81250000  0.22916667  0.13382629  1.0
  Ni  Ni412  1  0.81250000  0.56250000  0.13382629  1.0
  Ni  Ni413  1  0.81250000  0.89583333  0.13382629  1.0
  Ni  Ni414  1  0.31250000  0.06250000  0.13382629  1.0
  Ni  Ni415  1  0.31250000  0.39583333  0.13382629  1.0
  Ni  Ni416  1  0.31250000  0.72916667  0.13382629  1.0
  Ni  Ni417  1  0.64583333  0.06250000  0.13382629  1.0
  Ni  Ni418  1  0.64583333  0.39583333  0.13382629  1.0
  Ni  Ni419  1  0.64583333  0.72916667  0.13382629  1.0
  Ni  Ni420  1  0.97916667  0.06250000  0.13382629  1.0
  Ni  Ni421  1  0.97916667  0.39583333  0.13382629  1.0
  Ni  Ni422  1  0.97916667  0.72916667  0.13382629  1.0
  Ni  Ni423  1  0.14583333  0.22916667  0.06239771  1.0
  Ni  Ni424  1  0.14583333  0.56250000  0.06239771  1.0
  Ni  Ni425  1  0.14583333  0.89583333  0.06239771  1.0
  Ni  Ni426  1  0.47916667  0.22916667  0.06239771  1.0
  Ni  Ni427  1  0.47916667  0.56250000  0.06239771  1.0
  Ni  Ni428  1  0.47916667  0.89583333  0.06239771  1.0
  Ni  Ni429  1  0.81250000  0.22916667  0.06239771  1.0
  Ni  Ni430  1  0.81250000  0.56250000  0.06239771  1.0
  Ni  Ni431  1  0.81250000  0.89583333  0.06239771  1.0
  Ta  Ta432  1  0.18104739  0.23857028  0.17104126  1.0
  Ta  Ta433  1  0.18104739  0.57190361  0.17104126  1.0
  Ta  Ta434  1  0.18104739  0.90523694  0.17104126  1.0
  Ta  Ta435  1  0.51438072  0.23857028  0.17104126  1.0
  Ta  Ta436  1  0.51438072  0.57190361  0.17104126  1.0
  Ta  Ta437  1  0.51438072  0.90523694  0.17104126  1.0
  Ta  Ta438  1  0.84771406  0.23857028  0.17104126  1.0
  Ta  Ta439  1  0.84771405  0.57190361  0.17104126  1.0
  Ta  Ta440  1  0.84771405  0.90523694  0.17104126  1.0
  Ta  Ta441  1  0.01438072  0.07190361  0.24246983  1.0
  Ta  Ta442  1  0.01438072  0.40523694  0.24246983  1.0
  Ta  Ta443  1  0.01438072  0.73857028  0.24246983  1.0
  Ta  Ta444  1  0.34771405  0.07190361  0.24246983  1.0
  Ta  Ta445  1  0.34771406  0.40523694  0.24246983  1.0
  Ta  Ta446  1  0.34771405  0.73857028  0.24246983  1.0
  Ta  Ta447  1  0.68104739  0.07190361  0.24246983  1.0
  Ta  Ta448  1  0.68104739  0.40523694  0.24246983  1.0
  Ta  Ta449  1  0.68104739  0.73857028  0.24246983  1.0
  Ta  Ta450  1  0.29019117  0.01438072  0.26712250  1.0
  Ta  Ta451  1  0.29019117  0.34771406  0.26712250  1.0
  Ta  Ta452  1  0.29019117  0.68104739  0.26712250  1.0
  Ta  Ta453  1  0.62352450  0.01438072  0.26712250  1.0
  Ta  Ta454  1  0.62352450  0.34771406  0.26712250  1.0
  Ta  Ta455  1  0.62352450  0.68104739  0.26712250  1.0
  Ta  Ta456  1  0.95685783  0.01438072  0.26712250  1.0
  Ta  Ta457  1  0.95685783  0.34771406  0.26712250  1.0
  Ta  Ta458  1  0.95685783  0.68104739  0.26712250  1.0
  Ta  Ta459  1  0.12352450  0.18104739  0.19569393  1.0
  Ta  Ta460  1  0.12352450  0.51438072  0.19569393  1.0
  Ta  Ta461  1  0.12352450  0.84771406  0.19569393  1.0
  Ta  Ta462  1  0.45685783  0.18104739  0.19569393  1.0
  Ta  Ta463  1  0.45685783  0.51438072  0.19569393  1.0
  Ta  Ta464  1  0.45685783  0.84771406  0.19569393  1.0
  Ta  Ta465  1  0.79019117  0.18104739  0.19569393  1.0
  Ta  Ta466  1  0.79019117  0.51438072  0.19569393  1.0
  Ta  Ta467  1  0.79019117  0.84771406  0.19569393  1.0
  Ta  Ta468  1  0.18104739  0.12352450  0.26965193  1.0
  Ta  Ta469  1  0.18104739  0.45685784  0.26965193  1.0
  Ta  Ta470  1  0.18104739  0.79019117  0.26965193  1.0
  Ta  Ta471  1  0.51438072  0.12352450  0.26965193  1.0
  Ta  Ta472  1  0.51438072  0.45685784  0.26965193  1.0
  Ta  Ta473  1  0.51438072  0.79019117  0.26965193  1.0
  Ta  Ta474  1  0.84771405  0.12352450  0.26965193  1.0
  Ta  Ta475  1  0.84771406  0.45685784  0.26965193  1.0
  Ta  Ta476  1  0.84771405  0.79019117  0.26965193  1.0
  Ta  Ta477  1  0.01438072  0.29019117  0.19822336  1.0
  Ta  Ta478  1  0.01438072  0.62352450  0.19822336  1.0
  Ta  Ta479  1  0.01438072  0.95685783  0.19822336  1.0
  Ta  Ta480  1  0.34771406  0.29019117  0.19822336  1.0
  Ta  Ta481  1  0.34771406  0.62352450  0.19822336  1.0
  Ta  Ta482  1  0.34771406  0.95685783  0.19822336  1.0
  Ta  Ta483  1  0.68104739  0.29019117  0.19822336  1.0
  Ta  Ta484  1  0.68104739  0.62352450  0.19822336  1.0
  Ta  Ta485  1  0.68104739  0.95685783  0.19822336  1.0
  Ta  Ta486  1  0.18104739  0.12352450  0.22034659  1.0
  Ta  Ta487  1  0.18104739  0.45685784  0.22034659  1.0
  Ta  Ta488  1  0.18104739  0.79019117  0.22034660  1.0
  Ta  Ta489  1  0.51438072  0.12352450  0.22034659  1.0
  Ta  Ta490  1  0.51438072  0.45685784  0.22034659  1.0
  Ta  Ta491  1  0.51438072  0.79019117  0.22034659  1.0
  Ta  Ta492  1  0.84771405  0.12352450  0.22034659  1.0
  Ta  Ta493  1  0.84771406  0.45685784  0.22034659  1.0
  Ta  Ta494  1  0.84771405  0.79019117  0.22034659  1.0
  Ta  Ta495  1  0.01438072  0.29019117  0.14891802  1.0
  Ta  Ta496  1  0.01438072  0.62352450  0.14891802  1.0
  Ta  Ta497  1  0.01438072  0.95685783  0.14891802  1.0
  Ta  Ta498  1  0.34771406  0.29019117  0.14891802  1.0
  Ta  Ta499  1  0.34771406  0.62352450  0.14891802  1.0
  Ta  Ta500  1  0.34771406  0.95685783  0.14891802  1.0
  Ta  Ta501  1  0.68104739  0.29019117  0.14891802  1.0
  Ta  Ta502  1  0.68104739  0.62352450  0.14891802  1.0
  Ta  Ta503  1  0.68104739  0.95685783  0.14891802  1.0
  Ta  Ta504  1  0.27728595  0.05309639  0.16803988  1.0
  Ta  Ta505  1  0.27728595  0.38642972  0.16803988  1.0
  Ta  Ta506  1  0.27728595  0.71976305  0.16803988  1.0
  Ta  Ta507  1  0.61061928  0.05309639  0.16803988  1.0
  Ta  Ta508  1  0.61061928  0.38642972  0.16803988  1.0
  Ta  Ta509  1  0.61061928  0.71976305  0.16803988  1.0
  Ta  Ta510  1  0.94395261  0.05309639  0.16803988  1.0
  Ta  Ta511  1  0.94395261  0.38642972  0.16803988  1.0
  Ta  Ta512  1  0.94395261  0.71976305  0.16803988  1.0
  Ta  Ta513  1  0.11061928  0.21976305  0.23946845  1.0
  Ta  Ta514  1  0.11061928  0.55309639  0.23946845  1.0
  Ta  Ta515  1  0.11061928  0.88642972  0.23946845  1.0
  Ta  Ta516  1  0.44395261  0.21976305  0.23946845  1.0
  Ta  Ta517  1  0.44395261  0.55309639  0.23946845  1.0
  Ta  Ta518  1  0.44395261  0.88642972  0.23946845  1.0
  Ta  Ta519  1  0.77728595  0.21976305  0.23946845  1.0
  Ta  Ta520  1  0.77728594  0.55309639  0.23946845  1.0
  Ta  Ta521  1  0.77728594  0.88642972  0.23946845  1.0
  Ta  Ta522  1  0.16814217  0.27728594  0.21481579  1.0
  Ta  Ta523  1  0.16814217  0.61061928  0.21481579  1.0
  Ta  Ta524  1  0.16814217  0.94395261  0.21481579  1.0
  Ta  Ta525  1  0.50147550  0.27728594  0.21481579  1.0
  Ta  Ta526  1  0.50147550  0.61061928  0.21481579  1.0
  Ta  Ta527  1  0.50147550  0.94395261  0.21481579  1.0
  Ta  Ta528  1  0.83480883  0.27728594  0.21481579  1.0
  Ta  Ta529  1  0.83480883  0.61061928  0.21481579  1.0
  Ta  Ta530  1  0.83480883  0.94395261  0.21481579  1.0
  Ta  Ta531  1  0.00147550  0.11061928  0.14338721  1.0
  Ta  Ta532  1  0.00147550  0.44395261  0.14338721  1.0
  Ta  Ta533  1  0.00147550  0.77728594  0.14338721  1.0
  Ta  Ta534  1  0.33480883  0.11061928  0.14338721  1.0
  Ta  Ta535  1  0.33480883  0.44395261  0.14338721  1.0
  Ta  Ta536  1  0.33480883  0.77728594  0.14338721  1.0
  Ta  Ta537  1  0.66814217  0.11061928  0.14338721  1.0
  Ta  Ta538  1  0.66814217  0.44395261  0.14338721  1.0
  Ta  Ta539  1  0.66814217  0.77728594  0.14338721  1.0
  Ta  Ta540  1  0.27728594  0.16814217  0.21228636  1.0
  Ta  Ta541  1  0.27728594  0.50147550  0.21228636  1.0
  Ta  Ta542  1  0.27728594  0.83480883  0.21228636  1.0
  Ta  Ta543  1  0.61061928  0.16814217  0.21228636  1.0
  Ta  Ta544  1  0.61061928  0.50147550  0.21228636  1.0
  Ta  Ta545  1  0.61061928  0.83480883  0.21228636  1.0
  Ta  Ta546  1  0.94395261  0.16814217  0.21228636  1.0
  Ta  Ta547  1  0.94395261  0.50147550  0.21228636  1.0
  Ta  Ta548  1  0.94395261  0.83480883  0.21228636  1.0
  Ta  Ta549  1  0.11061928  0.00147550  0.28371493  1.0
  Ta  Ta550  1  0.11061928  0.33480883  0.28371493  1.0
  Ta  Ta551  1  0.11061928  0.66814217  0.28371493  1.0
  Ta  Ta552  1  0.44395261  0.00147550  0.28371493  1.0
  Ta  Ta553  1  0.44395261  0.33480883  0.28371493  1.0
  Ta  Ta554  1  0.44395261  0.66814217  0.28371493  1.0
  Ta  Ta555  1  0.77728594  0.00147550  0.28371493  1.0
  Ta  Ta556  1  0.77728594  0.33480883  0.28371493  1.0
  Ta  Ta557  1  0.77728594  0.66814217  0.28371493  1.0
  Ta  Ta558  1  0.27728594  0.16814217  0.26159169  1.0
  Ta  Ta559  1  0.27728594  0.50147550  0.26159169  1.0
  Ta  Ta560  1  0.27728594  0.83480883  0.26159169  1.0
  Ta  Ta561  1  0.61061928  0.16814217  0.26159169  1.0
  Ta  Ta562  1  0.61061928  0.50147550  0.26159169  1.0
  Ta  Ta563  1  0.61061928  0.83480883  0.26159169  1.0
  Ta  Ta564  1  0.94395261  0.16814217  0.26159169  1.0
  Ta  Ta565  1  0.94395261  0.50147550  0.26159169  1.0
  Ta  Ta566  1  0.94395261  0.83480883  0.26159169  1.0
  Ta  Ta567  1  0.11061928  0.00147550  0.19016312  1.0
  Ta  Ta568  1  0.11061928  0.33480883  0.19016312  1.0
  Ta  Ta569  1  0.11061928  0.66814217  0.19016312  1.0
  Ta  Ta570  1  0.44395261  0.00147550  0.19016312  1.0
  Ta  Ta571  1  0.44395261  0.33480883  0.19016312  1.0
  Ta  Ta572  1  0.44395261  0.66814217  0.19016312  1.0
  Ta  Ta573  1  0.77728594  0.00147550  0.19016312  1.0
  Ta  Ta574  1  0.77728594  0.33480883  0.19016312  1.0
  Ta  Ta575  1  0.77728594  0.66814217  0.19016312  1.0
  Ta  Ta576  1  0.28113067  0.15660800  0.17374914  1.0
  Ta  Ta577  1  0.28113067  0.48994133  0.17374914  1.0
  Ta  Ta578  1  0.28113067  0.82327467  0.17374914  1.0
  Ta  Ta579  1  0.61446400  0.15660800  0.17374914  1.0
  Ta  Ta580  1  0.61446400  0.48994133  0.17374914  1.0
  Ta  Ta581  1  0.61446400  0.82327467  0.17374914  1.0
  Ta  Ta582  1  0.94779733  0.15660800  0.17374914  1.0
  Ta  Ta583  1  0.94779733  0.48994133  0.17374914  1.0
  Ta  Ta584  1  0.94779733  0.82327467  0.17374914  1.0
  Ta  Ta585  1  0.11446400  0.32327467  0.24517771  1.0
  Ta  Ta586  1  0.11446400  0.65660800  0.24517771  1.0
  Ta  Ta587  1  0.11446400  0.98994133  0.24517771  1.0
  Ta  Ta588  1  0.44779733  0.32327467  0.24517771  1.0
  Ta  Ta589  1  0.44779733  0.65660800  0.24517771  1.0
  Ta  Ta590  1  0.44779733  0.98994133  0.24517771  1.0
  Ta  Ta591  1  0.78113067  0.32327467  0.24517771  1.0
  Ta  Ta592  1  0.78113067  0.65660800  0.24517771  1.0
  Ta  Ta593  1  0.78113067  0.98994133  0.24517771  1.0
  Ta  Ta594  1  0.21886933  0.01005867  0.18318914  1.0
  Ta  Ta595  1  0.21886933  0.34339200  0.18318914  1.0
  Ta  Ta596  1  0.21886933  0.67672533  0.18318914  1.0
  Ta  Ta597  1  0.55220267  0.01005867  0.18318914  1.0
  Ta  Ta598  1  0.55220267  0.34339200  0.18318914  1.0
  Ta  Ta599  1  0.55220267  0.67672533  0.18318914  1.0
  Ta  Ta600  1  0.88553600  0.01005867  0.18318914  1.0
  Ta  Ta601  1  0.88553600  0.34339200  0.18318914  1.0
  Ta  Ta602  1  0.88553600  0.67672533  0.18318914  1.0
  Ta  Ta603  1  0.05220267  0.17672533  0.25461771  1.0
  Ta  Ta604  1  0.05220267  0.51005867  0.25461771  1.0
  Ta  Ta605  1  0.05220267  0.84339200  0.25461771  1.0
  Ta  Ta606  1  0.38553600  0.17672533  0.25461771  1.0
  Ta  Ta607  1  0.38553600  0.51005867  0.25461771  1.0
  Ta  Ta608  1  0.38553600  0.84339200  0.25461771  1.0
  Ta  Ta609  1  0.71886933  0.17672533  0.25461771  1.0
  Ta  Ta610  1  0.71886933  0.51005867  0.25461771  1.0
  Ta  Ta611  1  0.71886933  0.84339200  0.25461771  1.0
  Ta  Ta612  1  0.21886933  0.21886933  0.23655600  1.0
  Ta  Ta613  1  0.21886933  0.55220267  0.23655600  1.0
  Ta  Ta614  1  0.21886933  0.88553600  0.23655600  1.0
  Ta  Ta615  1  0.55220267  0.21886933  0.23655600  1.0
  Ta  Ta616  1  0.55220267  0.55220267  0.23655600  1.0
  Ta  Ta617  1  0.55220267  0.88553600  0.23655600  1.0
  Ta  Ta618  1  0.88553600  0.21886933  0.23655600  1.0
  Ta  Ta619  1  0.88553600  0.55220267  0.23655600  1.0
  Ta  Ta620  1  0.88553600  0.88553600  0.23655600  1.0
  Ta  Ta621  1  0.05220267  0.05220267  0.16512743  1.0
  Ta  Ta622  1  0.05220267  0.38553600  0.16512743  1.0
  Ta  Ta623  1  0.05220267  0.71886933  0.16512743  1.0
  Ta  Ta624  1  0.38553600  0.05220267  0.16512743  1.0
  Ta  Ta625  1  0.38553600  0.38553600  0.16512743  1.0
  Ta  Ta626  1  0.38553600  0.71886933  0.16512743  1.0
  Ta  Ta627  1  0.71886933  0.05220267  0.16512743  1.0
  Ta  Ta628  1  0.71886933  0.38553600  0.16512743  1.0
  Ta  Ta629  1  0.71886933  0.71886933  0.16512743  1.0
  Ta  Ta630  1  0.28113067  0.28113067  0.26323943  1.0
  Ta  Ta631  1  0.28113067  0.61446400  0.26323943  1.0
  Ta  Ta632  1  0.28113067  0.94779733  0.26323943  1.0
  Ta  Ta633  1  0.61446400  0.28113067  0.26323943  1.0
  Ta  Ta634  1  0.61446400  0.61446400  0.26323943  1.0
  Ta  Ta635  1  0.61446400  0.94779733  0.26323943  1.0
  Ta  Ta636  1  0.94779733  0.28113067  0.26323943  1.0
  Ta  Ta637  1  0.94779733  0.61446400  0.26323943  1.0
  Ta  Ta638  1  0.94779733  0.94779733  0.26323943  1.0
  Ta  Ta639  1  0.11446400  0.11446400  0.19181086  1.0
  Ta  Ta640  1  0.11446400  0.44779733  0.19181086  1.0
  Ta  Ta641  1  0.11446400  0.78113067  0.19181086  1.0
  Ta  Ta642  1  0.44779733  0.11446400  0.19181086  1.0
  Ta  Ta643  1  0.44779733  0.44779733  0.19181086  1.0
  Ta  Ta644  1  0.44779733  0.78113067  0.19181086  1.0
  Ta  Ta645  1  0.78113067  0.11446400  0.19181086  1.0
  Ta  Ta646  1  0.78113067  0.44779733  0.19181086  1.0
  Ta  Ta647  1  0.78113067  0.78113067  0.19181086  1.0
  Ta  Ta648  1  0.28113067  0.28113067  0.20987257  1.0
  Ta  Ta649  1  0.28113067  0.61446400  0.20987257  1.0
  Ta  Ta650  1  0.28113067  0.94779733  0.20987257  1.0
  Ta  Ta651  1  0.61446400  0.28113067  0.20987257  1.0
  Ta  Ta652  1  0.61446400  0.61446400  0.20987257  1.0
  Ta  Ta653  1  0.61446400  0.94779733  0.20987257  1.0
  Ta  Ta654  1  0.94779733  0.28113067  0.20987257  1.0
  Ta  Ta655  1  0.94779733  0.61446400  0.20987257  1.0
  Ta  Ta656  1  0.94779733  0.94779733  0.20987257  1.0
  Ta  Ta657  1  0.11446400  0.11446400  0.28130114  1.0
  Ta  Ta658  1  0.11446400  0.44779733  0.28130114  1.0
  Ta  Ta659  1  0.11446400  0.78113067  0.28130114  1.0
  Ta  Ta660  1  0.44779733  0.11446400  0.28130114  1.0
  Ta  Ta661  1  0.44779733  0.44779733  0.28130114  1.0
  Ta  Ta662  1  0.44779733  0.78113067  0.28130114  1.0
  Ta  Ta663  1  0.78113067  0.11446400  0.28130114  1.0
  Ta  Ta664  1  0.78113067  0.44779733  0.28130114  1.0
  Ta  Ta665  1  0.78113067  0.78113067  0.28130114  1.0
  Ta  Ta666  1  0.21886933  0.21886933  0.14706571  1.0
  Ta  Ta667  1  0.21886933  0.55220267  0.14706571  1.0
  Ta  Ta668  1  0.21886933  0.88553600  0.14706571  1.0
  Ta  Ta669  1  0.55220267  0.21886933  0.14706571  1.0
  Ta  Ta670  1  0.55220267  0.55220267  0.14706571  1.0
  Ta  Ta671  1  0.55220267  0.88553600  0.14706571  1.0
  Ta  Ta672  1  0.88553600  0.21886933  0.14706571  1.0
  Ta  Ta673  1  0.88553600  0.55220267  0.14706571  1.0
  Ta  Ta674  1  0.88553600  0.88553600  0.14706571  1.0
  Ta  Ta675  1  0.05220267  0.05220267  0.21849429  1.0
  Ta  Ta676  1  0.05220267  0.38553600  0.21849429  1.0
  Ta  Ta677  1  0.05220267  0.71886933  0.21849429  1.0
  Ta  Ta678  1  0.38553600  0.05220267  0.21849429  1.0
  Ta  Ta679  1  0.38553600  0.38553600  0.21849429  1.0
  Ta  Ta680  1  0.38553600  0.71886933  0.21849429  1.0
  Ta  Ta681  1  0.71886933  0.05220267  0.21849429  1.0
  Ta  Ta682  1  0.71886933  0.38553600  0.21849429  1.0
  Ta  Ta683  1  0.71886933  0.71886933  0.21849429  1.0
  Ta  Ta684  1  0.17720267  0.13505867  0.16533200  1.0
  Ta  Ta685  1  0.17720267  0.46839200  0.16533200  1.0
  Ta  Ta686  1  0.17720267  0.80172533  0.16533200  1.0
  Ta  Ta687  1  0.51053600  0.13505867  0.16533200  1.0
  Ta  Ta688  1  0.51053600  0.46839200  0.16533200  1.0
  Ta  Ta689  1  0.51053600  0.80172533  0.16533200  1.0
  Ta  Ta690  1  0.84386933  0.13505867  0.16533200  1.0
  Ta  Ta691  1  0.84386933  0.46839200  0.16533200  1.0
  Ta  Ta692  1  0.84386933  0.80172533  0.16533200  1.0
  Ta  Ta693  1  0.01053600  0.30172533  0.23676057  1.0
  Ta  Ta694  1  0.01053600  0.63505867  0.23676057  1.0
  Ta  Ta695  1  0.01053600  0.96839200  0.23676057  1.0
  Ta  Ta696  1  0.34386933  0.30172533  0.23676057  1.0
  Ta  Ta697  1  0.34386933  0.63505867  0.23676057  1.0
  Ta  Ta698  1  0.34386933  0.96839200  0.23676057  1.0
  Ta  Ta699  1  0.67720267  0.30172533  0.23676057  1.0
  Ta  Ta700  1  0.67720267  0.63505867  0.23676057  1.0
  Ta  Ta701  1  0.67720267  0.96839200  0.23676057  1.0
  Ta  Ta702  1  0.23946400  0.28160800  0.15589200  1.0
  Ta  Ta703  1  0.23946400  0.61494133  0.15589200  1.0
  Ta  Ta704  1  0.23946400  0.94827467  0.15589200  1.0
  Ta  Ta705  1  0.57279733  0.28160800  0.15589200  1.0
  Ta  Ta706  1  0.57279733  0.61494133  0.15589200  1.0
  Ta  Ta707  1  0.57279733  0.94827467  0.15589200  1.0
  Ta  Ta708  1  0.90613067  0.28160800  0.15589200  1.0
  Ta  Ta709  1  0.90613067  0.61494133  0.15589200  1.0
  Ta  Ta710  1  0.90613067  0.94827467  0.15589200  1.0
  Ta  Ta711  1  0.07279733  0.11494133  0.22732057  1.0
  Ta  Ta712  1  0.07279733  0.44827467  0.22732057  1.0
  Ta  Ta713  1  0.07279733  0.78160800  0.22732057  1.0
  Ta  Ta714  1  0.40613067  0.11494133  0.22732057  1.0
  Ta  Ta715  1  0.40613067  0.44827467  0.22732057  1.0
  Ta  Ta716  1  0.40613067  0.78160800  0.22732057  1.0
  Ta  Ta717  1  0.73946400  0.11494133  0.22732057  1.0
  Ta  Ta718  1  0.73946400  0.44827467  0.22732057  1.0
  Ta  Ta719  1  0.73946400  0.78160800  0.22732057  1.0
  Ta  Ta720  1  0.23946400  0.07279733  0.24538229  1.0
  Ta  Ta721  1  0.23946400  0.40613067  0.24538229  1.0
  Ta  Ta722  1  0.23946400  0.73946400  0.24538229  1.0
  Ta  Ta723  1  0.57279733  0.07279733  0.24538229  1.0
  Ta  Ta724  1  0.57279733  0.40613067  0.24538229  1.0
  Ta  Ta725  1  0.57279733  0.73946400  0.24538229  1.0
  Ta  Ta726  1  0.90613067  0.07279733  0.24538229  1.0
  Ta  Ta727  1  0.90613067  0.40613067  0.24538229  1.0
  Ta  Ta728  1  0.90613067  0.73946400  0.24538229  1.0
  Ta  Ta729  1  0.07279733  0.23946400  0.17395371  1.0
  Ta  Ta730  1  0.07279733  0.57279733  0.17395371  1.0
  Ta  Ta731  1  0.07279733  0.90613067  0.17395371  1.0
  Ta  Ta732  1  0.40613067  0.23946400  0.17395371  1.0
  Ta  Ta733  1  0.40613067  0.57279733  0.17395371  1.0
  Ta  Ta734  1  0.40613067  0.90613067  0.17395371  1.0
  Ta  Ta735  1  0.73946400  0.23946400  0.17395371  1.0
  Ta  Ta736  1  0.73946400  0.57279733  0.17395371  1.0
  Ta  Ta737  1  0.73946400  0.90613067  0.17395371  1.0
  Ta  Ta738  1  0.17720267  0.01053600  0.21869886  1.0
  Ta  Ta739  1  0.17720267  0.34386933  0.21869886  1.0
  Ta  Ta740  1  0.17720267  0.67720267  0.21869886  1.0
  Ta  Ta741  1  0.51053600  0.01053600  0.21869886  1.0
  Ta  Ta742  1  0.51053600  0.34386933  0.21869886  1.0
  Ta  Ta743  1  0.51053600  0.67720267  0.21869886  1.0
  Ta  Ta744  1  0.84386933  0.01053600  0.21869886  1.0
  Ta  Ta745  1  0.84386933  0.34386933  0.21869886  1.0
  Ta  Ta746  1  0.84386933  0.67720267  0.21869886  1.0
  Ta  Ta747  1  0.01053600  0.17720267  0.14727029  1.0
  Ta  Ta748  1  0.01053600  0.51053600  0.14727029  1.0
  Ta  Ta749  1  0.01053600  0.84386933  0.14727029  1.0
  Ta  Ta750  1  0.34386933  0.17720267  0.14727029  1.0
  Ta  Ta751  1  0.34386933  0.51053600  0.14727029  1.0
  Ta  Ta752  1  0.34386933  0.84386933  0.14727029  1.0
  Ta  Ta753  1  0.67720267  0.17720267  0.14727029  1.0
  Ta  Ta754  1  0.67720267  0.51053600  0.14727029  1.0
  Ta  Ta755  1  0.67720267  0.84386933  0.14727029  1.0
  Ta  Ta756  1  0.17720267  0.01053600  0.27206571  1.0
  Ta  Ta757  1  0.17720267  0.34386933  0.27206571  1.0
  Ta  Ta758  1  0.17720267  0.67720267  0.27206571  1.0
  Ta  Ta759  1  0.51053600  0.01053600  0.27206571  1.0
  Ta  Ta760  1  0.51053600  0.34386933  0.27206571  1.0
  Ta  Ta761  1  0.51053600  0.67720267  0.27206571  1.0
  Ta  Ta762  1  0.84386933  0.01053600  0.27206571  1.0
  Ta  Ta763  1  0.84386933  0.34386933  0.27206571  1.0
  Ta  Ta764  1  0.84386933  0.67720267  0.27206571  1.0
  Ta  Ta765  1  0.01053600  0.17720267  0.20063714  1.0
  Ta  Ta766  1  0.01053600  0.51053600  0.20063714  1.0
  Ta  Ta767  1  0.01053600  0.84386933  0.20063714  1.0
  Ta  Ta768  1  0.34386933  0.17720267  0.20063714  1.0
  Ta  Ta769  1  0.34386933  0.51053600  0.20063714  1.0
  Ta  Ta770  1  0.34386933  0.84386933  0.20063714  1.0
  Ta  Ta771  1  0.67720267  0.17720267  0.20063714  1.0
  Ta  Ta772  1  0.67720267  0.51053600  0.20063714  1.0
  Ta  Ta773  1  0.67720267  0.84386933  0.20063714  1.0
  Ta  Ta774  1  0.23946400  0.07279733  0.19201543  1.0
  Ta  Ta775  1  0.23946400  0.40613067  0.19201543  1.0
  Ta  Ta776  1  0.23946400  0.73946400  0.19201543  1.0
  Ta  Ta777  1  0.57279733  0.07279733  0.19201543  1.0
  Ta  Ta778  1  0.57279733  0.40613067  0.19201543  1.0
  Ta  Ta779  1  0.57279733  0.73946400  0.19201543  1.0
  Ta  Ta780  1  0.90613067  0.07279733  0.19201543  1.0
  Ta  Ta781  1  0.90613067  0.40613067  0.19201543  1.0
  Ta  Ta782  1  0.90613067  0.73946400  0.19201543  1.0
  Ta  Ta783  1  0.07279733  0.23946400  0.26344400  1.0
  Ta  Ta784  1  0.07279733  0.57279733  0.26344400  1.0
  Ta  Ta785  1  0.07279733  0.90613067  0.26344400  1.0
  Ta  Ta786  1  0.40613067  0.23946400  0.26344400  1.0
  Ta  Ta787  1  0.40613067  0.57279733  0.26344400  1.0
  Ta  Ta788  1  0.40613067  0.90613067  0.26344400  1.0
  Ta  Ta789  1  0.73946400  0.23946400  0.26344400  1.0
  Ta  Ta790  1  0.73946400  0.57279733  0.26344400  1.0
  Ta  Ta791  1  0.73946400  0.90613067  0.26344400  1.0
  Ni  Ni792  1  0.31250000  0.22916667  0.20525486  1.0
  Ni  Ni793  1  0.31250000  0.56250000  0.20525486  1.0
  Ni  Ni794  1  0.31250000  0.89583333  0.20525486  1.0
  Ni  Ni795  1  0.64583333  0.22916667  0.20525486  1.0
  Ni  Ni796  1  0.64583333  0.56250000  0.20525486  1.0
  Ni  Ni797  1  0.64583333  0.89583333  0.20525486  1.0
  Ni  Ni798  1  0.97916667  0.22916667  0.20525486  1.0
  Ni  Ni799  1  0.97916667  0.56250000  0.20525486  1.0
  Ni  Ni800  1  0.97916667  0.89583333  0.20525486  1.0
  Ni  Ni801  1  0.14583333  0.06250000  0.27668343  1.0
  Ni  Ni802  1  0.14583333  0.39583333  0.27668343  1.0
  Ni  Ni803  1  0.14583333  0.72916667  0.27668343  1.0
  Ni  Ni804  1  0.47916667  0.06250000  0.27668343  1.0
  Ni  Ni805  1  0.47916667  0.39583333  0.27668343  1.0
  Ni  Ni806  1  0.47916667  0.72916667  0.27668343  1.0
  Ni  Ni807  1  0.81250000  0.06250000  0.27668343  1.0
  Ni  Ni808  1  0.81250000  0.39583333  0.27668343  1.0
  Ni  Ni809  1  0.81250000  0.72916667  0.27668343  1.0
  Ni  Ni810  1  0.22916667  0.14583333  0.24096914  1.0
  Ni  Ni811  1  0.22916667  0.47916667  0.24096914  1.0
  Ni  Ni812  1  0.22916667  0.81250000  0.24096914  1.0
  Ni  Ni813  1  0.56250000  0.14583333  0.24096914  1.0
  Ni  Ni814  1  0.56250000  0.47916667  0.24096914  1.0
  Ni  Ni815  1  0.56250000  0.81250000  0.24096914  1.0
  Ni  Ni816  1  0.89583333  0.14583333  0.24096914  1.0
  Ni  Ni817  1  0.89583333  0.47916667  0.24096914  1.0
  Ni  Ni818  1  0.89583333  0.81250000  0.24096914  1.0
  Ni  Ni819  1  0.06250000  0.31250000  0.16954057  1.0
  Ni  Ni820  1  0.06250000  0.64583333  0.16954057  1.0
  Ni  Ni821  1  0.06250000  0.97916667  0.16954057  1.0
  Ni  Ni822  1  0.39583333  0.31250000  0.16954057  1.0
  Ni  Ni823  1  0.39583333  0.64583333  0.16954057  1.0
  Ni  Ni824  1  0.39583333  0.97916667  0.16954057  1.0
  Ni  Ni825  1  0.72916667  0.31250000  0.16954057  1.0
  Ni  Ni826  1  0.72916667  0.64583333  0.16954057  1.0
  Ni  Ni827  1  0.72916667  0.97916667  0.16954057  1.0
  Ni  Ni828  1  0.31250000  0.06250000  0.20525486  1.0
  Ni  Ni829  1  0.31250000  0.39583333  0.20525486  1.0
  Ni  Ni830  1  0.31250000  0.72916667  0.20525486  1.0
  Ni  Ni831  1  0.64583333  0.06250000  0.20525486  1.0
  Ni  Ni832  1  0.64583333  0.39583333  0.20525486  1.0
  Ni  Ni833  1  0.64583333  0.72916667  0.20525486  1.0
  Ni  Ni834  1  0.97916667  0.06250000  0.20525486  1.0
  Ni  Ni835  1  0.97916667  0.39583333  0.20525486  1.0
  Ni  Ni836  1  0.97916667  0.72916667  0.20525486  1.0
  Ni  Ni837  1  0.14583333  0.22916667  0.27668343  1.0
  Ni  Ni838  1  0.14583333  0.56250000  0.27668343  1.0
  Ni  Ni839  1  0.14583333  0.89583333  0.27668343  1.0
  Ni  Ni840  1  0.47916667  0.22916667  0.27668343  1.0
  Ni  Ni841  1  0.47916667  0.56250000  0.27668343  1.0
  Ni  Ni842  1  0.47916667  0.89583333  0.27668343  1.0
  Ni  Ni843  1  0.81250000  0.22916667  0.27668343  1.0
  Ni  Ni844  1  0.81250000  0.56250000  0.27668343  1.0
  Ni  Ni845  1  0.81250000  0.89583333  0.27668343  1.0
  Ni  Ni846  1  0.31250000  0.06250000  0.27668343  1.0
  Ni  Ni847  1  0.31250000  0.39583333  0.27668343  1.0
  Ni  Ni848  1  0.31250000  0.72916667  0.27668343  1.0
  Ni  Ni849  1  0.64583333  0.06250000  0.27668343  1.0
  Ni  Ni850  1  0.64583333  0.39583333  0.27668343  1.0
  Ni  Ni851  1  0.64583333  0.72916667  0.27668343  1.0
  Ni  Ni852  1  0.97916667  0.06250000  0.27668343  1.0
  Ni  Ni853  1  0.97916667  0.39583333  0.27668343  1.0
  Ni  Ni854  1  0.97916667  0.72916667  0.27668343  1.0
  Ni  Ni855  1  0.14583333  0.22916667  0.20525486  1.0
  Ni  Ni856  1  0.14583333  0.56250000  0.20525486  1.0
  Ni  Ni857  1  0.14583333  0.89583333  0.20525486  1.0
  Ni  Ni858  1  0.47916667  0.22916667  0.20525486  1.0
  Ni  Ni859  1  0.47916667  0.56250000  0.20525486  1.0
  Ni  Ni860  1  0.47916667  0.89583333  0.20525486  1.0
  Ni  Ni861  1  0.81250000  0.22916667  0.20525486  1.0
  Ni  Ni862  1  0.81250000  0.56250000  0.20525486  1.0
  Ni  Ni863  1  0.81250000  0.89583333  0.20525486  1.0
  Ta  Ta864  1  0.18104739  0.23857028  0.31389841  1.0
  Ta  Ta865  1  0.18104739  0.57190361  0.31389841  1.0
  Ta  Ta866  1  0.18104739  0.90523694  0.31389841  1.0
  Ta  Ta867  1  0.51438072  0.23857028  0.31389841  1.0
  Ta  Ta868  1  0.51438072  0.57190361  0.31389841  1.0
  Ta  Ta869  1  0.51438072  0.90523694  0.31389840  1.0
  Ta  Ta870  1  0.84771406  0.23857028  0.31389840  1.0
  Ta  Ta871  1  0.84771405  0.57190361  0.31389840  1.0
  Ta  Ta872  1  0.84771405  0.90523694  0.31389840  1.0
  Ta  Ta873  1  0.01438072  0.07190361  0.38532698  1.0
  Ta  Ta874  1  0.01438072  0.40523694  0.38532698  1.0
  Ta  Ta875  1  0.01438072  0.73857028  0.38532698  1.0
  Ta  Ta876  1  0.34771405  0.07190361  0.38532698  1.0
  Ta  Ta877  1  0.34771406  0.40523694  0.38532698  1.0
  Ta  Ta878  1  0.34771405  0.73857028  0.38532698  1.0
  Ta  Ta879  1  0.68104739  0.07190361  0.38532698  1.0
  Ta  Ta880  1  0.68104739  0.40523694  0.38532698  1.0
  Ta  Ta881  1  0.68104739  0.73857028  0.38532698  1.0
  Ta  Ta882  1  0.29019117  0.01438072  0.40997964  1.0
  Ta  Ta883  1  0.29019117  0.34771406  0.40997964  1.0
  Ta  Ta884  1  0.29019117  0.68104739  0.40997964  1.0
  Ta  Ta885  1  0.62352450  0.01438072  0.40997964  1.0
  Ta  Ta886  1  0.62352450  0.34771406  0.40997964  1.0
  Ta  Ta887  1  0.62352450  0.68104739  0.40997964  1.0
  Ta  Ta888  1  0.95685783  0.01438072  0.40997964  1.0
  Ta  Ta889  1  0.95685783  0.34771406  0.40997964  1.0
  Ta  Ta890  1  0.95685783  0.68104739  0.40997964  1.0
  Ta  Ta891  1  0.12352450  0.18104739  0.33855107  1.0
  Ta  Ta892  1  0.12352450  0.51438072  0.33855107  1.0
  Ta  Ta893  1  0.12352450  0.84771406  0.33855107  1.0
  Ta  Ta894  1  0.45685783  0.18104739  0.33855107  1.0
  Ta  Ta895  1  0.45685783  0.51438072  0.33855107  1.0
  Ta  Ta896  1  0.45685783  0.84771406  0.33855107  1.0
  Ta  Ta897  1  0.79019117  0.18104739  0.33855107  1.0
  Ta  Ta898  1  0.79019117  0.51438072  0.33855107  1.0
  Ta  Ta899  1  0.79019117  0.84771406  0.33855107  1.0
  Ta  Ta900  1  0.18104739  0.12352450  0.41250907  1.0
  Ta  Ta901  1  0.18104739  0.45685784  0.41250907  1.0
  Ta  Ta902  1  0.18104739  0.79019117  0.41250907  1.0
  Ta  Ta903  1  0.51438072  0.12352450  0.41250907  1.0
  Ta  Ta904  1  0.51438072  0.45685784  0.41250907  1.0
  Ta  Ta905  1  0.51438072  0.79019117  0.41250907  1.0
  Ta  Ta906  1  0.84771405  0.12352450  0.41250907  1.0
  Ta  Ta907  1  0.84771406  0.45685784  0.41250907  1.0
  Ta  Ta908  1  0.84771405  0.79019117  0.41250907  1.0
  Ta  Ta909  1  0.01438072  0.29019117  0.34108050  1.0
  Ta  Ta910  1  0.01438072  0.62352450  0.34108050  1.0
  Ta  Ta911  1  0.01438072  0.95685783  0.34108050  1.0
  Ta  Ta912  1  0.34771406  0.29019117  0.34108050  1.0
  Ta  Ta913  1  0.34771406  0.62352450  0.34108050  1.0
  Ta  Ta914  1  0.34771406  0.95685783  0.34108050  1.0
  Ta  Ta915  1  0.68104739  0.29019117  0.34108050  1.0
  Ta  Ta916  1  0.68104739  0.62352450  0.34108050  1.0
  Ta  Ta917  1  0.68104739  0.95685783  0.34108050  1.0
  Ta  Ta918  1  0.18104739  0.12352450  0.36320374  1.0
  Ta  Ta919  1  0.18104739  0.45685784  0.36320374  1.0
  Ta  Ta920  1  0.18104739  0.79019117  0.36320374  1.0
  Ta  Ta921  1  0.51438072  0.12352450  0.36320374  1.0
  Ta  Ta922  1  0.51438072  0.45685784  0.36320374  1.0
  Ta  Ta923  1  0.51438072  0.79019117  0.36320374  1.0
  Ta  Ta924  1  0.84771405  0.12352450  0.36320374  1.0
  Ta  Ta925  1  0.84771406  0.45685784  0.36320374  1.0
  Ta  Ta926  1  0.84771405  0.79019117  0.36320374  1.0
  Ta  Ta927  1  0.01438072  0.29019117  0.29177517  1.0
  Ta  Ta928  1  0.01438072  0.62352450  0.29177517  1.0
  Ta  Ta929  1  0.01438072  0.95685783  0.29177517  1.0
  Ta  Ta930  1  0.34771406  0.29019117  0.29177517  1.0
  Ta  Ta931  1  0.34771406  0.62352450  0.29177517  1.0
  Ta  Ta932  1  0.34771406  0.95685783  0.29177517  1.0
  Ta  Ta933  1  0.68104739  0.29019117  0.29177517  1.0
  Ta  Ta934  1  0.68104739  0.62352450  0.29177517  1.0
  Ta  Ta935  1  0.68104739  0.95685783  0.29177517  1.0
  Ta  Ta936  1  0.27728595  0.05309639  0.31089702  1.0
  Ta  Ta937  1  0.27728595  0.38642972  0.31089702  1.0
  Ta  Ta938  1  0.27728595  0.71976305  0.31089702  1.0
  Ta  Ta939  1  0.61061928  0.05309639  0.31089702  1.0
  Ta  Ta940  1  0.61061928  0.38642972  0.31089702  1.0
  Ta  Ta941  1  0.61061928  0.71976305  0.31089702  1.0
  Ta  Ta942  1  0.94395261  0.05309639  0.31089702  1.0
  Ta  Ta943  1  0.94395261  0.38642972  0.31089702  1.0
  Ta  Ta944  1  0.94395261  0.71976305  0.31089702  1.0
  Ta  Ta945  1  0.11061928  0.21976305  0.38232560  1.0
  Ta  Ta946  1  0.11061928  0.55309639  0.38232560  1.0
  Ta  Ta947  1  0.11061928  0.88642972  0.38232560  1.0
  Ta  Ta948  1  0.44395261  0.21976305  0.38232560  1.0
  Ta  Ta949  1  0.44395261  0.55309639  0.38232560  1.0
  Ta  Ta950  1  0.44395261  0.88642972  0.38232560  1.0
  Ta  Ta951  1  0.77728595  0.21976305  0.38232560  1.0
  Ta  Ta952  1  0.77728594  0.55309639  0.38232560  1.0
  Ta  Ta953  1  0.77728594  0.88642972  0.38232560  1.0
  Ta  Ta954  1  0.16814217  0.27728594  0.35767293  1.0
  Ta  Ta955  1  0.16814217  0.61061928  0.35767293  1.0
  Ta  Ta956  1  0.16814217  0.94395261  0.35767293  1.0
  Ta  Ta957  1  0.50147550  0.27728594  0.35767293  1.0
  Ta  Ta958  1  0.50147550  0.61061928  0.35767293  1.0
  Ta  Ta959  1  0.50147550  0.94395261  0.35767293  1.0
  Ta  Ta960  1  0.83480883  0.27728594  0.35767293  1.0
  Ta  Ta961  1  0.83480883  0.61061928  0.35767293  1.0
  Ta  Ta962  1  0.83480883  0.94395261  0.35767293  1.0
  Ta  Ta963  1  0.00147550  0.11061928  0.28624436  1.0
  Ta  Ta964  1  0.00147550  0.44395261  0.28624436  1.0
  Ta  Ta965  1  0.00147550  0.77728594  0.28624436  1.0
  Ta  Ta966  1  0.33480883  0.11061928  0.28624436  1.0
  Ta  Ta967  1  0.33480883  0.44395261  0.28624436  1.0
  Ta  Ta968  1  0.33480883  0.77728594  0.28624436  1.0
  Ta  Ta969  1  0.66814217  0.11061928  0.28624436  1.0
  Ta  Ta970  1  0.66814217  0.44395261  0.28624436  1.0
  Ta  Ta971  1  0.66814217  0.77728594  0.28624436  1.0
  Ta  Ta972  1  0.27728594  0.16814217  0.35514350  1.0
  Ta  Ta973  1  0.27728594  0.50147550  0.35514350  1.0
  Ta  Ta974  1  0.27728594  0.83480883  0.35514350  1.0
  Ta  Ta975  1  0.61061928  0.16814217  0.35514350  1.0
  Ta  Ta976  1  0.61061928  0.50147550  0.35514350  1.0
  Ta  Ta977  1  0.61061928  0.83480883  0.35514350  1.0
  Ta  Ta978  1  0.94395261  0.16814217  0.35514350  1.0
  Ta  Ta979  1  0.94395261  0.50147550  0.35514350  1.0
  Ta  Ta980  1  0.94395261  0.83480883  0.35514350  1.0
  Ta  Ta981  1  0.11061928  0.00147550  0.42657207  1.0
  Ta  Ta982  1  0.11061928  0.33480883  0.42657207  1.0
  Ta  Ta983  1  0.11061928  0.66814217  0.42657207  1.0
  Ta  Ta984  1  0.44395261  0.00147550  0.42657207  1.0
  Ta  Ta985  1  0.44395261  0.33480883  0.42657207  1.0
  Ta  Ta986  1  0.44395261  0.66814217  0.42657207  1.0
  Ta  Ta987  1  0.77728594  0.00147550  0.42657207  1.0
  Ta  Ta988  1  0.77728594  0.33480883  0.42657207  1.0
  Ta  Ta989  1  0.77728594  0.66814217  0.42657207  1.0
  Ta  Ta990  1  0.27728594  0.16814217  0.40444883  1.0
  Ta  Ta991  1  0.27728594  0.50147550  0.40444883  1.0
  Ta  Ta992  1  0.27728594  0.83480883  0.40444883  1.0
  Ta  Ta993  1  0.61061928  0.16814217  0.40444883  1.0
  Ta  Ta994  1  0.61061928  0.50147550  0.40444883  1.0
  Ta  Ta995  1  0.61061928  0.83480883  0.40444883  1.0
  Ta  Ta996  1  0.94395261  0.16814217  0.40444883  1.0
  Ta  Ta997  1  0.94395261  0.50147550  0.40444883  1.0
  Ta  Ta998  1  0.94395261  0.83480883  0.40444883  1.0
  Ta  Ta999  1  0.11061928  0.00147550  0.33302026  1.0
  Ta  Ta1000  1  0.11061928  0.33480883  0.33302026  1.0
  Ta  Ta1001  1  0.11061928  0.66814217  0.33302026  1.0
  Ta  Ta1002  1  0.44395261  0.00147550  0.33302026  1.0
  Ta  Ta1003  1  0.44395261  0.33480883  0.33302026  1.0
  Ta  Ta1004  1  0.44395261  0.66814217  0.33302026  1.0
  Ta  Ta1005  1  0.77728594  0.00147550  0.33302026  1.0
  Ta  Ta1006  1  0.77728594  0.33480883  0.33302026  1.0
  Ta  Ta1007  1  0.77728594  0.66814217  0.33302026  1.0
  Ta  Ta1008  1  0.28113067  0.15660800  0.31660629  1.0
  Ta  Ta1009  1  0.28113067  0.48994133  0.31660629  1.0
  Ta  Ta1010  1  0.28113067  0.82327467  0.31660629  1.0
  Ta  Ta1011  1  0.61446400  0.15660800  0.31660629  1.0
  Ta  Ta1012  1  0.61446400  0.48994133  0.31660629  1.0
  Ta  Ta1013  1  0.61446400  0.82327467  0.31660629  1.0
  Ta  Ta1014  1  0.94779733  0.15660800  0.31660629  1.0
  Ta  Ta1015  1  0.94779733  0.48994133  0.31660629  1.0
  Ta  Ta1016  1  0.94779733  0.82327467  0.31660629  1.0
  Ta  Ta1017  1  0.11446400  0.32327467  0.38803486  1.0
  Ta  Ta1018  1  0.11446400  0.65660800  0.38803486  1.0
  Ta  Ta1019  1  0.11446400  0.98994133  0.38803486  1.0
  Ta  Ta1020  1  0.44779733  0.32327467  0.38803486  1.0
  Ta  Ta1021  1  0.44779733  0.65660800  0.38803486  1.0
  Ta  Ta1022  1  0.44779733  0.98994133  0.38803486  1.0
  Ta  Ta1023  1  0.78113067  0.32327467  0.38803486  1.0
  Ta  Ta1024  1  0.78113067  0.65660800  0.38803486  1.0
  Ta  Ta1025  1  0.78113067  0.98994133  0.38803486  1.0
  Ta  Ta1026  1  0.21886933  0.01005867  0.32604629  1.0
  Ta  Ta1027  1  0.21886933  0.34339200  0.32604629  1.0
  Ta  Ta1028  1  0.21886933  0.67672533  0.32604629  1.0
  Ta  Ta1029  1  0.55220267  0.01005867  0.32604629  1.0
  Ta  Ta1030  1  0.55220267  0.34339200  0.32604629  1.0
  Ta  Ta1031  1  0.55220267  0.67672533  0.32604629  1.0
  Ta  Ta1032  1  0.88553600  0.01005867  0.32604629  1.0
  Ta  Ta1033  1  0.88553600  0.34339200  0.32604629  1.0
  Ta  Ta1034  1  0.88553600  0.67672533  0.32604629  1.0
  Ta  Ta1035  1  0.05220267  0.17672533  0.39747486  1.0
  Ta  Ta1036  1  0.05220267  0.51005867  0.39747486  1.0
  Ta  Ta1037  1  0.05220267  0.84339200  0.39747486  1.0
  Ta  Ta1038  1  0.38553600  0.17672533  0.39747486  1.0
  Ta  Ta1039  1  0.38553600  0.51005867  0.39747486  1.0
  Ta  Ta1040  1  0.38553600  0.84339200  0.39747486  1.0
  Ta  Ta1041  1  0.71886933  0.17672533  0.39747486  1.0
  Ta  Ta1042  1  0.71886933  0.51005867  0.39747486  1.0
  Ta  Ta1043  1  0.71886933  0.84339200  0.39747486  1.0
  Ta  Ta1044  1  0.21886933  0.21886933  0.37941314  1.0
  Ta  Ta1045  1  0.21886933  0.55220267  0.37941314  1.0
  Ta  Ta1046  1  0.21886933  0.88553600  0.37941314  1.0
  Ta  Ta1047  1  0.55220267  0.21886933  0.37941314  1.0
  Ta  Ta1048  1  0.55220267  0.55220267  0.37941314  1.0
  Ta  Ta1049  1  0.55220267  0.88553600  0.37941314  1.0
  Ta  Ta1050  1  0.88553600  0.21886933  0.37941314  1.0
  Ta  Ta1051  1  0.88553600  0.55220267  0.37941314  1.0
  Ta  Ta1052  1  0.88553600  0.88553600  0.37941314  1.0
  Ta  Ta1053  1  0.05220267  0.05220267  0.30798457  1.0
  Ta  Ta1054  1  0.05220267  0.38553600  0.30798457  1.0
  Ta  Ta1055  1  0.05220267  0.71886933  0.30798457  1.0
  Ta  Ta1056  1  0.38553600  0.05220267  0.30798457  1.0
  Ta  Ta1057  1  0.38553600  0.38553600  0.30798457  1.0
  Ta  Ta1058  1  0.38553600  0.71886933  0.30798457  1.0
  Ta  Ta1059  1  0.71886933  0.05220267  0.30798457  1.0
  Ta  Ta1060  1  0.71886933  0.38553600  0.30798457  1.0
  Ta  Ta1061  1  0.71886933  0.71886933  0.30798457  1.0
  Ta  Ta1062  1  0.28113067  0.28113067  0.40609657  1.0
  Ta  Ta1063  1  0.28113067  0.61446400  0.40609657  1.0
  Ta  Ta1064  1  0.28113067  0.94779733  0.40609657  1.0
  Ta  Ta1065  1  0.61446400  0.28113067  0.40609657  1.0
  Ta  Ta1066  1  0.61446400  0.61446400  0.40609657  1.0
  Ta  Ta1067  1  0.61446400  0.94779733  0.40609657  1.0
  Ta  Ta1068  1  0.94779733  0.28113067  0.40609657  1.0
  Ta  Ta1069  1  0.94779733  0.61446400  0.40609657  1.0
  Ta  Ta1070  1  0.94779733  0.94779733  0.40609657  1.0
  Ta  Ta1071  1  0.11446400  0.11446400  0.33466800  1.0
  Ta  Ta1072  1  0.11446400  0.44779733  0.33466800  1.0
  Ta  Ta1073  1  0.11446400  0.78113067  0.33466800  1.0
  Ta  Ta1074  1  0.44779733  0.11446400  0.33466800  1.0
  Ta  Ta1075  1  0.44779733  0.44779733  0.33466800  1.0
  Ta  Ta1076  1  0.44779733  0.78113067  0.33466800  1.0
  Ta  Ta1077  1  0.78113067  0.11446400  0.33466800  1.0
  Ta  Ta1078  1  0.78113067  0.44779733  0.33466800  1.0
  Ta  Ta1079  1  0.78113067  0.78113067  0.33466800  1.0
  Ta  Ta1080  1  0.28113067  0.28113067  0.35272971  1.0
  Ta  Ta1081  1  0.28113067  0.61446400  0.35272971  1.0
  Ta  Ta1082  1  0.28113067  0.94779733  0.35272971  1.0
  Ta  Ta1083  1  0.61446400  0.28113067  0.35272971  1.0
  Ta  Ta1084  1  0.61446400  0.61446400  0.35272971  1.0
  Ta  Ta1085  1  0.61446400  0.94779733  0.35272971  1.0
  Ta  Ta1086  1  0.94779733  0.28113067  0.35272971  1.0
  Ta  Ta1087  1  0.94779733  0.61446400  0.35272971  1.0
  Ta  Ta1088  1  0.94779733  0.94779733  0.35272971  1.0
  Ta  Ta1089  1  0.11446400  0.11446400  0.42415829  1.0
  Ta  Ta1090  1  0.11446400  0.44779733  0.42415829  1.0
  Ta  Ta1091  1  0.11446400  0.78113067  0.42415829  1.0
  Ta  Ta1092  1  0.44779733  0.11446400  0.42415829  1.0
  Ta  Ta1093  1  0.44779733  0.44779733  0.42415829  1.0
  Ta  Ta1094  1  0.44779733  0.78113067  0.42415829  1.0
  Ta  Ta1095  1  0.78113067  0.11446400  0.42415829  1.0
  Ta  Ta1096  1  0.78113067  0.44779733  0.42415829  1.0
  Ta  Ta1097  1  0.78113067  0.78113067  0.42415829  1.0
  Ta  Ta1098  1  0.21886933  0.21886933  0.28992286  1.0
  Ta  Ta1099  1  0.21886933  0.55220267  0.28992286  1.0
  Ta  Ta1100  1  0.21886933  0.88553600  0.28992286  1.0
  Ta  Ta1101  1  0.55220267  0.21886933  0.28992286  1.0
  Ta  Ta1102  1  0.55220267  0.55220267  0.28992286  1.0
  Ta  Ta1103  1  0.55220267  0.88553600  0.28992286  1.0
  Ta  Ta1104  1  0.88553600  0.21886933  0.28992286  1.0
  Ta  Ta1105  1  0.88553600  0.55220267  0.28992286  1.0
  Ta  Ta1106  1  0.88553600  0.88553600  0.28992286  1.0
  Ta  Ta1107  1  0.05220267  0.05220267  0.36135143  1.0
  Ta  Ta1108  1  0.05220267  0.38553600  0.36135143  1.0
  Ta  Ta1109  1  0.05220267  0.71886933  0.36135143  1.0
  Ta  Ta1110  1  0.38553600  0.05220267  0.36135143  1.0
  Ta  Ta1111  1  0.38553600  0.38553600  0.36135143  1.0
  Ta  Ta1112  1  0.38553600  0.71886933  0.36135143  1.0
  Ta  Ta1113  1  0.71886933  0.05220267  0.36135143  1.0
  Ta  Ta1114  1  0.71886933  0.38553600  0.36135143  1.0
  Ta  Ta1115  1  0.71886933  0.71886933  0.36135143  1.0
  Ta  Ta1116  1  0.17720267  0.13505867  0.30818914  1.0
  Ta  Ta1117  1  0.17720267  0.46839200  0.30818914  1.0
  Ta  Ta1118  1  0.17720267  0.80172533  0.30818914  1.0
  Ta  Ta1119  1  0.51053600  0.13505867  0.30818914  1.0
  Ta  Ta1120  1  0.51053600  0.46839200  0.30818914  1.0
  Ta  Ta1121  1  0.51053600  0.80172533  0.30818914  1.0
  Ta  Ta1122  1  0.84386933  0.13505867  0.30818914  1.0
  Ta  Ta1123  1  0.84386933  0.46839200  0.30818914  1.0
  Ta  Ta1124  1  0.84386933  0.80172533  0.30818914  1.0
  Ta  Ta1125  1  0.01053600  0.30172533  0.37961771  1.0
  Ta  Ta1126  1  0.01053600  0.63505867  0.37961771  1.0
  Ta  Ta1127  1  0.01053600  0.96839200  0.37961771  1.0
  Ta  Ta1128  1  0.34386933  0.30172533  0.37961771  1.0
  Ta  Ta1129  1  0.34386933  0.63505867  0.37961771  1.0
  Ta  Ta1130  1  0.34386933  0.96839200  0.37961771  1.0
  Ta  Ta1131  1  0.67720267  0.30172533  0.37961771  1.0
  Ta  Ta1132  1  0.67720267  0.63505867  0.37961771  1.0
  Ta  Ta1133  1  0.67720267  0.96839200  0.37961771  1.0
  Ta  Ta1134  1  0.23946400  0.28160800  0.29874914  1.0
  Ta  Ta1135  1  0.23946400  0.61494133  0.29874914  1.0
  Ta  Ta1136  1  0.23946400  0.94827467  0.29874914  1.0
  Ta  Ta1137  1  0.57279733  0.28160800  0.29874914  1.0
  Ta  Ta1138  1  0.57279733  0.61494133  0.29874914  1.0
  Ta  Ta1139  1  0.57279733  0.94827467  0.29874914  1.0
  Ta  Ta1140  1  0.90613067  0.28160800  0.29874914  1.0
  Ta  Ta1141  1  0.90613067  0.61494133  0.29874914  1.0
  Ta  Ta1142  1  0.90613067  0.94827467  0.29874914  1.0
  Ta  Ta1143  1  0.07279733  0.11494133  0.37017771  1.0
  Ta  Ta1144  1  0.07279733  0.44827467  0.37017771  1.0
  Ta  Ta1145  1  0.07279733  0.78160800  0.37017771  1.0
  Ta  Ta1146  1  0.40613067  0.11494133  0.37017771  1.0
  Ta  Ta1147  1  0.40613067  0.44827467  0.37017771  1.0
  Ta  Ta1148  1  0.40613067  0.78160800  0.37017771  1.0
  Ta  Ta1149  1  0.73946400  0.11494133  0.37017771  1.0
  Ta  Ta1150  1  0.73946400  0.44827467  0.37017771  1.0
  Ta  Ta1151  1  0.73946400  0.78160800  0.37017771  1.0
  Ta  Ta1152  1  0.23946400  0.07279733  0.38823943  1.0
  Ta  Ta1153  1  0.23946400  0.40613067  0.38823943  1.0
  Ta  Ta1154  1  0.23946400  0.73946400  0.38823943  1.0
  Ta  Ta1155  1  0.57279733  0.07279733  0.38823943  1.0
  Ta  Ta1156  1  0.57279733  0.40613067  0.38823943  1.0
  Ta  Ta1157  1  0.57279733  0.73946400  0.38823943  1.0
  Ta  Ta1158  1  0.90613067  0.07279733  0.38823943  1.0
  Ta  Ta1159  1  0.90613067  0.40613067  0.38823943  1.0
  Ta  Ta1160  1  0.90613067  0.73946400  0.38823943  1.0
  Ta  Ta1161  1  0.07279733  0.23946400  0.31681086  1.0
  Ta  Ta1162  1  0.07279733  0.57279733  0.31681086  1.0
  Ta  Ta1163  1  0.07279733  0.90613067  0.31681086  1.0
  Ta  Ta1164  1  0.40613067  0.23946400  0.31681086  1.0
  Ta  Ta1165  1  0.40613067  0.57279733  0.31681086  1.0
  Ta  Ta1166  1  0.40613067  0.90613067  0.31681086  1.0
  Ta  Ta1167  1  0.73946400  0.23946400  0.31681086  1.0
  Ta  Ta1168  1  0.73946400  0.57279733  0.31681086  1.0
  Ta  Ta1169  1  0.73946400  0.90613067  0.31681086  1.0
  Ta  Ta1170  1  0.17720267  0.01053600  0.36155600  1.0
  Ta  Ta1171  1  0.17720267  0.34386933  0.36155600  1.0
  Ta  Ta1172  1  0.17720267  0.67720267  0.36155600  1.0
  Ta  Ta1173  1  0.51053600  0.01053600  0.36155600  1.0
  Ta  Ta1174  1  0.51053600  0.34386933  0.36155600  1.0
  Ta  Ta1175  1  0.51053600  0.67720267  0.36155600  1.0
  Ta  Ta1176  1  0.84386933  0.01053600  0.36155600  1.0
  Ta  Ta1177  1  0.84386933  0.34386933  0.36155600  1.0
  Ta  Ta1178  1  0.84386933  0.67720267  0.36155600  1.0
  Ta  Ta1179  1  0.01053600  0.17720267  0.29012743  1.0
  Ta  Ta1180  1  0.01053600  0.51053600  0.29012743  1.0
  Ta  Ta1181  1  0.01053600  0.84386933  0.29012743  1.0
  Ta  Ta1182  1  0.34386933  0.17720267  0.29012743  1.0
  Ta  Ta1183  1  0.34386933  0.51053600  0.29012743  1.0
  Ta  Ta1184  1  0.34386933  0.84386933  0.29012743  1.0
  Ta  Ta1185  1  0.67720267  0.17720267  0.29012743  1.0
  Ta  Ta1186  1  0.67720267  0.51053600  0.29012743  1.0
  Ta  Ta1187  1  0.67720267  0.84386933  0.29012743  1.0
  Ta  Ta1188  1  0.17720267  0.01053600  0.41492286  1.0
  Ta  Ta1189  1  0.17720267  0.34386933  0.41492286  1.0
  Ta  Ta1190  1  0.17720267  0.67720267  0.41492286  1.0
  Ta  Ta1191  1  0.51053600  0.01053600  0.41492286  1.0
  Ta  Ta1192  1  0.51053600  0.34386933  0.41492286  1.0
  Ta  Ta1193  1  0.51053600  0.67720267  0.41492286  1.0
  Ta  Ta1194  1  0.84386933  0.01053600  0.41492286  1.0
  Ta  Ta1195  1  0.84386933  0.34386933  0.41492286  1.0
  Ta  Ta1196  1  0.84386933  0.67720267  0.41492286  1.0
  Ta  Ta1197  1  0.01053600  0.17720267  0.34349429  1.0
  Ta  Ta1198  1  0.01053600  0.51053600  0.34349429  1.0
  Ta  Ta1199  1  0.01053600  0.84386933  0.34349429  1.0
  Ta  Ta1200  1  0.34386933  0.17720267  0.34349429  1.0
  Ta  Ta1201  1  0.34386933  0.51053600  0.34349429  1.0
  Ta  Ta1202  1  0.34386933  0.84386933  0.34349429  1.0
  Ta  Ta1203  1  0.67720267  0.17720267  0.34349429  1.0
  Ta  Ta1204  1  0.67720267  0.51053600  0.34349429  1.0
  Ta  Ta1205  1  0.67720267  0.84386933  0.34349429  1.0
  Ta  Ta1206  1  0.23946400  0.07279733  0.33487257  1.0
  Ta  Ta1207  1  0.23946400  0.40613067  0.33487257  1.0
  Ta  Ta1208  1  0.23946400  0.73946400  0.33487257  1.0
  Ta  Ta1209  1  0.57279733  0.07279733  0.33487257  1.0
  Ta  Ta1210  1  0.57279733  0.40613067  0.33487257  1.0
  Ta  Ta1211  1  0.57279733  0.73946400  0.33487257  1.0
  Ta  Ta1212  1  0.90613067  0.07279733  0.33487257  1.0
  Ta  Ta1213  1  0.90613067  0.40613067  0.33487257  1.0
  Ta  Ta1214  1  0.90613067  0.73946400  0.33487257  1.0
  Ta  Ta1215  1  0.07279733  0.23946400  0.40630114  1.0
  Ta  Ta1216  1  0.07279733  0.57279733  0.40630114  1.0
  Ta  Ta1217  1  0.07279733  0.90613067  0.40630114  1.0
  Ta  Ta1218  1  0.40613067  0.23946400  0.40630114  1.0
  Ta  Ta1219  1  0.40613067  0.57279733  0.40630114  1.0
  Ta  Ta1220  1  0.40613067  0.90613067  0.40630114  1.0
  Ta  Ta1221  1  0.73946400  0.23946400  0.40630114  1.0
  Ta  Ta1222  1  0.73946400  0.57279733  0.40630114  1.0
  Ta  Ta1223  1  0.73946400  0.90613067  0.40630114  1.0
  Ni  Ni1224  1  0.31250000  0.22916667  0.34811200  1.0
  Ni  Ni1225  1  0.31250000  0.56250000  0.34811200  1.0
  Ni  Ni1226  1  0.31250000  0.89583333  0.34811200  1.0
  Ni  Ni1227  1  0.64583333  0.22916667  0.34811200  1.0
  Ni  Ni1228  1  0.64583333  0.56250000  0.34811200  1.0
  Ni  Ni1229  1  0.64583333  0.89583333  0.34811200  1.0
  Ni  Ni1230  1  0.97916667  0.22916667  0.34811200  1.0
  Ni  Ni1231  1  0.97916667  0.56250000  0.34811200  1.0
  Ni  Ni1232  1  0.97916667  0.89583333  0.34811200  1.0
  Ni  Ni1233  1  0.14583333  0.06250000  0.41954057  1.0
  Ni  Ni1234  1  0.14583333  0.39583333  0.41954057  1.0
  Ni  Ni1235  1  0.14583333  0.72916667  0.41954057  1.0
  Ni  Ni1236  1  0.47916667  0.06250000  0.41954057  1.0
  Ni  Ni1237  1  0.47916667  0.39583333  0.41954057  1.0
  Ni  Ni1238  1  0.47916667  0.72916667  0.41954057  1.0
  Ni  Ni1239  1  0.81250000  0.06250000  0.41954057  1.0
  Ni  Ni1240  1  0.81250000  0.39583333  0.41954057  1.0
  Ni  Ni1241  1  0.81250000  0.72916667  0.41954057  1.0
  Ni  Ni1242  1  0.22916667  0.14583333  0.38382629  1.0
  Ni  Ni1243  1  0.22916667  0.47916667  0.38382629  1.0
  Ni  Ni1244  1  0.22916667  0.81250000  0.38382629  1.0
  Ni  Ni1245  1  0.56250000  0.14583333  0.38382629  1.0
  Ni  Ni1246  1  0.56250000  0.47916667  0.38382629  1.0
  Ni  Ni1247  1  0.56250000  0.81250000  0.38382629  1.0
  Ni  Ni1248  1  0.89583333  0.14583333  0.38382629  1.0
  Ni  Ni1249  1  0.89583333  0.47916667  0.38382629  1.0
  Ni  Ni1250  1  0.89583333  0.81250000  0.38382629  1.0
  Ni  Ni1251  1  0.06250000  0.31250000  0.31239771  1.0
  Ni  Ni1252  1  0.06250000  0.64583333  0.31239771  1.0
  Ni  Ni1253  1  0.06250000  0.97916667  0.31239771  1.0
  Ni  Ni1254  1  0.39583333  0.31250000  0.31239771  1.0
  Ni  Ni1255  1  0.39583333  0.64583333  0.31239771  1.0
  Ni  Ni1256  1  0.39583333  0.97916667  0.31239771  1.0
  Ni  Ni1257  1  0.72916667  0.31250000  0.31239771  1.0
  Ni  Ni1258  1  0.72916667  0.64583333  0.31239771  1.0
  Ni  Ni1259  1  0.72916667  0.97916667  0.31239771  1.0
  Ni  Ni1260  1  0.31250000  0.06250000  0.34811200  1.0
  Ni  Ni1261  1  0.31250000  0.39583333  0.34811200  1.0
  Ni  Ni1262  1  0.31250000  0.72916667  0.34811200  1.0
  Ni  Ni1263  1  0.64583333  0.06250000  0.34811200  1.0
  Ni  Ni1264  1  0.64583333  0.39583333  0.34811200  1.0
  Ni  Ni1265  1  0.64583333  0.72916667  0.34811200  1.0
  Ni  Ni1266  1  0.97916667  0.06250000  0.34811200  1.0
  Ni  Ni1267  1  0.97916667  0.39583333  0.34811200  1.0
  Ni  Ni1268  1  0.97916667  0.72916667  0.34811200  1.0
  Ni  Ni1269  1  0.14583333  0.22916667  0.41954057  1.0
  Ni  Ni1270  1  0.14583333  0.56250000  0.41954057  1.0
  Ni  Ni1271  1  0.14583333  0.89583333  0.41954057  1.0
  Ni  Ni1272  1  0.47916667  0.22916667  0.41954057  1.0
  Ni  Ni1273  1  0.47916667  0.56250000  0.41954057  1.0
  Ni  Ni1274  1  0.47916667  0.89583333  0.41954057  1.0
  Ni  Ni1275  1  0.81250000  0.22916667  0.41954057  1.0
  Ni  Ni1276  1  0.81250000  0.56250000  0.41954057  1.0
  Ni  Ni1277  1  0.81250000  0.89583333  0.41954057  1.0
  Ni  Ni1278  1  0.31250000  0.06250000  0.41954057  1.0
  Ni  Ni1279  1  0.31250000  0.39583333  0.41954057  1.0
  Ni  Ni1280  1  0.31250000  0.72916667  0.41954057  1.0
  Ni  Ni1281  1  0.64583333  0.06250000  0.41954057  1.0
  Ni  Ni1282  1  0.64583333  0.39583333  0.41954057  1.0
  Ni  Ni1283  1  0.64583333  0.72916667  0.41954057  1.0
  Ni  Ni1284  1  0.97916667  0.06250000  0.41954057  1.0
  Ni  Ni1285  1  0.97916667  0.39583333  0.41954057  1.0
  Ni  Ni1286  1  0.97916667  0.72916667  0.41954057  1.0
  Ni  Ni1287  1  0.14583333  0.22916667  0.34811200  1.0
  Ni  Ni1288  1  0.14583333  0.56250000  0.34811200  1.0
  Ni  Ni1289  1  0.14583333  0.89583333  0.34811200  1.0
  Ni  Ni1290  1  0.47916667  0.22916667  0.34811200  1.0
  Ni  Ni1291  1  0.47916667  0.56250000  0.34811200  1.0
  Ni  Ni1292  1  0.47916667  0.89583333  0.34811200  1.0
  Ni  Ni1293  1  0.81250000  0.22916667  0.34811200  1.0
  Ni  Ni1294  1  0.81250000  0.56250000  0.34811200  1.0
  Ni  Ni1295  1  0.81250000  0.89583333  0.34811200  1.0
