# generated using pymatgen
data_Ta5Ni
_symmetry_space_group_name_H-M   'P 1'
_cell_length_a   25.22430624
_cell_length_b   61.78667940
_cell_length_c   34.66749299
_cell_angle_alpha   101.42175366
_cell_angle_beta   90.00000000
_cell_angle_gamma   90.00000000
_symmetry_Int_Tables_number   1
_chemical_formula_structural   Ta5Ni
_chemical_formula_sum   'Ta1080 Ni216'
_cell_volume   52960.18266032
_cell_formula_units_Z   216
loop_
 _symmetry_equiv_pos_site_id
 _symmetry_equiv_pos_as_xyz
  1  'x, y, z'
loop_
 _atom_site_type_symbol
 _atom_site_label
 _atom_site_symmetry_multiplicity
 _atom_site_fract_x
 _atom_site_fract_y
 _atom_site_fract_z
 _atom_site_occupancy
  Ni  Ni0  1  0.00000000  0.25006819  0.06239771  1.0
  Ni  Ni1  1  0.00000000  0.58340152  0.06239771  1.0
  Ni  Ni2  1  0.00000000  0.91673486  0.06239771  1.0
  Ni  Ni3  1  0.33333333  0.25006819  0.06239771  1.0
  Ni  Ni4  1  0.33333333  0.58340152  0.06239771  1.0
  Ni  Ni5  1  0.33333333  0.91673486  0.06239771  1.0
  Ni  Ni6  1  0.66666667  0.25006819  0.06239771  1.0
  Ni  Ni7  1  0.66666667  0.58340152  0.06239771  1.0
  Ni  Ni8  1  0.66666667  0.91673486  0.06239771  1.0
  Ni  Ni9  1  0.16666667  0.03578248  0.13382629  1.0
  Ni  Ni10  1  0.16666667  0.36911581  0.13382629  1.0
  Ni  Ni11  1  0.16666667  0.70244914  0.13382629  1.0
  Ni  Ni12  1  0.50000000  0.03578248  0.13382629  1.0
  Ni  Ni13  1  0.50000000  0.36911581  0.13382629  1.0
  Ni  Ni14  1  0.50000000  0.70244914  0.13382629  1.0
  Ni  Ni15  1  0.83333333  0.03578248  0.13382629  1.0
  Ni  Ni16  1  0.83333333  0.36911581  0.13382629  1.0
  Ni  Ni17  1  0.83333333  0.70244914  0.13382629  1.0
  Ni  Ni18  1  0.25000000  0.14292533  0.09811200  1.0
  Ni  Ni19  1  0.25000000  0.47625867  0.09811200  1.0
  Ni  Ni20  1  0.25000000  0.80959200  0.09811200  1.0
  Ni  Ni21  1  0.58333333  0.14292533  0.09811200  1.0
  Ni  Ni22  1  0.58333333  0.47625867  0.09811200  1.0
  Ni  Ni23  1  0.58333333  0.80959200  0.09811200  1.0
  Ni  Ni24  1  0.91666667  0.14292533  0.09811200  1.0
  Ni  Ni25  1  0.91666667  0.47625867  0.09811200  1.0
  Ni  Ni26  1  0.91666667  0.80959200  0.09811200  1.0
  Ni  Ni27  1  0.08333333  0.02387771  0.02668343  1.0
  Ni  Ni28  1  0.08333333  0.35721105  0.02668343  1.0
  Ni  Ni29  1  0.08333333  0.69054438  0.02668343  1.0
  Ni  Ni30  1  0.41666667  0.02387771  0.02668343  1.0
  Ni  Ni31  1  0.41666667  0.35721105  0.02668343  1.0
  Ni  Ni32  1  0.41666667  0.69054438  0.02668343  1.0
  Ni  Ni33  1  0.75000000  0.02387771  0.02668343  1.0
  Ni  Ni34  1  0.75000000  0.35721105  0.02668343  1.0
  Ni  Ni35  1  0.75000000  0.69054438  0.02668343  1.0
  Ni  Ni36  1  0.08333333  0.14292533  0.09811200  1.0
  Ni  Ni37  1  0.08333333  0.47625867  0.09811200  1.0
  Ni  Ni38  1  0.08333333  0.80959200  0.09811200  1.0
  Ni  Ni39  1  0.41666667  0.14292533  0.09811200  1.0
  Ni  Ni40  1  0.41666667  0.47625867  0.09811200  1.0
  Ni  Ni41  1  0.41666667  0.80959200  0.09811200  1.0
  Ni  Ni42  1  0.75000000  0.14292533  0.09811200  1.0
  Ni  Ni43  1  0.75000000  0.47625867  0.09811200  1.0
  Ni  Ni44  1  0.75000000  0.80959200  0.09811200  1.0
  Ni  Ni45  1  0.25000000  0.02387771  0.02668343  1.0
  Ni  Ni46  1  0.25000000  0.35721105  0.02668343  1.0
  Ni  Ni47  1  0.25000000  0.69054438  0.02668343  1.0
  Ni  Ni48  1  0.58333333  0.02387771  0.02668343  1.0
  Ni  Ni49  1  0.58333333  0.35721105  0.02668343  1.0
  Ni  Ni50  1  0.58333333  0.69054438  0.02668343  1.0
  Ni  Ni51  1  0.91666667  0.02387771  0.02668343  1.0
  Ni  Ni52  1  0.91666667  0.35721105  0.02668343  1.0
  Ni  Ni53  1  0.91666667  0.69054438  0.02668343  1.0
  Ni  Ni54  1  0.00000000  0.20244914  0.13382629  1.0
  Ni  Ni55  1  0.00000000  0.53578248  0.13382629  1.0
  Ni  Ni56  1  0.00000000  0.86911581  0.13382629  1.0
  Ni  Ni57  1  0.33333333  0.20244914  0.13382629  1.0
  Ni  Ni58  1  0.33333333  0.53578248  0.13382629  1.0
  Ni  Ni59  1  0.33333333  0.86911581  0.13382629  1.0
  Ni  Ni60  1  0.66666667  0.20244914  0.13382629  1.0
  Ni  Ni61  1  0.66666667  0.53578248  0.13382629  1.0
  Ni  Ni62  1  0.66666667  0.86911581  0.13382629  1.0
  Ni  Ni63  1  0.16666667  0.08340152  0.06239771  1.0
  Ni  Ni64  1  0.16666667  0.41673486  0.06239771  1.0
  Ni  Ni65  1  0.16666667  0.75006819  0.06239771  1.0
  Ni  Ni66  1  0.50000000  0.08340152  0.06239771  1.0
  Ni  Ni67  1  0.50000000  0.41673486  0.06239771  1.0
  Ni  Ni68  1  0.50000000  0.75006819  0.06239771  1.0
  Ni  Ni69  1  0.83333333  0.08340152  0.06239771  1.0
  Ni  Ni70  1  0.83333333  0.41673486  0.06239771  1.0
  Ni  Ni71  1  0.83333333  0.75006819  0.06239771  1.0
  Ni  Ni72  1  0.00000000  0.15483010  0.20525486  1.0
  Ni  Ni73  1  0.00000000  0.48816343  0.20525486  1.0
  Ni  Ni74  1  0.00000000  0.82149676  0.20525486  1.0
  Ni  Ni75  1  0.33333333  0.15483010  0.20525486  1.0
  Ni  Ni76  1  0.33333333  0.48816343  0.20525486  1.0
  Ni  Ni77  1  0.33333333  0.82149676  0.20525486  1.0
  Ni  Ni78  1  0.66666667  0.15483010  0.20525486  1.0
  Ni  Ni79  1  0.66666667  0.48816343  0.20525486  1.0
  Ni  Ni80  1  0.66666667  0.82149676  0.20525486  1.0
  Ni  Ni81  1  0.16666667  0.27387771  0.27668343  1.0
  Ni  Ni82  1  0.16666667  0.60721105  0.27668343  1.0
  Ni  Ni83  1  0.16666667  0.94054438  0.27668343  1.0
  Ni  Ni84  1  0.50000000  0.27387771  0.27668343  1.0
  Ni  Ni85  1  0.50000000  0.60721105  0.27668343  1.0
  Ni  Ni86  1  0.50000000  0.94054438  0.27668343  1.0
  Ni  Ni87  1  0.83333333  0.27387771  0.27668343  1.0
  Ni  Ni88  1  0.83333333  0.60721105  0.27668343  1.0
  Ni  Ni89  1  0.83333333  0.94054438  0.27668343  1.0
  Ni  Ni90  1  0.25000000  0.04768724  0.24096914  1.0
  Ni  Ni91  1  0.25000000  0.38102057  0.24096914  1.0
  Ni  Ni92  1  0.25000000  0.71435390  0.24096914  1.0
  Ni  Ni93  1  0.58333333  0.04768724  0.24096914  1.0
  Ni  Ni94  1  0.58333333  0.38102057  0.24096914  1.0
  Ni  Ni95  1  0.58333333  0.71435390  0.24096914  1.0
  Ni  Ni96  1  0.91666667  0.04768724  0.24096914  1.0
  Ni  Ni97  1  0.91666667  0.38102057  0.24096914  1.0
  Ni  Ni98  1  0.91666667  0.71435390  0.24096914  1.0
  Ni  Ni99  1  0.08333333  0.26197295  0.16954057  1.0
  Ni  Ni100  1  0.08333333  0.59530629  0.16954057  1.0
  Ni  Ni101  1  0.08333333  0.92863962  0.16954057  1.0
  Ni  Ni102  1  0.41666667  0.26197295  0.16954057  1.0
  Ni  Ni103  1  0.41666667  0.59530629  0.16954057  1.0
  Ni  Ni104  1  0.41666667  0.92863962  0.16954057  1.0
  Ni  Ni105  1  0.75000000  0.26197295  0.16954057  1.0
  Ni  Ni106  1  0.75000000  0.59530629  0.16954057  1.0
  Ni  Ni107  1  0.75000000  0.92863962  0.16954057  1.0
  Ni  Ni108  1  0.08333333  0.04768724  0.24096914  1.0
  Ni  Ni109  1  0.08333333  0.38102057  0.24096914  1.0
  Ni  Ni110  1  0.08333333  0.71435390  0.24096914  1.0
  Ni  Ni111  1  0.41666667  0.04768724  0.24096914  1.0
  Ni  Ni112  1  0.41666667  0.38102057  0.24096914  1.0
  Ni  Ni113  1  0.41666667  0.71435390  0.24096914  1.0
  Ni  Ni114  1  0.75000000  0.04768724  0.24096914  1.0
  Ni  Ni115  1  0.75000000  0.38102057  0.24096914  1.0
  Ni  Ni116  1  0.75000000  0.71435390  0.24096914  1.0
  Ni  Ni117  1  0.25000000  0.26197295  0.16954057  1.0
  Ni  Ni118  1  0.25000000  0.59530629  0.16954057  1.0
  Ni  Ni119  1  0.25000000  0.92863962  0.16954057  1.0
  Ni  Ni120  1  0.58333333  0.26197295  0.16954057  1.0
  Ni  Ni121  1  0.58333333  0.59530629  0.16954057  1.0
  Ni  Ni122  1  0.58333333  0.92863962  0.16954057  1.0
  Ni  Ni123  1  0.91666667  0.26197295  0.16954057  1.0
  Ni  Ni124  1  0.91666667  0.59530629  0.16954057  1.0
  Ni  Ni125  1  0.91666667  0.92863962  0.16954057  1.0
  Ni  Ni126  1  0.00000000  0.10721105  0.27668343  1.0
  Ni  Ni127  1  0.00000000  0.44054438  0.27668343  1.0
  Ni  Ni128  1  0.00000000  0.77387771  0.27668343  1.0
  Ni  Ni129  1  0.33333333  0.10721105  0.27668343  1.0
  Ni  Ni130  1  0.33333333  0.44054438  0.27668343  1.0
  Ni  Ni131  1  0.33333333  0.77387771  0.27668343  1.0
  Ni  Ni132  1  0.66666667  0.10721105  0.27668343  1.0
  Ni  Ni133  1  0.66666667  0.44054438  0.27668343  1.0
  Ni  Ni134  1  0.66666667  0.77387771  0.27668343  1.0
  Ni  Ni135  1  0.16666667  0.32149676  0.20525486  1.0
  Ni  Ni136  1  0.16666667  0.65483010  0.20525486  1.0
  Ni  Ni137  1  0.16666667  0.98816343  0.20525486  1.0
  Ni  Ni138  1  0.50000000  0.32149676  0.20525486  1.0
  Ni  Ni139  1  0.50000000  0.65483010  0.20525486  1.0
  Ni  Ni140  1  0.50000000  0.98816343  0.20525486  1.0
  Ni  Ni141  1  0.83333333  0.32149676  0.20525486  1.0
  Ni  Ni142  1  0.83333333  0.65483010  0.20525486  1.0
  Ni  Ni143  1  0.83333333  0.98816343  0.20525486  1.0
  Ni  Ni144  1  0.00000000  0.05959200  0.34811200  1.0
  Ni  Ni145  1  0.00000000  0.39292533  0.34811200  1.0
  Ni  Ni146  1  0.00000000  0.72625867  0.34811200  1.0
  Ni  Ni147  1  0.33333333  0.05959200  0.34811200  1.0
  Ni  Ni148  1  0.33333333  0.39292533  0.34811200  1.0
  Ni  Ni149  1  0.33333333  0.72625867  0.34811200  1.0
  Ni  Ni150  1  0.66666667  0.05959200  0.34811200  1.0
  Ni  Ni151  1  0.66666667  0.39292533  0.34811200  1.0
  Ni  Ni152  1  0.66666667  0.72625867  0.34811200  1.0
  Ni  Ni153  1  0.16666667  0.17863962  0.41954057  1.0
  Ni  Ni154  1  0.16666667  0.51197295  0.41954057  1.0
  Ni  Ni155  1  0.16666667  0.84530629  0.41954057  1.0
  Ni  Ni156  1  0.50000000  0.17863962  0.41954057  1.0
  Ni  Ni157  1  0.50000000  0.51197295  0.41954057  1.0
  Ni  Ni158  1  0.50000000  0.84530629  0.41954057  1.0
  Ni  Ni159  1  0.83333333  0.17863962  0.41954057  1.0
  Ni  Ni160  1  0.83333333  0.51197295  0.41954057  1.0
  Ni  Ni161  1  0.83333333  0.84530629  0.41954057  1.0
  Ni  Ni162  1  0.25000000  0.28578248  0.38382629  1.0
  Ni  Ni163  1  0.25000000  0.61911581  0.38382629  1.0
  Ni  Ni164  1  0.25000000  0.95244914  0.38382629  1.0
  Ni  Ni165  1  0.58333333  0.28578248  0.38382629  1.0
  Ni  Ni166  1  0.58333333  0.61911581  0.38382629  1.0
  Ni  Ni167  1  0.58333333  0.95244914  0.38382629  1.0
  Ni  Ni168  1  0.91666667  0.28578248  0.38382629  1.0
  Ni  Ni169  1  0.91666667  0.61911581  0.38382629  1.0
  Ni  Ni170  1  0.91666667  0.95244914  0.38382629  1.0
  Ni  Ni171  1  0.08333333  0.16673486  0.31239771  1.0
  Ni  Ni172  1  0.08333333  0.50006819  0.31239771  1.0
  Ni  Ni173  1  0.08333333  0.83340152  0.31239771  1.0
  Ni  Ni174  1  0.41666667  0.16673486  0.31239771  1.0
  Ni  Ni175  1  0.41666667  0.50006819  0.31239771  1.0
  Ni  Ni176  1  0.41666667  0.83340152  0.31239771  1.0
  Ni  Ni177  1  0.75000000  0.16673486  0.31239771  1.0
  Ni  Ni178  1  0.75000000  0.50006819  0.31239771  1.0
  Ni  Ni179  1  0.75000000  0.83340152  0.31239771  1.0
  Ni  Ni180  1  0.08333333  0.28578248  0.38382629  1.0
  Ni  Ni181  1  0.08333333  0.61911581  0.38382629  1.0
  Ni  Ni182  1  0.08333333  0.95244914  0.38382629  1.0
  Ni  Ni183  1  0.41666667  0.28578248  0.38382629  1.0
  Ni  Ni184  1  0.41666667  0.61911581  0.38382629  1.0
  Ni  Ni185  1  0.41666667  0.95244914  0.38382629  1.0
  Ni  Ni186  1  0.75000000  0.28578248  0.38382629  1.0
  Ni  Ni187  1  0.75000000  0.61911581  0.38382629  1.0
  Ni  Ni188  1  0.75000000  0.95244914  0.38382629  1.0
  Ni  Ni189  1  0.25000000  0.16673486  0.31239771  1.0
  Ni  Ni190  1  0.25000000  0.50006819  0.31239771  1.0
  Ni  Ni191  1  0.25000000  0.83340152  0.31239771  1.0
  Ni  Ni192  1  0.58333333  0.16673486  0.31239771  1.0
  Ni  Ni193  1  0.58333333  0.50006819  0.31239771  1.0
  Ni  Ni194  1  0.58333333  0.83340152  0.31239771  1.0
  Ni  Ni195  1  0.91666667  0.16673486  0.31239771  1.0
  Ni  Ni196  1  0.91666667  0.50006819  0.31239771  1.0
  Ni  Ni197  1  0.91666667  0.83340152  0.31239771  1.0
  Ni  Ni198  1  0.00000000  0.01197295  0.41954057  1.0
  Ni  Ni199  1  0.00000000  0.34530629  0.41954057  1.0
  Ni  Ni200  1  0.00000000  0.67863962  0.41954057  1.0
  Ni  Ni201  1  0.33333333  0.01197295  0.41954057  1.0
  Ni  Ni202  1  0.33333333  0.34530629  0.41954057  1.0
  Ni  Ni203  1  0.33333333  0.67863962  0.41954057  1.0
  Ni  Ni204  1  0.66666667  0.01197295  0.41954057  1.0
  Ni  Ni205  1  0.66666667  0.34530629  0.41954057  1.0
  Ni  Ni206  1  0.66666667  0.67863962  0.41954057  1.0
  Ni  Ni207  1  0.16666667  0.22625867  0.34811200  1.0
  Ni  Ni208  1  0.16666667  0.55959200  0.34811200  1.0
  Ni  Ni209  1  0.16666667  0.89292533  0.34811200  1.0
  Ni  Ni210  1  0.50000000  0.22625867  0.34811200  1.0
  Ni  Ni211  1  0.50000000  0.55959200  0.34811200  1.0
  Ni  Ni212  1  0.50000000  0.89292533  0.34811200  1.0
  Ni  Ni213  1  0.83333333  0.22625867  0.34811200  1.0
  Ni  Ni214  1  0.83333333  0.55959200  0.34811200  1.0
  Ni  Ni215  1  0.83333333  0.89292533  0.34811200  1.0
  Ta  Ta216  1  0.00000000  0.00191179  0.04027448  1.0
  Ta  Ta217  1  0.00000000  0.33524513  0.04027448  1.0
  Ta  Ta218  1  0.00000000  0.66857846  0.04027448  1.0
  Ta  Ta219  1  0.33333333  0.00191179  0.04027448  1.0
  Ta  Ta220  1  0.33333333  0.33524513  0.04027448  1.0
  Ta  Ta221  1  0.33333333  0.66857846  0.04027448  1.0
  Ta  Ta222  1  0.66666667  0.00191179  0.04027448  1.0
  Ta  Ta223  1  0.66666667  0.33524513  0.04027448  1.0
  Ta  Ta224  1  0.66666667  0.66857846  0.04027448  1.0
  Ta  Ta225  1  0.16666667  0.12095941  0.11170305  1.0
  Ta  Ta226  1  0.16666667  0.45429275  0.11170305  1.0
  Ta  Ta227  1  0.16666667  0.78762608  0.11170305  1.0
  Ta  Ta228  1  0.50000000  0.12095941  0.11170305  1.0
  Ta  Ta229  1  0.50000000  0.45429275  0.11170305  1.0
  Ta  Ta230  1  0.50000000  0.78762608  0.11170305  1.0
  Ta  Ta231  1  0.83333333  0.12095941  0.11170305  1.0
  Ta  Ta232  1  0.83333333  0.45429275  0.11170305  1.0
  Ta  Ta233  1  0.83333333  0.78762608  0.11170305  1.0
  Ta  Ta234  1  0.10914378  0.11274186  0.03774505  1.0
  Ta  Ta235  1  0.10914378  0.44607519  0.03774505  1.0
  Ta  Ta236  1  0.10914378  0.77940852  0.03774505  1.0
  Ta  Ta237  1  0.44247711  0.11274186  0.03774505  1.0
  Ta  Ta238  1  0.44247711  0.44607519  0.03774505  1.0
  Ta  Ta239  1  0.44247711  0.77940852  0.03774505  1.0
  Ta  Ta240  1  0.77581044  0.11274186  0.03774505  1.0
  Ta  Ta241  1  0.77581044  0.44607519  0.03774505  1.0
  Ta  Ta242  1  0.77581044  0.77940852  0.03774505  1.0
  Ta  Ta243  1  0.27581045  0.23178948  0.10917362  1.0
  Ta  Ta244  1  0.27581045  0.56512281  0.10917362  1.0
  Ta  Ta245  1  0.27581045  0.89845614  0.10917362  1.0
  Ta  Ta246  1  0.60914378  0.23178948  0.10917362  1.0
  Ta  Ta247  1  0.60914378  0.56512281  0.10917362  1.0
  Ta  Ta248  1  0.60914378  0.89845614  0.10917362  1.0
  Ta  Ta249  1  0.94247711  0.23178948  0.10917362  1.0
  Ta  Ta250  1  0.94247711  0.56512281  0.10917362  1.0
  Ta  Ta251  1  0.94247711  0.89845614  0.10917362  1.0
  Ta  Ta252  1  0.22418955  0.11274186  0.03774505  1.0
  Ta  Ta253  1  0.22418955  0.44607519  0.03774505  1.0
  Ta  Ta254  1  0.22418955  0.77940852  0.03774505  1.0
  Ta  Ta255  1  0.55752289  0.11274186  0.03774505  1.0
  Ta  Ta256  1  0.55752289  0.44607519  0.03774505  1.0
  Ta  Ta257  1  0.55752289  0.77940852  0.03774505  1.0
  Ta  Ta258  1  0.89085622  0.11274186  0.03774505  1.0
  Ta  Ta259  1  0.89085622  0.44607519  0.03774505  1.0
  Ta  Ta260  1  0.89085622  0.77940852  0.03774505  1.0
  Ta  Ta261  1  0.05752289  0.23178948  0.10917362  1.0
  Ta  Ta262  1  0.05752289  0.56512281  0.10917362  1.0
  Ta  Ta263  1  0.05752289  0.89845614  0.10917362  1.0
  Ta  Ta264  1  0.39085622  0.23178948  0.10917362  1.0
  Ta  Ta265  1  0.39085622  0.56512281  0.10917362  1.0
  Ta  Ta266  1  0.39085622  0.89845614  0.10917362  1.0
  Ta  Ta267  1  0.72418955  0.23178948  0.10917362  1.0
  Ta  Ta268  1  0.72418955  0.56512281  0.10917362  1.0
  Ta  Ta269  1  0.72418955  0.89845614  0.10917362  1.0
  Ta  Ta270  1  0.33333333  0.27287725  0.13382629  1.0
  Ta  Ta271  1  0.33333333  0.60621059  0.13382629  1.0
  Ta  Ta272  1  0.33333333  0.93954392  0.13382629  1.0
  Ta  Ta273  1  0.66666667  0.27287725  0.13382629  1.0
  Ta  Ta274  1  0.66666667  0.60621059  0.13382629  1.0
  Ta  Ta275  1  0.66666667  0.93954392  0.13382629  1.0
  Ta  Ta276  1  1.00000000  0.27287725  0.13382629  1.0
  Ta  Ta277  1  1.00000000  0.60621059  0.13382629  1.0
  Ta  Ta278  1  1.00000000  0.93954392  0.13382629  1.0
  Ta  Ta279  1  0.16666667  0.15382963  0.06239771  1.0
  Ta  Ta280  1  0.16666667  0.48716297  0.06239771  1.0
  Ta  Ta281  1  0.16666667  0.82049630  0.06239771  1.0
  Ta  Ta282  1  0.50000000  0.15382963  0.06239771  1.0
  Ta  Ta283  1  0.50000000  0.48716297  0.06239771  1.0
  Ta  Ta284  1  0.50000000  0.82049630  0.06239771  1.0
  Ta  Ta285  1  0.83333333  0.15382963  0.06239771  1.0
  Ta  Ta286  1  0.83333333  0.48716297  0.06239771  1.0
  Ta  Ta287  1  0.83333333  0.82049630  0.06239771  1.0
  Ta  Ta288  1  0.33333333  0.16489125  0.08452095  1.0
  Ta  Ta289  1  0.33333333  0.49822459  0.08452095  1.0
  Ta  Ta290  1  0.33333333  0.83155792  0.08452095  1.0
  Ta  Ta291  1  0.66666667  0.16489125  0.08452095  1.0
  Ta  Ta292  1  0.66666667  0.49822459  0.08452095  1.0
  Ta  Ta293  1  0.66666667  0.83155792  0.08452095  1.0
  Ta  Ta294  1  1.00000000  0.16489125  0.08452095  1.0
  Ta  Ta295  1  1.00000000  0.49822459  0.08452095  1.0
  Ta  Ta296  1  1.00000000  0.83155792  0.08452095  1.0
  Ta  Ta297  1  0.16666667  0.04584364  0.01309238  1.0
  Ta  Ta298  1  0.16666667  0.37917697  0.01309238  1.0
  Ta  Ta299  1  0.16666667  0.71251030  0.01309238  1.0
  Ta  Ta300  1  0.50000000  0.04584364  0.01309238  1.0
  Ta  Ta301  1  0.50000000  0.37917697  0.01309238  1.0
  Ta  Ta302  1  0.50000000  0.71251030  0.01309238  1.0
  Ta  Ta303  1  0.83333333  0.04584364  0.01309238  1.0
  Ta  Ta304  1  0.83333333  0.37917697  0.01309238  1.0
  Ta  Ta305  1  0.83333333  0.71251030  0.01309238  1.0
  Ta  Ta306  1  0.22418955  0.05406119  0.08705038  1.0
  Ta  Ta307  1  0.22418956  0.38739452  0.08705038  1.0
  Ta  Ta308  1  0.22418955  0.72072786  0.08705038  1.0
  Ta  Ta309  1  0.55752289  0.05406119  0.08705038  1.0
  Ta  Ta310  1  0.55752289  0.38739452  0.08705038  1.0
  Ta  Ta311  1  0.55752289  0.72072786  0.08705038  1.0
  Ta  Ta312  1  0.89085622  0.05406119  0.08705038  1.0
  Ta  Ta313  1  0.89085622  0.38739452  0.08705038  1.0
  Ta  Ta314  1  0.89085622  0.72072786  0.08705038  1.0
  Ta  Ta315  1  0.05752289  0.26834691  0.01562181  1.0
  Ta  Ta316  1  0.05752289  0.60168024  0.01562181  1.0
  Ta  Ta317  1  0.05752289  0.93501357  0.01562181  1.0
  Ta  Ta318  1  0.39085622  0.26834691  0.01562181  1.0
  Ta  Ta319  1  0.39085622  0.60168024  0.01562181  1.0
  Ta  Ta320  1  0.39085622  0.93501357  0.01562181  1.0
  Ta  Ta321  1  0.72418956  0.26834691  0.01562181  1.0
  Ta  Ta322  1  0.72418956  0.60168024  0.01562181  1.0
  Ta  Ta323  1  0.72418956  0.93501357  0.01562181  1.0
  Ta  Ta324  1  0.10914378  0.05406119  0.08705038  1.0
  Ta  Ta325  1  0.10914378  0.38739452  0.08705038  1.0
  Ta  Ta326  1  0.10914378  0.72072786  0.08705038  1.0
  Ta  Ta327  1  0.44247711  0.05406119  0.08705038  1.0
  Ta  Ta328  1  0.44247711  0.38739452  0.08705038  1.0
  Ta  Ta329  1  0.44247711  0.72072786  0.08705038  1.0
  Ta  Ta330  1  0.77581044  0.05406119  0.08705038  1.0
  Ta  Ta331  1  0.77581044  0.38739452  0.08705038  1.0
  Ta  Ta332  1  0.77581044  0.72072786  0.08705038  1.0
  Ta  Ta333  1  0.27581045  0.26834691  0.01562181  1.0
  Ta  Ta334  1  0.27581045  0.60168024  0.01562181  1.0
  Ta  Ta335  1  0.27581044  0.93501357  0.01562181  1.0
  Ta  Ta336  1  0.60914378  0.26834691  0.01562181  1.0
  Ta  Ta337  1  0.60914378  0.60168024  0.01562181  1.0
  Ta  Ta338  1  0.60914378  0.93501357  0.01562181  1.0
  Ta  Ta339  1  0.94247711  0.26834691  0.01562181  1.0
  Ta  Ta340  1  0.94247711  0.60168024  0.01562181  1.0
  Ta  Ta341  1  0.94247711  0.93501357  0.01562181  1.0
  Ta  Ta342  1  0.00000000  0.13202103  0.13382629  1.0
  Ta  Ta343  1  0.00000000  0.46535437  0.13382629  1.0
  Ta  Ta344  1  0.00000000  0.79868770  0.13382629  1.0
  Ta  Ta345  1  0.33333333  0.13202103  0.13382629  1.0
  Ta  Ta346  1  0.33333333  0.46535437  0.13382629  1.0
  Ta  Ta347  1  0.33333333  0.79868770  0.13382629  1.0
  Ta  Ta348  1  0.66666667  0.13202103  0.13382629  1.0
  Ta  Ta349  1  0.66666667  0.46535437  0.13382629  1.0
  Ta  Ta350  1  0.66666667  0.79868770  0.13382629  1.0
  Ta  Ta351  1  0.16666667  0.01297341  0.06239771  1.0
  Ta  Ta352  1  0.16666667  0.34630675  0.06239771  1.0
  Ta  Ta353  1  0.16666667  0.67964008  0.06239771  1.0
  Ta  Ta354  1  0.50000000  0.01297341  0.06239771  1.0
  Ta  Ta355  1  0.50000000  0.34630675  0.06239771  1.0
  Ta  Ta356  1  0.50000000  0.67964008  0.06239771  1.0
  Ta  Ta357  1  0.83333333  0.01297341  0.06239771  1.0
  Ta  Ta358  1  0.83333333  0.34630675  0.06239771  1.0
  Ta  Ta359  1  0.83333333  0.67964008  0.06239771  1.0
  Ta  Ta360  1  0.06226133  0.09523810  0.10714286  1.0
  Ta  Ta361  1  0.06226133  0.42857143  0.10714286  1.0
  Ta  Ta362  1  0.06226133  0.76190476  0.10714286  1.0
  Ta  Ta363  1  0.39559467  0.09523810  0.10714286  1.0
  Ta  Ta364  1  0.39559467  0.42857143  0.10714286  1.0
  Ta  Ta365  1  0.39559467  0.76190476  0.10714286  1.0
  Ta  Ta366  1  0.72892800  0.09523810  0.10714286  1.0
  Ta  Ta367  1  0.72892800  0.42857143  0.10714286  1.0
  Ta  Ta368  1  0.72892800  0.76190476  0.10714286  1.0
  Ta  Ta369  1  0.22892800  0.30952381  0.03571429  1.0
  Ta  Ta370  1  0.22892800  0.64285714  0.03571429  1.0
  Ta  Ta371  1  0.22892800  0.97619048  0.03571429  1.0
  Ta  Ta372  1  0.56226133  0.30952381  0.03571429  1.0
  Ta  Ta373  1  0.56226133  0.64285714  0.03571429  1.0
  Ta  Ta374  1  0.56226133  0.97619048  0.03571429  1.0
  Ta  Ta375  1  0.89559467  0.30952381  0.03571429  1.0
  Ta  Ta376  1  0.89559467  0.64285714  0.03571429  1.0
  Ta  Ta377  1  0.89559467  0.97619048  0.03571429  1.0
  Ta  Ta378  1  0.27107200  0.15489829  0.01765257  1.0
  Ta  Ta379  1  0.27107200  0.48823162  0.01765257  1.0
  Ta  Ta380  1  0.27107200  0.82156495  0.01765257  1.0
  Ta  Ta381  1  0.60440533  0.15489829  0.01765257  1.0
  Ta  Ta382  1  0.60440533  0.48823162  0.01765257  1.0
  Ta  Ta383  1  0.60440533  0.82156495  0.01765257  1.0
  Ta  Ta384  1  0.93773867  0.15489829  0.01765257  1.0
  Ta  Ta385  1  0.93773867  0.48823162  0.01765257  1.0
  Ta  Ta386  1  0.93773867  0.82156495  0.01765257  1.0
  Ta  Ta387  1  0.10440533  0.27394590  0.08908114  1.0
  Ta  Ta388  1  0.10440533  0.60727924  0.08908114  1.0
  Ta  Ta389  1  0.10440533  0.94061257  0.08908114  1.0
  Ta  Ta390  1  0.43773867  0.27394590  0.08908114  1.0
  Ta  Ta391  1  0.43773867  0.60727924  0.08908114  1.0
  Ta  Ta392  1  0.43773867  0.94061257  0.08908114  1.0
  Ta  Ta393  1  0.77107200  0.27394590  0.08908114  1.0
  Ta  Ta394  1  0.77107200  0.60727924  0.08908114  1.0
  Ta  Ta395  1  0.77107200  0.94061257  0.08908114  1.0
  Ta  Ta396  1  0.27107200  0.09523810  0.10714286  1.0
  Ta  Ta397  1  0.27107200  0.42857143  0.10714286  1.0
  Ta  Ta398  1  0.27107200  0.76190476  0.10714286  1.0
  Ta  Ta399  1  0.60440533  0.09523810  0.10714286  1.0
  Ta  Ta400  1  0.60440533  0.42857143  0.10714286  1.0
  Ta  Ta401  1  0.60440533  0.76190476  0.10714286  1.0
  Ta  Ta402  1  0.93773867  0.09523810  0.10714286  1.0
  Ta  Ta403  1  0.93773867  0.42857143  0.10714286  1.0
  Ta  Ta404  1  0.93773867  0.76190476  0.10714286  1.0
  Ta  Ta405  1  0.10440533  0.30952381  0.03571429  1.0
  Ta  Ta406  1  0.10440533  0.64285714  0.03571429  1.0
  Ta  Ta407  1  0.10440533  0.97619048  0.03571429  1.0
  Ta  Ta408  1  0.43773867  0.30952381  0.03571429  1.0
  Ta  Ta409  1  0.43773867  0.64285714  0.03571429  1.0
  Ta  Ta410  1  0.43773867  0.97619048  0.03571429  1.0
  Ta  Ta411  1  0.77107200  0.30952381  0.03571429  1.0
  Ta  Ta412  1  0.77107200  0.64285714  0.03571429  1.0
  Ta  Ta413  1  0.77107200  0.97619048  0.03571429  1.0
  Ta  Ta414  1  0.06226133  0.15489829  0.01765257  1.0
  Ta  Ta415  1  0.06226133  0.48823162  0.01765257  1.0
  Ta  Ta416  1  0.06226133  0.82156495  0.01765257  1.0
  Ta  Ta417  1  0.39559467  0.15489829  0.01765257  1.0
  Ta  Ta418  1  0.39559467  0.48823162  0.01765257  1.0
  Ta  Ta419  1  0.39559467  0.82156495  0.01765257  1.0
  Ta  Ta420  1  0.72892800  0.15489829  0.01765257  1.0
  Ta  Ta421  1  0.72892800  0.48823162  0.01765257  1.0
  Ta  Ta422  1  0.72892800  0.82156495  0.01765257  1.0
  Ta  Ta423  1  0.22892800  0.27394590  0.08908114  1.0
  Ta  Ta424  1  0.22892800  0.60727924  0.08908114  1.0
  Ta  Ta425  1  0.22892800  0.94061257  0.08908114  1.0
  Ta  Ta426  1  0.56226133  0.27394590  0.08908114  1.0
  Ta  Ta427  1  0.56226133  0.60727924  0.08908114  1.0
  Ta  Ta428  1  0.56226133  0.94061257  0.08908114  1.0
  Ta  Ta429  1  0.89559467  0.27394590  0.08908114  1.0
  Ta  Ta430  1  0.89559467  0.60727924  0.08908114  1.0
  Ta  Ta431  1  0.89559467  0.94061257  0.08908114  1.0
  Ta  Ta432  1  0.00000000  0.19937067  0.04433600  1.0
  Ta  Ta433  1  0.00000000  0.53270400  0.04433600  1.0
  Ta  Ta434  1  0.00000000  0.86603733  0.04433600  1.0
  Ta  Ta435  1  0.33333333  0.19937067  0.04433600  1.0
  Ta  Ta436  1  0.33333333  0.53270400  0.04433600  1.0
  Ta  Ta437  1  0.33333333  0.86603733  0.04433600  1.0
  Ta  Ta438  1  0.66666667  0.19937067  0.04433600  1.0
  Ta  Ta439  1  0.66666667  0.53270400  0.04433600  1.0
  Ta  Ta440  1  0.66666667  0.86603733  0.04433600  1.0
  Ta  Ta441  1  0.16666667  0.31841829  0.11576457  1.0
  Ta  Ta442  1  0.16666667  0.65175162  0.11576457  1.0
  Ta  Ta443  1  0.16666667  0.98508495  0.11576457  1.0
  Ta  Ta444  1  0.50000000  0.31841829  0.11576457  1.0
  Ta  Ta445  1  0.50000000  0.65175162  0.11576457  1.0
  Ta  Ta446  1  0.50000000  0.98508495  0.11576457  1.0
  Ta  Ta447  1  0.83333333  0.31841829  0.11576457  1.0
  Ta  Ta448  1  0.83333333  0.65175162  0.11576457  1.0
  Ta  Ta449  1  0.83333333  0.98508495  0.11576457  1.0
  Ta  Ta450  1  0.00000000  0.05076571  0.08045943  1.0
  Ta  Ta451  1  0.00000000  0.38409905  0.08045943  1.0
  Ta  Ta452  1  0.00000000  0.71743238  0.08045943  1.0
  Ta  Ta453  1  0.33333333  0.05076571  0.08045943  1.0
  Ta  Ta454  1  0.33333333  0.38409905  0.08045943  1.0
  Ta  Ta455  1  0.33333333  0.71743238  0.08045943  1.0
  Ta  Ta456  1  0.66666667  0.05076571  0.08045943  1.0
  Ta  Ta457  1  0.66666667  0.38409905  0.08045943  1.0
  Ta  Ta458  1  0.66666667  0.71743238  0.08045943  1.0
  Ta  Ta459  1  0.16666667  0.26505143  0.00903086  1.0
  Ta  Ta460  1  0.16666667  0.59838476  0.00903086  1.0
  Ta  Ta461  1  0.16666667  0.93171810  0.00903086  1.0
  Ta  Ta462  1  0.50000000  0.26505143  0.00903086  1.0
  Ta  Ta463  1  0.50000000  0.59838476  0.00903086  1.0
  Ta  Ta464  1  0.50000000  0.93171810  0.00903086  1.0
  Ta  Ta465  1  0.83333333  0.26505143  0.00903086  1.0
  Ta  Ta466  1  0.83333333  0.59838476  0.00903086  1.0
  Ta  Ta467  1  0.83333333  0.93171810  0.00903086  1.0
  Ta  Ta468  1  0.27107200  0.07156495  0.01765257  1.0
  Ta  Ta469  1  0.27107200  0.40489829  0.01765257  1.0
  Ta  Ta470  1  0.27107200  0.73823162  0.01765257  1.0
  Ta  Ta471  1  0.60440533  0.07156495  0.01765257  1.0
  Ta  Ta472  1  0.60440533  0.40489829  0.01765257  1.0
  Ta  Ta473  1  0.60440533  0.73823162  0.01765257  1.0
  Ta  Ta474  1  0.93773867  0.07156495  0.01765257  1.0
  Ta  Ta475  1  0.93773867  0.40489829  0.01765257  1.0
  Ta  Ta476  1  0.93773867  0.73823162  0.01765257  1.0
  Ta  Ta477  1  0.10440533  0.19061257  0.08908114  1.0
  Ta  Ta478  1  0.10440533  0.52394590  0.08908114  1.0
  Ta  Ta479  1  0.10440533  0.85727924  0.08908114  1.0
  Ta  Ta480  1  0.43773867  0.19061257  0.08908114  1.0
  Ta  Ta481  1  0.43773867  0.52394590  0.08908114  1.0
  Ta  Ta482  1  0.43773867  0.85727924  0.08908114  1.0
  Ta  Ta483  1  0.77107200  0.19061257  0.08908114  1.0
  Ta  Ta484  1  0.77107200  0.52394590  0.08908114  1.0
  Ta  Ta485  1  0.77107200  0.85727924  0.08908114  1.0
  Ta  Ta486  1  0.06226133  0.01190476  0.10714286  1.0
  Ta  Ta487  1  0.06226133  0.34523810  0.10714286  1.0
  Ta  Ta488  1  0.06226133  0.67857143  0.10714286  1.0
  Ta  Ta489  1  0.39559467  0.01190476  0.10714286  1.0
  Ta  Ta490  1  0.39559467  0.34523810  0.10714286  1.0
  Ta  Ta491  1  0.39559467  0.67857143  0.10714286  1.0
  Ta  Ta492  1  0.72892800  0.01190476  0.10714286  1.0
  Ta  Ta493  1  0.72892800  0.34523810  0.10714286  1.0
  Ta  Ta494  1  0.72892800  0.67857143  0.10714286  1.0
  Ta  Ta495  1  0.22892800  0.22619048  0.03571429  1.0
  Ta  Ta496  1  0.22892800  0.55952381  0.03571429  1.0
  Ta  Ta497  1  0.22892800  0.89285714  0.03571429  1.0
  Ta  Ta498  1  0.56226133  0.22619048  0.03571429  1.0
  Ta  Ta499  1  0.56226133  0.55952381  0.03571429  1.0
  Ta  Ta500  1  0.56226133  0.89285714  0.03571429  1.0
  Ta  Ta501  1  0.89559467  0.22619048  0.03571429  1.0
  Ta  Ta502  1  0.89559467  0.55952381  0.03571429  1.0
  Ta  Ta503  1  0.89559467  0.89285714  0.03571429  1.0
  Ta  Ta504  1  0.06226133  0.07156495  0.01765257  1.0
  Ta  Ta505  1  0.06226133  0.40489829  0.01765257  1.0
  Ta  Ta506  1  0.06226133  0.73823162  0.01765257  1.0
  Ta  Ta507  1  0.39559467  0.07156495  0.01765257  1.0
  Ta  Ta508  1  0.39559467  0.40489829  0.01765257  1.0
  Ta  Ta509  1  0.39559467  0.73823162  0.01765257  1.0
  Ta  Ta510  1  0.72892800  0.07156495  0.01765257  1.0
  Ta  Ta511  1  0.72892800  0.40489829  0.01765257  1.0
  Ta  Ta512  1  0.72892800  0.73823162  0.01765257  1.0
  Ta  Ta513  1  0.22892800  0.19061257  0.08908114  1.0
  Ta  Ta514  1  0.22892800  0.52394590  0.08908114  1.0
  Ta  Ta515  1  0.22892800  0.85727924  0.08908114  1.0
  Ta  Ta516  1  0.56226133  0.19061257  0.08908114  1.0
  Ta  Ta517  1  0.56226133  0.52394590  0.08908114  1.0
  Ta  Ta518  1  0.56226133  0.85727924  0.08908114  1.0
  Ta  Ta519  1  0.89559467  0.19061257  0.08908114  1.0
  Ta  Ta520  1  0.89559467  0.52394590  0.08908114  1.0
  Ta  Ta521  1  0.89559467  0.85727924  0.08908114  1.0
  Ta  Ta522  1  0.27107200  0.01190476  0.10714286  1.0
  Ta  Ta523  1  0.27107200  0.34523810  0.10714286  1.0
  Ta  Ta524  1  0.27107200  0.67857143  0.10714286  1.0
  Ta  Ta525  1  0.60440533  0.01190476  0.10714286  1.0
  Ta  Ta526  1  0.60440533  0.34523810  0.10714286  1.0
  Ta  Ta527  1  0.60440533  0.67857143  0.10714286  1.0
  Ta  Ta528  1  0.93773867  0.01190476  0.10714286  1.0
  Ta  Ta529  1  0.93773867  0.34523810  0.10714286  1.0
  Ta  Ta530  1  0.93773867  0.67857143  0.10714286  1.0
  Ta  Ta531  1  0.10440533  0.22619048  0.03571429  1.0
  Ta  Ta532  1  0.10440533  0.55952381  0.03571429  1.0
  Ta  Ta533  1  0.10440533  0.89285714  0.03571429  1.0
  Ta  Ta534  1  0.43773867  0.22619048  0.03571429  1.0
  Ta  Ta535  1  0.43773867  0.55952381  0.03571429  1.0
  Ta  Ta536  1  0.43773867  0.89285714  0.03571429  1.0
  Ta  Ta537  1  0.77107200  0.22619048  0.03571429  1.0
  Ta  Ta538  1  0.77107200  0.55952381  0.03571429  1.0
  Ta  Ta539  1  0.77107200  0.89285714  0.03571429  1.0
  Ta  Ta540  1  0.00000000  0.30076571  0.08045943  1.0
  Ta  Ta541  1  0.00000000  0.63409905  0.08045943  1.0
  Ta  Ta542  1  0.00000000  0.96743238  0.08045943  1.0
  Ta  Ta543  1  0.33333333  0.30076571  0.08045943  1.0
  Ta  Ta544  1  0.33333333  0.63409905  0.08045943  1.0
  Ta  Ta545  1  0.33333333  0.96743238  0.08045943  1.0
  Ta  Ta546  1  0.66666667  0.30076571  0.08045943  1.0
  Ta  Ta547  1  0.66666667  0.63409905  0.08045943  1.0
  Ta  Ta548  1  0.66666667  0.96743238  0.08045943  1.0
  Ta  Ta549  1  0.16666667  0.18171810  0.00903086  1.0
  Ta  Ta550  1  0.16666667  0.51505143  0.00903086  1.0
  Ta  Ta551  1  0.16666667  0.84838476  0.00903086  1.0
  Ta  Ta552  1  0.50000000  0.18171810  0.00903086  1.0
  Ta  Ta553  1  0.50000000  0.51505143  0.00903086  1.0
  Ta  Ta554  1  0.50000000  0.84838476  0.00903086  1.0
  Ta  Ta555  1  0.83333333  0.18171810  0.00903086  1.0
  Ta  Ta556  1  0.83333333  0.51505143  0.00903086  1.0
  Ta  Ta557  1  0.83333333  0.84838476  0.00903086  1.0
  Ta  Ta558  1  0.00000000  0.11603733  0.04433600  1.0
  Ta  Ta559  1  0.00000000  0.44937067  0.04433600  1.0
  Ta  Ta560  1  0.00000000  0.78270400  0.04433600  1.0
  Ta  Ta561  1  0.33333333  0.11603733  0.04433600  1.0
  Ta  Ta562  1  0.33333333  0.44937067  0.04433600  1.0
  Ta  Ta563  1  0.33333333  0.78270400  0.04433600  1.0
  Ta  Ta564  1  0.66666667  0.11603733  0.04433600  1.0
  Ta  Ta565  1  0.66666667  0.44937067  0.04433600  1.0
  Ta  Ta566  1  0.66666667  0.78270400  0.04433600  1.0
  Ta  Ta567  1  0.16666667  0.23508495  0.11576457  1.0
  Ta  Ta568  1  0.16666667  0.56841829  0.11576457  1.0
  Ta  Ta569  1  0.16666667  0.90175162  0.11576457  1.0
  Ta  Ta570  1  0.50000000  0.23508495  0.11576457  1.0
  Ta  Ta571  1  0.50000000  0.56841829  0.11576457  1.0
  Ta  Ta572  1  0.50000000  0.90175162  0.11576457  1.0
  Ta  Ta573  1  0.83333333  0.23508495  0.11576457  1.0
  Ta  Ta574  1  0.83333333  0.56841829  0.11576457  1.0
  Ta  Ta575  1  0.83333333  0.90175162  0.11576457  1.0
  Ta  Ta576  1  0.00000000  0.24000703  0.18313162  1.0
  Ta  Ta577  1  0.00000000  0.57334036  0.18313162  1.0
  Ta  Ta578  1  0.00000000  0.90667370  0.18313162  1.0
  Ta  Ta579  1  0.33333333  0.24000703  0.18313162  1.0
  Ta  Ta580  1  0.33333333  0.57334036  0.18313162  1.0
  Ta  Ta581  1  0.33333333  0.90667370  0.18313162  1.0
  Ta  Ta582  1  0.66666667  0.24000703  0.18313162  1.0
  Ta  Ta583  1  0.66666667  0.57334036  0.18313162  1.0
  Ta  Ta584  1  0.66666667  0.90667370  0.18313162  1.0
  Ta  Ta585  1  0.16666667  0.02572132  0.25456019  1.0
  Ta  Ta586  1  0.16666667  0.35905465  0.25456019  1.0
  Ta  Ta587  1  0.16666667  0.69238798  0.25456019  1.0
  Ta  Ta588  1  0.50000000  0.02572132  0.25456019  1.0
  Ta  Ta589  1  0.50000000  0.35905465  0.25456019  1.0
  Ta  Ta590  1  0.50000000  0.69238798  0.25456019  1.0
  Ta  Ta591  1  0.83333333  0.02572132  0.25456019  1.0
  Ta  Ta592  1  0.83333333  0.35905465  0.25456019  1.0
  Ta  Ta593  1  0.83333333  0.69238798  0.25456019  1.0
  Ta  Ta594  1  0.10914378  0.01750376  0.18060219  1.0
  Ta  Ta595  1  0.10914378  0.35083709  0.18060219  1.0
  Ta  Ta596  1  0.10914378  0.68417043  0.18060219  1.0
  Ta  Ta597  1  0.44247711  0.01750376  0.18060219  1.0
  Ta  Ta598  1  0.44247711  0.35083709  0.18060219  1.0
  Ta  Ta599  1  0.44247711  0.68417043  0.18060219  1.0
  Ta  Ta600  1  0.77581044  0.01750376  0.18060219  1.0
  Ta  Ta601  1  0.77581044  0.35083709  0.18060219  1.0
  Ta  Ta602  1  0.77581044  0.68417043  0.18060219  1.0
  Ta  Ta603  1  0.27581044  0.13655138  0.25203076  1.0
  Ta  Ta604  1  0.27581044  0.46988471  0.25203076  1.0
  Ta  Ta605  1  0.27581044  0.80321805  0.25203076  1.0
  Ta  Ta606  1  0.60914378  0.13655138  0.25203076  1.0
  Ta  Ta607  1  0.60914378  0.46988471  0.25203076  1.0
  Ta  Ta608  1  0.60914378  0.80321805  0.25203076  1.0
  Ta  Ta609  1  0.94247711  0.13655138  0.25203076  1.0
  Ta  Ta610  1  0.94247711  0.46988471  0.25203076  1.0
  Ta  Ta611  1  0.94247711  0.80321805  0.25203076  1.0
  Ta  Ta612  1  0.22418955  0.01750376  0.18060219  1.0
  Ta  Ta613  1  0.22418955  0.35083709  0.18060219  1.0
  Ta  Ta614  1  0.22418955  0.68417043  0.18060219  1.0
  Ta  Ta615  1  0.55752289  0.01750376  0.18060219  1.0
  Ta  Ta616  1  0.55752289  0.35083709  0.18060219  1.0
  Ta  Ta617  1  0.55752289  0.68417043  0.18060219  1.0
  Ta  Ta618  1  0.89085622  0.01750376  0.18060219  1.0
  Ta  Ta619  1  0.89085622  0.35083709  0.18060219  1.0
  Ta  Ta620  1  0.89085622  0.68417043  0.18060219  1.0
  Ta  Ta621  1  0.05752289  0.13655138  0.25203076  1.0
  Ta  Ta622  1  0.05752289  0.46988471  0.25203076  1.0
  Ta  Ta623  1  0.05752289  0.80321805  0.25203076  1.0
  Ta  Ta624  1  0.39085622  0.13655138  0.25203076  1.0
  Ta  Ta625  1  0.39085622  0.46988471  0.25203076  1.0
  Ta  Ta626  1  0.39085622  0.80321805  0.25203076  1.0
  Ta  Ta627  1  0.72418956  0.13655138  0.25203076  1.0
  Ta  Ta628  1  0.72418955  0.46988471  0.25203076  1.0
  Ta  Ta629  1  0.72418955  0.80321805  0.25203076  1.0
  Ta  Ta630  1  0.33333333  0.17763916  0.27668343  1.0
  Ta  Ta631  1  0.33333333  0.51097249  0.27668343  1.0
  Ta  Ta632  1  0.33333333  0.84430582  0.27668343  1.0
  Ta  Ta633  1  0.66666667  0.17763916  0.27668343  1.0
  Ta  Ta634  1  0.66666667  0.51097249  0.27668343  1.0
  Ta  Ta635  1  0.66666667  0.84430582  0.27668343  1.0
  Ta  Ta636  1  1.00000000  0.17763916  0.27668343  1.0
  Ta  Ta637  1  1.00000000  0.51097249  0.27668343  1.0
  Ta  Ta638  1  1.00000000  0.84430582  0.27668343  1.0
  Ta  Ta639  1  0.16666667  0.05859154  0.20525486  1.0
  Ta  Ta640  1  0.16666667  0.39192487  0.20525486  1.0
  Ta  Ta641  1  0.16666667  0.72525821  0.20525486  1.0
  Ta  Ta642  1  0.50000000  0.05859154  0.20525486  1.0
  Ta  Ta643  1  0.50000000  0.39192487  0.20525486  1.0
  Ta  Ta644  1  0.50000000  0.72525821  0.20525486  1.0
  Ta  Ta645  1  0.83333333  0.05859154  0.20525486  1.0
  Ta  Ta646  1  0.83333333  0.39192487  0.20525486  1.0
  Ta  Ta647  1  0.83333333  0.72525821  0.20525486  1.0
  Ta  Ta648  1  0.33333333  0.06965316  0.22737810  1.0
  Ta  Ta649  1  0.33333333  0.40298649  0.22737810  1.0
  Ta  Ta650  1  0.33333333  0.73631983  0.22737810  1.0
  Ta  Ta651  1  0.66666667  0.06965316  0.22737810  1.0
  Ta  Ta652  1  0.66666667  0.40298649  0.22737810  1.0
  Ta  Ta653  1  0.66666667  0.73631983  0.22737810  1.0
  Ta  Ta654  1  1.00000000  0.06965316  0.22737810  1.0
  Ta  Ta655  1  1.00000000  0.40298649  0.22737810  1.0
  Ta  Ta656  1  1.00000000  0.73631983  0.22737810  1.0
  Ta  Ta657  1  0.16666667  0.28393887  0.15594952  1.0
  Ta  Ta658  1  0.16666667  0.61727221  0.15594952  1.0
  Ta  Ta659  1  0.16666667  0.95060554  0.15594952  1.0
  Ta  Ta660  1  0.50000000  0.28393887  0.15594952  1.0
  Ta  Ta661  1  0.50000000  0.61727221  0.15594952  1.0
  Ta  Ta662  1  0.50000000  0.95060554  0.15594952  1.0
  Ta  Ta663  1  0.83333333  0.28393887  0.15594952  1.0
  Ta  Ta664  1  0.83333333  0.61727221  0.15594952  1.0
  Ta  Ta665  1  0.83333333  0.95060554  0.15594952  1.0
  Ta  Ta666  1  0.22418955  0.29215643  0.22990752  1.0
  Ta  Ta667  1  0.22418955  0.62548976  0.22990752  1.0
  Ta  Ta668  1  0.22418955  0.95882310  0.22990752  1.0
  Ta  Ta669  1  0.55752289  0.29215643  0.22990752  1.0
  Ta  Ta670  1  0.55752289  0.62548976  0.22990752  1.0
  Ta  Ta671  1  0.55752289  0.95882310  0.22990752  1.0
  Ta  Ta672  1  0.89085622  0.29215643  0.22990752  1.0
  Ta  Ta673  1  0.89085622  0.62548976  0.22990752  1.0
  Ta  Ta674  1  0.89085622  0.95882310  0.22990752  1.0
  Ta  Ta675  1  0.05752289  0.17310881  0.15847895  1.0
  Ta  Ta676  1  0.05752289  0.50644214  0.15847895  1.0
  Ta  Ta677  1  0.05752289  0.83977548  0.15847895  1.0
  Ta  Ta678  1  0.39085622  0.17310881  0.15847895  1.0
  Ta  Ta679  1  0.39085622  0.50644214  0.15847895  1.0
  Ta  Ta680  1  0.39085622  0.83977548  0.15847895  1.0
  Ta  Ta681  1  0.72418955  0.17310881  0.15847895  1.0
  Ta  Ta682  1  0.72418955  0.50644214  0.15847895  1.0
  Ta  Ta683  1  0.72418955  0.83977548  0.15847895  1.0
  Ta  Ta684  1  0.10914378  0.29215643  0.22990752  1.0
  Ta  Ta685  1  0.10914378  0.62548976  0.22990752  1.0
  Ta  Ta686  1  0.10914378  0.95882310  0.22990752  1.0
  Ta  Ta687  1  0.44247711  0.29215643  0.22990752  1.0
  Ta  Ta688  1  0.44247711  0.62548976  0.22990752  1.0
  Ta  Ta689  1  0.44247711  0.95882310  0.22990752  1.0
  Ta  Ta690  1  0.77581044  0.29215643  0.22990752  1.0
  Ta  Ta691  1  0.77581044  0.62548976  0.22990752  1.0
  Ta  Ta692  1  0.77581045  0.95882310  0.22990752  1.0
  Ta  Ta693  1  0.27581045  0.17310881  0.15847895  1.0
  Ta  Ta694  1  0.27581045  0.50644214  0.15847895  1.0
  Ta  Ta695  1  0.27581045  0.83977548  0.15847895  1.0
  Ta  Ta696  1  0.60914378  0.17310881  0.15847895  1.0
  Ta  Ta697  1  0.60914378  0.50644214  0.15847895  1.0
  Ta  Ta698  1  0.60914378  0.83977548  0.15847895  1.0
  Ta  Ta699  1  0.94247711  0.17310881  0.15847895  1.0
  Ta  Ta700  1  0.94247711  0.50644214  0.15847895  1.0
  Ta  Ta701  1  0.94247711  0.83977548  0.15847895  1.0
  Ta  Ta702  1  0.00000000  0.03678294  0.27668343  1.0
  Ta  Ta703  1  0.00000000  0.37011627  0.27668343  1.0
  Ta  Ta704  1  0.00000000  0.70344960  0.27668343  1.0
  Ta  Ta705  1  0.33333333  0.03678294  0.27668343  1.0
  Ta  Ta706  1  0.33333333  0.37011627  0.27668343  1.0
  Ta  Ta707  1  0.33333333  0.70344960  0.27668343  1.0
  Ta  Ta708  1  0.66666667  0.03678294  0.27668343  1.0
  Ta  Ta709  1  0.66666667  0.37011627  0.27668343  1.0
  Ta  Ta710  1  0.66666667  0.70344960  0.27668343  1.0
  Ta  Ta711  1  0.16666667  0.25106865  0.20525486  1.0
  Ta  Ta712  1  0.16666667  0.58440199  0.20525486  1.0
  Ta  Ta713  1  0.16666667  0.91773532  0.20525486  1.0
  Ta  Ta714  1  0.50000000  0.25106865  0.20525486  1.0
  Ta  Ta715  1  0.50000000  0.58440199  0.20525486  1.0
  Ta  Ta716  1  0.50000000  0.91773532  0.20525486  1.0
  Ta  Ta717  1  0.83333333  0.25106865  0.20525486  1.0
  Ta  Ta718  1  0.83333333  0.58440199  0.20525486  1.0
  Ta  Ta719  1  0.83333333  0.91773532  0.20525486  1.0
  Ta  Ta720  1  0.06226133  0.00000000  0.25000000  1.0
  Ta  Ta721  1  0.06226133  0.33333333  0.25000000  1.0
  Ta  Ta722  1  0.06226133  0.66666667  0.25000000  1.0
  Ta  Ta723  1  0.39559467  0.00000000  0.25000000  1.0
  Ta  Ta724  1  0.39559467  0.33333333  0.25000000  1.0
  Ta  Ta725  1  0.39559467  0.66666667  0.25000000  1.0
  Ta  Ta726  1  0.72892800  0.00000000  0.25000000  1.0
  Ta  Ta727  1  0.72892800  0.33333333  0.25000000  1.0
  Ta  Ta728  1  0.72892800  0.66666667  0.25000000  1.0
  Ta  Ta729  1  0.22892800  0.21428571  0.17857143  1.0
  Ta  Ta730  1  0.22892800  0.54761905  0.17857143  1.0
  Ta  Ta731  1  0.22892800  0.88095238  0.17857143  1.0
  Ta  Ta732  1  0.56226133  0.21428571  0.17857143  1.0
  Ta  Ta733  1  0.56226133  0.54761905  0.17857143  1.0
  Ta  Ta734  1  0.56226133  0.88095238  0.17857143  1.0
  Ta  Ta735  1  0.89559467  0.21428571  0.17857143  1.0
  Ta  Ta736  1  0.89559467  0.54761905  0.17857143  1.0
  Ta  Ta737  1  0.89559467  0.88095238  0.17857143  1.0
  Ta  Ta738  1  0.27107200  0.05966019  0.16050971  1.0
  Ta  Ta739  1  0.27107200  0.39299352  0.16050971  1.0
  Ta  Ta740  1  0.27107200  0.72632686  0.16050971  1.0
  Ta  Ta741  1  0.60440533  0.05966019  0.16050971  1.0
  Ta  Ta742  1  0.60440533  0.39299352  0.16050971  1.0
  Ta  Ta743  1  0.60440533  0.72632686  0.16050971  1.0
  Ta  Ta744  1  0.93773867  0.05966019  0.16050971  1.0
  Ta  Ta745  1  0.93773867  0.39299352  0.16050971  1.0
  Ta  Ta746  1  0.93773867  0.72632686  0.16050971  1.0
  Ta  Ta747  1  0.10440533  0.17870781  0.23193829  1.0
  Ta  Ta748  1  0.10440533  0.51204114  0.23193829  1.0
  Ta  Ta749  1  0.10440533  0.84537448  0.23193829  1.0
  Ta  Ta750  1  0.43773867  0.17870781  0.23193829  1.0
  Ta  Ta751  1  0.43773867  0.51204114  0.23193829  1.0
  Ta  Ta752  1  0.43773867  0.84537448  0.23193829  1.0
  Ta  Ta753  1  0.77107200  0.17870781  0.23193829  1.0
  Ta  Ta754  1  0.77107200  0.51204114  0.23193829  1.0
  Ta  Ta755  1  0.77107200  0.84537448  0.23193829  1.0
  Ta  Ta756  1  0.27107200  0.00000000  0.25000000  1.0
  Ta  Ta757  1  0.27107200  0.33333333  0.25000000  1.0
  Ta  Ta758  1  0.27107200  0.66666667  0.25000000  1.0
  Ta  Ta759  1  0.60440533  0.00000000  0.25000000  1.0
  Ta  Ta760  1  0.60440533  0.33333333  0.25000000  1.0
  Ta  Ta761  1  0.60440533  0.66666667  0.25000000  1.0
  Ta  Ta762  1  0.93773867  0.00000000  0.25000000  1.0
  Ta  Ta763  1  0.93773867  0.33333333  0.25000000  1.0
  Ta  Ta764  1  0.93773867  0.66666667  0.25000000  1.0
  Ta  Ta765  1  0.10440533  0.21428571  0.17857143  1.0
  Ta  Ta766  1  0.10440533  0.54761905  0.17857143  1.0
  Ta  Ta767  1  0.10440533  0.88095238  0.17857143  1.0
  Ta  Ta768  1  0.43773867  0.21428571  0.17857143  1.0
  Ta  Ta769  1  0.43773867  0.54761905  0.17857143  1.0
  Ta  Ta770  1  0.43773867  0.88095238  0.17857143  1.0
  Ta  Ta771  1  0.77107200  0.21428571  0.17857143  1.0
  Ta  Ta772  1  0.77107200  0.54761905  0.17857143  1.0
  Ta  Ta773  1  0.77107200  0.88095238  0.17857143  1.0
  Ta  Ta774  1  0.06226133  0.05966019  0.16050971  1.0
  Ta  Ta775  1  0.06226133  0.39299352  0.16050971  1.0
  Ta  Ta776  1  0.06226133  0.72632686  0.16050971  1.0
  Ta  Ta777  1  0.39559467  0.05966019  0.16050971  1.0
  Ta  Ta778  1  0.39559467  0.39299352  0.16050971  1.0
  Ta  Ta779  1  0.39559467  0.72632686  0.16050971  1.0
  Ta  Ta780  1  0.72892800  0.05966019  0.16050971  1.0
  Ta  Ta781  1  0.72892800  0.39299352  0.16050971  1.0
  Ta  Ta782  1  0.72892800  0.72632686  0.16050971  1.0
  Ta  Ta783  1  0.22892800  0.17870781  0.23193829  1.0
  Ta  Ta784  1  0.22892800  0.51204114  0.23193829  1.0
  Ta  Ta785  1  0.22892800  0.84537448  0.23193829  1.0
  Ta  Ta786  1  0.56226133  0.17870781  0.23193829  1.0
  Ta  Ta787  1  0.56226133  0.51204114  0.23193829  1.0
  Ta  Ta788  1  0.56226133  0.84537448  0.23193829  1.0
  Ta  Ta789  1  0.89559467  0.17870781  0.23193829  1.0
  Ta  Ta790  1  0.89559467  0.51204114  0.23193829  1.0
  Ta  Ta791  1  0.89559467  0.84537448  0.23193829  1.0
  Ta  Ta792  1  0.00000000  0.10413257  0.18719314  1.0
  Ta  Ta793  1  0.00000000  0.43746590  0.18719314  1.0
  Ta  Ta794  1  0.00000000  0.77079924  0.18719314  1.0
  Ta  Ta795  1  0.33333333  0.10413257  0.18719314  1.0
  Ta  Ta796  1  0.33333333  0.43746590  0.18719314  1.0
  Ta  Ta797  1  0.33333333  0.77079924  0.18719314  1.0
  Ta  Ta798  1  0.66666667  0.10413257  0.18719314  1.0
  Ta  Ta799  1  0.66666667  0.43746590  0.18719314  1.0
  Ta  Ta800  1  0.66666667  0.77079924  0.18719314  1.0
  Ta  Ta801  1  0.16666667  0.22318019  0.25862171  1.0
  Ta  Ta802  1  0.16666667  0.55651352  0.25862171  1.0
  Ta  Ta803  1  0.16666667  0.88984686  0.25862171  1.0
  Ta  Ta804  1  0.50000000  0.22318019  0.25862171  1.0
  Ta  Ta805  1  0.50000000  0.55651352  0.25862171  1.0
  Ta  Ta806  1  0.50000000  0.88984686  0.25862171  1.0
  Ta  Ta807  1  0.83333333  0.22318019  0.25862171  1.0
  Ta  Ta808  1  0.83333333  0.55651352  0.25862171  1.0
  Ta  Ta809  1  0.83333333  0.88984686  0.25862171  1.0
  Ta  Ta810  1  0.00000000  0.28886095  0.22331657  1.0
  Ta  Ta811  1  0.00000000  0.62219429  0.22331657  1.0
  Ta  Ta812  1  0.00000000  0.95552762  0.22331657  1.0
  Ta  Ta813  1  0.33333333  0.28886095  0.22331657  1.0
  Ta  Ta814  1  0.33333333  0.62219429  0.22331657  1.0
  Ta  Ta815  1  0.33333333  0.95552762  0.22331657  1.0
  Ta  Ta816  1  0.66666667  0.28886095  0.22331657  1.0
  Ta  Ta817  1  0.66666667  0.62219429  0.22331657  1.0
  Ta  Ta818  1  0.66666667  0.95552762  0.22331657  1.0
  Ta  Ta819  1  0.16666667  0.16981333  0.15188800  1.0
  Ta  Ta820  1  0.16666667  0.50314667  0.15188800  1.0
  Ta  Ta821  1  0.16666667  0.83648000  0.15188800  1.0
  Ta  Ta822  1  0.50000000  0.16981333  0.15188800  1.0
  Ta  Ta823  1  0.50000000  0.50314667  0.15188800  1.0
  Ta  Ta824  1  0.50000000  0.83648000  0.15188800  1.0
  Ta  Ta825  1  0.83333333  0.16981333  0.15188800  1.0
  Ta  Ta826  1  0.83333333  0.50314667  0.15188800  1.0
  Ta  Ta827  1  0.83333333  0.83648000  0.15188800  1.0
  Ta  Ta828  1  0.27107200  0.30966019  0.16050971  1.0
  Ta  Ta829  1  0.27107200  0.64299352  0.16050971  1.0
  Ta  Ta830  1  0.27107200  0.97632686  0.16050971  1.0
  Ta  Ta831  1  0.60440533  0.30966019  0.16050971  1.0
  Ta  Ta832  1  0.60440533  0.64299352  0.16050971  1.0
  Ta  Ta833  1  0.60440533  0.97632686  0.16050971  1.0
  Ta  Ta834  1  0.93773867  0.30966019  0.16050971  1.0
  Ta  Ta835  1  0.93773867  0.64299352  0.16050971  1.0
  Ta  Ta836  1  0.93773867  0.97632686  0.16050971  1.0
  Ta  Ta837  1  0.10440533  0.09537448  0.23193829  1.0
  Ta  Ta838  1  0.10440533  0.42870781  0.23193829  1.0
  Ta  Ta839  1  0.10440533  0.76204114  0.23193829  1.0
  Ta  Ta840  1  0.43773867  0.09537448  0.23193829  1.0
  Ta  Ta841  1  0.43773867  0.42870781  0.23193829  1.0
  Ta  Ta842  1  0.43773867  0.76204114  0.23193829  1.0
  Ta  Ta843  1  0.77107200  0.09537448  0.23193829  1.0
  Ta  Ta844  1  0.77107200  0.42870781  0.23193829  1.0
  Ta  Ta845  1  0.77107200  0.76204114  0.23193829  1.0
  Ta  Ta846  1  0.06226133  0.25000000  0.25000000  1.0
  Ta  Ta847  1  0.06226133  0.58333333  0.25000000  1.0
  Ta  Ta848  1  0.06226133  0.91666667  0.25000000  1.0
  Ta  Ta849  1  0.39559467  0.25000000  0.25000000  1.0
  Ta  Ta850  1  0.39559467  0.58333333  0.25000000  1.0
  Ta  Ta851  1  0.39559467  0.91666667  0.25000000  1.0
  Ta  Ta852  1  0.72892800  0.25000000  0.25000000  1.0
  Ta  Ta853  1  0.72892800  0.58333333  0.25000000  1.0
  Ta  Ta854  1  0.72892800  0.91666667  0.25000000  1.0
  Ta  Ta855  1  0.22892800  0.13095238  0.17857143  1.0
  Ta  Ta856  1  0.22892800  0.46428571  0.17857143  1.0
  Ta  Ta857  1  0.22892800  0.79761905  0.17857143  1.0
  Ta  Ta858  1  0.56226133  0.13095238  0.17857143  1.0
  Ta  Ta859  1  0.56226133  0.46428571  0.17857143  1.0
  Ta  Ta860  1  0.56226133  0.79761905  0.17857143  1.0
  Ta  Ta861  1  0.89559467  0.13095238  0.17857143  1.0
  Ta  Ta862  1  0.89559467  0.46428571  0.17857143  1.0
  Ta  Ta863  1  0.89559467  0.79761905  0.17857143  1.0
  Ta  Ta864  1  0.06226133  0.30966019  0.16050971  1.0
  Ta  Ta865  1  0.06226133  0.64299352  0.16050971  1.0
  Ta  Ta866  1  0.06226133  0.97632686  0.16050971  1.0
  Ta  Ta867  1  0.39559467  0.30966019  0.16050971  1.0
  Ta  Ta868  1  0.39559467  0.64299352  0.16050971  1.0
  Ta  Ta869  1  0.39559467  0.97632686  0.16050971  1.0
  Ta  Ta870  1  0.72892800  0.30966019  0.16050971  1.0
  Ta  Ta871  1  0.72892800  0.64299352  0.16050971  1.0
  Ta  Ta872  1  0.72892800  0.97632686  0.16050971  1.0
  Ta  Ta873  1  0.22892800  0.09537448  0.23193829  1.0
  Ta  Ta874  1  0.22892800  0.42870781  0.23193829  1.0
  Ta  Ta875  1  0.22892800  0.76204114  0.23193829  1.0
  Ta  Ta876  1  0.56226133  0.09537448  0.23193829  1.0
  Ta  Ta877  1  0.56226133  0.42870781  0.23193829  1.0
  Ta  Ta878  1  0.56226133  0.76204114  0.23193829  1.0
  Ta  Ta879  1  0.89559467  0.09537448  0.23193829  1.0
  Ta  Ta880  1  0.89559467  0.42870781  0.23193829  1.0
  Ta  Ta881  1  0.89559467  0.76204114  0.23193829  1.0
  Ta  Ta882  1  0.27107200  0.25000000  0.25000000  1.0
  Ta  Ta883  1  0.27107200  0.58333333  0.25000000  1.0
  Ta  Ta884  1  0.27107200  0.91666667  0.25000000  1.0
  Ta  Ta885  1  0.60440533  0.25000000  0.25000000  1.0
  Ta  Ta886  1  0.60440533  0.58333333  0.25000000  1.0
  Ta  Ta887  1  0.60440533  0.91666667  0.25000000  1.0
  Ta  Ta888  1  0.93773867  0.25000000  0.25000000  1.0
  Ta  Ta889  1  0.93773867  0.58333333  0.25000000  1.0
  Ta  Ta890  1  0.93773867  0.91666667  0.25000000  1.0
  Ta  Ta891  1  0.10440533  0.13095238  0.17857143  1.0
  Ta  Ta892  1  0.10440533  0.46428571  0.17857143  1.0
  Ta  Ta893  1  0.10440533  0.79761905  0.17857143  1.0
  Ta  Ta894  1  0.43773867  0.13095238  0.17857143  1.0
  Ta  Ta895  1  0.43773867  0.46428571  0.17857143  1.0
  Ta  Ta896  1  0.43773867  0.79761905  0.17857143  1.0
  Ta  Ta897  1  0.77107200  0.13095238  0.17857143  1.0
  Ta  Ta898  1  0.77107200  0.46428571  0.17857143  1.0
  Ta  Ta899  1  0.77107200  0.79761905  0.17857143  1.0
  Ta  Ta900  1  0.00000000  0.20552762  0.22331657  1.0
  Ta  Ta901  1  0.00000000  0.53886095  0.22331657  1.0
  Ta  Ta902  1  0.00000000  0.87219429  0.22331657  1.0
  Ta  Ta903  1  0.33333333  0.20552762  0.22331657  1.0
  Ta  Ta904  1  0.33333333  0.53886095  0.22331657  1.0
  Ta  Ta905  1  0.33333333  0.87219429  0.22331657  1.0
  Ta  Ta906  1  0.66666667  0.20552762  0.22331657  1.0
  Ta  Ta907  1  0.66666667  0.53886095  0.22331657  1.0
  Ta  Ta908  1  0.66666667  0.87219429  0.22331657  1.0
  Ta  Ta909  1  0.16666667  0.08648000  0.15188800  1.0
  Ta  Ta910  1  0.16666667  0.41981333  0.15188800  1.0
  Ta  Ta911  1  0.16666667  0.75314667  0.15188800  1.0
  Ta  Ta912  1  0.50000000  0.08648000  0.15188800  1.0
  Ta  Ta913  1  0.50000000  0.41981333  0.15188800  1.0
  Ta  Ta914  1  0.50000000  0.75314667  0.15188800  1.0
  Ta  Ta915  1  0.83333333  0.08648000  0.15188800  1.0
  Ta  Ta916  1  0.83333333  0.41981333  0.15188800  1.0
  Ta  Ta917  1  0.83333333  0.75314667  0.15188800  1.0
  Ta  Ta918  1  0.33333333  0.02079924  0.18719314  1.0
  Ta  Ta919  1  0.33333333  0.35413257  0.18719314  1.0
  Ta  Ta920  1  0.33333333  0.68746590  0.18719314  1.0
  Ta  Ta921  1  0.66666667  0.02079924  0.18719314  1.0
  Ta  Ta922  1  0.66666667  0.35413257  0.18719314  1.0
  Ta  Ta923  1  0.66666667  0.68746590  0.18719314  1.0
  Ta  Ta924  1  0.00000000  0.02079924  0.18719314  1.0
  Ta  Ta925  1  1.00000000  0.35413257  0.18719314  1.0
  Ta  Ta926  1  0.00000000  0.68746590  0.18719314  1.0
  Ta  Ta927  1  0.16666667  0.13984686  0.25862171  1.0
  Ta  Ta928  1  0.16666667  0.47318019  0.25862171  1.0
  Ta  Ta929  1  0.16666667  0.80651352  0.25862171  1.0
  Ta  Ta930  1  0.50000000  0.13984686  0.25862171  1.0
  Ta  Ta931  1  0.50000000  0.47318019  0.25862171  1.0
  Ta  Ta932  1  0.50000000  0.80651352  0.25862171  1.0
  Ta  Ta933  1  0.83333333  0.13984686  0.25862171  1.0
  Ta  Ta934  1  0.83333333  0.47318019  0.25862171  1.0
  Ta  Ta935  1  0.83333333  0.80651352  0.25862171  1.0
  Ta  Ta936  1  0.33333333  0.14476894  0.32598876  1.0
  Ta  Ta937  1  0.33333333  0.47810227  0.32598876  1.0
  Ta  Ta938  1  0.33333333  0.81143560  0.32598876  1.0
  Ta  Ta939  1  0.66666667  0.14476894  0.32598876  1.0
  Ta  Ta940  1  0.66666667  0.47810227  0.32598876  1.0
  Ta  Ta941  1  0.66666667  0.81143560  0.32598876  1.0
  Ta  Ta942  1  1.00000000  0.14476894  0.32598876  1.0
  Ta  Ta943  1  1.00000000  0.47810227  0.32598876  1.0
  Ta  Ta944  1  1.00000000  0.81143560  0.32598876  1.0
  Ta  Ta945  1  0.16666667  0.26381655  0.39741733  1.0
  Ta  Ta946  1  0.16666667  0.59714989  0.39741733  1.0
  Ta  Ta947  1  0.16666667  0.93048322  0.39741733  1.0
  Ta  Ta948  1  0.50000000  0.26381655  0.39741733  1.0
  Ta  Ta949  1  0.50000000  0.59714989  0.39741733  1.0
  Ta  Ta950  1  0.50000000  0.93048322  0.39741733  1.0
  Ta  Ta951  1  0.83333333  0.26381655  0.39741733  1.0
  Ta  Ta952  1  0.83333333  0.59714989  0.39741733  1.0
  Ta  Ta953  1  0.83333333  0.93048322  0.39741733  1.0
  Ta  Ta954  1  0.10914378  0.25559900  0.32345933  1.0
  Ta  Ta955  1  0.10914378  0.58893233  0.32345933  1.0
  Ta  Ta956  1  0.10914378  0.92226567  0.32345933  1.0
  Ta  Ta957  1  0.44247711  0.25559900  0.32345933  1.0
  Ta  Ta958  1  0.44247711  0.58893233  0.32345933  1.0
  Ta  Ta959  1  0.44247711  0.92226567  0.32345933  1.0
  Ta  Ta960  1  0.77581044  0.25559900  0.32345933  1.0
  Ta  Ta961  1  0.77581044  0.58893233  0.32345933  1.0
  Ta  Ta962  1  0.77581044  0.92226567  0.32345933  1.0
  Ta  Ta963  1  0.27581044  0.04131329  0.39488790  1.0
  Ta  Ta964  1  0.27581044  0.37464662  0.39488790  1.0
  Ta  Ta965  1  0.27581044  0.70797995  0.39488790  1.0
  Ta  Ta966  1  0.60914378  0.04131329  0.39488790  1.0
  Ta  Ta967  1  0.60914378  0.37464662  0.39488790  1.0
  Ta  Ta968  1  0.60914378  0.70797995  0.39488790  1.0
  Ta  Ta969  1  0.94247711  0.04131329  0.39488790  1.0
  Ta  Ta970  1  0.94247711  0.37464662  0.39488790  1.0
  Ta  Ta971  1  0.94247711  0.70797995  0.39488790  1.0
  Ta  Ta972  1  0.22418955  0.25559900  0.32345933  1.0
  Ta  Ta973  1  0.22418955  0.58893233  0.32345933  1.0
  Ta  Ta974  1  0.22418955  0.92226567  0.32345933  1.0
  Ta  Ta975  1  0.55752289  0.25559900  0.32345933  1.0
  Ta  Ta976  1  0.55752289  0.58893233  0.32345933  1.0
  Ta  Ta977  1  0.55752289  0.92226567  0.32345933  1.0
  Ta  Ta978  1  0.89085622  0.25559900  0.32345933  1.0
  Ta  Ta979  1  0.89085622  0.58893233  0.32345933  1.0
  Ta  Ta980  1  0.89085622  0.92226567  0.32345933  1.0
  Ta  Ta981  1  0.05752289  0.04131329  0.39488791  1.0
  Ta  Ta982  1  0.05752289  0.37464662  0.39488791  1.0
  Ta  Ta983  1  0.05752289  0.70797995  0.39488791  1.0
  Ta  Ta984  1  0.39085622  0.04131329  0.39488791  1.0
  Ta  Ta985  1  0.39085622  0.37464662  0.39488790  1.0
  Ta  Ta986  1  0.39085622  0.70797995  0.39488790  1.0
  Ta  Ta987  1  0.72418956  0.04131329  0.39488791  1.0
  Ta  Ta988  1  0.72418956  0.37464662  0.39488790  1.0
  Ta  Ta989  1  0.72418956  0.70797995  0.39488791  1.0
  Ta  Ta990  1  0.33333333  0.08240106  0.41954057  1.0
  Ta  Ta991  1  0.33333333  0.41573440  0.41954057  1.0
  Ta  Ta992  1  0.33333333  0.74906773  0.41954057  1.0
  Ta  Ta993  1  0.66666667  0.08240106  0.41954057  1.0
  Ta  Ta994  1  0.66666667  0.41573440  0.41954057  1.0
  Ta  Ta995  1  0.66666667  0.74906773  0.41954057  1.0
  Ta  Ta996  1  1.00000000  0.08240106  0.41954057  1.0
  Ta  Ta997  1  1.00000000  0.41573440  0.41954057  1.0
  Ta  Ta998  1  1.00000000  0.74906773  0.41954057  1.0
  Ta  Ta999  1  0.16666667  0.29668678  0.34811200  1.0
  Ta  Ta1000  1  0.16666667  0.63002011  0.34811200  1.0
  Ta  Ta1001  1  0.16666667  0.96335344  0.34811200  1.0
  Ta  Ta1002  1  0.50000000  0.29668678  0.34811200  1.0
  Ta  Ta1003  1  0.50000000  0.63002011  0.34811200  1.0
  Ta  Ta1004  1  0.50000000  0.96335344  0.34811200  1.0
  Ta  Ta1005  1  0.83333333  0.29668678  0.34811200  1.0
  Ta  Ta1006  1  0.83333333  0.63002011  0.34811200  1.0
  Ta  Ta1007  1  0.83333333  0.96335344  0.34811200  1.0
  Ta  Ta1008  1  0.33333333  0.30774840  0.37023524  1.0
  Ta  Ta1009  1  0.33333333  0.64108173  0.37023524  1.0
  Ta  Ta1010  1  0.33333333  0.97441506  0.37023524  1.0
  Ta  Ta1011  1  0.66666667  0.30774840  0.37023524  1.0
  Ta  Ta1012  1  0.66666667  0.64108173  0.37023524  1.0
  Ta  Ta1013  1  0.66666667  0.97441506  0.37023524  1.0
  Ta  Ta1014  1  1.00000000  0.30774840  0.37023524  1.0
  Ta  Ta1015  1  1.00000000  0.64108173  0.37023524  1.0
  Ta  Ta1016  1  1.00000000  0.97441506  0.37023524  1.0
  Ta  Ta1017  1  0.16666667  0.18870078  0.29880667  1.0
  Ta  Ta1018  1  0.16666667  0.52203411  0.29880667  1.0
  Ta  Ta1019  1  0.16666667  0.85536745  0.29880667  1.0
  Ta  Ta1020  1  0.50000000  0.18870078  0.29880667  1.0
  Ta  Ta1021  1  0.50000000  0.52203411  0.29880667  1.0
  Ta  Ta1022  1  0.50000000  0.85536745  0.29880667  1.0
  Ta  Ta1023  1  0.83333333  0.18870078  0.29880667  1.0
  Ta  Ta1024  1  0.83333333  0.52203411  0.29880667  1.0
  Ta  Ta1025  1  0.83333333  0.85536745  0.29880667  1.0
  Ta  Ta1026  1  0.22418955  0.19691833  0.37276467  1.0
  Ta  Ta1027  1  0.22418955  0.53025167  0.37276467  1.0
  Ta  Ta1028  1  0.22418955  0.86358500  0.37276467  1.0
  Ta  Ta1029  1  0.55752289  0.19691833  0.37276467  1.0
  Ta  Ta1030  1  0.55752289  0.53025167  0.37276467  1.0
  Ta  Ta1031  1  0.55752289  0.86358500  0.37276467  1.0
  Ta  Ta1032  1  0.89085622  0.19691833  0.37276467  1.0
  Ta  Ta1033  1  0.89085622  0.53025167  0.37276467  1.0
  Ta  Ta1034  1  0.89085622  0.86358500  0.37276467  1.0
  Ta  Ta1035  1  0.05752289  0.07787072  0.30133609  1.0
  Ta  Ta1036  1  0.05752289  0.41120405  0.30133609  1.0
  Ta  Ta1037  1  0.05752289  0.74453738  0.30133609  1.0
  Ta  Ta1038  1  0.39085622  0.07787072  0.30133609  1.0
  Ta  Ta1039  1  0.39085622  0.41120405  0.30133609  1.0
  Ta  Ta1040  1  0.39085622  0.74453738  0.30133609  1.0
  Ta  Ta1041  1  0.72418956  0.07787072  0.30133609  1.0
  Ta  Ta1042  1  0.72418956  0.41120405  0.30133609  1.0
  Ta  Ta1043  1  0.72418955  0.74453738  0.30133609  1.0
  Ta  Ta1044  1  0.10914378  0.19691833  0.37276467  1.0
  Ta  Ta1045  1  0.10914378  0.53025167  0.37276467  1.0
  Ta  Ta1046  1  0.10914378  0.86358500  0.37276467  1.0
  Ta  Ta1047  1  0.44247711  0.19691833  0.37276467  1.0
  Ta  Ta1048  1  0.44247711  0.53025167  0.37276467  1.0
  Ta  Ta1049  1  0.44247711  0.86358500  0.37276467  1.0
  Ta  Ta1050  1  0.77581044  0.19691833  0.37276467  1.0
  Ta  Ta1051  1  0.77581044  0.53025167  0.37276467  1.0
  Ta  Ta1052  1  0.77581045  0.86358500  0.37276467  1.0
  Ta  Ta1053  1  0.27581044  0.07787072  0.30133609  1.0
  Ta  Ta1054  1  0.27581044  0.41120405  0.30133609  1.0
  Ta  Ta1055  1  0.27581044  0.74453738  0.30133609  1.0
  Ta  Ta1056  1  0.60914378  0.07787072  0.30133609  1.0
  Ta  Ta1057  1  0.60914378  0.41120405  0.30133609  1.0
  Ta  Ta1058  1  0.60914378  0.74453738  0.30133609  1.0
  Ta  Ta1059  1  0.94247711  0.07787072  0.30133609  1.0
  Ta  Ta1060  1  0.94247711  0.41120405  0.30133609  1.0
  Ta  Ta1061  1  0.94247711  0.74453738  0.30133609  1.0
  Ta  Ta1062  1  0.00000000  0.27487818  0.41954057  1.0
  Ta  Ta1063  1  0.00000000  0.60821151  0.41954057  1.0
  Ta  Ta1064  1  0.00000000  0.94154484  0.41954057  1.0
  Ta  Ta1065  1  0.33333333  0.27487818  0.41954057  1.0
  Ta  Ta1066  1  0.33333333  0.60821151  0.41954057  1.0
  Ta  Ta1067  1  0.33333333  0.94154484  0.41954057  1.0
  Ta  Ta1068  1  0.66666667  0.27487818  0.41954057  1.0
  Ta  Ta1069  1  0.66666667  0.60821151  0.41954057  1.0
  Ta  Ta1070  1  0.66666667  0.94154484  0.41954057  1.0
  Ta  Ta1071  1  0.16666667  0.15583056  0.34811200  1.0
  Ta  Ta1072  1  0.16666667  0.48916389  0.34811200  1.0
  Ta  Ta1073  1  0.16666667  0.82249722  0.34811200  1.0
  Ta  Ta1074  1  0.50000000  0.15583056  0.34811200  1.0
  Ta  Ta1075  1  0.50000000  0.48916389  0.34811200  1.0
  Ta  Ta1076  1  0.50000000  0.82249722  0.34811200  1.0
  Ta  Ta1077  1  0.83333333  0.15583056  0.34811200  1.0
  Ta  Ta1078  1  0.83333333  0.48916389  0.34811200  1.0
  Ta  Ta1079  1  0.83333333  0.82249722  0.34811200  1.0
  Ta  Ta1080  1  0.06226133  0.23809524  0.39285714  1.0
  Ta  Ta1081  1  0.06226133  0.57142857  0.39285714  1.0
  Ta  Ta1082  1  0.06226133  0.90476190  0.39285714  1.0
  Ta  Ta1083  1  0.39559467  0.23809524  0.39285714  1.0
  Ta  Ta1084  1  0.39559467  0.57142857  0.39285714  1.0
  Ta  Ta1085  1  0.39559467  0.90476190  0.39285714  1.0
  Ta  Ta1086  1  0.72892800  0.23809524  0.39285714  1.0
  Ta  Ta1087  1  0.72892800  0.57142857  0.39285714  1.0
  Ta  Ta1088  1  0.72892800  0.90476190  0.39285714  1.0
  Ta  Ta1089  1  0.22892800  0.11904762  0.32142857  1.0
  Ta  Ta1090  1  0.22892800  0.45238095  0.32142857  1.0
  Ta  Ta1091  1  0.22892800  0.78571429  0.32142857  1.0
  Ta  Ta1092  1  0.56226133  0.11904762  0.32142857  1.0
  Ta  Ta1093  1  0.56226133  0.45238095  0.32142857  1.0
  Ta  Ta1094  1  0.56226133  0.78571429  0.32142857  1.0
  Ta  Ta1095  1  0.89559467  0.11904762  0.32142857  1.0
  Ta  Ta1096  1  0.89559467  0.45238095  0.32142857  1.0
  Ta  Ta1097  1  0.89559467  0.78571429  0.32142857  1.0
  Ta  Ta1098  1  0.27107200  0.29775543  0.30336686  1.0
  Ta  Ta1099  1  0.27107200  0.63108876  0.30336686  1.0
  Ta  Ta1100  1  0.27107200  0.96442210  0.30336686  1.0
  Ta  Ta1101  1  0.60440533  0.29775543  0.30336686  1.0
  Ta  Ta1102  1  0.60440533  0.63108876  0.30336686  1.0
  Ta  Ta1103  1  0.60440533  0.96442210  0.30336686  1.0
  Ta  Ta1104  1  0.93773867  0.29775543  0.30336686  1.0
  Ta  Ta1105  1  0.93773867  0.63108876  0.30336686  1.0
  Ta  Ta1106  1  0.93773867  0.96442210  0.30336686  1.0
  Ta  Ta1107  1  0.10440533  0.08346971  0.37479543  1.0
  Ta  Ta1108  1  0.10440533  0.41680305  0.37479543  1.0
  Ta  Ta1109  1  0.10440533  0.75013638  0.37479543  1.0
  Ta  Ta1110  1  0.43773867  0.08346971  0.37479543  1.0
  Ta  Ta1111  1  0.43773867  0.41680305  0.37479543  1.0
  Ta  Ta1112  1  0.43773867  0.75013638  0.37479543  1.0
  Ta  Ta1113  1  0.77107200  0.08346971  0.37479543  1.0
  Ta  Ta1114  1  0.77107200  0.41680305  0.37479543  1.0
  Ta  Ta1115  1  0.77107200  0.75013638  0.37479543  1.0
  Ta  Ta1116  1  0.27107200  0.23809524  0.39285714  1.0
  Ta  Ta1117  1  0.27107200  0.57142857  0.39285714  1.0
  Ta  Ta1118  1  0.27107200  0.90476190  0.39285714  1.0
  Ta  Ta1119  1  0.60440533  0.23809524  0.39285714  1.0
  Ta  Ta1120  1  0.60440533  0.57142857  0.39285714  1.0
  Ta  Ta1121  1  0.60440533  0.90476190  0.39285714  1.0
  Ta  Ta1122  1  0.93773867  0.23809524  0.39285714  1.0
  Ta  Ta1123  1  0.93773867  0.57142857  0.39285714  1.0
  Ta  Ta1124  1  0.93773867  0.90476190  0.39285714  1.0
  Ta  Ta1125  1  0.10440533  0.11904762  0.32142857  1.0
  Ta  Ta1126  1  0.10440533  0.45238095  0.32142857  1.0
  Ta  Ta1127  1  0.10440533  0.78571429  0.32142857  1.0
  Ta  Ta1128  1  0.43773867  0.11904762  0.32142857  1.0
  Ta  Ta1129  1  0.43773867  0.45238095  0.32142857  1.0
  Ta  Ta1130  1  0.43773867  0.78571429  0.32142857  1.0
  Ta  Ta1131  1  0.77107200  0.11904762  0.32142857  1.0
  Ta  Ta1132  1  0.77107200  0.45238095  0.32142857  1.0
  Ta  Ta1133  1  0.77107200  0.78571429  0.32142857  1.0
  Ta  Ta1134  1  0.06226133  0.29775543  0.30336686  1.0
  Ta  Ta1135  1  0.06226133  0.63108876  0.30336686  1.0
  Ta  Ta1136  1  0.06226133  0.96442210  0.30336686  1.0
  Ta  Ta1137  1  0.39559467  0.29775543  0.30336686  1.0
  Ta  Ta1138  1  0.39559467  0.63108876  0.30336686  1.0
  Ta  Ta1139  1  0.39559467  0.96442210  0.30336686  1.0
  Ta  Ta1140  1  0.72892800  0.29775543  0.30336686  1.0
  Ta  Ta1141  1  0.72892800  0.63108876  0.30336686  1.0
  Ta  Ta1142  1  0.72892800  0.96442210  0.30336686  1.0
  Ta  Ta1143  1  0.22892800  0.08346971  0.37479543  1.0
  Ta  Ta1144  1  0.22892800  0.41680305  0.37479543  1.0
  Ta  Ta1145  1  0.22892800  0.75013638  0.37479543  1.0
  Ta  Ta1146  1  0.56226133  0.08346971  0.37479543  1.0
  Ta  Ta1147  1  0.56226133  0.41680305  0.37479543  1.0
  Ta  Ta1148  1  0.56226133  0.75013638  0.37479543  1.0
  Ta  Ta1149  1  0.89559467  0.08346971  0.37479543  1.0
  Ta  Ta1150  1  0.89559467  0.41680305  0.37479543  1.0
  Ta  Ta1151  1  0.89559467  0.75013638  0.37479543  1.0
  Ta  Ta1152  1  0.00000000  0.00889448  0.33005029  1.0
  Ta  Ta1153  1  0.00000000  0.34222781  0.33005029  1.0
  Ta  Ta1154  1  0.00000000  0.67556114  0.33005029  1.0
  Ta  Ta1155  1  0.33333333  0.00889448  0.33005029  1.0
  Ta  Ta1156  1  0.33333333  0.34222781  0.33005029  1.0
  Ta  Ta1157  1  0.33333333  0.67556114  0.33005029  1.0
  Ta  Ta1158  1  0.66666667  0.00889448  0.33005029  1.0
  Ta  Ta1159  1  0.66666667  0.34222781  0.33005029  1.0
  Ta  Ta1160  1  0.66666667  0.67556114  0.33005029  1.0
  Ta  Ta1161  1  0.16666667  0.12794210  0.40147886  1.0
  Ta  Ta1162  1  0.16666667  0.46127543  0.40147886  1.0
  Ta  Ta1163  1  0.16666667  0.79460876  0.40147886  1.0
  Ta  Ta1164  1  0.50000000  0.12794210  0.40147886  1.0
  Ta  Ta1165  1  0.50000000  0.46127543  0.40147886  1.0
  Ta  Ta1166  1  0.50000000  0.79460876  0.40147886  1.0
  Ta  Ta1167  1  0.83333333  0.12794210  0.40147886  1.0
  Ta  Ta1168  1  0.83333333  0.46127543  0.40147886  1.0
  Ta  Ta1169  1  0.83333333  0.79460876  0.40147886  1.0
  Ta  Ta1170  1  0.33333333  0.19362286  0.36617371  1.0
  Ta  Ta1171  1  0.33333333  0.52695619  0.36617371  1.0
  Ta  Ta1172  1  0.33333333  0.86028952  0.36617371  1.0
  Ta  Ta1173  1  0.66666667  0.19362286  0.36617371  1.0
  Ta  Ta1174  1  0.66666667  0.52695619  0.36617371  1.0
  Ta  Ta1175  1  0.66666667  0.86028952  0.36617371  1.0
  Ta  Ta1176  1  1.00000000  0.19362286  0.36617371  1.0
  Ta  Ta1177  1  1.00000000  0.52695619  0.36617371  1.0
  Ta  Ta1178  1  1.00000000  0.86028952  0.36617371  1.0
  Ta  Ta1179  1  0.16666667  0.07457524  0.29474514  1.0
  Ta  Ta1180  1  0.16666667  0.40790857  0.29474514  1.0
  Ta  Ta1181  1  0.16666667  0.74124190  0.29474514  1.0
  Ta  Ta1182  1  0.50000000  0.07457524  0.29474514  1.0
  Ta  Ta1183  1  0.50000000  0.40790857  0.29474514  1.0
  Ta  Ta1184  1  0.50000000  0.74124190  0.29474514  1.0
  Ta  Ta1185  1  0.83333333  0.07457524  0.29474514  1.0
  Ta  Ta1186  1  0.83333333  0.40790857  0.29474514  1.0
  Ta  Ta1187  1  0.83333333  0.74124190  0.29474514  1.0
  Ta  Ta1188  1  0.27107200  0.21442210  0.30336686  1.0
  Ta  Ta1189  1  0.27107200  0.54775543  0.30336686  1.0
  Ta  Ta1190  1  0.27107200  0.88108876  0.30336686  1.0
  Ta  Ta1191  1  0.60440533  0.21442210  0.30336686  1.0
  Ta  Ta1192  1  0.60440533  0.54775543  0.30336686  1.0
  Ta  Ta1193  1  0.60440533  0.88108876  0.30336686  1.0
  Ta  Ta1194  1  0.93773867  0.21442210  0.30336686  1.0
  Ta  Ta1195  1  0.93773867  0.54775543  0.30336686  1.0
  Ta  Ta1196  1  0.93773867  0.88108876  0.30336686  1.0
  Ta  Ta1197  1  0.10440533  0.00013638  0.37479543  1.0
  Ta  Ta1198  1  0.10440533  0.33346971  0.37479543  1.0
  Ta  Ta1199  1  0.10440533  0.66680305  0.37479543  1.0
  Ta  Ta1200  1  0.43773867  0.00013638  0.37479543  1.0
  Ta  Ta1201  1  0.43773867  0.33346971  0.37479543  1.0
  Ta  Ta1202  1  0.43773867  0.66680305  0.37479543  1.0
  Ta  Ta1203  1  0.77107200  0.00013638  0.37479543  1.0
  Ta  Ta1204  1  0.77107200  0.33346971  0.37479543  1.0
  Ta  Ta1205  1  0.77107200  0.66680305  0.37479543  1.0
  Ta  Ta1206  1  0.06226133  0.15476190  0.39285714  1.0
  Ta  Ta1207  1  0.06226133  0.48809524  0.39285714  1.0
  Ta  Ta1208  1  0.06226133  0.82142857  0.39285714  1.0
  Ta  Ta1209  1  0.39559467  0.15476190  0.39285714  1.0
  Ta  Ta1210  1  0.39559467  0.48809524  0.39285714  1.0
  Ta  Ta1211  1  0.39559467  0.82142857  0.39285714  1.0
  Ta  Ta1212  1  0.72892800  0.15476190  0.39285714  1.0
  Ta  Ta1213  1  0.72892800  0.48809524  0.39285714  1.0
  Ta  Ta1214  1  0.72892800  0.82142857  0.39285714  1.0
  Ta  Ta1215  1  0.22892800  0.03571429  0.32142857  1.0
  Ta  Ta1216  1  0.22892800  0.36904762  0.32142857  1.0
  Ta  Ta1217  1  0.22892800  0.70238095  0.32142857  1.0
  Ta  Ta1218  1  0.56226133  0.03571429  0.32142857  1.0
  Ta  Ta1219  1  0.56226133  0.36904762  0.32142857  1.0
  Ta  Ta1220  1  0.56226133  0.70238095  0.32142857  1.0
  Ta  Ta1221  1  0.89559467  0.03571429  0.32142857  1.0
  Ta  Ta1222  1  0.89559467  0.36904762  0.32142857  1.0
  Ta  Ta1223  1  0.89559467  0.70238095  0.32142857  1.0
  Ta  Ta1224  1  0.06226133  0.21442210  0.30336686  1.0
  Ta  Ta1225  1  0.06226133  0.54775543  0.30336686  1.0
  Ta  Ta1226  1  0.06226133  0.88108876  0.30336686  1.0
  Ta  Ta1227  1  0.39559467  0.21442210  0.30336686  1.0
  Ta  Ta1228  1  0.39559467  0.54775543  0.30336686  1.0
  Ta  Ta1229  1  0.39559467  0.88108876  0.30336686  1.0
  Ta  Ta1230  1  0.72892800  0.21442210  0.30336686  1.0
  Ta  Ta1231  1  0.72892800  0.54775543  0.30336686  1.0
  Ta  Ta1232  1  0.72892800  0.88108876  0.30336686  1.0
  Ta  Ta1233  1  0.22892800  0.00013638  0.37479543  1.0
  Ta  Ta1234  1  0.22892800  0.33346971  0.37479543  1.0
  Ta  Ta1235  1  0.22892800  0.66680305  0.37479543  1.0
  Ta  Ta1236  1  0.56226133  0.00013638  0.37479543  1.0
  Ta  Ta1237  1  0.56226133  0.33346971  0.37479543  1.0
  Ta  Ta1238  1  0.56226133  0.66680305  0.37479543  1.0
  Ta  Ta1239  1  0.89559467  0.00013638  0.37479543  1.0
  Ta  Ta1240  1  0.89559467  0.33346971  0.37479543  1.0
  Ta  Ta1241  1  0.89559467  0.66680305  0.37479543  1.0
  Ta  Ta1242  1  0.27107200  0.15476190  0.39285714  1.0
  Ta  Ta1243  1  0.27107200  0.48809524  0.39285714  1.0
  Ta  Ta1244  1  0.27107200  0.82142857  0.39285714  1.0
  Ta  Ta1245  1  0.60440533  0.15476190  0.39285714  1.0
  Ta  Ta1246  1  0.60440533  0.48809524  0.39285714  1.0
  Ta  Ta1247  1  0.60440533  0.82142857  0.39285714  1.0
  Ta  Ta1248  1  0.93773867  0.15476190  0.39285714  1.0
  Ta  Ta1249  1  0.93773867  0.48809524  0.39285714  1.0
  Ta  Ta1250  1  0.93773867  0.82142857  0.39285714  1.0
  Ta  Ta1251  1  0.10440533  0.03571429  0.32142857  1.0
  Ta  Ta1252  1  0.10440533  0.36904762  0.32142857  1.0
  Ta  Ta1253  1  0.10440533  0.70238095  0.32142857  1.0
  Ta  Ta1254  1  0.43773867  0.03571429  0.32142857  1.0
  Ta  Ta1255  1  0.43773867  0.36904762  0.32142857  1.0
  Ta  Ta1256  1  0.43773867  0.70238095  0.32142857  1.0
  Ta  Ta1257  1  0.77107200  0.03571429  0.32142857  1.0
  Ta  Ta1258  1  0.77107200  0.36904762  0.32142857  1.0
  Ta  Ta1259  1  0.77107200  0.70238095  0.32142857  1.0
  Ta  Ta1260  1  0.00000000  0.11028952  0.36617371  1.0
  Ta  Ta1261  1  0.00000000  0.44362286  0.36617371  1.0
  Ta  Ta1262  1  0.00000000  0.77695619  0.36617371  1.0
  Ta  Ta1263  1  0.33333333  0.11028952  0.36617371  1.0
  Ta  Ta1264  1  0.33333333  0.44362286  0.36617371  1.0
  Ta  Ta1265  1  0.33333333  0.77695619  0.36617371  1.0
  Ta  Ta1266  1  0.66666667  0.11028952  0.36617371  1.0
  Ta  Ta1267  1  0.66666667  0.44362286  0.36617371  1.0
  Ta  Ta1268  1  0.66666667  0.77695619  0.36617371  1.0
  Ta  Ta1269  1  0.16666667  0.32457524  0.29474514  1.0
  Ta  Ta1270  1  0.16666667  0.65790857  0.29474514  1.0
  Ta  Ta1271  1  0.16666667  0.99124190  0.29474514  1.0
  Ta  Ta1272  1  0.50000000  0.32457524  0.29474514  1.0
  Ta  Ta1273  1  0.50000000  0.65790857  0.29474514  1.0
  Ta  Ta1274  1  0.50000000  0.99124190  0.29474514  1.0
  Ta  Ta1275  1  0.83333333  0.32457524  0.29474514  1.0
  Ta  Ta1276  1  0.83333333  0.65790857  0.29474514  1.0
  Ta  Ta1277  1  0.83333333  0.99124190  0.29474514  1.0
  Ta  Ta1278  1  0.33333333  0.25889448  0.33005029  1.0
  Ta  Ta1279  1  0.33333333  0.59222781  0.33005029  1.0
  Ta  Ta1280  1  0.33333333  0.92556114  0.33005029  1.0
  Ta  Ta1281  1  0.66666667  0.25889448  0.33005029  1.0
  Ta  Ta1282  1  0.66666667  0.59222781  0.33005029  1.0
  Ta  Ta1283  1  0.66666667  0.92556114  0.33005029  1.0
  Ta  Ta1284  1  1.00000000  0.25889448  0.33005029  1.0
  Ta  Ta1285  1  1.00000000  0.59222781  0.33005029  1.0
  Ta  Ta1286  1  1.00000000  0.92556114  0.33005029  1.0
  Ta  Ta1287  1  0.16666667  0.04460876  0.40147886  1.0
  Ta  Ta1288  1  0.16666667  0.37794210  0.40147886  1.0
  Ta  Ta1289  1  0.16666667  0.71127543  0.40147886  1.0
  Ta  Ta1290  1  0.50000000  0.04460876  0.40147886  1.0
  Ta  Ta1291  1  0.50000000  0.37794210  0.40147886  1.0
  Ta  Ta1292  1  0.50000000  0.71127543  0.40147886  1.0
  Ta  Ta1293  1  0.83333333  0.04460876  0.40147886  1.0
  Ta  Ta1294  1  0.83333333  0.37794210  0.40147886  1.0
  Ta  Ta1295  1  0.83333333  0.71127543  0.40147886  1.0
