# generated using pymatgen
data_Ta5Ni
_symmetry_space_group_name_H-M   'P 1'
_cell_length_a   35.67255599
_cell_length_b   43.68977999
_cell_length_c   26.58875337
_cell_angle_alpha   90.00000000
_cell_angle_beta   90.00000000
_cell_angle_gamma   114.09484255
_symmetry_Int_Tables_number   1
_chemical_formula_structural   Ta5Ni
_chemical_formula_sum   'Ta720 Ni144'
_cell_volume   37828.70190023
_cell_formula_units_Z   144
loop_
 _symmetry_equiv_pos_site_id
 _symmetry_equiv_pos_as_xyz
  1  'x, y, z'
loop_
 _atom_site_type_symbol
 _atom_site_label
 _atom_site_symmetry_multiplicity
 _atom_site_fract_x
 _atom_site_fract_y
 _atom_site_fract_z
 _atom_site_occupancy
  Ni  Ni0  1  0.12701173  0.18122613  0.16867840  1.0
  Ni  Ni1  1  0.12701173  0.51455947  0.16867840  1.0
  Ni  Ni2  1  0.12701173  0.84789280  0.16867840  1.0
  Ni  Ni3  1  0.46034507  0.18122613  0.16867840  1.0
  Ni  Ni4  1  0.46034507  0.51455947  0.16867840  1.0
  Ni  Ni5  1  0.46034507  0.84789280  0.16867840  1.0
  Ni  Ni6  1  0.79367840  0.18122613  0.16867840  1.0
  Ni  Ni7  1  0.79367840  0.51455947  0.16867840  1.0
  Ni  Ni8  1  0.79367840  0.84789280  0.16867840  1.0
  Ni  Ni9  1  0.02701173  0.31455947  0.06867840  1.0
  Ni  Ni10  1  0.02701173  0.64789280  0.06867840  1.0
  Ni  Ni11  1  0.02701173  0.98122613  0.06867840  1.0
  Ni  Ni12  1  0.36034507  0.31455947  0.06867840  1.0
  Ni  Ni13  1  0.36034507  0.64789280  0.06867840  1.0
  Ni  Ni14  1  0.36034507  0.98122613  0.06867840  1.0
  Ni  Ni15  1  0.69367840  0.31455947  0.06867840  1.0
  Ni  Ni16  1  0.69367840  0.64789280  0.06867840  1.0
  Ni  Ni17  1  0.69367840  0.98122613  0.06867840  1.0
  Ni  Ni18  1  0.31034507  0.04789280  0.01867840  1.0
  Ni  Ni19  1  0.31034507  0.38122613  0.01867840  1.0
  Ni  Ni20  1  0.31034507  0.71455947  0.01867840  1.0
  Ni  Ni21  1  0.64367840  0.04789280  0.01867840  1.0
  Ni  Ni22  1  0.64367840  0.38122613  0.01867840  1.0
  Ni  Ni23  1  0.64367840  0.71455947  0.01867840  1.0
  Ni  Ni24  1  0.97701173  0.04789280  0.01867840  1.0
  Ni  Ni25  1  0.97701173  0.38122613  0.01867840  1.0
  Ni  Ni26  1  0.97701173  0.71455947  0.01867840  1.0
  Ni  Ni27  1  0.07701173  0.24789280  0.11867840  1.0
  Ni  Ni28  1  0.07701173  0.58122613  0.11867840  1.0
  Ni  Ni29  1  0.07701173  0.91455947  0.11867840  1.0
  Ni  Ni30  1  0.41034507  0.24789280  0.11867840  1.0
  Ni  Ni31  1  0.41034507  0.58122613  0.11867840  1.0
  Ni  Ni32  1  0.41034507  0.91455947  0.11867840  1.0
  Ni  Ni33  1  0.74367840  0.24789280  0.11867840  1.0
  Ni  Ni34  1  0.74367840  0.58122613  0.11867840  1.0
  Ni  Ni35  1  0.74367840  0.91455947  0.11867840  1.0
  Ni  Ni36  1  0.24367840  0.08122613  0.11867840  1.0
  Ni  Ni37  1  0.24367840  0.41455947  0.11867840  1.0
  Ni  Ni38  1  0.24367840  0.74789280  0.11867840  1.0
  Ni  Ni39  1  0.57701173  0.08122613  0.11867840  1.0
  Ni  Ni40  1  0.57701173  0.41455947  0.11867840  1.0
  Ni  Ni41  1  0.57701173  0.74789280  0.11867840  1.0
  Ni  Ni42  1  0.91034507  0.08122613  0.11867840  1.0
  Ni  Ni43  1  0.91034507  0.41455947  0.11867840  1.0
  Ni  Ni44  1  0.91034507  0.74789280  0.11867840  1.0
  Ni  Ni45  1  0.14367840  0.21455947  0.01867840  1.0
  Ni  Ni46  1  0.14367840  0.54789280  0.01867840  1.0
  Ni  Ni47  1  0.14367840  0.88122613  0.01867840  1.0
  Ni  Ni48  1  0.47701173  0.21455947  0.01867840  1.0
  Ni  Ni49  1  0.47701173  0.54789280  0.01867840  1.0
  Ni  Ni50  1  0.47701173  0.88122613  0.01867840  1.0
  Ni  Ni51  1  0.81034507  0.21455947  0.01867840  1.0
  Ni  Ni52  1  0.81034507  0.54789280  0.01867840  1.0
  Ni  Ni53  1  0.81034507  0.88122613  0.01867840  1.0
  Ni  Ni54  1  0.02701173  0.14789280  0.06867840  1.0
  Ni  Ni55  1  0.02701173  0.48122613  0.06867840  1.0
  Ni  Ni56  1  0.02701173  0.81455947  0.06867840  1.0
  Ni  Ni57  1  0.36034507  0.14789280  0.06867840  1.0
  Ni  Ni58  1  0.36034507  0.48122613  0.06867840  1.0
  Ni  Ni59  1  0.36034507  0.81455947  0.06867840  1.0
  Ni  Ni60  1  0.69367840  0.14789280  0.06867840  1.0
  Ni  Ni61  1  0.69367840  0.48122613  0.06867840  1.0
  Ni  Ni62  1  0.69367840  0.81455947  0.06867840  1.0
  Ni  Ni63  1  0.12701173  0.01455947  0.16867840  1.0
  Ni  Ni64  1  0.12701173  0.34789280  0.16867840  1.0
  Ni  Ni65  1  0.12701173  0.68122613  0.16867840  1.0
  Ni  Ni66  1  0.46034507  0.01455947  0.16867840  1.0
  Ni  Ni67  1  0.46034507  0.34789280  0.16867840  1.0
  Ni  Ni68  1  0.46034507  0.68122613  0.16867840  1.0
  Ni  Ni69  1  0.79367840  0.01455947  0.16867840  1.0
  Ni  Ni70  1  0.79367840  0.34789280  0.16867840  1.0
  Ni  Ni71  1  0.79367840  0.68122613  0.16867840  1.0
  Ni  Ni72  1  0.32701173  0.24789280  0.36867840  1.0
  Ni  Ni73  1  0.32701173  0.58122613  0.36867840  1.0
  Ni  Ni74  1  0.32701173  0.91455947  0.36867840  1.0
  Ni  Ni75  1  0.66034507  0.24789280  0.36867840  1.0
  Ni  Ni76  1  0.66034507  0.58122613  0.36867840  1.0
  Ni  Ni77  1  0.66034507  0.91455947  0.36867840  1.0
  Ni  Ni78  1  0.99367840  0.24789280  0.36867840  1.0
  Ni  Ni79  1  0.99367840  0.58122613  0.36867840  1.0
  Ni  Ni80  1  0.99367840  0.91455947  0.36867840  1.0
  Ni  Ni81  1  0.22701173  0.04789280  0.26867840  1.0
  Ni  Ni82  1  0.22701173  0.38122613  0.26867840  1.0
  Ni  Ni83  1  0.22701173  0.71455947  0.26867840  1.0
  Ni  Ni84  1  0.56034507  0.04789280  0.26867840  1.0
  Ni  Ni85  1  0.56034507  0.38122613  0.26867840  1.0
  Ni  Ni86  1  0.56034507  0.71455947  0.26867840  1.0
  Ni  Ni87  1  0.89367840  0.04789280  0.26867840  1.0
  Ni  Ni88  1  0.89367840  0.38122613  0.26867840  1.0
  Ni  Ni89  1  0.89367840  0.71455947  0.26867840  1.0
  Ni  Ni90  1  0.17701173  0.11455947  0.21867840  1.0
  Ni  Ni91  1  0.17701173  0.44789280  0.21867840  1.0
  Ni  Ni92  1  0.17701173  0.78122613  0.21867840  1.0
  Ni  Ni93  1  0.51034507  0.11455947  0.21867840  1.0
  Ni  Ni94  1  0.51034507  0.44789280  0.21867840  1.0
  Ni  Ni95  1  0.51034507  0.78122613  0.21867840  1.0
  Ni  Ni96  1  0.84367840  0.11455947  0.21867840  1.0
  Ni  Ni97  1  0.84367840  0.44789280  0.21867840  1.0
  Ni  Ni98  1  0.84367840  0.78122613  0.21867840  1.0
  Ni  Ni99  1  0.27701173  0.31455947  0.31867840  1.0
  Ni  Ni100  1  0.27701173  0.64789280  0.31867840  1.0
  Ni  Ni101  1  0.27701173  0.98122613  0.31867840  1.0
  Ni  Ni102  1  0.61034507  0.31455947  0.31867840  1.0
  Ni  Ni103  1  0.61034507  0.64789280  0.31867840  1.0
  Ni  Ni104  1  0.61034507  0.98122613  0.31867840  1.0
  Ni  Ni105  1  0.94367840  0.31455947  0.31867840  1.0
  Ni  Ni106  1  0.94367840  0.64789280  0.31867840  1.0
  Ni  Ni107  1  0.94367840  0.98122613  0.31867840  1.0
  Ni  Ni108  1  0.11034507  0.14789280  0.31867840  1.0
  Ni  Ni109  1  0.11034507  0.48122613  0.31867840  1.0
  Ni  Ni110  1  0.11034507  0.81455947  0.31867840  1.0
  Ni  Ni111  1  0.44367840  0.14789280  0.31867840  1.0
  Ni  Ni112  1  0.44367840  0.48122613  0.31867840  1.0
  Ni  Ni113  1  0.44367840  0.81455947  0.31867840  1.0
  Ni  Ni114  1  0.77701173  0.14789280  0.31867840  1.0
  Ni  Ni115  1  0.77701173  0.48122613  0.31867840  1.0
  Ni  Ni116  1  0.77701173  0.81455947  0.31867840  1.0
  Ni  Ni117  1  0.01034507  0.28122613  0.21867840  1.0
  Ni  Ni118  1  0.01034507  0.61455947  0.21867840  1.0
  Ni  Ni119  1  0.01034507  0.94789280  0.21867840  1.0
  Ni  Ni120  1  0.34367840  0.28122613  0.21867840  1.0
  Ni  Ni121  1  0.34367840  0.61455947  0.21867840  1.0
  Ni  Ni122  1  0.34367840  0.94789280  0.21867840  1.0
  Ni  Ni123  1  0.67701173  0.28122613  0.21867840  1.0
  Ni  Ni124  1  0.67701173  0.61455947  0.21867840  1.0
  Ni  Ni125  1  0.67701173  0.94789280  0.21867840  1.0
  Ni  Ni126  1  0.22701173  0.21455947  0.26867840  1.0
  Ni  Ni127  1  0.22701173  0.54789280  0.26867840  1.0
  Ni  Ni128  1  0.22701173  0.88122613  0.26867840  1.0
  Ni  Ni129  1  0.56034507  0.21455947  0.26867840  1.0
  Ni  Ni130  1  0.56034507  0.54789280  0.26867840  1.0
  Ni  Ni131  1  0.56034507  0.88122613  0.26867840  1.0
  Ni  Ni132  1  0.89367840  0.21455947  0.26867840  1.0
  Ni  Ni133  1  0.89367840  0.54789280  0.26867840  1.0
  Ni  Ni134  1  0.89367840  0.88122613  0.26867840  1.0
  Ni  Ni135  1  0.32701173  0.08122613  0.36867840  1.0
  Ni  Ni136  1  0.32701173  0.41455947  0.36867840  1.0
  Ni  Ni137  1  0.32701173  0.74789280  0.36867840  1.0
  Ni  Ni138  1  0.66034507  0.08122613  0.36867840  1.0
  Ni  Ni139  1  0.66034507  0.41455947  0.36867840  1.0
  Ni  Ni140  1  0.66034507  0.74789280  0.36867840  1.0
  Ni  Ni141  1  0.99367840  0.08122613  0.36867840  1.0
  Ni  Ni142  1  0.99367840  0.41455947  0.36867840  1.0
  Ni  Ni143  1  0.99367840  0.74789280  0.36867840  1.0
  Ta  Ta144  1  0.07066924  0.20939738  0.04190780  1.0
  Ta  Ta145  1  0.07066924  0.54273071  0.04190780  1.0
  Ta  Ta146  1  0.07066924  0.87606404  0.04190780  1.0
  Ta  Ta147  1  0.40400258  0.20939738  0.04190780  1.0
  Ta  Ta148  1  0.40400258  0.54273071  0.04190780  1.0
  Ta  Ta149  1  0.40400258  0.87606404  0.04190780  1.0
  Ta  Ta150  1  0.73733591  0.20939738  0.04190780  1.0
  Ta  Ta151  1  0.73733591  0.54273071  0.04190780  1.0
  Ta  Ta152  1  0.73733591  0.87606404  0.04190780  1.0
  Ta  Ta153  1  0.17066924  0.07606404  0.14190780  1.0
  Ta  Ta154  1  0.17066924  0.40939738  0.14190780  1.0
  Ta  Ta155  1  0.17066924  0.74273071  0.14190780  1.0
  Ta  Ta156  1  0.50400258  0.07606404  0.14190780  1.0
  Ta  Ta157  1  0.50400258  0.40939738  0.14190780  1.0
  Ta  Ta158  1  0.50400258  0.74273071  0.14190780  1.0
  Ta  Ta159  1  0.83733591  0.07606404  0.14190780  1.0
  Ta  Ta160  1  0.83733591  0.40939738  0.14190780  1.0
  Ta  Ta161  1  0.83733591  0.74273071  0.14190780  1.0
  Ta  Ta162  1  0.20518298  0.03004573  0.17642153  1.0
  Ta  Ta163  1  0.20518298  0.36337907  0.17642153  1.0
  Ta  Ta164  1  0.20518298  0.69671240  0.17642153  1.0
  Ta  Ta165  1  0.53851631  0.03004573  0.17642153  1.0
  Ta  Ta166  1  0.53851631  0.36337907  0.17642153  1.0
  Ta  Ta167  1  0.53851631  0.69671240  0.17642153  1.0
  Ta  Ta168  1  0.87184964  0.03004573  0.17642153  1.0
  Ta  Ta169  1  0.87184964  0.36337907  0.17642153  1.0
  Ta  Ta170  1  0.87184964  0.69671240  0.17642153  1.0
  Ta  Ta171  1  0.10518298  0.16337907  0.07642153  1.0
  Ta  Ta172  1  0.10518298  0.49671240  0.07642153  1.0
  Ta  Ta173  1  0.10518298  0.83004573  0.07642153  1.0
  Ta  Ta174  1  0.43851631  0.16337907  0.07642153  1.0
  Ta  Ta175  1  0.43851631  0.49671240  0.07642153  1.0
  Ta  Ta176  1  0.43851631  0.83004573  0.07642153  1.0
  Ta  Ta177  1  0.77184964  0.16337907  0.07642153  1.0
  Ta  Ta178  1  0.77184964  0.49671240  0.07642153  1.0
  Ta  Ta179  1  0.77184964  0.83004573  0.07642153  1.0
  Ta  Ta180  1  0.29249800  0.31972155  0.04544900  1.0
  Ta  Ta181  1  0.29249800  0.65305489  0.04544900  1.0
  Ta  Ta182  1  0.29249800  0.98638822  0.04544900  1.0
  Ta  Ta183  1  0.62583133  0.31972155  0.04544900  1.0
  Ta  Ta184  1  0.62583133  0.65305489  0.04544900  1.0
  Ta  Ta185  1  0.62583133  0.98638822  0.04544900  1.0
  Ta  Ta186  1  0.95916467  0.31972155  0.04544900  1.0
  Ta  Ta187  1  0.95916467  0.65305489  0.04544900  1.0
  Ta  Ta188  1  0.95916467  0.98638822  0.04544900  1.0
  Ta  Ta189  1  0.05916467  0.18638822  0.14544900  1.0
  Ta  Ta190  1  0.05916467  0.51972155  0.14544900  1.0
  Ta  Ta191  1  0.05916467  0.85305489  0.14544900  1.0
  Ta  Ta192  1  0.39249800  0.18638822  0.14544900  1.0
  Ta  Ta193  1  0.39249800  0.51972155  0.14544900  1.0
  Ta  Ta194  1  0.39249800  0.85305489  0.14544900  1.0
  Ta  Ta195  1  0.72583133  0.18638822  0.14544900  1.0
  Ta  Ta196  1  0.72583133  0.51972155  0.14544900  1.0
  Ta  Ta197  1  0.72583133  0.85305489  0.14544900  1.0
  Ta  Ta198  1  0.13969671  0.23240653  0.11093527  1.0
  Ta  Ta199  1  0.13969671  0.56573987  0.11093527  1.0
  Ta  Ta200  1  0.13969671  0.89907320  0.11093527  1.0
  Ta  Ta201  1  0.47303004  0.23240653  0.11093527  1.0
  Ta  Ta202  1  0.47303004  0.56573987  0.11093527  1.0
  Ta  Ta203  1  0.47303004  0.89907320  0.11093527  1.0
  Ta  Ta204  1  0.80636338  0.23240653  0.11093527  1.0
  Ta  Ta205  1  0.80636338  0.56573987  0.11093527  1.0
  Ta  Ta206  1  0.80636338  0.89907320  0.11093527  1.0
  Ta  Ta207  1  0.03969671  0.03240653  0.01093527  1.0
  Ta  Ta208  1  0.03969671  0.36573987  0.01093527  1.0
  Ta  Ta209  1  0.03969671  0.69907320  0.01093527  1.0
  Ta  Ta210  1  0.37303004  0.03240653  0.01093527  1.0
  Ta  Ta211  1  0.37303004  0.36573987  0.01093527  1.0
  Ta  Ta212  1  0.37303004  0.69907320  0.01093527  1.0
  Ta  Ta213  1  0.70636338  0.03240653  0.01093527  1.0
  Ta  Ta214  1  0.70636338  0.36573987  0.01093527  1.0
  Ta  Ta215  1  0.70636338  0.69907320  0.01093527  1.0
  Ta  Ta216  1  0.31668756  0.08638822  0.09544900  1.0
  Ta  Ta217  1  0.31668756  0.41972156  0.09544900  1.0
  Ta  Ta218  1  0.31668756  0.75305489  0.09544900  1.0
  Ta  Ta219  1  0.65002089  0.08638822  0.09544900  1.0
  Ta  Ta220  1  0.65002089  0.41972156  0.09544900  1.0
  Ta  Ta221  1  0.65002089  0.75305489  0.09544900  1.0
  Ta  Ta222  1  0.98335422  0.08638822  0.09544900  1.0
  Ta  Ta223  1  0.98335422  0.41972156  0.09544900  1.0
  Ta  Ta224  1  0.98335422  0.75305489  0.09544900  1.0
  Ta  Ta225  1  0.08335422  0.28638822  0.19544900  1.0
  Ta  Ta226  1  0.08335422  0.61972156  0.19544900  1.0
  Ta  Ta227  1  0.08335422  0.95305489  0.19544900  1.0
  Ta  Ta228  1  0.41668756  0.28638822  0.19544900  1.0
  Ta  Ta229  1  0.41668756  0.61972156  0.19544900  1.0
  Ta  Ta230  1  0.41668756  0.95305489  0.19544900  1.0
  Ta  Ta231  1  0.75002089  0.28638822  0.19544900  1.0
  Ta  Ta232  1  0.75002089  0.61972156  0.19544900  1.0
  Ta  Ta233  1  0.75002089  0.95305489  0.19544900  1.0
  Ta  Ta234  1  0.04884049  0.33240653  0.16093527  1.0
  Ta  Ta235  1  0.04884049  0.66573987  0.16093527  1.0
  Ta  Ta236  1  0.04884049  0.99907320  0.16093527  1.0
  Ta  Ta237  1  0.38217382  0.33240653  0.16093527  1.0
  Ta  Ta238  1  0.38217382  0.66573987  0.16093527  1.0
  Ta  Ta239  1  0.38217382  0.99907320  0.16093527  1.0
  Ta  Ta240  1  0.71550716  0.33240653  0.16093527  1.0
  Ta  Ta241  1  0.71550716  0.66573987  0.16093527  1.0
  Ta  Ta242  1  0.71550716  0.99907320  0.16093527  1.0
  Ta  Ta243  1  0.28217382  0.13240653  0.06093527  1.0
  Ta  Ta244  1  0.28217382  0.46573987  0.06093527  1.0
  Ta  Ta245  1  0.28217382  0.79907320  0.06093527  1.0
  Ta  Ta246  1  0.61550716  0.13240653  0.06093527  1.0
  Ta  Ta247  1  0.61550716  0.46573987  0.06093527  1.0
  Ta  Ta248  1  0.61550716  0.79907320  0.06093527  1.0
  Ta  Ta249  1  0.94884049  0.13240653  0.06093527  1.0
  Ta  Ta250  1  0.94884049  0.46573987  0.06093527  1.0
  Ta  Ta251  1  0.94884049  0.79907320  0.06093527  1.0
  Ta  Ta252  1  0.09485880  0.30939738  0.09190780  1.0
  Ta  Ta253  1  0.09485880  0.64273071  0.09190780  1.0
  Ta  Ta254  1  0.09485880  0.97606405  0.09190780  1.0
  Ta  Ta255  1  0.42819213  0.30939738  0.09190780  1.0
  Ta  Ta256  1  0.42819213  0.64273071  0.09190780  1.0
  Ta  Ta257  1  0.42819213  0.97606405  0.09190780  1.0
  Ta  Ta258  1  0.76152547  0.30939738  0.09190780  1.0
  Ta  Ta259  1  0.76152547  0.64273071  0.09190780  1.0
  Ta  Ta260  1  0.76152547  0.97606405  0.09190780  1.0
  Ta  Ta261  1  0.19485880  0.17606405  0.19190780  1.0
  Ta  Ta262  1  0.19485880  0.50939738  0.19190780  1.0
  Ta  Ta263  1  0.19485880  0.84273071  0.19190780  1.0
  Ta  Ta264  1  0.52819213  0.17606405  0.19190780  1.0
  Ta  Ta265  1  0.52819213  0.50939738  0.19190780  1.0
  Ta  Ta266  1  0.52819213  0.84273071  0.19190780  1.0
  Ta  Ta267  1  0.86152547  0.17606405  0.19190780  1.0
  Ta  Ta268  1  0.86152547  0.50939738  0.19190780  1.0
  Ta  Ta269  1  0.86152547  0.84273071  0.19190780  1.0
  Ta  Ta270  1  0.24766009  0.06337907  0.02642153  1.0
  Ta  Ta271  1  0.24766009  0.39671240  0.02642153  1.0
  Ta  Ta272  1  0.24766009  0.73004573  0.02642153  1.0
  Ta  Ta273  1  0.58099342  0.06337907  0.02642153  1.0
  Ta  Ta274  1  0.58099342  0.39671240  0.02642153  1.0
  Ta  Ta275  1  0.58099342  0.73004573  0.02642153  1.0
  Ta  Ta276  1  0.91432676  0.06337907  0.02642153  1.0
  Ta  Ta277  1  0.91432676  0.39671240  0.02642153  1.0
  Ta  Ta278  1  0.91432676  0.73004573  0.02642153  1.0
  Ta  Ta279  1  0.01432676  0.26337907  0.12642153  1.0
  Ta  Ta280  1  0.01432676  0.59671240  0.12642153  1.0
  Ta  Ta281  1  0.01432676  0.93004573  0.12642153  1.0
  Ta  Ta282  1  0.34766009  0.26337907  0.12642153  1.0
  Ta  Ta283  1  0.34766009  0.59671240  0.12642153  1.0
  Ta  Ta284  1  0.34766009  0.93004573  0.12642153  1.0
  Ta  Ta285  1  0.68099342  0.26337907  0.12642153  1.0
  Ta  Ta286  1  0.68099342  0.59671240  0.12642153  1.0
  Ta  Ta287  1  0.68099342  0.93004573  0.12642153  1.0
  Ta  Ta288  1  0.17279733  0.02279733  0.06839200  1.0
  Ta  Ta289  1  0.17279733  0.35613067  0.06839200  1.0
  Ta  Ta290  1  0.17279733  0.68946400  0.06839200  1.0
  Ta  Ta291  1  0.50613067  0.02279733  0.06839200  1.0
  Ta  Ta292  1  0.50613067  0.35613067  0.06839200  1.0
  Ta  Ta293  1  0.50613067  0.68946400  0.06839200  1.0
  Ta  Ta294  1  0.83946400  0.02279733  0.06839200  1.0
  Ta  Ta295  1  0.83946400  0.35613067  0.06839200  1.0
  Ta  Ta296  1  0.83946400  0.68946400  0.06839200  1.0
  Ta  Ta297  1  0.27279733  0.22279733  0.16839200  1.0
  Ta  Ta298  1  0.27279733  0.55613067  0.16839200  1.0
  Ta  Ta299  1  0.27279733  0.88946400  0.16839200  1.0
  Ta  Ta300  1  0.60613067  0.22279733  0.16839200  1.0
  Ta  Ta301  1  0.60613067  0.55613067  0.16839200  1.0
  Ta  Ta302  1  0.60613067  0.88946400  0.16839200  1.0
  Ta  Ta303  1  0.93946400  0.22279733  0.16839200  1.0
  Ta  Ta304  1  0.93946400  0.55613067  0.16839200  1.0
  Ta  Ta305  1  0.93946400  0.88946400  0.16839200  1.0
  Ta  Ta306  1  0.01455947  0.03965493  0.11896480  1.0
  Ta  Ta307  1  0.01455947  0.37298827  0.11896480  1.0
  Ta  Ta308  1  0.01455947  0.70632160  0.11896480  1.0
  Ta  Ta309  1  0.34789280  0.03965493  0.11896480  1.0
  Ta  Ta310  1  0.34789280  0.37298827  0.11896480  1.0
  Ta  Ta311  1  0.34789280  0.70632160  0.11896480  1.0
  Ta  Ta312  1  0.68122613  0.03965493  0.11896480  1.0
  Ta  Ta313  1  0.68122613  0.37298827  0.11896480  1.0
  Ta  Ta314  1  0.68122613  0.70632160  0.11896480  1.0
  Ta  Ta315  1  0.24789280  0.17298827  0.01896480  1.0
  Ta  Ta316  1  0.24789280  0.50632160  0.01896480  1.0
  Ta  Ta317  1  0.24789280  0.83965493  0.01896480  1.0
  Ta  Ta318  1  0.58122613  0.17298827  0.01896480  1.0
  Ta  Ta319  1  0.58122613  0.50632160  0.01896480  1.0
  Ta  Ta320  1  0.58122613  0.83965493  0.01896480  1.0
  Ta  Ta321  1  0.91455947  0.17298827  0.01896480  1.0
  Ta  Ta322  1  0.91455947  0.50632160  0.01896480  1.0
  Ta  Ta323  1  0.91455947  0.83965493  0.01896480  1.0
  Ta  Ta324  1  0.08927307  0.06455947  0.19367840  1.0
  Ta  Ta325  1  0.08927307  0.39789280  0.19367840  1.0
  Ta  Ta326  1  0.08927307  0.73122613  0.19367840  1.0
  Ta  Ta327  1  0.42260640  0.06455947  0.19367840  1.0
  Ta  Ta328  1  0.42260640  0.39789280  0.19367840  1.0
  Ta  Ta329  1  0.42260640  0.73122613  0.19367840  1.0
  Ta  Ta330  1  0.75593973  0.06455947  0.19367840  1.0
  Ta  Ta331  1  0.75593973  0.39789280  0.19367840  1.0
  Ta  Ta332  1  0.75593973  0.73122613  0.19367840  1.0
  Ta  Ta333  1  0.32260640  0.19789280  0.09367840  1.0
  Ta  Ta334  1  0.32260640  0.53122613  0.09367840  1.0
  Ta  Ta335  1  0.32260640  0.86455947  0.09367840  1.0
  Ta  Ta336  1  0.65593973  0.19789280  0.09367840  1.0
  Ta  Ta337  1  0.65593973  0.53122613  0.09367840  1.0
  Ta  Ta338  1  0.65593973  0.86455947  0.09367840  1.0
  Ta  Ta339  1  0.98927307  0.19789280  0.09367840  1.0
  Ta  Ta340  1  0.98927307  0.53122613  0.09367840  1.0
  Ta  Ta341  1  0.98927307  0.86455947  0.09367840  1.0
  Ta  Ta342  1  0.29808373  0.06455947  0.19367840  1.0
  Ta  Ta343  1  0.29808373  0.39789280  0.19367840  1.0
  Ta  Ta344  1  0.29808373  0.73122613  0.19367840  1.0
  Ta  Ta345  1  0.63141707  0.06455947  0.19367840  1.0
  Ta  Ta346  1  0.63141707  0.39789280  0.19367840  1.0
  Ta  Ta347  1  0.63141707  0.73122613  0.19367840  1.0
  Ta  Ta348  1  0.96475040  0.06455947  0.19367840  1.0
  Ta  Ta349  1  0.96475040  0.39789280  0.19367840  1.0
  Ta  Ta350  1  0.96475040  0.73122613  0.19367840  1.0
  Ta  Ta351  1  0.19808373  0.19789280  0.09367840  1.0
  Ta  Ta352  1  0.19808373  0.53122613  0.09367840  1.0
  Ta  Ta353  1  0.19808373  0.86455947  0.09367840  1.0
  Ta  Ta354  1  0.53141707  0.19789280  0.09367840  1.0
  Ta  Ta355  1  0.53141707  0.53122613  0.09367840  1.0
  Ta  Ta356  1  0.53141707  0.86455947  0.09367840  1.0
  Ta  Ta357  1  0.86475040  0.19789280  0.09367840  1.0
  Ta  Ta358  1  0.86475040  0.53122613  0.09367840  1.0
  Ta  Ta359  1  0.86475040  0.86455947  0.09367840  1.0
  Ta  Ta360  1  0.05191627  0.11436853  0.15632160  1.0
  Ta  Ta361  1  0.05191627  0.44770187  0.15632160  1.0
  Ta  Ta362  1  0.05191627  0.78103520  0.15632160  1.0
  Ta  Ta363  1  0.38524960  0.11436853  0.15632160  1.0
  Ta  Ta364  1  0.38524960  0.44770187  0.15632160  1.0
  Ta  Ta365  1  0.38524960  0.78103520  0.15632160  1.0
  Ta  Ta366  1  0.71858293  0.11436853  0.15632160  1.0
  Ta  Ta367  1  0.71858293  0.44770187  0.15632160  1.0
  Ta  Ta368  1  0.71858293  0.78103520  0.15632160  1.0
  Ta  Ta369  1  0.28524960  0.24770187  0.05632160  1.0
  Ta  Ta370  1  0.28524960  0.58103520  0.05632160  1.0
  Ta  Ta371  1  0.28524960  0.91436853  0.05632160  1.0
  Ta  Ta372  1  0.61858293  0.24770187  0.05632160  1.0
  Ta  Ta373  1  0.61858293  0.58103520  0.05632160  1.0
  Ta  Ta374  1  0.61858293  0.91436853  0.05632160  1.0
  Ta  Ta375  1  0.95191627  0.24770187  0.05632160  1.0
  Ta  Ta376  1  0.95191627  0.58103520  0.05632160  1.0
  Ta  Ta377  1  0.95191627  0.91436853  0.05632160  1.0
  Ta  Ta378  1  0.13544053  0.28141707  0.03103520  1.0
  Ta  Ta379  1  0.13544053  0.61475040  0.03103520  1.0
  Ta  Ta380  1  0.13544053  0.94808373  0.03103520  1.0
  Ta  Ta381  1  0.46877387  0.28141707  0.03103520  1.0
  Ta  Ta382  1  0.46877387  0.61475040  0.03103520  1.0
  Ta  Ta383  1  0.46877387  0.94808373  0.03103520  1.0
  Ta  Ta384  1  0.80210720  0.28141707  0.03103520  1.0
  Ta  Ta385  1  0.80210720  0.61475040  0.03103520  1.0
  Ta  Ta386  1  0.80210720  0.94808373  0.03103520  1.0
  Ta  Ta387  1  0.23544053  0.14808373  0.13103520  1.0
  Ta  Ta388  1  0.23544053  0.48141707  0.13103520  1.0
  Ta  Ta389  1  0.23544053  0.81475040  0.13103520  1.0
  Ta  Ta390  1  0.56877387  0.14808373  0.13103520  1.0
  Ta  Ta391  1  0.56877387  0.48141707  0.13103520  1.0
  Ta  Ta392  1  0.56877387  0.81475040  0.13103520  1.0
  Ta  Ta393  1  0.90210720  0.14808373  0.13103520  1.0
  Ta  Ta394  1  0.90210720  0.48141707  0.13103520  1.0
  Ta  Ta395  1  0.90210720  0.81475040  0.13103520  1.0
  Ta  Ta396  1  0.21455947  0.27298827  0.06896480  1.0
  Ta  Ta397  1  0.21455947  0.60632160  0.06896480  1.0
  Ta  Ta398  1  0.21455947  0.93965493  0.06896480  1.0
  Ta  Ta399  1  0.54789280  0.27298827  0.06896480  1.0
  Ta  Ta400  1  0.54789280  0.60632160  0.06896480  1.0
  Ta  Ta401  1  0.54789280  0.93965493  0.06896480  1.0
  Ta  Ta402  1  0.88122613  0.27298827  0.06896480  1.0
  Ta  Ta403  1  0.88122613  0.60632160  0.06896480  1.0
  Ta  Ta404  1  0.88122613  0.93965493  0.06896480  1.0
  Ta  Ta405  1  0.31455947  0.13965493  0.16896480  1.0
  Ta  Ta406  1  0.31455947  0.47298827  0.16896480  1.0
  Ta  Ta407  1  0.31455947  0.80632160  0.16896480  1.0
  Ta  Ta408  1  0.64789280  0.13965493  0.16896480  1.0
  Ta  Ta409  1  0.64789280  0.47298827  0.16896480  1.0
  Ta  Ta410  1  0.64789280  0.80632160  0.16896480  1.0
  Ta  Ta411  1  0.98122613  0.13965493  0.16896480  1.0
  Ta  Ta412  1  0.98122613  0.47298827  0.16896480  1.0
  Ta  Ta413  1  0.98122613  0.80632160  0.16896480  1.0
  Ta  Ta414  1  0.03946400  0.25613067  0.01839200  1.0
  Ta  Ta415  1  0.03946400  0.58946400  0.01839200  1.0
  Ta  Ta416  1  0.03946400  0.92279733  0.01839200  1.0
  Ta  Ta417  1  0.37279733  0.25613067  0.01839200  1.0
  Ta  Ta418  1  0.37279733  0.58946400  0.01839200  1.0
  Ta  Ta419  1  0.37279733  0.92279733  0.01839200  1.0
  Ta  Ta420  1  0.70613067  0.25613067  0.01839200  1.0
  Ta  Ta421  1  0.70613067  0.58946400  0.01839200  1.0
  Ta  Ta422  1  0.70613067  0.92279733  0.01839200  1.0
  Ta  Ta423  1  0.13946400  0.12279733  0.11839200  1.0
  Ta  Ta424  1  0.13946400  0.45613067  0.11839200  1.0
  Ta  Ta425  1  0.13946400  0.78946400  0.11839200  1.0
  Ta  Ta426  1  0.47279733  0.12279733  0.11839200  1.0
  Ta  Ta427  1  0.47279733  0.45613067  0.11839200  1.0
  Ta  Ta428  1  0.47279733  0.78946400  0.11839200  1.0
  Ta  Ta429  1  0.80613067  0.12279733  0.11839200  1.0
  Ta  Ta430  1  0.80613067  0.45613067  0.11839200  1.0
  Ta  Ta431  1  0.80613067  0.78946400  0.11839200  1.0
  Ta  Ta432  1  0.16475040  0.29789280  0.14367840  1.0
  Ta  Ta433  1  0.16475040  0.63122613  0.14367840  1.0
  Ta  Ta434  1  0.16475040  0.96455947  0.14367840  1.0
  Ta  Ta435  1  0.49808373  0.29789280  0.14367840  1.0
  Ta  Ta436  1  0.49808373  0.63122613  0.14367840  1.0
  Ta  Ta437  1  0.49808373  0.96455947  0.14367840  1.0
  Ta  Ta438  1  0.83141707  0.29789280  0.14367840  1.0
  Ta  Ta439  1  0.83141707  0.63122613  0.14367840  1.0
  Ta  Ta440  1  0.83141707  0.96455947  0.14367840  1.0
  Ta  Ta441  1  0.06475040  0.09789280  0.04367840  1.0
  Ta  Ta442  1  0.06475040  0.43122613  0.04367840  1.0
  Ta  Ta443  1  0.06475040  0.76455947  0.04367840  1.0
  Ta  Ta444  1  0.39808373  0.09789280  0.04367840  1.0
  Ta  Ta445  1  0.39808373  0.43122613  0.04367840  1.0
  Ta  Ta446  1  0.39808373  0.76455947  0.04367840  1.0
  Ta  Ta447  1  0.73141707  0.09789280  0.04367840  1.0
  Ta  Ta448  1  0.73141707  0.43122613  0.04367840  1.0
  Ta  Ta449  1  0.73141707  0.76455947  0.04367840  1.0
  Ta  Ta450  1  0.28927307  0.29789280  0.14367840  1.0
  Ta  Ta451  1  0.28927307  0.63122613  0.14367840  1.0
  Ta  Ta452  1  0.28927307  0.96455947  0.14367840  1.0
  Ta  Ta453  1  0.62260640  0.29789280  0.14367840  1.0
  Ta  Ta454  1  0.62260640  0.63122613  0.14367840  1.0
  Ta  Ta455  1  0.62260640  0.96455947  0.14367840  1.0
  Ta  Ta456  1  0.95593973  0.29789280  0.14367840  1.0
  Ta  Ta457  1  0.95593973  0.63122613  0.14367840  1.0
  Ta  Ta458  1  0.95593973  0.96455947  0.14367840  1.0
  Ta  Ta459  1  0.18927307  0.09789280  0.04367840  1.0
  Ta  Ta460  1  0.18927307  0.43122613  0.04367840  1.0
  Ta  Ta461  1  0.18927307  0.76455947  0.04367840  1.0
  Ta  Ta462  1  0.52260640  0.09789280  0.04367840  1.0
  Ta  Ta463  1  0.52260640  0.43122613  0.04367840  1.0
  Ta  Ta464  1  0.52260640  0.76455947  0.04367840  1.0
  Ta  Ta465  1  0.85593973  0.09789280  0.04367840  1.0
  Ta  Ta466  1  0.85593973  0.43122613  0.04367840  1.0
  Ta  Ta467  1  0.85593973  0.76455947  0.04367840  1.0
  Ta  Ta468  1  0.20210720  0.24808373  0.18103520  1.0
  Ta  Ta469  1  0.20210720  0.58141707  0.18103520  1.0
  Ta  Ta470  1  0.20210720  0.91475040  0.18103520  1.0
  Ta  Ta471  1  0.53544053  0.24808373  0.18103520  1.0
  Ta  Ta472  1  0.53544053  0.58141707  0.18103520  1.0
  Ta  Ta473  1  0.53544053  0.91475040  0.18103520  1.0
  Ta  Ta474  1  0.86877387  0.24808373  0.18103520  1.0
  Ta  Ta475  1  0.86877387  0.58141707  0.18103520  1.0
  Ta  Ta476  1  0.86877387  0.91475040  0.18103520  1.0
  Ta  Ta477  1  0.10210720  0.04808373  0.08103520  1.0
  Ta  Ta478  1  0.10210720  0.38141707  0.08103520  1.0
  Ta  Ta479  1  0.10210720  0.71475040  0.08103520  1.0
  Ta  Ta480  1  0.43544053  0.04808373  0.08103520  1.0
  Ta  Ta481  1  0.43544053  0.38141707  0.08103520  1.0
  Ta  Ta482  1  0.43544053  0.71475040  0.08103520  1.0
  Ta  Ta483  1  0.76877387  0.04808373  0.08103520  1.0
  Ta  Ta484  1  0.76877387  0.38141707  0.08103520  1.0
  Ta  Ta485  1  0.76877387  0.71475040  0.08103520  1.0
  Ta  Ta486  1  0.25191627  0.01436853  0.10632160  1.0
  Ta  Ta487  1  0.25191627  0.34770187  0.10632160  1.0
  Ta  Ta488  1  0.25191627  0.68103520  0.10632160  1.0
  Ta  Ta489  1  0.58524960  0.01436853  0.10632160  1.0
  Ta  Ta490  1  0.58524960  0.34770187  0.10632160  1.0
  Ta  Ta491  1  0.58524960  0.68103520  0.10632160  1.0
  Ta  Ta492  1  0.91858293  0.01436853  0.10632160  1.0
  Ta  Ta493  1  0.91858293  0.34770187  0.10632160  1.0
  Ta  Ta494  1  0.91858293  0.68103520  0.10632160  1.0
  Ta  Ta495  1  0.15191627  0.14770187  0.00632160  1.0
  Ta  Ta496  1  0.15191627  0.48103520  0.00632160  1.0
  Ta  Ta497  1  0.15191627  0.81436853  0.00632160  1.0
  Ta  Ta498  1  0.48524960  0.14770187  0.00632160  1.0
  Ta  Ta499  1  0.48524960  0.48103520  0.00632160  1.0
  Ta  Ta500  1  0.48524960  0.81436853  0.00632160  1.0
  Ta  Ta501  1  0.81858293  0.14770187  0.00632160  1.0
  Ta  Ta502  1  0.81858293  0.48103520  0.00632160  1.0
  Ta  Ta503  1  0.81858293  0.81436853  0.00632160  1.0
  Ta  Ta504  1  0.27066924  0.27606404  0.24190780  1.0
  Ta  Ta505  1  0.27066924  0.60939738  0.24190780  1.0
  Ta  Ta506  1  0.27066924  0.94273071  0.24190780  1.0
  Ta  Ta507  1  0.60400258  0.27606404  0.24190780  1.0
  Ta  Ta508  1  0.60400258  0.60939738  0.24190780  1.0
  Ta  Ta509  1  0.60400258  0.94273071  0.24190780  1.0
  Ta  Ta510  1  0.93733591  0.27606404  0.24190780  1.0
  Ta  Ta511  1  0.93733591  0.60939738  0.24190780  1.0
  Ta  Ta512  1  0.93733591  0.94273071  0.24190780  1.0
  Ta  Ta513  1  0.03733591  0.14273071  0.34190780  1.0
  Ta  Ta514  1  0.03733591  0.47606404  0.34190780  1.0
  Ta  Ta515  1  0.03733591  0.80939738  0.34190780  1.0
  Ta  Ta516  1  0.37066924  0.14273071  0.34190780  1.0
  Ta  Ta517  1  0.37066924  0.47606404  0.34190780  1.0
  Ta  Ta518  1  0.37066924  0.80939738  0.34190780  1.0
  Ta  Ta519  1  0.70400258  0.14273071  0.34190780  1.0
  Ta  Ta520  1  0.70400258  0.47606404  0.34190780  1.0
  Ta  Ta521  1  0.70400258  0.80939738  0.34190780  1.0
  Ta  Ta522  1  0.07184964  0.09671240  0.37642153  1.0
  Ta  Ta523  1  0.07184964  0.43004573  0.37642153  1.0
  Ta  Ta524  1  0.07184964  0.76337907  0.37642153  1.0
  Ta  Ta525  1  0.40518298  0.09671240  0.37642153  1.0
  Ta  Ta526  1  0.40518298  0.43004573  0.37642153  1.0
  Ta  Ta527  1  0.40518298  0.76337907  0.37642153  1.0
  Ta  Ta528  1  0.73851631  0.09671240  0.37642153  1.0
  Ta  Ta529  1  0.73851631  0.43004573  0.37642153  1.0
  Ta  Ta530  1  0.73851631  0.76337907  0.37642153  1.0
  Ta  Ta531  1  0.30518298  0.23004573  0.27642153  1.0
  Ta  Ta532  1  0.30518298  0.56337907  0.27642153  1.0
  Ta  Ta533  1  0.30518298  0.89671240  0.27642153  1.0
  Ta  Ta534  1  0.63851631  0.23004573  0.27642153  1.0
  Ta  Ta535  1  0.63851631  0.56337907  0.27642153  1.0
  Ta  Ta536  1  0.63851631  0.89671240  0.27642153  1.0
  Ta  Ta537  1  0.97184964  0.23004573  0.27642153  1.0
  Ta  Ta538  1  0.97184964  0.56337907  0.27642153  1.0
  Ta  Ta539  1  0.97184964  0.89671240  0.27642153  1.0
  Ta  Ta540  1  0.15916467  0.05305489  0.24544900  1.0
  Ta  Ta541  1  0.15916467  0.38638822  0.24544900  1.0
  Ta  Ta542  1  0.15916467  0.71972155  0.24544900  1.0
  Ta  Ta543  1  0.49249800  0.05305489  0.24544900  1.0
  Ta  Ta544  1  0.49249800  0.38638822  0.24544900  1.0
  Ta  Ta545  1  0.49249800  0.71972155  0.24544900  1.0
  Ta  Ta546  1  0.82583133  0.05305489  0.24544900  1.0
  Ta  Ta547  1  0.82583133  0.38638822  0.24544900  1.0
  Ta  Ta548  1  0.82583133  0.71972155  0.24544900  1.0
  Ta  Ta549  1  0.25916467  0.25305489  0.34544900  1.0
  Ta  Ta550  1  0.25916467  0.58638822  0.34544900  1.0
  Ta  Ta551  1  0.25916467  0.91972155  0.34544900  1.0
  Ta  Ta552  1  0.59249800  0.25305489  0.34544900  1.0
  Ta  Ta553  1  0.59249800  0.58638822  0.34544900  1.0
  Ta  Ta554  1  0.59249800  0.91972155  0.34544900  1.0
  Ta  Ta555  1  0.92583133  0.25305489  0.34544900  1.0
  Ta  Ta556  1  0.92583133  0.58638822  0.34544900  1.0
  Ta  Ta557  1  0.92583133  0.91972155  0.34544900  1.0
  Ta  Ta558  1  0.00636338  0.29907320  0.31093527  1.0
  Ta  Ta559  1  0.00636338  0.63240653  0.31093527  1.0
  Ta  Ta560  1  0.00636338  0.96573987  0.31093527  1.0
  Ta  Ta561  1  0.33969671  0.29907320  0.31093527  1.0
  Ta  Ta562  1  0.33969671  0.63240653  0.31093527  1.0
  Ta  Ta563  1  0.33969671  0.96573987  0.31093527  1.0
  Ta  Ta564  1  0.67303004  0.29907320  0.31093527  1.0
  Ta  Ta565  1  0.67303004  0.63240653  0.31093527  1.0
  Ta  Ta566  1  0.67303004  0.96573987  0.31093527  1.0
  Ta  Ta567  1  0.23969671  0.09907320  0.21093527  1.0
  Ta  Ta568  1  0.23969671  0.43240653  0.21093527  1.0
  Ta  Ta569  1  0.23969671  0.76573987  0.21093527  1.0
  Ta  Ta570  1  0.57303004  0.09907320  0.21093527  1.0
  Ta  Ta571  1  0.57303004  0.43240653  0.21093527  1.0
  Ta  Ta572  1  0.57303004  0.76573987  0.21093527  1.0
  Ta  Ta573  1  0.90636338  0.09907320  0.21093527  1.0
  Ta  Ta574  1  0.90636338  0.43240653  0.21093527  1.0
  Ta  Ta575  1  0.90636338  0.76573987  0.21093527  1.0
  Ta  Ta576  1  0.18335422  0.15305489  0.29544900  1.0
  Ta  Ta577  1  0.18335422  0.48638822  0.29544900  1.0
  Ta  Ta578  1  0.18335422  0.81972156  0.29544900  1.0
  Ta  Ta579  1  0.51668756  0.15305489  0.29544900  1.0
  Ta  Ta580  1  0.51668756  0.48638822  0.29544900  1.0
  Ta  Ta581  1  0.51668756  0.81972156  0.29544900  1.0
  Ta  Ta582  1  0.85002089  0.15305489  0.29544900  1.0
  Ta  Ta583  1  0.85002089  0.48638822  0.29544900  1.0
  Ta  Ta584  1  0.85002089  0.81972156  0.29544900  1.0
  Ta  Ta585  1  0.28335422  0.01972156  0.39544900  1.0
  Ta  Ta586  1  0.28335422  0.35305489  0.39544900  1.0
  Ta  Ta587  1  0.28335422  0.68638822  0.39544900  1.0
  Ta  Ta588  1  0.61668756  0.01972156  0.39544900  1.0
  Ta  Ta589  1  0.61668756  0.35305489  0.39544900  1.0
  Ta  Ta590  1  0.61668756  0.68638822  0.39544900  1.0
  Ta  Ta591  1  0.95002089  0.01972156  0.39544900  1.0
  Ta  Ta592  1  0.95002089  0.35305489  0.39544900  1.0
  Ta  Ta593  1  0.95002089  0.68638822  0.39544900  1.0
  Ta  Ta594  1  0.24884049  0.06573987  0.36093527  1.0
  Ta  Ta595  1  0.24884049  0.39907320  0.36093527  1.0
  Ta  Ta596  1  0.24884049  0.73240653  0.36093527  1.0
  Ta  Ta597  1  0.58217382  0.06573987  0.36093527  1.0
  Ta  Ta598  1  0.58217382  0.39907320  0.36093527  1.0
  Ta  Ta599  1  0.58217382  0.73240653  0.36093527  1.0
  Ta  Ta600  1  0.91550716  0.06573987  0.36093527  1.0
  Ta  Ta601  1  0.91550716  0.39907320  0.36093527  1.0
  Ta  Ta602  1  0.91550716  0.73240653  0.36093527  1.0
  Ta  Ta603  1  0.14884049  0.19907320  0.26093527  1.0
  Ta  Ta604  1  0.14884049  0.53240653  0.26093527  1.0
  Ta  Ta605  1  0.14884049  0.86573987  0.26093527  1.0
  Ta  Ta606  1  0.48217382  0.19907320  0.26093527  1.0
  Ta  Ta607  1  0.48217382  0.53240653  0.26093527  1.0
  Ta  Ta608  1  0.48217382  0.86573987  0.26093527  1.0
  Ta  Ta609  1  0.81550716  0.19907320  0.26093527  1.0
  Ta  Ta610  1  0.81550716  0.53240653  0.26093527  1.0
  Ta  Ta611  1  0.81550716  0.86573987  0.26093527  1.0
  Ta  Ta612  1  0.29485880  0.04273071  0.29190780  1.0
  Ta  Ta613  1  0.29485880  0.37606405  0.29190780  1.0
  Ta  Ta614  1  0.29485880  0.70939738  0.29190780  1.0
  Ta  Ta615  1  0.62819213  0.04273071  0.29190780  1.0
  Ta  Ta616  1  0.62819213  0.37606405  0.29190780  1.0
  Ta  Ta617  1  0.62819213  0.70939738  0.29190780  1.0
  Ta  Ta618  1  0.96152547  0.04273071  0.29190780  1.0
  Ta  Ta619  1  0.96152547  0.37606405  0.29190780  1.0
  Ta  Ta620  1  0.96152547  0.70939738  0.29190780  1.0
  Ta  Ta621  1  0.06152547  0.24273071  0.39190780  1.0
  Ta  Ta622  1  0.06152547  0.57606405  0.39190780  1.0
  Ta  Ta623  1  0.06152547  0.90939738  0.39190780  1.0
  Ta  Ta624  1  0.39485880  0.24273071  0.39190780  1.0
  Ta  Ta625  1  0.39485880  0.57606405  0.39190780  1.0
  Ta  Ta626  1  0.39485880  0.90939738  0.39190780  1.0
  Ta  Ta627  1  0.72819213  0.24273071  0.39190780  1.0
  Ta  Ta628  1  0.72819213  0.57606405  0.39190780  1.0
  Ta  Ta629  1  0.72819213  0.90939738  0.39190780  1.0
  Ta  Ta630  1  0.11432676  0.13004573  0.22642153  1.0
  Ta  Ta631  1  0.11432676  0.46337907  0.22642153  1.0
  Ta  Ta632  1  0.11432676  0.79671240  0.22642153  1.0
  Ta  Ta633  1  0.44766009  0.13004573  0.22642153  1.0
  Ta  Ta634  1  0.44766009  0.46337907  0.22642153  1.0
  Ta  Ta635  1  0.44766009  0.79671240  0.22642153  1.0
  Ta  Ta636  1  0.78099342  0.13004573  0.22642153  1.0
  Ta  Ta637  1  0.78099342  0.46337907  0.22642153  1.0
  Ta  Ta638  1  0.78099342  0.79671240  0.22642153  1.0
  Ta  Ta639  1  0.21432676  0.33004573  0.32642153  1.0
  Ta  Ta640  1  0.21432676  0.66337907  0.32642153  1.0
  Ta  Ta641  1  0.21432676  0.99671240  0.32642153  1.0
  Ta  Ta642  1  0.54766009  0.33004573  0.32642153  1.0
  Ta  Ta643  1  0.54766009  0.66337907  0.32642153  1.0
  Ta  Ta644  1  0.54766009  0.99671240  0.32642153  1.0
  Ta  Ta645  1  0.88099342  0.33004573  0.32642153  1.0
  Ta  Ta646  1  0.88099342  0.66337907  0.32642153  1.0
  Ta  Ta647  1  0.88099342  0.99671240  0.32642153  1.0
  Ta  Ta648  1  0.03946400  0.08946400  0.26839200  1.0
  Ta  Ta649  1  0.03946400  0.42279733  0.26839200  1.0
  Ta  Ta650  1  0.03946400  0.75613067  0.26839200  1.0
  Ta  Ta651  1  0.37279733  0.08946400  0.26839200  1.0
  Ta  Ta652  1  0.37279733  0.42279733  0.26839200  1.0
  Ta  Ta653  1  0.37279733  0.75613067  0.26839200  1.0
  Ta  Ta654  1  0.70613067  0.08946400  0.26839200  1.0
  Ta  Ta655  1  0.70613067  0.42279733  0.26839200  1.0
  Ta  Ta656  1  0.70613067  0.75613067  0.26839200  1.0
  Ta  Ta657  1  0.13946400  0.28946400  0.36839200  1.0
  Ta  Ta658  1  0.13946400  0.62279733  0.36839200  1.0
  Ta  Ta659  1  0.13946400  0.95613067  0.36839200  1.0
  Ta  Ta660  1  0.47279733  0.28946400  0.36839200  1.0
  Ta  Ta661  1  0.47279733  0.62279733  0.36839200  1.0
  Ta  Ta662  1  0.47279733  0.95613067  0.36839200  1.0
  Ta  Ta663  1  0.80613067  0.28946400  0.36839200  1.0
  Ta  Ta664  1  0.80613067  0.62279733  0.36839200  1.0
  Ta  Ta665  1  0.80613067  0.95613067  0.36839200  1.0
  Ta  Ta666  1  0.21455947  0.10632160  0.31896480  1.0
  Ta  Ta667  1  0.21455947  0.43965493  0.31896480  1.0
  Ta  Ta668  1  0.21455947  0.77298827  0.31896480  1.0
  Ta  Ta669  1  0.54789280  0.10632160  0.31896480  1.0
  Ta  Ta670  1  0.54789280  0.43965493  0.31896480  1.0
  Ta  Ta671  1  0.54789280  0.77298827  0.31896480  1.0
  Ta  Ta672  1  0.88122613  0.10632160  0.31896480  1.0
  Ta  Ta673  1  0.88122613  0.43965493  0.31896480  1.0
  Ta  Ta674  1  0.88122613  0.77298827  0.31896480  1.0
  Ta  Ta675  1  0.11455947  0.23965493  0.21896480  1.0
  Ta  Ta676  1  0.11455947  0.57298827  0.21896480  1.0
  Ta  Ta677  1  0.11455947  0.90632160  0.21896480  1.0
  Ta  Ta678  1  0.44789280  0.23965493  0.21896480  1.0
  Ta  Ta679  1  0.44789280  0.57298827  0.21896480  1.0
  Ta  Ta680  1  0.44789280  0.90632160  0.21896480  1.0
  Ta  Ta681  1  0.78122613  0.23965493  0.21896480  1.0
  Ta  Ta682  1  0.78122613  0.57298827  0.21896480  1.0
  Ta  Ta683  1  0.78122613  0.90632160  0.21896480  1.0
  Ta  Ta684  1  0.28927307  0.13122613  0.39367840  1.0
  Ta  Ta685  1  0.28927307  0.46455947  0.39367840  1.0
  Ta  Ta686  1  0.28927307  0.79789280  0.39367840  1.0
  Ta  Ta687  1  0.62260640  0.13122613  0.39367840  1.0
  Ta  Ta688  1  0.62260640  0.46455947  0.39367840  1.0
  Ta  Ta689  1  0.62260640  0.79789280  0.39367840  1.0
  Ta  Ta690  1  0.95593973  0.13122613  0.39367840  1.0
  Ta  Ta691  1  0.95593973  0.46455947  0.39367840  1.0
  Ta  Ta692  1  0.95593973  0.79789280  0.39367840  1.0
  Ta  Ta693  1  0.18927307  0.26455947  0.29367840  1.0
  Ta  Ta694  1  0.18927307  0.59789280  0.29367840  1.0
  Ta  Ta695  1  0.18927307  0.93122613  0.29367840  1.0
  Ta  Ta696  1  0.52260640  0.26455947  0.29367840  1.0
  Ta  Ta697  1  0.52260640  0.59789280  0.29367840  1.0
  Ta  Ta698  1  0.52260640  0.93122613  0.29367840  1.0
  Ta  Ta699  1  0.85593973  0.26455947  0.29367840  1.0
  Ta  Ta700  1  0.85593973  0.59789280  0.29367840  1.0
  Ta  Ta701  1  0.85593973  0.93122613  0.29367840  1.0
  Ta  Ta702  1  0.16475040  0.13122613  0.39367840  1.0
  Ta  Ta703  1  0.16475040  0.46455947  0.39367840  1.0
  Ta  Ta704  1  0.16475040  0.79789280  0.39367840  1.0
  Ta  Ta705  1  0.49808373  0.13122613  0.39367840  1.0
  Ta  Ta706  1  0.49808373  0.46455947  0.39367840  1.0
  Ta  Ta707  1  0.49808373  0.79789280  0.39367840  1.0
  Ta  Ta708  1  0.83141707  0.13122613  0.39367840  1.0
  Ta  Ta709  1  0.83141707  0.46455947  0.39367840  1.0
  Ta  Ta710  1  0.83141707  0.79789280  0.39367840  1.0
  Ta  Ta711  1  0.06475040  0.26455947  0.29367840  1.0
  Ta  Ta712  1  0.06475040  0.59789280  0.29367840  1.0
  Ta  Ta713  1  0.06475040  0.93122613  0.29367840  1.0
  Ta  Ta714  1  0.39808373  0.26455947  0.29367840  1.0
  Ta  Ta715  1  0.39808373  0.59789280  0.29367840  1.0
  Ta  Ta716  1  0.39808373  0.93122613  0.29367840  1.0
  Ta  Ta717  1  0.73141707  0.26455947  0.29367840  1.0
  Ta  Ta718  1  0.73141707  0.59789280  0.29367840  1.0
  Ta  Ta719  1  0.73141707  0.93122613  0.29367840  1.0
  Ta  Ta720  1  0.25191627  0.18103520  0.35632160  1.0
  Ta  Ta721  1  0.25191627  0.51436853  0.35632160  1.0
  Ta  Ta722  1  0.25191627  0.84770187  0.35632160  1.0
  Ta  Ta723  1  0.58524960  0.18103520  0.35632160  1.0
  Ta  Ta724  1  0.58524960  0.51436853  0.35632160  1.0
  Ta  Ta725  1  0.58524960  0.84770187  0.35632160  1.0
  Ta  Ta726  1  0.91858293  0.18103520  0.35632160  1.0
  Ta  Ta727  1  0.91858293  0.51436853  0.35632160  1.0
  Ta  Ta728  1  0.91858293  0.84770187  0.35632160  1.0
  Ta  Ta729  1  0.15191627  0.31436853  0.25632160  1.0
  Ta  Ta730  1  0.15191627  0.64770187  0.25632160  1.0
  Ta  Ta731  1  0.15191627  0.98103520  0.25632160  1.0
  Ta  Ta732  1  0.48524960  0.31436853  0.25632160  1.0
  Ta  Ta733  1  0.48524960  0.64770187  0.25632160  1.0
  Ta  Ta734  1  0.48524960  0.98103520  0.25632160  1.0
  Ta  Ta735  1  0.81858293  0.31436853  0.25632160  1.0
  Ta  Ta736  1  0.81858293  0.64770187  0.25632160  1.0
  Ta  Ta737  1  0.81858293  0.98103520  0.25632160  1.0
  Ta  Ta738  1  0.00210720  0.01475040  0.23103520  1.0
  Ta  Ta739  1  0.00210720  0.34808373  0.23103520  1.0
  Ta  Ta740  1  0.00210720  0.68141707  0.23103520  1.0
  Ta  Ta741  1  0.33544053  0.01475040  0.23103520  1.0
  Ta  Ta742  1  0.33544053  0.34808373  0.23103520  1.0
  Ta  Ta743  1  0.33544053  0.68141707  0.23103520  1.0
  Ta  Ta744  1  0.66877387  0.01475040  0.23103520  1.0
  Ta  Ta745  1  0.66877387  0.34808373  0.23103520  1.0
  Ta  Ta746  1  0.66877387  0.68141707  0.23103520  1.0
  Ta  Ta747  1  0.10210720  0.21475040  0.33103520  1.0
  Ta  Ta748  1  0.10210720  0.54808373  0.33103520  1.0
  Ta  Ta749  1  0.10210720  0.88141707  0.33103520  1.0
  Ta  Ta750  1  0.43544053  0.21475040  0.33103520  1.0
  Ta  Ta751  1  0.43544053  0.54808373  0.33103520  1.0
  Ta  Ta752  1  0.43544053  0.88141707  0.33103520  1.0
  Ta  Ta753  1  0.76877387  0.21475040  0.33103520  1.0
  Ta  Ta754  1  0.76877387  0.54808373  0.33103520  1.0
  Ta  Ta755  1  0.76877387  0.88141707  0.33103520  1.0
  Ta  Ta756  1  0.08122613  0.00632160  0.26896480  1.0
  Ta  Ta757  1  0.08122613  0.33965493  0.26896480  1.0
  Ta  Ta758  1  0.08122613  0.67298827  0.26896480  1.0
  Ta  Ta759  1  0.41455947  0.00632160  0.26896480  1.0
  Ta  Ta760  1  0.41455947  0.33965493  0.26896480  1.0
  Ta  Ta761  1  0.41455947  0.67298827  0.26896480  1.0
  Ta  Ta762  1  0.74789280  0.00632160  0.26896480  1.0
  Ta  Ta763  1  0.74789280  0.33965493  0.26896480  1.0
  Ta  Ta764  1  0.74789280  0.67298827  0.26896480  1.0
  Ta  Ta765  1  0.18122613  0.20632160  0.36896480  1.0
  Ta  Ta766  1  0.18122613  0.53965493  0.36896480  1.0
  Ta  Ta767  1  0.18122613  0.87298827  0.36896480  1.0
  Ta  Ta768  1  0.51455947  0.20632160  0.36896480  1.0
  Ta  Ta769  1  0.51455947  0.53965493  0.36896480  1.0
  Ta  Ta770  1  0.51455947  0.87298827  0.36896480  1.0
  Ta  Ta771  1  0.84789280  0.20632160  0.36896480  1.0
  Ta  Ta772  1  0.84789280  0.53965493  0.36896480  1.0
  Ta  Ta773  1  0.84789280  0.87298827  0.36896480  1.0
  Ta  Ta774  1  0.23946400  0.32279733  0.21839200  1.0
  Ta  Ta775  1  0.23946400  0.65613067  0.21839200  1.0
  Ta  Ta776  1  0.23946400  0.98946400  0.21839200  1.0
  Ta  Ta777  1  0.57279733  0.32279733  0.21839200  1.0
  Ta  Ta778  1  0.57279733  0.65613067  0.21839200  1.0
  Ta  Ta779  1  0.57279733  0.98946400  0.21839200  1.0
  Ta  Ta780  1  0.90613067  0.32279733  0.21839200  1.0
  Ta  Ta781  1  0.90613067  0.65613067  0.21839200  1.0
  Ta  Ta782  1  0.90613067  0.98946400  0.21839200  1.0
  Ta  Ta783  1  0.00613067  0.18946400  0.31839200  1.0
  Ta  Ta784  1  0.00613067  0.52279733  0.31839200  1.0
  Ta  Ta785  1  0.00613067  0.85613067  0.31839200  1.0
  Ta  Ta786  1  0.33946400  0.18946400  0.31839200  1.0
  Ta  Ta787  1  0.33946400  0.52279733  0.31839200  1.0
  Ta  Ta788  1  0.33946400  0.85613067  0.31839200  1.0
  Ta  Ta789  1  0.67279733  0.18946400  0.31839200  1.0
  Ta  Ta790  1  0.67279733  0.52279733  0.31839200  1.0
  Ta  Ta791  1  0.67279733  0.85613067  0.31839200  1.0
  Ta  Ta792  1  0.03141707  0.03122613  0.34367840  1.0
  Ta  Ta793  1  0.03141707  0.36455947  0.34367840  1.0
  Ta  Ta794  1  0.03141707  0.69789280  0.34367840  1.0
  Ta  Ta795  1  0.36475040  0.03122613  0.34367840  1.0
  Ta  Ta796  1  0.36475040  0.36455947  0.34367840  1.0
  Ta  Ta797  1  0.36475040  0.69789280  0.34367840  1.0
  Ta  Ta798  1  0.69808373  0.03122613  0.34367840  1.0
  Ta  Ta799  1  0.69808373  0.36455947  0.34367840  1.0
  Ta  Ta800  1  0.69808373  0.69789280  0.34367840  1.0
  Ta  Ta801  1  0.26475040  0.16455947  0.24367840  1.0
  Ta  Ta802  1  0.26475040  0.49789280  0.24367840  1.0
  Ta  Ta803  1  0.26475040  0.83122613  0.24367840  1.0
  Ta  Ta804  1  0.59808373  0.16455947  0.24367840  1.0
  Ta  Ta805  1  0.59808373  0.49789280  0.24367840  1.0
  Ta  Ta806  1  0.59808373  0.83122613  0.24367840  1.0
  Ta  Ta807  1  0.93141707  0.16455947  0.24367840  1.0
  Ta  Ta808  1  0.93141707  0.49789280  0.24367840  1.0
  Ta  Ta809  1  0.93141707  0.83122613  0.24367840  1.0
  Ta  Ta810  1  0.15593973  0.03122613  0.34367840  1.0
  Ta  Ta811  1  0.15593973  0.36455947  0.34367840  1.0
  Ta  Ta812  1  0.15593973  0.69789280  0.34367840  1.0
  Ta  Ta813  1  0.48927307  0.03122613  0.34367840  1.0
  Ta  Ta814  1  0.48927307  0.36455947  0.34367840  1.0
  Ta  Ta815  1  0.48927307  0.69789280  0.34367840  1.0
  Ta  Ta816  1  0.82260640  0.03122613  0.34367840  1.0
  Ta  Ta817  1  0.82260640  0.36455947  0.34367840  1.0
  Ta  Ta818  1  0.82260640  0.69789280  0.34367840  1.0
  Ta  Ta819  1  0.05593973  0.16455947  0.24367840  1.0
  Ta  Ta820  1  0.05593973  0.49789280  0.24367840  1.0
  Ta  Ta821  1  0.05593973  0.83122613  0.24367840  1.0
  Ta  Ta822  1  0.38927307  0.16455947  0.24367840  1.0
  Ta  Ta823  1  0.38927307  0.49789280  0.24367840  1.0
  Ta  Ta824  1  0.38927307  0.83122613  0.24367840  1.0
  Ta  Ta825  1  0.72260640  0.16455947  0.24367840  1.0
  Ta  Ta826  1  0.72260640  0.49789280  0.24367840  1.0
  Ta  Ta827  1  0.72260640  0.83122613  0.24367840  1.0
  Ta  Ta828  1  0.06877387  0.31475040  0.38103520  1.0
  Ta  Ta829  1  0.06877387  0.64808373  0.38103520  1.0
  Ta  Ta830  1  0.06877387  0.98141707  0.38103520  1.0
  Ta  Ta831  1  0.40210720  0.31475040  0.38103520  1.0
  Ta  Ta832  1  0.40210720  0.64808373  0.38103520  1.0
  Ta  Ta833  1  0.40210720  0.98141707  0.38103520  1.0
  Ta  Ta834  1  0.73544053  0.31475040  0.38103520  1.0
  Ta  Ta835  1  0.73544053  0.64808373  0.38103520  1.0
  Ta  Ta836  1  0.73544053  0.98141707  0.38103520  1.0
  Ta  Ta837  1  0.30210720  0.11475040  0.28103520  1.0
  Ta  Ta838  1  0.30210720  0.44808373  0.28103520  1.0
  Ta  Ta839  1  0.30210720  0.78141707  0.28103520  1.0
  Ta  Ta840  1  0.63544053  0.11475040  0.28103520  1.0
  Ta  Ta841  1  0.63544053  0.44808373  0.28103520  1.0
  Ta  Ta842  1  0.63544053  0.78141707  0.28103520  1.0
  Ta  Ta843  1  0.96877387  0.11475040  0.28103520  1.0
  Ta  Ta844  1  0.96877387  0.44808373  0.28103520  1.0
  Ta  Ta845  1  0.96877387  0.78141707  0.28103520  1.0
  Ta  Ta846  1  0.11858293  0.08103520  0.30632160  1.0
  Ta  Ta847  1  0.11858293  0.41436853  0.30632160  1.0
  Ta  Ta848  1  0.11858293  0.74770187  0.30632160  1.0
  Ta  Ta849  1  0.45191627  0.08103520  0.30632160  1.0
  Ta  Ta850  1  0.45191627  0.41436853  0.30632160  1.0
  Ta  Ta851  1  0.45191627  0.74770187  0.30632160  1.0
  Ta  Ta852  1  0.78524960  0.08103520  0.30632160  1.0
  Ta  Ta853  1  0.78524960  0.41436853  0.30632160  1.0
  Ta  Ta854  1  0.78524960  0.74770187  0.30632160  1.0
  Ta  Ta855  1  0.01858293  0.21436853  0.20632160  1.0
  Ta  Ta856  1  0.01858293  0.54770187  0.20632160  1.0
  Ta  Ta857  1  0.01858293  0.88103520  0.20632160  1.0
  Ta  Ta858  1  0.35191627  0.21436853  0.20632160  1.0
  Ta  Ta859  1  0.35191627  0.54770187  0.20632160  1.0
  Ta  Ta860  1  0.35191627  0.88103520  0.20632160  1.0
  Ta  Ta861  1  0.68524960  0.21436853  0.20632160  1.0
  Ta  Ta862  1  0.68524960  0.54770187  0.20632160  1.0
  Ta  Ta863  1  0.68524960  0.88103520  0.20632160  1.0
