# generated using pymatgen
data_TaNi
_symmetry_space_group_name_H-M   'P 1'
_cell_length_a   14.66784704
_cell_length_b   55.85729370
_cell_length_c   33.34116714
_cell_angle_alpha   104.49987016
_cell_angle_beta   90.00000000
_cell_angle_gamma   90.00000000
_symmetry_Int_Tables_number   1
_chemical_formula_structural   TaNi
_chemical_formula_sum   'Ta468 Ni468'
_cell_volume   26446.54278198
_cell_formula_units_Z   468
loop_
 _symmetry_equiv_pos_site_id
 _symmetry_equiv_pos_as_xyz
  1  'x, y, z'
loop_
 _atom_site_type_symbol
 _atom_site_label
 _atom_site_symmetry_multiplicity
 _atom_site_fract_x
 _atom_site_fract_y
 _atom_site_fract_z
 _atom_site_occupancy
  Ni  Ni0  1  0.25007833  0.26089017  0.92091750  1.0
  Ni  Ni1  1  0.25007833  0.59422350  0.92091750  1.0
  Ni  Ni2  1  0.25007833  0.92755683  0.92091750  1.0
  Ni  Ni3  1  0.58341167  0.26089017  0.92091750  1.0
  Ni  Ni4  1  0.58341167  0.59422350  0.92091750  1.0
  Ni  Ni5  1  0.58341167  0.92755683  0.92091750  1.0
  Ni  Ni6  1  0.91674500  0.26089017  0.92091750  1.0
  Ni  Ni7  1  0.91674500  0.59422350  0.92091750  1.0
  Ni  Ni8  1  0.91674500  0.92755683  0.92091750  1.0
  Ni  Ni9  1  0.08341167  0.21922350  0.79591750  1.0
  Ni  Ni10  1  0.08341167  0.55255683  0.79591750  1.0
  Ni  Ni11  1  0.08341167  0.88589017  0.79591750  1.0
  Ni  Ni12  1  0.41674500  0.21922350  0.79591750  1.0
  Ni  Ni13  1  0.41674500  0.55255683  0.79591750  1.0
  Ni  Ni14  1  0.41674500  0.88589017  0.79591750  1.0
  Ni  Ni15  1  0.75007833  0.21922350  0.79591750  1.0
  Ni  Ni16  1  0.75007833  0.55255683  0.79591750  1.0
  Ni  Ni17  1  0.75007833  0.88589017  0.79591750  1.0
  Ni  Ni18  1  0.08480183  0.05176713  0.79680838  1.0
  Ni  Ni19  1  0.08480183  0.38510046  0.79680838  1.0
  Ni  Ni20  1  0.08480183  0.71843379  0.79680838  1.0
  Ni  Ni21  1  0.41813517  0.05176713  0.79680838  1.0
  Ni  Ni22  1  0.41813517  0.38510046  0.79680838  1.0
  Ni  Ni23  1  0.41813517  0.71843379  0.79680837  1.0
  Ni  Ni24  1  0.75146850  0.05176713  0.79680837  1.0
  Ni  Ni25  1  0.75146850  0.38510046  0.79680837  1.0
  Ni  Ni26  1  0.75146850  0.71843379  0.79680838  1.0
  Ni  Ni27  1  0.25146850  0.09343379  0.92180837  1.0
  Ni  Ni28  1  0.25146850  0.42676713  0.92180837  1.0
  Ni  Ni29  1  0.25146850  0.76010046  0.92180837  1.0
  Ni  Ni30  1  0.58480183  0.09343379  0.92180837  1.0
  Ni  Ni31  1  0.58480183  0.42676713  0.92180837  1.0
  Ni  Ni32  1  0.58480183  0.76010046  0.92180837  1.0
  Ni  Ni33  1  0.91813517  0.09343379  0.92180837  1.0
  Ni  Ni34  1  0.91813517  0.42676713  0.92180837  1.0
  Ni  Ni35  1  0.91813517  0.76010046  0.92180837  1.0
  Ni  Ni36  1  0.00000000  0.28170392  0.98335875  1.0
  Ni  Ni37  1  0.00000000  0.61503725  0.98335875  1.0
  Ni  Ni38  1  0.00000000  0.94837058  0.98335875  1.0
  Ni  Ni39  1  0.33333333  0.28170392  0.98335875  1.0
  Ni  Ni40  1  0.33333333  0.61503725  0.98335875  1.0
  Ni  Ni41  1  0.33333333  0.94837058  0.98335875  1.0
  Ni  Ni42  1  0.66666667  0.28170392  0.98335875  1.0
  Ni  Ni43  1  0.66666667  0.61503725  0.98335875  1.0
  Ni  Ni44  1  0.66666667  0.94837058  0.98335875  1.0
  Ni  Ni45  1  0.16666667  0.24003725  0.85835875  1.0
  Ni  Ni46  1  0.16666667  0.57337058  0.85835875  1.0
  Ni  Ni47  1  0.16666667  0.90670392  0.85835875  1.0
  Ni  Ni48  1  0.50000000  0.24003725  0.85835875  1.0
  Ni  Ni49  1  0.50000000  0.57337058  0.85835875  1.0
  Ni  Ni50  1  0.50000000  0.90670392  0.85835875  1.0
  Ni  Ni51  1  0.83333333  0.24003725  0.85835875  1.0
  Ni  Ni52  1  0.83333333  0.57337058  0.85835875  1.0
  Ni  Ni53  1  0.83333333  0.90670392  0.85835875  1.0
  Ni  Ni54  1  0.00000000  0.11390000  0.98320700  1.0
  Ni  Ni55  1  0.00000000  0.44723333  0.98320700  1.0
  Ni  Ni56  1  0.00000000  0.78056667  0.98320700  1.0
  Ni  Ni57  1  0.33333333  0.11390000  0.98320700  1.0
  Ni  Ni58  1  0.33333333  0.44723333  0.98320700  1.0
  Ni  Ni59  1  0.33333333  0.78056667  0.98320700  1.0
  Ni  Ni60  1  0.66666667  0.11390000  0.98320700  1.0
  Ni  Ni61  1  0.66666667  0.44723333  0.98320700  1.0
  Ni  Ni62  1  0.66666667  0.78056667  0.98320700  1.0
  Ni  Ni63  1  0.16666667  0.07223333  0.85820700  1.0
  Ni  Ni64  1  0.16666667  0.40556667  0.85820700  1.0
  Ni  Ni65  1  0.16666667  0.73890000  0.85820700  1.0
  Ni  Ni66  1  0.50000000  0.07223333  0.85820700  1.0
  Ni  Ni67  1  0.50000000  0.40556667  0.85820700  1.0
  Ni  Ni68  1  0.50000000  0.73890000  0.85820700  1.0
  Ni  Ni69  1  0.83333333  0.07223333  0.85820700  1.0
  Ni  Ni70  1  0.83333333  0.40556667  0.85820700  1.0
  Ni  Ni71  1  0.83333333  0.73890000  0.85820700  1.0
  Ni  Ni72  1  0.08325500  0.26089017  0.92091750  1.0
  Ni  Ni73  1  0.08325500  0.59422350  0.92091750  1.0
  Ni  Ni74  1  0.08325500  0.92755683  0.92091750  1.0
  Ni  Ni75  1  0.41658833  0.26089017  0.92091750  1.0
  Ni  Ni76  1  0.41658833  0.59422350  0.92091750  1.0
  Ni  Ni77  1  0.41658833  0.92755683  0.92091750  1.0
  Ni  Ni78  1  0.74992167  0.26089017  0.92091750  1.0
  Ni  Ni79  1  0.74992167  0.59422350  0.92091750  1.0
  Ni  Ni80  1  0.74992167  0.92755683  0.92091750  1.0
  Ni  Ni81  1  0.24992167  0.21922350  0.79591750  1.0
  Ni  Ni82  1  0.24992167  0.55255683  0.79591750  1.0
  Ni  Ni83  1  0.24992167  0.88589017  0.79591750  1.0
  Ni  Ni84  1  0.58325500  0.21922350  0.79591750  1.0
  Ni  Ni85  1  0.58325500  0.55255683  0.79591750  1.0
  Ni  Ni86  1  0.58325500  0.88589017  0.79591750  1.0
  Ni  Ni87  1  0.91658833  0.21922350  0.79591750  1.0
  Ni  Ni88  1  0.91658833  0.55255683  0.79591750  1.0
  Ni  Ni89  1  0.91658833  0.88589017  0.79591750  1.0
  Ni  Ni90  1  0.24853150  0.05176713  0.79680838  1.0
  Ni  Ni91  1  0.24853150  0.38510046  0.79680838  1.0
  Ni  Ni92  1  0.24853150  0.71843379  0.79680837  1.0
  Ni  Ni93  1  0.58186483  0.05176713  0.79680838  1.0
  Ni  Ni94  1  0.58186483  0.38510046  0.79680837  1.0
  Ni  Ni95  1  0.58186483  0.71843379  0.79680838  1.0
  Ni  Ni96  1  0.91519817  0.05176713  0.79680838  1.0
  Ni  Ni97  1  0.91519817  0.38510046  0.79680838  1.0
  Ni  Ni98  1  0.91519817  0.71843379  0.79680838  1.0
  Ni  Ni99  1  0.08186483  0.09343379  0.92180837  1.0
  Ni  Ni100  1  0.08186483  0.42676713  0.92180837  1.0
  Ni  Ni101  1  0.08186483  0.76010046  0.92180837  1.0
  Ni  Ni102  1  0.41519817  0.09343379  0.92180837  1.0
  Ni  Ni103  1  0.41519817  0.42676713  0.92180837  1.0
  Ni  Ni104  1  0.41519817  0.76010046  0.92180837  1.0
  Ni  Ni105  1  0.74853150  0.09343379  0.92180837  1.0
  Ni  Ni106  1  0.74853150  0.42676713  0.92180837  1.0
  Ni  Ni107  1  0.74853150  0.76010046  0.92180837  1.0
  Ni  Ni108  1  0.24853150  0.18609237  0.96533212  1.0
  Ni  Ni109  1  0.24853150  0.51942571  0.96533212  1.0
  Ni  Ni110  1  0.24853150  0.85275904  0.96533212  1.0
  Ni  Ni111  1  0.58186483  0.18609237  0.96533212  1.0
  Ni  Ni112  1  0.58186483  0.51942571  0.96533212  1.0
  Ni  Ni113  1  0.58186483  0.85275904  0.96533212  1.0
  Ni  Ni114  1  0.91519817  0.18609237  0.96533212  1.0
  Ni  Ni115  1  0.91519817  0.51942571  0.96533212  1.0
  Ni  Ni116  1  0.91519817  0.85275904  0.96533212  1.0
  Ni  Ni117  1  0.08186483  0.14442571  0.84033212  1.0
  Ni  Ni118  1  0.08186483  0.47775904  0.84033212  1.0
  Ni  Ni119  1  0.08186483  0.81109237  0.84033212  1.0
  Ni  Ni120  1  0.41519817  0.14442571  0.84033212  1.0
  Ni  Ni121  1  0.41519817  0.47775904  0.84033212  1.0
  Ni  Ni122  1  0.41519817  0.81109237  0.84033212  1.0
  Ni  Ni123  1  0.74853150  0.14442571  0.84033212  1.0
  Ni  Ni124  1  0.74853150  0.47775904  0.84033212  1.0
  Ni  Ni125  1  0.74853150  0.81109237  0.84033212  1.0
  Ni  Ni126  1  0.08325500  0.31030267  0.84122300  1.0
  Ni  Ni127  1  0.08325500  0.64363600  0.84122300  1.0
  Ni  Ni128  1  0.08325500  0.97696933  0.84122300  1.0
  Ni  Ni129  1  0.41658833  0.31030267  0.84122300  1.0
  Ni  Ni130  1  0.41658833  0.64363600  0.84122300  1.0
  Ni  Ni131  1  0.41658833  0.97696933  0.84122300  1.0
  Ni  Ni132  1  0.74992167  0.31030267  0.84122300  1.0
  Ni  Ni133  1  0.74992167  0.64363600  0.84122300  1.0
  Ni  Ni134  1  0.74992167  0.97696933  0.84122300  1.0
  Ni  Ni135  1  0.24992167  0.01863600  0.96622300  1.0
  Ni  Ni136  1  0.24992167  0.35196933  0.96622300  1.0
  Ni  Ni137  1  0.24992167  0.68530267  0.96622300  1.0
  Ni  Ni138  1  0.58325500  0.01863600  0.96622300  1.0
  Ni  Ni139  1  0.58325500  0.35196933  0.96622300  1.0
  Ni  Ni140  1  0.58325500  0.68530267  0.96622300  1.0
  Ni  Ni141  1  0.91658833  0.01863600  0.96622300  1.0
  Ni  Ni142  1  0.91658833  0.35196933  0.96622300  1.0
  Ni  Ni143  1  0.91658833  0.68530267  0.96622300  1.0
  Ni  Ni144  1  0.00000000  0.12395950  0.77893350  1.0
  Ni  Ni145  1  0.00000000  0.45729283  0.77893350  1.0
  Ni  Ni146  1  0.00000000  0.79062617  0.77893350  1.0
  Ni  Ni147  1  0.33333333  0.12395950  0.77893350  1.0
  Ni  Ni148  1  0.33333333  0.45729283  0.77893350  1.0
  Ni  Ni149  1  0.33333333  0.79062617  0.77893350  1.0
  Ni  Ni150  1  0.66666667  0.12395950  0.77893350  1.0
  Ni  Ni151  1  0.66666667  0.45729283  0.77893350  1.0
  Ni  Ni152  1  0.66666667  0.79062617  0.77893350  1.0
  Ni  Ni153  1  0.16666667  0.16562617  0.90393350  1.0
  Ni  Ni154  1  0.16666667  0.49895950  0.90393350  1.0
  Ni  Ni155  1  0.16666667  0.83229283  0.90393350  1.0
  Ni  Ni156  1  0.50000000  0.16562617  0.90393350  1.0
  Ni  Ni157  1  0.50000000  0.49895950  0.90393350  1.0
  Ni  Ni158  1  0.50000000  0.83229283  0.90393350  1.0
  Ni  Ni159  1  0.83333333  0.16562617  0.90393350  1.0
  Ni  Ni160  1  0.83333333  0.49895950  0.90393350  1.0
  Ni  Ni161  1  0.83333333  0.83229283  0.90393350  1.0
  Ni  Ni162  1  0.00000000  0.28948892  0.77878175  1.0
  Ni  Ni163  1  0.00000000  0.62282225  0.77878175  1.0
  Ni  Ni164  1  0.00000000  0.95615558  0.77878175  1.0
  Ni  Ni165  1  0.33333333  0.28948892  0.77878175  1.0
  Ni  Ni166  1  0.33333333  0.62282225  0.77878175  1.0
  Ni  Ni167  1  0.33333333  0.95615558  0.77878175  1.0
  Ni  Ni168  1  0.66666667  0.28948892  0.77878175  1.0
  Ni  Ni169  1  0.66666667  0.62282225  0.77878175  1.0
  Ni  Ni170  1  0.66666667  0.95615558  0.77878175  1.0
  Ni  Ni171  1  0.16666667  0.33115558  0.90378175  1.0
  Ni  Ni172  1  0.16666667  0.66448892  0.90378175  1.0
  Ni  Ni173  1  0.16666667  0.99782225  0.90378175  1.0
  Ni  Ni174  1  0.50000000  0.33115558  0.90378175  1.0
  Ni  Ni175  1  0.50000000  0.66448892  0.90378175  1.0
  Ni  Ni176  1  0.50000000  0.99782225  0.90378175  1.0
  Ni  Ni177  1  0.83333333  0.33115558  0.90378175  1.0
  Ni  Ni178  1  0.83333333  0.66448892  0.90378175  1.0
  Ni  Ni179  1  0.83333333  0.99782225  0.90378175  1.0
  Ni  Ni180  1  0.08480183  0.18609238  0.96533213  1.0
  Ni  Ni181  1  0.08480183  0.51942571  0.96533213  1.0
  Ni  Ni182  1  0.08480183  0.85275904  0.96533213  1.0
  Ni  Ni183  1  0.41813517  0.18609238  0.96533213  1.0
  Ni  Ni184  1  0.41813517  0.51942571  0.96533213  1.0
  Ni  Ni185  1  0.41813517  0.85275904  0.96533212  1.0
  Ni  Ni186  1  0.75146850  0.18609238  0.96533212  1.0
  Ni  Ni187  1  0.75146850  0.51942571  0.96533212  1.0
  Ni  Ni188  1  0.75146850  0.85275904  0.96533212  1.0
  Ni  Ni189  1  0.25146850  0.14442571  0.84033212  1.0
  Ni  Ni190  1  0.25146850  0.47775904  0.84033212  1.0
  Ni  Ni191  1  0.25146850  0.81109237  0.84033212  1.0
  Ni  Ni192  1  0.58480183  0.14442571  0.84033212  1.0
  Ni  Ni193  1  0.58480183  0.47775904  0.84033212  1.0
  Ni  Ni194  1  0.58480183  0.81109237  0.84033212  1.0
  Ni  Ni195  1  0.91813517  0.14442571  0.84033212  1.0
  Ni  Ni196  1  0.91813517  0.47775904  0.84033212  1.0
  Ni  Ni197  1  0.91813517  0.81109237  0.84033212  1.0
  Ni  Ni198  1  0.25007833  0.31030267  0.84122300  1.0
  Ni  Ni199  1  0.25007833  0.64363600  0.84122300  1.0
  Ni  Ni200  1  0.25007833  0.97696933  0.84122300  1.0
  Ni  Ni201  1  0.58341167  0.31030267  0.84122300  1.0
  Ni  Ni202  1  0.58341167  0.64363600  0.84122300  1.0
  Ni  Ni203  1  0.58341167  0.97696933  0.84122300  1.0
  Ni  Ni204  1  0.91674500  0.31030267  0.84122300  1.0
  Ni  Ni205  1  0.91674500  0.64363600  0.84122300  1.0
  Ni  Ni206  1  0.91674500  0.97696933  0.84122300  1.0
  Ni  Ni207  1  0.08341167  0.01863600  0.96622300  1.0
  Ni  Ni208  1  0.08341167  0.35196933  0.96622300  1.0
  Ni  Ni209  1  0.08341167  0.68530267  0.96622300  1.0
  Ni  Ni210  1  0.41674500  0.01863600  0.96622300  1.0
  Ni  Ni211  1  0.41674500  0.35196933  0.96622300  1.0
  Ni  Ni212  1  0.41674500  0.68530267  0.96622300  1.0
  Ni  Ni213  1  0.75007833  0.01863600  0.96622300  1.0
  Ni  Ni214  1  0.75007833  0.35196933  0.96622300  1.0
  Ni  Ni215  1  0.75007833  0.68530267  0.96622300  1.0
  Ni  Ni216  1  0.00000000  0.24392975  0.75607025  1.0
  Ni  Ni217  1  0.00000000  0.57726308  0.75607025  1.0
  Ni  Ni218  1  0.00000000  0.91059642  0.75607025  1.0
  Ni  Ni219  1  0.33333333  0.24392975  0.75607025  1.0
  Ni  Ni220  1  0.33333333  0.57726308  0.75607025  1.0
  Ni  Ni221  1  0.33333333  0.91059642  0.75607025  1.0
  Ni  Ni222  1  0.66666667  0.24392975  0.75607025  1.0
  Ni  Ni223  1  0.66666667  0.57726308  0.75607025  1.0
  Ni  Ni224  1  0.66666667  0.91059642  0.75607025  1.0
  Ni  Ni225  1  0.16666667  0.28559642  0.88107025  1.0
  Ni  Ni226  1  0.16666667  0.61892975  0.88107025  1.0
  Ni  Ni227  1  0.16666667  0.95226308  0.88107025  1.0
  Ni  Ni228  1  0.50000000  0.28559642  0.88107025  1.0
  Ni  Ni229  1  0.50000000  0.61892975  0.88107025  1.0
  Ni  Ni230  1  0.50000000  0.95226308  0.88107025  1.0
  Ni  Ni231  1  0.83333333  0.28559642  0.88107025  1.0
  Ni  Ni232  1  0.83333333  0.61892975  0.88107025  1.0
  Ni  Ni233  1  0.83333333  0.95226308  0.88107025  1.0
  Ni  Ni234  1  0.25007833  0.17755683  0.67091750  1.0
  Ni  Ni235  1  0.25007833  0.51089017  0.67091750  1.0
  Ni  Ni236  1  0.25007833  0.84422350  0.67091750  1.0
  Ni  Ni237  1  0.58341167  0.17755683  0.67091750  1.0
  Ni  Ni238  1  0.58341167  0.51089017  0.67091750  1.0
  Ni  Ni239  1  0.58341167  0.84422350  0.67091750  1.0
  Ni  Ni240  1  0.91674500  0.17755683  0.67091750  1.0
  Ni  Ni241  1  0.91674500  0.51089017  0.67091750  1.0
  Ni  Ni242  1  0.91674500  0.84422350  0.67091750  1.0
  Ni  Ni243  1  0.08341167  0.13589017  0.54591750  1.0
  Ni  Ni244  1  0.08341167  0.46922350  0.54591750  1.0
  Ni  Ni245  1  0.08341167  0.80255683  0.54591750  1.0
  Ni  Ni246  1  0.41674500  0.13589017  0.54591750  1.0
  Ni  Ni247  1  0.41674500  0.46922350  0.54591750  1.0
  Ni  Ni248  1  0.41674500  0.80255683  0.54591750  1.0
  Ni  Ni249  1  0.75007833  0.13589017  0.54591750  1.0
  Ni  Ni250  1  0.75007833  0.46922350  0.54591750  1.0
  Ni  Ni251  1  0.75007833  0.80255683  0.54591750  1.0
  Ni  Ni252  1  0.08480183  0.30176712  0.54680837  1.0
  Ni  Ni253  1  0.08480183  0.63510046  0.54680837  1.0
  Ni  Ni254  1  0.08480183  0.96843379  0.54680837  1.0
  Ni  Ni255  1  0.41813517  0.30176712  0.54680837  1.0
  Ni  Ni256  1  0.41813517  0.63510046  0.54680837  1.0
  Ni  Ni257  1  0.41813517  0.96843379  0.54680837  1.0
  Ni  Ni258  1  0.75146850  0.30176712  0.54680837  1.0
  Ni  Ni259  1  0.75146850  0.63510046  0.54680837  1.0
  Ni  Ni260  1  0.75146850  0.96843379  0.54680837  1.0
  Ni  Ni261  1  0.25146850  0.01010046  0.67180837  1.0
  Ni  Ni262  1  0.25146850  0.34343379  0.67180837  1.0
  Ni  Ni263  1  0.25146850  0.67676712  0.67180837  1.0
  Ni  Ni264  1  0.58480183  0.01010046  0.67180838  1.0
  Ni  Ni265  1  0.58480183  0.34343379  0.67180837  1.0
  Ni  Ni266  1  0.58480183  0.67676712  0.67180837  1.0
  Ni  Ni267  1  0.91813517  0.01010046  0.67180837  1.0
  Ni  Ni268  1  0.91813517  0.34343379  0.67180837  1.0
  Ni  Ni269  1  0.91813517  0.67676712  0.67180837  1.0
  Ni  Ni270  1  0.00000000  0.19837058  0.73335875  1.0
  Ni  Ni271  1  0.00000000  0.53170392  0.73335875  1.0
  Ni  Ni272  1  0.00000000  0.86503725  0.73335875  1.0
  Ni  Ni273  1  0.33333333  0.19837058  0.73335875  1.0
  Ni  Ni274  1  0.33333333  0.53170392  0.73335875  1.0
  Ni  Ni275  1  0.33333333  0.86503725  0.73335875  1.0
  Ni  Ni276  1  0.66666667  0.19837058  0.73335875  1.0
  Ni  Ni277  1  0.66666667  0.53170392  0.73335875  1.0
  Ni  Ni278  1  0.66666667  0.86503725  0.73335875  1.0
  Ni  Ni279  1  0.16666667  0.15670392  0.60835875  1.0
  Ni  Ni280  1  0.16666667  0.49003725  0.60835875  1.0
  Ni  Ni281  1  0.16666667  0.82337058  0.60835875  1.0
  Ni  Ni282  1  0.50000000  0.15670392  0.60835875  1.0
  Ni  Ni283  1  0.50000000  0.49003725  0.60835875  1.0
  Ni  Ni284  1  0.50000000  0.82337058  0.60835875  1.0
  Ni  Ni285  1  0.83333333  0.15670392  0.60835875  1.0
  Ni  Ni286  1  0.83333333  0.49003725  0.60835875  1.0
  Ni  Ni287  1  0.83333333  0.82337058  0.60835875  1.0
  Ni  Ni288  1  0.00000000  0.03056667  0.73320700  1.0
  Ni  Ni289  1  0.00000000  0.36390000  0.73320700  1.0
  Ni  Ni290  1  0.00000000  0.69723333  0.73320700  1.0
  Ni  Ni291  1  0.33333333  0.03056667  0.73320700  1.0
  Ni  Ni292  1  0.33333333  0.36390000  0.73320700  1.0
  Ni  Ni293  1  0.33333333  0.69723333  0.73320700  1.0
  Ni  Ni294  1  0.66666667  0.03056667  0.73320700  1.0
  Ni  Ni295  1  0.66666667  0.36390000  0.73320700  1.0
  Ni  Ni296  1  0.66666667  0.69723333  0.73320700  1.0
  Ni  Ni297  1  0.16666667  0.32223333  0.60820700  1.0
  Ni  Ni298  1  0.16666667  0.65556667  0.60820700  1.0
  Ni  Ni299  1  0.16666667  0.98890000  0.60820700  1.0
  Ni  Ni300  1  0.50000000  0.32223333  0.60820700  1.0
  Ni  Ni301  1  0.50000000  0.65556667  0.60820700  1.0
  Ni  Ni302  1  0.50000000  0.98890000  0.60820700  1.0
  Ni  Ni303  1  0.83333333  0.32223333  0.60820700  1.0
  Ni  Ni304  1  0.83333333  0.65556667  0.60820700  1.0
  Ni  Ni305  1  0.83333333  0.98890000  0.60820700  1.0
  Ni  Ni306  1  0.08325500  0.17755683  0.67091750  1.0
  Ni  Ni307  1  0.08325500  0.51089017  0.67091750  1.0
  Ni  Ni308  1  0.08325500  0.84422350  0.67091750  1.0
  Ni  Ni309  1  0.41658833  0.17755683  0.67091750  1.0
  Ni  Ni310  1  0.41658833  0.51089017  0.67091750  1.0
  Ni  Ni311  1  0.41658833  0.84422350  0.67091750  1.0
  Ni  Ni312  1  0.74992167  0.17755683  0.67091750  1.0
  Ni  Ni313  1  0.74992167  0.51089017  0.67091750  1.0
  Ni  Ni314  1  0.74992167  0.84422350  0.67091750  1.0
  Ni  Ni315  1  0.24992167  0.13589017  0.54591750  1.0
  Ni  Ni316  1  0.24992167  0.46922350  0.54591750  1.0
  Ni  Ni317  1  0.24992167  0.80255683  0.54591750  1.0
  Ni  Ni318  1  0.58325500  0.13589017  0.54591750  1.0
  Ni  Ni319  1  0.58325500  0.46922350  0.54591750  1.0
  Ni  Ni320  1  0.58325500  0.80255683  0.54591750  1.0
  Ni  Ni321  1  0.91658833  0.13589017  0.54591750  1.0
  Ni  Ni322  1  0.91658833  0.46922350  0.54591750  1.0
  Ni  Ni323  1  0.91658833  0.80255683  0.54591750  1.0
  Ni  Ni324  1  0.24853150  0.30176712  0.54680838  1.0
  Ni  Ni325  1  0.24853150  0.63510046  0.54680838  1.0
  Ni  Ni326  1  0.24853150  0.96843379  0.54680838  1.0
  Ni  Ni327  1  0.58186483  0.30176712  0.54680837  1.0
  Ni  Ni328  1  0.58186483  0.63510046  0.54680838  1.0
  Ni  Ni329  1  0.58186483  0.96843379  0.54680838  1.0
  Ni  Ni330  1  0.91519817  0.30176712  0.54680838  1.0
  Ni  Ni331  1  0.91519817  0.63510046  0.54680837  1.0
  Ni  Ni332  1  0.91519817  0.96843379  0.54680838  1.0
  Ni  Ni333  1  0.08186483  0.01010046  0.67180838  1.0
  Ni  Ni334  1  0.08186483  0.34343379  0.67180837  1.0
  Ni  Ni335  1  0.08186483  0.67676712  0.67180837  1.0
  Ni  Ni336  1  0.41519817  0.01010046  0.67180838  1.0
  Ni  Ni337  1  0.41519817  0.34343379  0.67180838  1.0
  Ni  Ni338  1  0.41519817  0.67676712  0.67180837  1.0
  Ni  Ni339  1  0.74853150  0.01010046  0.67180837  1.0
  Ni  Ni340  1  0.74853150  0.34343379  0.67180837  1.0
  Ni  Ni341  1  0.74853150  0.67676712  0.67180837  1.0
  Ni  Ni342  1  0.24853150  0.10275904  0.71533212  1.0
  Ni  Ni343  1  0.24853150  0.43609238  0.71533212  1.0
  Ni  Ni344  1  0.24853150  0.76942571  0.71533212  1.0
  Ni  Ni345  1  0.58186483  0.10275904  0.71533213  1.0
  Ni  Ni346  1  0.58186483  0.43609238  0.71533212  1.0
  Ni  Ni347  1  0.58186483  0.76942571  0.71533212  1.0
  Ni  Ni348  1  0.91519817  0.10275904  0.71533212  1.0
  Ni  Ni349  1  0.91519817  0.43609238  0.71533212  1.0
  Ni  Ni350  1  0.91519817  0.76942571  0.71533212  1.0
  Ni  Ni351  1  0.08186483  0.06109238  0.59033212  1.0
  Ni  Ni352  1  0.08186483  0.39442571  0.59033212  1.0
  Ni  Ni353  1  0.08186483  0.72775904  0.59033212  1.0
  Ni  Ni354  1  0.41519817  0.06109238  0.59033212  1.0
  Ni  Ni355  1  0.41519817  0.39442571  0.59033212  1.0
  Ni  Ni356  1  0.41519817  0.72775904  0.59033212  1.0
  Ni  Ni357  1  0.74853150  0.06109238  0.59033212  1.0
  Ni  Ni358  1  0.74853150  0.39442571  0.59033212  1.0
  Ni  Ni359  1  0.74853150  0.72775904  0.59033212  1.0
  Ni  Ni360  1  0.08325500  0.22696933  0.59122300  1.0
  Ni  Ni361  1  0.08325500  0.56030267  0.59122300  1.0
  Ni  Ni362  1  0.08325500  0.89363600  0.59122300  1.0
  Ni  Ni363  1  0.41658833  0.22696933  0.59122300  1.0
  Ni  Ni364  1  0.41658833  0.56030267  0.59122300  1.0
  Ni  Ni365  1  0.41658833  0.89363600  0.59122300  1.0
  Ni  Ni366  1  0.74992167  0.22696933  0.59122300  1.0
  Ni  Ni367  1  0.74992167  0.56030267  0.59122300  1.0
  Ni  Ni368  1  0.74992167  0.89363600  0.59122300  1.0
  Ni  Ni369  1  0.24992167  0.26863600  0.71622300  1.0
  Ni  Ni370  1  0.24992167  0.60196933  0.71622300  1.0
  Ni  Ni371  1  0.24992167  0.93530267  0.71622300  1.0
  Ni  Ni372  1  0.58325500  0.26863600  0.71622300  1.0
  Ni  Ni373  1  0.58325500  0.60196933  0.71622300  1.0
  Ni  Ni374  1  0.58325500  0.93530267  0.71622300  1.0
  Ni  Ni375  1  0.91658833  0.26863600  0.71622300  1.0
  Ni  Ni376  1  0.91658833  0.60196933  0.71622300  1.0
  Ni  Ni377  1  0.91658833  0.93530267  0.71622300  1.0
  Ni  Ni378  1  0.00000000  0.04062617  0.52893350  1.0
  Ni  Ni379  1  0.00000000  0.37395950  0.52893350  1.0
  Ni  Ni380  1  0.00000000  0.70729283  0.52893350  1.0
  Ni  Ni381  1  0.33333333  0.04062617  0.52893350  1.0
  Ni  Ni382  1  0.33333333  0.37395950  0.52893350  1.0
  Ni  Ni383  1  0.33333333  0.70729283  0.52893350  1.0
  Ni  Ni384  1  0.66666667  0.04062617  0.52893350  1.0
  Ni  Ni385  1  0.66666667  0.37395950  0.52893350  1.0
  Ni  Ni386  1  0.66666667  0.70729283  0.52893350  1.0
  Ni  Ni387  1  0.16666667  0.08229283  0.65393350  1.0
  Ni  Ni388  1  0.16666667  0.41562617  0.65393350  1.0
  Ni  Ni389  1  0.16666667  0.74895950  0.65393350  1.0
  Ni  Ni390  1  0.50000000  0.08229283  0.65393350  1.0
  Ni  Ni391  1  0.50000000  0.41562617  0.65393350  1.0
  Ni  Ni392  1  0.50000000  0.74895950  0.65393350  1.0
  Ni  Ni393  1  0.83333333  0.08229283  0.65393350  1.0
  Ni  Ni394  1  0.83333333  0.41562617  0.65393350  1.0
  Ni  Ni395  1  0.83333333  0.74895950  0.65393350  1.0
  Ni  Ni396  1  0.00000000  0.20615558  0.52878175  1.0
  Ni  Ni397  1  0.00000000  0.53948892  0.52878175  1.0
  Ni  Ni398  1  0.00000000  0.87282225  0.52878175  1.0
  Ni  Ni399  1  0.33333333  0.20615558  0.52878175  1.0
  Ni  Ni400  1  0.33333333  0.53948892  0.52878175  1.0
  Ni  Ni401  1  0.33333333  0.87282225  0.52878175  1.0
  Ni  Ni402  1  0.66666667  0.20615558  0.52878175  1.0
  Ni  Ni403  1  0.66666667  0.53948892  0.52878175  1.0
  Ni  Ni404  1  0.66666667  0.87282225  0.52878175  1.0
  Ni  Ni405  1  0.16666667  0.24782225  0.65378175  1.0
  Ni  Ni406  1  0.16666667  0.58115558  0.65378175  1.0
  Ni  Ni407  1  0.16666667  0.91448892  0.65378175  1.0
  Ni  Ni408  1  0.50000000  0.24782225  0.65378175  1.0
  Ni  Ni409  1  0.50000000  0.58115558  0.65378175  1.0
  Ni  Ni410  1  0.50000000  0.91448892  0.65378175  1.0
  Ni  Ni411  1  0.83333333  0.24782225  0.65378175  1.0
  Ni  Ni412  1  0.83333333  0.58115558  0.65378175  1.0
  Ni  Ni413  1  0.83333333  0.91448892  0.65378175  1.0
  Ni  Ni414  1  0.08480183  0.10275904  0.71533213  1.0
  Ni  Ni415  1  0.08480183  0.43609238  0.71533212  1.0
  Ni  Ni416  1  0.08480183  0.76942571  0.71533212  1.0
  Ni  Ni417  1  0.41813517  0.10275904  0.71533213  1.0
  Ni  Ni418  1  0.41813517  0.43609238  0.71533213  1.0
  Ni  Ni419  1  0.41813517  0.76942571  0.71533212  1.0
  Ni  Ni420  1  0.75146850  0.10275904  0.71533212  1.0
  Ni  Ni421  1  0.75146850  0.43609238  0.71533212  1.0
  Ni  Ni422  1  0.75146850  0.76942571  0.71533212  1.0
  Ni  Ni423  1  0.25146850  0.06109238  0.59033212  1.0
  Ni  Ni424  1  0.25146850  0.39442571  0.59033213  1.0
  Ni  Ni425  1  0.25146850  0.72775904  0.59033212  1.0
  Ni  Ni426  1  0.58480183  0.06109238  0.59033212  1.0
  Ni  Ni427  1  0.58480183  0.39442571  0.59033212  1.0
  Ni  Ni428  1  0.58480183  0.72775904  0.59033212  1.0
  Ni  Ni429  1  0.91813517  0.06109238  0.59033212  1.0
  Ni  Ni430  1  0.91813517  0.39442571  0.59033212  1.0
  Ni  Ni431  1  0.91813517  0.72775904  0.59033212  1.0
  Ni  Ni432  1  0.25007833  0.22696933  0.59122300  1.0
  Ni  Ni433  1  0.25007833  0.56030267  0.59122300  1.0
  Ni  Ni434  1  0.25007833  0.89363600  0.59122300  1.0
  Ni  Ni435  1  0.58341167  0.22696933  0.59122300  1.0
  Ni  Ni436  1  0.58341167  0.56030267  0.59122300  1.0
  Ni  Ni437  1  0.58341167  0.89363600  0.59122300  1.0
  Ni  Ni438  1  0.91674500  0.22696933  0.59122300  1.0
  Ni  Ni439  1  0.91674500  0.56030267  0.59122300  1.0
  Ni  Ni440  1  0.91674500  0.89363600  0.59122300  1.0
  Ni  Ni441  1  0.08341167  0.26863600  0.71622300  1.0
  Ni  Ni442  1  0.08341167  0.60196933  0.71622300  1.0
  Ni  Ni443  1  0.08341167  0.93530267  0.71622300  1.0
  Ni  Ni444  1  0.41674500  0.26863600  0.71622300  1.0
  Ni  Ni445  1  0.41674500  0.60196933  0.71622300  1.0
  Ni  Ni446  1  0.41674500  0.93530267  0.71622300  1.0
  Ni  Ni447  1  0.75007833  0.26863600  0.71622300  1.0
  Ni  Ni448  1  0.75007833  0.60196933  0.71622300  1.0
  Ni  Ni449  1  0.75007833  0.93530267  0.71622300  1.0
  Ni  Ni450  1  0.00000000  0.16059642  0.50607025  1.0
  Ni  Ni451  1  0.00000000  0.49392975  0.50607025  1.0
  Ni  Ni452  1  0.00000000  0.82726308  0.50607025  1.0
  Ni  Ni453  1  0.33333333  0.16059642  0.50607025  1.0
  Ni  Ni454  1  0.33333333  0.49392975  0.50607025  1.0
  Ni  Ni455  1  0.33333333  0.82726308  0.50607025  1.0
  Ni  Ni456  1  0.66666667  0.16059642  0.50607025  1.0
  Ni  Ni457  1  0.66666667  0.49392975  0.50607025  1.0
  Ni  Ni458  1  0.66666667  0.82726308  0.50607025  1.0
  Ni  Ni459  1  0.16666667  0.20226308  0.63107025  1.0
  Ni  Ni460  1  0.16666667  0.53559642  0.63107025  1.0
  Ni  Ni461  1  0.16666667  0.86892975  0.63107025  1.0
  Ni  Ni462  1  0.50000000  0.20226308  0.63107025  1.0
  Ni  Ni463  1  0.50000000  0.53559642  0.63107025  1.0
  Ni  Ni464  1  0.50000000  0.86892975  0.63107025  1.0
  Ni  Ni465  1  0.83333333  0.20226308  0.63107025  1.0
  Ni  Ni466  1  0.83333333  0.53559642  0.63107025  1.0
  Ni  Ni467  1  0.83333333  0.86892975  0.63107025  1.0
  Ta  Ta468  1  0.00000000  0.13782642  0.91973225  1.0
  Ta  Ta469  1  0.00000000  0.47115975  0.91973225  1.0
  Ta  Ta470  1  0.00000000  0.80449308  0.91973225  1.0
  Ta  Ta471  1  0.33333333  0.13782642  0.91973225  1.0
  Ta  Ta472  1  0.33333333  0.47115975  0.91973225  1.0
  Ta  Ta473  1  0.33333333  0.80449308  0.91973225  1.0
  Ta  Ta474  1  0.66666667  0.13782642  0.91973225  1.0
  Ta  Ta475  1  0.66666667  0.47115975  0.91973225  1.0
  Ta  Ta476  1  0.66666667  0.80449308  0.91973225  1.0
  Ta  Ta477  1  0.16666667  0.09615975  0.79473225  1.0
  Ta  Ta478  1  0.16666667  0.42949308  0.79473225  1.0
  Ta  Ta479  1  0.16666667  0.76282642  0.79473225  1.0
  Ta  Ta480  1  0.50000000  0.09615975  0.79473225  1.0
  Ta  Ta481  1  0.50000000  0.42949308  0.79473225  1.0
  Ta  Ta482  1  0.50000000  0.76282642  0.79473225  1.0
  Ta  Ta483  1  0.83333333  0.09615975  0.79473225  1.0
  Ta  Ta484  1  0.83333333  0.42949308  0.79473225  1.0
  Ta  Ta485  1  0.83333333  0.76282642  0.79473225  1.0
  Ta  Ta486  1  0.00000000  0.30435642  0.91981425  1.0
  Ta  Ta487  1  0.00000000  0.63768975  0.91981425  1.0
  Ta  Ta488  1  0.00000000  0.97102308  0.91981425  1.0
  Ta  Ta489  1  0.33333333  0.30435642  0.91981425  1.0
  Ta  Ta490  1  0.33333333  0.63768975  0.91981425  1.0
  Ta  Ta491  1  0.33333333  0.97102308  0.91981425  1.0
  Ta  Ta492  1  0.66666667  0.30435642  0.91981425  1.0
  Ta  Ta493  1  0.66666667  0.63768975  0.91981425  1.0
  Ta  Ta494  1  0.66666667  0.97102308  0.91981425  1.0
  Ta  Ta495  1  0.16666667  0.26268975  0.79481425  1.0
  Ta  Ta496  1  0.16666667  0.59602308  0.79481425  1.0
  Ta  Ta497  1  0.16666667  0.92935642  0.79481425  1.0
  Ta  Ta498  1  0.50000000  0.26268975  0.79481425  1.0
  Ta  Ta499  1  0.50000000  0.59602308  0.79481425  1.0
  Ta  Ta500  1  0.50000000  0.92935642  0.79481425  1.0
  Ta  Ta501  1  0.83333333  0.26268975  0.79481425  1.0
  Ta  Ta502  1  0.83333333  0.59602308  0.79481425  1.0
  Ta  Ta503  1  0.83333333  0.92935642  0.79481425  1.0
  Ta  Ta504  1  0.00000000  0.26683642  0.84232625  1.0
  Ta  Ta505  1  0.00000000  0.60016975  0.84232625  1.0
  Ta  Ta506  1  0.00000000  0.93350308  0.84232625  1.0
  Ta  Ta507  1  0.33333333  0.26683642  0.84232625  1.0
  Ta  Ta508  1  0.33333333  0.60016975  0.84232625  1.0
  Ta  Ta509  1  0.33333333  0.93350308  0.84232625  1.0
  Ta  Ta510  1  0.66666667  0.26683642  0.84232625  1.0
  Ta  Ta511  1  0.66666667  0.60016975  0.84232625  1.0
  Ta  Ta512  1  0.66666667  0.93350308  0.84232625  1.0
  Ta  Ta513  1  0.16666667  0.30850308  0.96732625  1.0
  Ta  Ta514  1  0.16666667  0.64183642  0.96732625  1.0
  Ta  Ta515  1  0.16666667  0.97516975  0.96732625  1.0
  Ta  Ta516  1  0.50000000  0.30850308  0.96732625  1.0
  Ta  Ta517  1  0.50000000  0.64183642  0.96732625  1.0
  Ta  Ta518  1  0.50000000  0.97516975  0.96732625  1.0
  Ta  Ta519  1  0.83333333  0.30850308  0.96732625  1.0
  Ta  Ta520  1  0.83333333  0.64183642  0.96732625  1.0
  Ta  Ta521  1  0.83333333  0.97516975  0.96732625  1.0
  Ta  Ta522  1  0.00000000  0.10003308  0.84240825  1.0
  Ta  Ta523  1  0.00000000  0.43336642  0.84240825  1.0
  Ta  Ta524  1  0.00000000  0.76669975  0.84240825  1.0
  Ta  Ta525  1  0.33333333  0.10003308  0.84240825  1.0
  Ta  Ta526  1  0.33333333  0.43336642  0.84240825  1.0
  Ta  Ta527  1  0.33333333  0.76669975  0.84240825  1.0
  Ta  Ta528  1  0.66666667  0.10003308  0.84240825  1.0
  Ta  Ta529  1  0.66666667  0.43336642  0.84240825  1.0
  Ta  Ta530  1  0.66666667  0.76669975  0.84240825  1.0
  Ta  Ta531  1  0.16666667  0.14169975  0.96740825  1.0
  Ta  Ta532  1  0.16666667  0.47503308  0.96740825  1.0
  Ta  Ta533  1  0.16666667  0.80836642  0.96740825  1.0
  Ta  Ta534  1  0.50000000  0.14169975  0.96740825  1.0
  Ta  Ta535  1  0.50000000  0.47503308  0.96740825  1.0
  Ta  Ta536  1  0.50000000  0.80836642  0.96740825  1.0
  Ta  Ta537  1  0.83333333  0.14169975  0.96740825  1.0
  Ta  Ta538  1  0.83333333  0.47503308  0.96740825  1.0
  Ta  Ta539  1  0.83333333  0.80836642  0.96740825  1.0
  Ta  Ta540  1  0.00000000  0.18202892  0.89321075  1.0
  Ta  Ta541  1  0.00000000  0.51536225  0.89321075  1.0
  Ta  Ta542  1  0.00000000  0.84869558  0.89321075  1.0
  Ta  Ta543  1  0.33333333  0.18202892  0.89321075  1.0
  Ta  Ta544  1  0.33333333  0.51536225  0.89321075  1.0
  Ta  Ta545  1  0.33333333  0.84869558  0.89321075  1.0
  Ta  Ta546  1  0.66666667  0.18202892  0.89321075  1.0
  Ta  Ta547  1  0.66666667  0.51536225  0.89321075  1.0
  Ta  Ta548  1  0.66666667  0.84869558  0.89321075  1.0
  Ta  Ta549  1  0.16666667  0.14036225  0.76821075  1.0
  Ta  Ta550  1  0.16666667  0.47369558  0.76821075  1.0
  Ta  Ta551  1  0.16666667  0.80702892  0.76821075  1.0
  Ta  Ta552  1  0.50000000  0.14036225  0.76821075  1.0
  Ta  Ta553  1  0.50000000  0.47369558  0.76821075  1.0
  Ta  Ta554  1  0.50000000  0.80702892  0.76821075  1.0
  Ta  Ta555  1  0.83333333  0.14036225  0.76821075  1.0
  Ta  Ta556  1  0.83333333  0.47369558  0.76821075  1.0
  Ta  Ta557  1  0.83333333  0.80702892  0.76821075  1.0
  Ta  Ta558  1  0.00000000  0.01494392  0.89346175  1.0
  Ta  Ta559  1  0.00000000  0.34827725  0.89346175  1.0
  Ta  Ta560  1  0.00000000  0.68161058  0.89346175  1.0
  Ta  Ta561  1  0.33333333  0.01494392  0.89346175  1.0
  Ta  Ta562  1  0.33333333  0.34827725  0.89346175  1.0
  Ta  Ta563  1  0.33333333  0.68161058  0.89346175  1.0
  Ta  Ta564  1  0.66666667  0.01494392  0.89346175  1.0
  Ta  Ta565  1  0.66666667  0.34827725  0.89346175  1.0
  Ta  Ta566  1  0.66666667  0.68161058  0.89346175  1.0
  Ta  Ta567  1  0.16666667  0.30661058  0.76846175  1.0
  Ta  Ta568  1  0.16666667  0.63994392  0.76846175  1.0
  Ta  Ta569  1  0.16666667  0.97327725  0.76846175  1.0
  Ta  Ta570  1  0.50000000  0.30661058  0.76846175  1.0
  Ta  Ta571  1  0.50000000  0.63994392  0.76846175  1.0
  Ta  Ta572  1  0.50000000  0.97327725  0.76846175  1.0
  Ta  Ta573  1  0.83333333  0.30661058  0.76846175  1.0
  Ta  Ta574  1  0.83333333  0.63994392  0.76846175  1.0
  Ta  Ta575  1  0.83333333  0.97327725  0.76846175  1.0
  Ta  Ta576  1  0.33333333  0.22291558  0.86867875  1.0
  Ta  Ta577  1  0.33333333  0.55624892  0.86867875  1.0
  Ta  Ta578  1  0.33333333  0.88958225  0.86867875  1.0
  Ta  Ta579  1  0.66666667  0.22291558  0.86867875  1.0
  Ta  Ta580  1  0.66666667  0.55624892  0.86867875  1.0
  Ta  Ta581  1  0.66666667  0.88958225  0.86867875  1.0
  Ta  Ta582  1  1.00000000  0.22291558  0.86867875  1.0
  Ta  Ta583  1  1.00000000  0.55624892  0.86867875  1.0
  Ta  Ta584  1  1.00000000  0.88958225  0.86867875  1.0
  Ta  Ta585  1  0.16666667  0.26458225  0.99367875  1.0
  Ta  Ta586  1  0.16666667  0.59791558  0.99367875  1.0
  Ta  Ta587  1  0.16666667  0.93124892  0.99367875  1.0
  Ta  Ta588  1  0.50000000  0.26458225  0.99367875  1.0
  Ta  Ta589  1  0.50000000  0.59791558  0.99367875  1.0
  Ta  Ta590  1  0.50000000  0.93124892  0.99367875  1.0
  Ta  Ta591  1  0.83333333  0.26458225  0.99367875  1.0
  Ta  Ta592  1  0.83333333  0.59791558  0.99367875  1.0
  Ta  Ta593  1  0.83333333  0.93124892  0.99367875  1.0
  Ta  Ta594  1  0.00000000  0.05583058  0.86892975  1.0
  Ta  Ta595  1  0.00000000  0.38916392  0.86892975  1.0
  Ta  Ta596  1  0.00000000  0.72249725  0.86892975  1.0
  Ta  Ta597  1  0.33333333  0.05583058  0.86892975  1.0
  Ta  Ta598  1  0.33333333  0.38916392  0.86892975  1.0
  Ta  Ta599  1  0.33333333  0.72249725  0.86892975  1.0
  Ta  Ta600  1  0.66666667  0.05583058  0.86892975  1.0
  Ta  Ta601  1  0.66666667  0.38916392  0.86892975  1.0
  Ta  Ta602  1  0.66666667  0.72249725  0.86892975  1.0
  Ta  Ta603  1  0.16666667  0.09749725  0.99392975  1.0
  Ta  Ta604  1  0.16666667  0.43083058  0.99392975  1.0
  Ta  Ta605  1  0.16666667  0.76416392  0.99392975  1.0
  Ta  Ta606  1  0.50000000  0.09749725  0.99392975  1.0
  Ta  Ta607  1  0.50000000  0.43083058  0.99392975  1.0
  Ta  Ta608  1  0.50000000  0.76416392  0.99392975  1.0
  Ta  Ta609  1  0.83333333  0.09749725  0.99392975  1.0
  Ta  Ta610  1  0.83333333  0.43083058  0.99392975  1.0
  Ta  Ta611  1  0.83333333  0.76416392  0.99392975  1.0
  Ta  Ta612  1  0.00000000  0.23046808  0.96414725  1.0
  Ta  Ta613  1  0.00000000  0.56380142  0.96414725  1.0
  Ta  Ta614  1  0.00000000  0.89713475  0.96414725  1.0
  Ta  Ta615  1  0.33333333  0.23046808  0.96414725  1.0
  Ta  Ta616  1  0.33333333  0.56380142  0.96414725  1.0
  Ta  Ta617  1  0.33333333  0.89713475  0.96414725  1.0
  Ta  Ta618  1  0.66666667  0.23046808  0.96414725  1.0
  Ta  Ta619  1  0.66666667  0.56380142  0.96414725  1.0
  Ta  Ta620  1  0.66666667  0.89713475  0.96414725  1.0
  Ta  Ta621  1  0.16666667  0.18880142  0.83914725  1.0
  Ta  Ta622  1  0.16666667  0.52213475  0.83914725  1.0
  Ta  Ta623  1  0.16666667  0.85546808  0.83914725  1.0
  Ta  Ta624  1  0.50000000  0.18880142  0.83914725  1.0
  Ta  Ta625  1  0.50000000  0.52213475  0.83914725  1.0
  Ta  Ta626  1  0.50000000  0.85546808  0.83914725  1.0
  Ta  Ta627  1  0.83333333  0.18880142  0.83914725  1.0
  Ta  Ta628  1  0.83333333  0.52213475  0.83914725  1.0
  Ta  Ta629  1  0.83333333  0.85546808  0.83914725  1.0
  Ta  Ta630  1  0.00000000  0.06294142  0.96466325  1.0
  Ta  Ta631  1  0.00000000  0.39627475  0.96466325  1.0
  Ta  Ta632  1  0.00000000  0.72960808  0.96466325  1.0
  Ta  Ta633  1  0.33333333  0.06294142  0.96466325  1.0
  Ta  Ta634  1  0.33333333  0.39627475  0.96466325  1.0
  Ta  Ta635  1  0.33333333  0.72960808  0.96466325  1.0
  Ta  Ta636  1  0.66666667  0.06294142  0.96466325  1.0
  Ta  Ta637  1  0.66666667  0.39627475  0.96466325  1.0
  Ta  Ta638  1  0.66666667  0.72960808  0.96466325  1.0
  Ta  Ta639  1  0.16666667  0.02127475  0.83966325  1.0
  Ta  Ta640  1  0.16666667  0.35460808  0.83966325  1.0
  Ta  Ta641  1  0.16666667  0.68794142  0.83966325  1.0
  Ta  Ta642  1  0.50000000  0.02127475  0.83966325  1.0
  Ta  Ta643  1  0.50000000  0.35460808  0.83966325  1.0
  Ta  Ta644  1  0.50000000  0.68794142  0.83966325  1.0
  Ta  Ta645  1  0.83333333  0.02127475  0.83966325  1.0
  Ta  Ta646  1  0.83333333  0.35460808  0.83966325  1.0
  Ta  Ta647  1  0.83333333  0.68794142  0.83966325  1.0
  Ta  Ta648  1  0.00000000  0.17491808  0.79747725  1.0
  Ta  Ta649  1  0.00000000  0.50825142  0.79747725  1.0
  Ta  Ta650  1  0.00000000  0.84158475  0.79747725  1.0
  Ta  Ta651  1  0.33333333  0.17491808  0.79747725  1.0
  Ta  Ta652  1  0.33333333  0.50825142  0.79747725  1.0
  Ta  Ta653  1  0.33333333  0.84158475  0.79747725  1.0
  Ta  Ta654  1  0.66666667  0.17491808  0.79747725  1.0
  Ta  Ta655  1  0.66666667  0.50825142  0.79747725  1.0
  Ta  Ta656  1  0.66666667  0.84158475  0.79747725  1.0
  Ta  Ta657  1  0.16666667  0.21658475  0.92247725  1.0
  Ta  Ta658  1  0.16666667  0.54991808  0.92247725  1.0
  Ta  Ta659  1  0.16666667  0.88325142  0.92247725  1.0
  Ta  Ta660  1  0.50000000  0.21658475  0.92247725  1.0
  Ta  Ta661  1  0.50000000  0.54991808  0.92247725  1.0
  Ta  Ta662  1  0.50000000  0.88325142  0.92247725  1.0
  Ta  Ta663  1  0.83333333  0.21658475  0.92247725  1.0
  Ta  Ta664  1  0.83333333  0.54991808  0.92247725  1.0
  Ta  Ta665  1  0.83333333  0.88325142  0.92247725  1.0
  Ta  Ta666  1  0.00000000  0.00739142  0.79799325  1.0
  Ta  Ta667  1  0.00000000  0.34072475  0.79799325  1.0
  Ta  Ta668  1  0.00000000  0.67405808  0.79799325  1.0
  Ta  Ta669  1  0.33333333  0.00739142  0.79799325  1.0
  Ta  Ta670  1  0.33333333  0.34072475  0.79799325  1.0
  Ta  Ta671  1  0.33333333  0.67405808  0.79799325  1.0
  Ta  Ta672  1  0.66666667  0.00739142  0.79799325  1.0
  Ta  Ta673  1  0.66666667  0.34072475  0.79799325  1.0
  Ta  Ta674  1  0.66666667  0.67405808  0.79799325  1.0
  Ta  Ta675  1  0.16666667  0.04905808  0.92299325  1.0
  Ta  Ta676  1  0.16666667  0.38239142  0.92299325  1.0
  Ta  Ta677  1  0.16666667  0.71572475  0.92299325  1.0
  Ta  Ta678  1  0.50000000  0.04905808  0.92299325  1.0
  Ta  Ta679  1  0.50000000  0.38239142  0.92299325  1.0
  Ta  Ta680  1  0.50000000  0.71572475  0.92299325  1.0
  Ta  Ta681  1  0.83333333  0.04905808  0.92299325  1.0
  Ta  Ta682  1  0.83333333  0.38239142  0.92299325  1.0
  Ta  Ta683  1  0.83333333  0.71572475  0.92299325  1.0
  Ta  Ta684  1  0.00000000  0.07726308  0.75607025  1.0
  Ta  Ta685  1  0.00000000  0.41059642  0.75607025  1.0
  Ta  Ta686  1  0.00000000  0.74392975  0.75607025  1.0
  Ta  Ta687  1  0.33333333  0.07726308  0.75607025  1.0
  Ta  Ta688  1  0.33333333  0.41059642  0.75607025  1.0
  Ta  Ta689  1  0.33333333  0.74392975  0.75607025  1.0
  Ta  Ta690  1  0.66666667  0.07726308  0.75607025  1.0
  Ta  Ta691  1  0.66666667  0.41059642  0.75607025  1.0
  Ta  Ta692  1  0.66666667  0.74392975  0.75607025  1.0
  Ta  Ta693  1  0.16666667  0.11892975  0.88107025  1.0
  Ta  Ta694  1  0.16666667  0.45226308  0.88107025  1.0
  Ta  Ta695  1  0.16666667  0.78559642  0.88107025  1.0
  Ta  Ta696  1  0.50000000  0.11892975  0.88107025  1.0
  Ta  Ta697  1  0.50000000  0.45226308  0.88107025  1.0
  Ta  Ta698  1  0.50000000  0.78559642  0.88107025  1.0
  Ta  Ta699  1  0.83333333  0.11892975  0.88107025  1.0
  Ta  Ta700  1  0.83333333  0.45226308  0.88107025  1.0
  Ta  Ta701  1  0.83333333  0.78559642  0.88107025  1.0
  Ta  Ta702  1  0.00000000  0.05449308  0.66973225  1.0
  Ta  Ta703  1  0.00000000  0.38782642  0.66973225  1.0
  Ta  Ta704  1  0.00000000  0.72115975  0.66973225  1.0
  Ta  Ta705  1  0.33333333  0.05449308  0.66973225  1.0
  Ta  Ta706  1  0.33333333  0.38782642  0.66973225  1.0
  Ta  Ta707  1  0.33333333  0.72115975  0.66973225  1.0
  Ta  Ta708  1  0.66666667  0.05449308  0.66973225  1.0
  Ta  Ta709  1  0.66666667  0.38782642  0.66973225  1.0
  Ta  Ta710  1  0.66666667  0.72115975  0.66973225  1.0
  Ta  Ta711  1  0.16666667  0.01282642  0.54473225  1.0
  Ta  Ta712  1  0.16666667  0.34615975  0.54473225  1.0
  Ta  Ta713  1  0.16666667  0.67949308  0.54473225  1.0
  Ta  Ta714  1  0.50000000  0.01282642  0.54473225  1.0
  Ta  Ta715  1  0.50000000  0.34615975  0.54473225  1.0
  Ta  Ta716  1  0.50000000  0.67949308  0.54473225  1.0
  Ta  Ta717  1  0.83333333  0.01282642  0.54473225  1.0
  Ta  Ta718  1  0.83333333  0.34615975  0.54473225  1.0
  Ta  Ta719  1  0.83333333  0.67949308  0.54473225  1.0
  Ta  Ta720  1  0.00000000  0.22102308  0.66981425  1.0
  Ta  Ta721  1  0.00000000  0.55435642  0.66981425  1.0
  Ta  Ta722  1  0.00000000  0.88768975  0.66981425  1.0
  Ta  Ta723  1  0.33333333  0.22102308  0.66981425  1.0
  Ta  Ta724  1  0.33333333  0.55435642  0.66981425  1.0
  Ta  Ta725  1  0.33333333  0.88768975  0.66981425  1.0
  Ta  Ta726  1  0.66666667  0.22102308  0.66981425  1.0
  Ta  Ta727  1  0.66666667  0.55435642  0.66981425  1.0
  Ta  Ta728  1  0.66666667  0.88768975  0.66981425  1.0
  Ta  Ta729  1  0.16666667  0.17935642  0.54481425  1.0
  Ta  Ta730  1  0.16666667  0.51268975  0.54481425  1.0
  Ta  Ta731  1  0.16666667  0.84602308  0.54481425  1.0
  Ta  Ta732  1  0.50000000  0.17935642  0.54481425  1.0
  Ta  Ta733  1  0.50000000  0.51268975  0.54481425  1.0
  Ta  Ta734  1  0.50000000  0.84602308  0.54481425  1.0
  Ta  Ta735  1  0.83333333  0.17935642  0.54481425  1.0
  Ta  Ta736  1  0.83333333  0.51268975  0.54481425  1.0
  Ta  Ta737  1  0.83333333  0.84602308  0.54481425  1.0
  Ta  Ta738  1  0.00000000  0.18350308  0.59232625  1.0
  Ta  Ta739  1  0.00000000  0.51683642  0.59232625  1.0
  Ta  Ta740  1  0.00000000  0.85016975  0.59232625  1.0
  Ta  Ta741  1  0.33333333  0.18350308  0.59232625  1.0
  Ta  Ta742  1  0.33333333  0.51683642  0.59232625  1.0
  Ta  Ta743  1  0.33333333  0.85016975  0.59232625  1.0
  Ta  Ta744  1  0.66666667  0.18350308  0.59232625  1.0
  Ta  Ta745  1  0.66666667  0.51683642  0.59232625  1.0
  Ta  Ta746  1  0.66666667  0.85016975  0.59232625  1.0
  Ta  Ta747  1  0.16666667  0.22516975  0.71732625  1.0
  Ta  Ta748  1  0.16666667  0.55850308  0.71732625  1.0
  Ta  Ta749  1  0.16666667  0.89183642  0.71732625  1.0
  Ta  Ta750  1  0.50000000  0.22516975  0.71732625  1.0
  Ta  Ta751  1  0.50000000  0.55850308  0.71732625  1.0
  Ta  Ta752  1  0.50000000  0.89183642  0.71732625  1.0
  Ta  Ta753  1  0.83333333  0.22516975  0.71732625  1.0
  Ta  Ta754  1  0.83333333  0.55850308  0.71732625  1.0
  Ta  Ta755  1  0.83333333  0.89183642  0.71732625  1.0
  Ta  Ta756  1  0.00000000  0.01669975  0.59240825  1.0
  Ta  Ta757  1  0.00000000  0.35003308  0.59240825  1.0
  Ta  Ta758  1  0.00000000  0.68336642  0.59240825  1.0
  Ta  Ta759  1  0.33333333  0.01669975  0.59240825  1.0
  Ta  Ta760  1  0.33333333  0.35003308  0.59240825  1.0
  Ta  Ta761  1  0.33333333  0.68336642  0.59240825  1.0
  Ta  Ta762  1  0.66666667  0.01669975  0.59240825  1.0
  Ta  Ta763  1  0.66666667  0.35003308  0.59240825  1.0
  Ta  Ta764  1  0.66666667  0.68336642  0.59240825  1.0
  Ta  Ta765  1  0.16666667  0.05836642  0.71740825  1.0
  Ta  Ta766  1  0.16666667  0.39169975  0.71740825  1.0
  Ta  Ta767  1  0.16666667  0.72503308  0.71740825  1.0
  Ta  Ta768  1  0.50000000  0.05836642  0.71740825  1.0
  Ta  Ta769  1  0.50000000  0.39169975  0.71740825  1.0
  Ta  Ta770  1  0.50000000  0.72503308  0.71740825  1.0
  Ta  Ta771  1  0.83333333  0.05836642  0.71740825  1.0
  Ta  Ta772  1  0.83333333  0.39169975  0.71740825  1.0
  Ta  Ta773  1  0.83333333  0.72503308  0.71740825  1.0
  Ta  Ta774  1  0.00000000  0.09869558  0.64321075  1.0
  Ta  Ta775  1  0.00000000  0.43202892  0.64321075  1.0
  Ta  Ta776  1  0.00000000  0.76536225  0.64321075  1.0
  Ta  Ta777  1  0.33333333  0.09869558  0.64321075  1.0
  Ta  Ta778  1  0.33333333  0.43202892  0.64321075  1.0
  Ta  Ta779  1  0.33333333  0.76536225  0.64321075  1.0
  Ta  Ta780  1  0.66666667  0.09869558  0.64321075  1.0
  Ta  Ta781  1  0.66666667  0.43202892  0.64321075  1.0
  Ta  Ta782  1  0.66666667  0.76536225  0.64321075  1.0
  Ta  Ta783  1  0.16666667  0.05702892  0.51821075  1.0
  Ta  Ta784  1  0.16666667  0.39036225  0.51821075  1.0
  Ta  Ta785  1  0.16666667  0.72369558  0.51821075  1.0
  Ta  Ta786  1  0.50000000  0.05702892  0.51821075  1.0
  Ta  Ta787  1  0.50000000  0.39036225  0.51821075  1.0
  Ta  Ta788  1  0.50000000  0.72369558  0.51821075  1.0
  Ta  Ta789  1  0.83333333  0.05702892  0.51821075  1.0
  Ta  Ta790  1  0.83333333  0.39036225  0.51821075  1.0
  Ta  Ta791  1  0.83333333  0.72369558  0.51821075  1.0
  Ta  Ta792  1  0.00000000  0.26494392  0.64346175  1.0
  Ta  Ta793  1  0.00000000  0.59827725  0.64346175  1.0
  Ta  Ta794  1  0.00000000  0.93161058  0.64346175  1.0
  Ta  Ta795  1  0.33333333  0.26494392  0.64346175  1.0
  Ta  Ta796  1  0.33333333  0.59827725  0.64346175  1.0
  Ta  Ta797  1  0.33333333  0.93161058  0.64346175  1.0
  Ta  Ta798  1  0.66666667  0.26494392  0.64346175  1.0
  Ta  Ta799  1  0.66666667  0.59827725  0.64346175  1.0
  Ta  Ta800  1  0.66666667  0.93161058  0.64346175  1.0
  Ta  Ta801  1  0.16666667  0.22327725  0.51846175  1.0
  Ta  Ta802  1  0.16666667  0.55661058  0.51846175  1.0
  Ta  Ta803  1  0.16666667  0.88994392  0.51846175  1.0
  Ta  Ta804  1  0.50000000  0.22327725  0.51846175  1.0
  Ta  Ta805  1  0.50000000  0.55661058  0.51846175  1.0
  Ta  Ta806  1  0.50000000  0.88994392  0.51846175  1.0
  Ta  Ta807  1  0.83333333  0.22327725  0.51846175  1.0
  Ta  Ta808  1  0.83333333  0.55661058  0.51846175  1.0
  Ta  Ta809  1  0.83333333  0.88994392  0.51846175  1.0
  Ta  Ta810  1  0.00000000  0.13958225  0.61867875  1.0
  Ta  Ta811  1  0.00000000  0.47291558  0.61867875  1.0
  Ta  Ta812  1  0.00000000  0.80624892  0.61867875  1.0
  Ta  Ta813  1  0.33333333  0.13958225  0.61867875  1.0
  Ta  Ta814  1  0.33333333  0.47291558  0.61867875  1.0
  Ta  Ta815  1  0.33333333  0.80624892  0.61867875  1.0
  Ta  Ta816  1  0.66666667  0.13958225  0.61867875  1.0
  Ta  Ta817  1  0.66666667  0.47291558  0.61867875  1.0
  Ta  Ta818  1  0.66666667  0.80624892  0.61867875  1.0
  Ta  Ta819  1  0.16666667  0.18124892  0.74367875  1.0
  Ta  Ta820  1  0.16666667  0.51458225  0.74367875  1.0
  Ta  Ta821  1  0.16666667  0.84791558  0.74367875  1.0
  Ta  Ta822  1  0.50000000  0.18124892  0.74367875  1.0
  Ta  Ta823  1  0.50000000  0.51458225  0.74367875  1.0
  Ta  Ta824  1  0.50000000  0.84791558  0.74367875  1.0
  Ta  Ta825  1  0.83333333  0.18124892  0.74367875  1.0
  Ta  Ta826  1  0.83333333  0.51458225  0.74367875  1.0
  Ta  Ta827  1  0.83333333  0.84791558  0.74367875  1.0
  Ta  Ta828  1  0.00000000  0.30583058  0.61892975  1.0
  Ta  Ta829  1  0.00000000  0.63916392  0.61892975  1.0
  Ta  Ta830  1  0.00000000  0.97249725  0.61892975  1.0
  Ta  Ta831  1  0.33333333  0.30583058  0.61892975  1.0
  Ta  Ta832  1  0.33333333  0.63916392  0.61892975  1.0
  Ta  Ta833  1  0.33333333  0.97249725  0.61892975  1.0
  Ta  Ta834  1  0.66666667  0.30583058  0.61892975  1.0
  Ta  Ta835  1  0.66666667  0.63916392  0.61892975  1.0
  Ta  Ta836  1  0.66666667  0.97249725  0.61892975  1.0
  Ta  Ta837  1  0.16666667  0.01416392  0.74392975  1.0
  Ta  Ta838  1  0.16666667  0.34749725  0.74392975  1.0
  Ta  Ta839  1  0.16666667  0.68083058  0.74392975  1.0
  Ta  Ta840  1  0.50000000  0.01416392  0.74392975  1.0
  Ta  Ta841  1  0.50000000  0.34749725  0.74392975  1.0
  Ta  Ta842  1  0.50000000  0.68083058  0.74392975  1.0
  Ta  Ta843  1  0.83333333  0.01416392  0.74392975  1.0
  Ta  Ta844  1  0.83333333  0.34749725  0.74392975  1.0
  Ta  Ta845  1  0.83333333  0.68083058  0.74392975  1.0
  Ta  Ta846  1  0.00000000  0.14713475  0.71414725  1.0
  Ta  Ta847  1  0.00000000  0.48046808  0.71414725  1.0
  Ta  Ta848  1  0.00000000  0.81380142  0.71414725  1.0
  Ta  Ta849  1  0.33333333  0.14713475  0.71414725  1.0
  Ta  Ta850  1  0.33333333  0.48046808  0.71414725  1.0
  Ta  Ta851  1  0.33333333  0.81380142  0.71414725  1.0
  Ta  Ta852  1  0.66666667  0.14713475  0.71414725  1.0
  Ta  Ta853  1  0.66666667  0.48046808  0.71414725  1.0
  Ta  Ta854  1  0.66666667  0.81380142  0.71414725  1.0
  Ta  Ta855  1  0.16666667  0.10546808  0.58914725  1.0
  Ta  Ta856  1  0.16666667  0.43880142  0.58914725  1.0
  Ta  Ta857  1  0.16666667  0.77213475  0.58914725  1.0
  Ta  Ta858  1  0.50000000  0.10546808  0.58914725  1.0
  Ta  Ta859  1  0.50000000  0.43880142  0.58914725  1.0
  Ta  Ta860  1  0.50000000  0.77213475  0.58914725  1.0
  Ta  Ta861  1  0.83333333  0.10546808  0.58914725  1.0
  Ta  Ta862  1  0.83333333  0.43880142  0.58914725  1.0
  Ta  Ta863  1  0.83333333  0.77213475  0.58914725  1.0
  Ta  Ta864  1  0.00000000  0.31294142  0.71466325  1.0
  Ta  Ta865  1  0.00000000  0.64627475  0.71466325  1.0
  Ta  Ta866  1  0.00000000  0.97960808  0.71466325  1.0
  Ta  Ta867  1  0.33333333  0.31294142  0.71466325  1.0
  Ta  Ta868  1  0.33333333  0.64627475  0.71466325  1.0
  Ta  Ta869  1  0.33333333  0.97960808  0.71466325  1.0
  Ta  Ta870  1  0.66666667  0.31294142  0.71466325  1.0
  Ta  Ta871  1  0.66666667  0.64627475  0.71466325  1.0
  Ta  Ta872  1  0.66666667  0.97960808  0.71466325  1.0
  Ta  Ta873  1  0.16666667  0.27127475  0.58966325  1.0
  Ta  Ta874  1  0.16666667  0.60460808  0.58966325  1.0
  Ta  Ta875  1  0.16666667  0.93794142  0.58966325  1.0
  Ta  Ta876  1  0.50000000  0.27127475  0.58966325  1.0
  Ta  Ta877  1  0.50000000  0.60460808  0.58966325  1.0
  Ta  Ta878  1  0.50000000  0.93794142  0.58966325  1.0
  Ta  Ta879  1  0.83333333  0.27127475  0.58966325  1.0
  Ta  Ta880  1  0.83333333  0.60460808  0.58966325  1.0
  Ta  Ta881  1  0.83333333  0.93794142  0.58966325  1.0
  Ta  Ta882  1  0.00000000  0.09158475  0.54747725  1.0
  Ta  Ta883  1  0.00000000  0.42491808  0.54747725  1.0
  Ta  Ta884  1  0.00000000  0.75825142  0.54747725  1.0
  Ta  Ta885  1  0.33333333  0.09158475  0.54747725  1.0
  Ta  Ta886  1  0.33333333  0.42491808  0.54747725  1.0
  Ta  Ta887  1  0.33333333  0.75825142  0.54747725  1.0
  Ta  Ta888  1  0.66666667  0.09158475  0.54747725  1.0
  Ta  Ta889  1  0.66666667  0.42491808  0.54747725  1.0
  Ta  Ta890  1  0.66666667  0.75825142  0.54747725  1.0
  Ta  Ta891  1  0.16666667  0.13325142  0.67247725  1.0
  Ta  Ta892  1  0.16666667  0.46658475  0.67247725  1.0
  Ta  Ta893  1  0.16666667  0.79991808  0.67247725  1.0
  Ta  Ta894  1  0.50000000  0.13325142  0.67247725  1.0
  Ta  Ta895  1  0.50000000  0.46658475  0.67247725  1.0
  Ta  Ta896  1  0.50000000  0.79991808  0.67247725  1.0
  Ta  Ta897  1  0.83333333  0.13325142  0.67247725  1.0
  Ta  Ta898  1  0.83333333  0.46658475  0.67247725  1.0
  Ta  Ta899  1  0.83333333  0.79991808  0.67247725  1.0
  Ta  Ta900  1  0.00000000  0.25739142  0.54799325  1.0
  Ta  Ta901  1  0.00000000  0.59072475  0.54799325  1.0
  Ta  Ta902  1  0.00000000  0.92405808  0.54799325  1.0
  Ta  Ta903  1  0.33333333  0.25739142  0.54799325  1.0
  Ta  Ta904  1  0.33333333  0.59072475  0.54799325  1.0
  Ta  Ta905  1  0.33333333  0.92405808  0.54799325  1.0
  Ta  Ta906  1  0.66666667  0.25739142  0.54799325  1.0
  Ta  Ta907  1  0.66666667  0.59072475  0.54799325  1.0
  Ta  Ta908  1  0.66666667  0.92405808  0.54799325  1.0
  Ta  Ta909  1  0.16666667  0.29905808  0.67299325  1.0
  Ta  Ta910  1  0.16666667  0.63239142  0.67299325  1.0
  Ta  Ta911  1  0.16666667  0.96572475  0.67299325  1.0
  Ta  Ta912  1  0.50000000  0.29905808  0.67299325  1.0
  Ta  Ta913  1  0.50000000  0.63239142  0.67299325  1.0
  Ta  Ta914  1  0.50000000  0.96572475  0.67299325  1.0
  Ta  Ta915  1  0.83333333  0.29905808  0.67299325  1.0
  Ta  Ta916  1  0.83333333  0.63239142  0.67299325  1.0
  Ta  Ta917  1  0.83333333  0.96572475  0.67299325  1.0
  Ta  Ta918  1  0.00000000  0.32726308  0.50607025  1.0
  Ta  Ta919  1  0.00000000  0.66059642  0.50607025  1.0
  Ta  Ta920  1  0.00000000  0.99392975  0.50607025  1.0
  Ta  Ta921  1  0.33333333  0.32726308  0.50607025  1.0
  Ta  Ta922  1  0.33333333  0.66059642  0.50607025  1.0
  Ta  Ta923  1  0.33333333  0.99392975  0.50607025  1.0
  Ta  Ta924  1  0.66666667  0.32726308  0.50607025  1.0
  Ta  Ta925  1  0.66666667  0.66059642  0.50607025  1.0
  Ta  Ta926  1  0.66666667  0.99392975  0.50607025  1.0
  Ta  Ta927  1  0.16666667  0.03559642  0.63107025  1.0
  Ta  Ta928  1  0.16666667  0.36892975  0.63107025  1.0
  Ta  Ta929  1  0.16666667  0.70226308  0.63107025  1.0
  Ta  Ta930  1  0.50000000  0.03559642  0.63107025  1.0
  Ta  Ta931  1  0.50000000  0.36892975  0.63107025  1.0
  Ta  Ta932  1  0.50000000  0.70226308  0.63107025  1.0
  Ta  Ta933  1  0.83333333  0.03559642  0.63107025  1.0
  Ta  Ta934  1  0.83333333  0.36892975  0.63107025  1.0
  Ta  Ta935  1  0.83333333  0.70226308  0.63107025  1.0
