# generated using pymatgen
data_TaNi
_symmetry_space_group_name_H-M   'P 1'
_cell_length_a   38.80747554
_cell_length_b   55.85729370
_cell_length_c   29.33569408
_cell_angle_alpha   90.00000000
_cell_angle_beta   100.89339465
_cell_angle_gamma   107.32279876
_symmetry_Int_Tables_number   1
_chemical_formula_structural   TaNi
_chemical_formula_sum   'Ta936 Ni936'
_cell_volume   59504.72125945
_cell_formula_units_Z   936
loop_
 _symmetry_equiv_pos_site_id
 _symmetry_equiv_pos_as_xyz
  1  'x, y, z'
loop_
 _atom_site_type_symbol
 _atom_site_label
 _atom_site_symmetry_multiplicity
 _atom_site_fract_x
 _atom_site_fract_y
 _atom_site_fract_z
 _atom_site_occupancy
  Ni  Ni0  1  0.30043706  0.30291517  0.95196272  1.0
  Ni  Ni1  1  0.30043706  0.63624850  0.95196272  1.0
  Ni  Ni2  1  0.30043706  0.96958183  0.95196272  1.0
  Ni  Ni3  1  0.63377039  0.30291517  0.95196272  1.0
  Ni  Ni4  1  0.63377039  0.63624850  0.95196272  1.0
  Ni  Ni5  1  0.63377039  0.96958183  0.95196272  1.0
  Ni  Ni6  1  0.96710372  0.30291517  0.95196272  1.0
  Ni  Ni7  1  0.96710372  0.63624850  0.95196272  1.0
  Ni  Ni8  1  0.96710372  0.96958183  0.95196272  1.0
  Ni  Ni9  1  0.07821483  0.30291517  0.89640717  1.0
  Ni  Ni10  1  0.07821483  0.63624850  0.89640717  1.0
  Ni  Ni11  1  0.07821483  0.96958183  0.89640717  1.0
  Ni  Ni12  1  0.41154817  0.30291517  0.89640717  1.0
  Ni  Ni13  1  0.41154817  0.63624850  0.89640717  1.0
  Ni  Ni14  1  0.41154817  0.96958183  0.89640717  1.0
  Ni  Ni15  1  0.74488150  0.30291517  0.89640717  1.0
  Ni  Ni16  1  0.74488150  0.63624850  0.89640717  1.0
  Ni  Ni17  1  0.74488150  0.96958183  0.89640717  1.0
  Ni  Ni18  1  0.29964517  0.13516183  0.95106967  1.0
  Ni  Ni19  1  0.29964517  0.46849517  0.95106967  1.0
  Ni  Ni20  1  0.29964517  0.80182850  0.95106967  1.0
  Ni  Ni21  1  0.63297850  0.13516183  0.95106967  1.0
  Ni  Ni22  1  0.63297850  0.46849517  0.95106967  1.0
  Ni  Ni23  1  0.63297850  0.80182850  0.95106967  1.0
  Ni  Ni24  1  0.96631183  0.13516183  0.95106967  1.0
  Ni  Ni25  1  0.96631183  0.46849517  0.95106967  1.0
  Ni  Ni26  1  0.96631183  0.80182850  0.95106967  1.0
  Ni  Ni27  1  0.07742294  0.13516183  0.89551411  1.0
  Ni  Ni28  1  0.07742294  0.46849517  0.89551411  1.0
  Ni  Ni29  1  0.07742294  0.80182850  0.89551411  1.0
  Ni  Ni30  1  0.41075628  0.13516183  0.89551411  1.0
  Ni  Ni31  1  0.41075628  0.46849517  0.89551411  1.0
  Ni  Ni32  1  0.41075628  0.80182850  0.89551411  1.0
  Ni  Ni33  1  0.74408961  0.13516183  0.89551411  1.0
  Ni  Ni34  1  0.74408961  0.46849517  0.89551411  1.0
  Ni  Ni35  1  0.74408961  0.80182850  0.89551411  1.0
  Ni  Ni36  1  0.07821483  0.30291517  0.97981883  1.0
  Ni  Ni37  1  0.07821483  0.63624850  0.97981883  1.0
  Ni  Ni38  1  0.07821483  0.96958183  0.97981883  1.0
  Ni  Ni39  1  0.41154817  0.30291517  0.97981883  1.0
  Ni  Ni40  1  0.41154817  0.63624850  0.97981883  1.0
  Ni  Ni41  1  0.41154817  0.96958183  0.97981883  1.0
  Ni  Ni42  1  0.74488150  0.30291517  0.97981883  1.0
  Ni  Ni43  1  0.74488150  0.63624850  0.97981883  1.0
  Ni  Ni44  1  0.74488150  0.96958183  0.97981883  1.0
  Ni  Ni45  1  0.18932594  0.30291517  0.92426328  1.0
  Ni  Ni46  1  0.18932594  0.63624850  0.92426328  1.0
  Ni  Ni47  1  0.18932594  0.96958183  0.92426328  1.0
  Ni  Ni48  1  0.52265928  0.30291517  0.92426328  1.0
  Ni  Ni49  1  0.52265928  0.63624850  0.92426328  1.0
  Ni  Ni50  1  0.52265928  0.96958183  0.92426328  1.0
  Ni  Ni51  1  0.85599261  0.30291517  0.92426328  1.0
  Ni  Ni52  1  0.85599261  0.63624850  0.92426328  1.0
  Ni  Ni53  1  0.85599261  0.96958183  0.92426328  1.0
  Ni  Ni54  1  0.18853406  0.13516183  0.92476039  1.0
  Ni  Ni55  1  0.18853406  0.46849517  0.92476039  1.0
  Ni  Ni56  1  0.18853406  0.80182850  0.92476039  1.0
  Ni  Ni57  1  0.52186739  0.13516183  0.92476039  1.0
  Ni  Ni58  1  0.52186739  0.46849517  0.92476039  1.0
  Ni  Ni59  1  0.52186739  0.80182850  0.92476039  1.0
  Ni  Ni60  1  0.85520072  0.13516183  0.92476039  1.0
  Ni  Ni61  1  0.85520072  0.46849517  0.92476039  1.0
  Ni  Ni62  1  0.85520072  0.80182850  0.92476039  1.0
  Ni  Ni63  1  0.07742294  0.13516183  0.98031594  1.0
  Ni  Ni64  1  0.07742294  0.46849517  0.98031594  1.0
  Ni  Ni65  1  0.07742294  0.80182850  0.98031594  1.0
  Ni  Ni66  1  0.41075628  0.13516183  0.98031594  1.0
  Ni  Ni67  1  0.41075628  0.46849517  0.98031594  1.0
  Ni  Ni68  1  0.41075628  0.80182850  0.98031594  1.0
  Ni  Ni69  1  0.74408961  0.13516183  0.98031594  1.0
  Ni  Ni70  1  0.74408961  0.46849517  0.98031594  1.0
  Ni  Ni71  1  0.74408961  0.80182850  0.98031594  1.0
  Ni  Ni72  1  0.24493372  0.30291517  0.89645939  1.0
  Ni  Ni73  1  0.24493372  0.63624850  0.89645939  1.0
  Ni  Ni74  1  0.24493372  0.96958183  0.89645939  1.0
  Ni  Ni75  1  0.57826706  0.30291517  0.89645939  1.0
  Ni  Ni76  1  0.57826706  0.63624850  0.89645939  1.0
  Ni  Ni77  1  0.57826706  0.96958183  0.89645939  1.0
  Ni  Ni78  1  0.91160039  0.30291517  0.89645939  1.0
  Ni  Ni79  1  0.91160039  0.63624850  0.89645939  1.0
  Ni  Ni80  1  0.91160039  0.96958183  0.89645939  1.0
  Ni  Ni81  1  0.13382261  0.30291517  0.95201494  1.0
  Ni  Ni82  1  0.13382261  0.63624850  0.95201494  1.0
  Ni  Ni83  1  0.13382261  0.96958183  0.95201494  1.0
  Ni  Ni84  1  0.46715594  0.30291517  0.95201494  1.0
  Ni  Ni85  1  0.46715594  0.63624850  0.95201494  1.0
  Ni  Ni86  1  0.46715594  0.96958183  0.95201494  1.0
  Ni  Ni87  1  0.80048928  0.30291517  0.95201494  1.0
  Ni  Ni88  1  0.80048928  0.63624850  0.95201494  1.0
  Ni  Ni89  1  0.80048928  0.96958183  0.95201494  1.0
  Ni  Ni90  1  0.24506861  0.13516183  0.89649311  1.0
  Ni  Ni91  1  0.24506861  0.46849517  0.89649311  1.0
  Ni  Ni92  1  0.24506861  0.80182850  0.89649311  1.0
  Ni  Ni93  1  0.57840194  0.13516183  0.89649311  1.0
  Ni  Ni94  1  0.57840194  0.46849517  0.89649311  1.0
  Ni  Ni95  1  0.57840194  0.80182850  0.89649311  1.0
  Ni  Ni96  1  0.91173528  0.13516183  0.89649311  1.0
  Ni  Ni97  1  0.91173528  0.46849517  0.89649311  1.0
  Ni  Ni98  1  0.91173528  0.80182850  0.89649311  1.0
  Ni  Ni99  1  0.13395750  0.13516183  0.95204867  1.0
  Ni  Ni100  1  0.13395750  0.46849517  0.95204867  1.0
  Ni  Ni101  1  0.13395750  0.80182850  0.95204867  1.0
  Ni  Ni102  1  0.46729083  0.13516183  0.95204867  1.0
  Ni  Ni103  1  0.46729083  0.46849517  0.95204867  1.0
  Ni  Ni104  1  0.46729083  0.80182850  0.95204867  1.0
  Ni  Ni105  1  0.80062417  0.13516183  0.95204867  1.0
  Ni  Ni106  1  0.80062417  0.46849517  0.95204867  1.0
  Ni  Ni107  1  0.80062417  0.80182850  0.95204867  1.0
  Ni  Ni108  1  0.26095739  0.21331250  0.94286622  1.0
  Ni  Ni109  1  0.26095739  0.54664583  0.94286622  1.0
  Ni  Ni110  1  0.26095739  0.87997917  0.94286622  1.0
  Ni  Ni111  1  0.59429072  0.21331250  0.94286622  1.0
  Ni  Ni112  1  0.59429072  0.54664583  0.94286622  1.0
  Ni  Ni113  1  0.59429072  0.87997917  0.94286622  1.0
  Ni  Ni114  1  0.92762406  0.21331250  0.94286622  1.0
  Ni  Ni115  1  0.92762406  0.54664583  0.94286622  1.0
  Ni  Ni116  1  0.92762406  0.87997917  0.94286622  1.0
  Ni  Ni117  1  0.14984628  0.21331250  0.99842178  1.0
  Ni  Ni118  1  0.14984628  0.54664583  0.99842178  1.0
  Ni  Ni119  1  0.14984628  0.87997917  0.99842178  1.0
  Ni  Ni120  1  0.48317961  0.21331250  0.99842178  1.0
  Ni  Ni121  1  0.48317961  0.54664583  0.99842178  1.0
  Ni  Ni122  1  0.48317961  0.87997917  0.99842178  1.0
  Ni  Ni123  1  0.81651294  0.21331250  0.99842178  1.0
  Ni  Ni124  1  0.81651294  0.54664583  0.99842178  1.0
  Ni  Ni125  1  0.81651294  0.87997917  0.99842178  1.0
  Ni  Ni126  1  0.26016550  0.04555917  0.94197317  1.0
  Ni  Ni127  1  0.26016550  0.37889250  0.94197317  1.0
  Ni  Ni128  1  0.26016550  0.71222583  0.94197317  1.0
  Ni  Ni129  1  0.59349883  0.04555917  0.94197317  1.0
  Ni  Ni130  1  0.59349883  0.37889250  0.94197317  1.0
  Ni  Ni131  1  0.59349883  0.71222583  0.94197317  1.0
  Ni  Ni132  1  0.92683217  0.04555917  0.94197317  1.0
  Ni  Ni133  1  0.92683217  0.37889250  0.94197317  1.0
  Ni  Ni134  1  0.92683217  0.71222583  0.94197317  1.0
  Ni  Ni135  1  0.14905439  0.04555917  0.99752872  1.0
  Ni  Ni136  1  0.14905439  0.37889250  0.99752872  1.0
  Ni  Ni137  1  0.14905439  0.71222583  0.99752872  1.0
  Ni  Ni138  1  0.48238772  0.04555917  0.99752872  1.0
  Ni  Ni139  1  0.48238772  0.37889250  0.99752872  1.0
  Ni  Ni140  1  0.48238772  0.71222583  0.99752872  1.0
  Ni  Ni141  1  0.81572106  0.04555917  0.99752872  1.0
  Ni  Ni142  1  0.81572106  0.37889250  0.99752872  1.0
  Ni  Ni143  1  0.81572106  0.71222583  0.99752872  1.0
  Ni  Ni144  1  0.03873517  0.21331250  0.96917550  1.0
  Ni  Ni145  1  0.03873517  0.54664583  0.96917550  1.0
  Ni  Ni146  1  0.03873517  0.87997917  0.96917550  1.0
  Ni  Ni147  1  0.37206850  0.21331250  0.96917550  1.0
  Ni  Ni148  1  0.37206850  0.54664583  0.96917550  1.0
  Ni  Ni149  1  0.37206850  0.87997917  0.96917550  1.0
  Ni  Ni150  1  0.70540183  0.21331250  0.96917550  1.0
  Ni  Ni151  1  0.70540183  0.54664583  0.96917550  1.0
  Ni  Ni152  1  0.70540183  0.87997917  0.96917550  1.0
  Ni  Ni153  1  0.14984628  0.21331250  0.91361994  1.0
  Ni  Ni154  1  0.14984628  0.54664583  0.91361994  1.0
  Ni  Ni155  1  0.14984628  0.87997917  0.91361994  1.0
  Ni  Ni156  1  0.48317961  0.21331250  0.91361994  1.0
  Ni  Ni157  1  0.48317961  0.54664583  0.91361994  1.0
  Ni  Ni158  1  0.48317961  0.87997917  0.91361994  1.0
  Ni  Ni159  1  0.81651294  0.21331250  0.91361994  1.0
  Ni  Ni160  1  0.81651294  0.54664583  0.91361994  1.0
  Ni  Ni161  1  0.81651294  0.87997917  0.91361994  1.0
  Ni  Ni162  1  0.14905439  0.04555917  0.91411706  1.0
  Ni  Ni163  1  0.14905439  0.37889250  0.91411706  1.0
  Ni  Ni164  1  0.14905439  0.71222583  0.91411706  1.0
  Ni  Ni165  1  0.48238772  0.04555917  0.91411706  1.0
  Ni  Ni166  1  0.48238772  0.37889250  0.91411706  1.0
  Ni  Ni167  1  0.48238772  0.71222583  0.91411706  1.0
  Ni  Ni168  1  0.81572106  0.04555917  0.91411706  1.0
  Ni  Ni169  1  0.81572106  0.37889250  0.91411706  1.0
  Ni  Ni170  1  0.81572106  0.71222583  0.91411706  1.0
  Ni  Ni171  1  0.03794328  0.04555917  0.96967261  1.0
  Ni  Ni172  1  0.03794328  0.37889250  0.96967261  1.0
  Ni  Ni173  1  0.03794328  0.71222583  0.96967261  1.0
  Ni  Ni174  1  0.37127661  0.04555917  0.96967261  1.0
  Ni  Ni175  1  0.37127661  0.37889250  0.96967261  1.0
  Ni  Ni176  1  0.37127661  0.71222583  0.96967261  1.0
  Ni  Ni177  1  0.70460994  0.04555917  0.96967261  1.0
  Ni  Ni178  1  0.70460994  0.37889250  0.96967261  1.0
  Ni  Ni179  1  0.70460994  0.71222583  0.96967261  1.0
  Ni  Ni180  1  0.31553394  0.21331250  0.99744278  1.0
  Ni  Ni181  1  0.31553394  0.54664583  0.99744278  1.0
  Ni  Ni182  1  0.31553394  0.87997917  0.99744278  1.0
  Ni  Ni183  1  0.64886728  0.21331250  0.99744278  1.0
  Ni  Ni184  1  0.64886728  0.54664583  0.99744278  1.0
  Ni  Ni185  1  0.64886728  0.87997917  0.99744278  1.0
  Ni  Ni186  1  0.98220061  0.21331250  0.99744278  1.0
  Ni  Ni187  1  0.98220061  0.54664583  0.99744278  1.0
  Ni  Ni188  1  0.98220061  0.87997917  0.99744278  1.0
  Ni  Ni189  1  0.09331172  0.21331250  0.94188722  1.0
  Ni  Ni190  1  0.09331172  0.54664583  0.94188722  1.0
  Ni  Ni191  1  0.09331172  0.87997917  0.94188722  1.0
  Ni  Ni192  1  0.42664506  0.21331250  0.94188722  1.0
  Ni  Ni193  1  0.42664506  0.54664583  0.94188722  1.0
  Ni  Ni194  1  0.42664506  0.87997917  0.94188722  1.0
  Ni  Ni195  1  0.75997839  0.21331250  0.94188722  1.0
  Ni  Ni196  1  0.75997839  0.54664583  0.94188722  1.0
  Ni  Ni197  1  0.75997839  0.87997917  0.94188722  1.0
  Ni  Ni198  1  0.31566883  0.04555917  0.99747650  1.0
  Ni  Ni199  1  0.31566883  0.37889250  0.99747650  1.0
  Ni  Ni200  1  0.31566883  0.71222583  0.99747650  1.0
  Ni  Ni201  1  0.64900217  0.04555917  0.99747650  1.0
  Ni  Ni202  1  0.64900217  0.37889250  0.99747650  1.0
  Ni  Ni203  1  0.64900217  0.71222583  0.99747650  1.0
  Ni  Ni204  1  0.98233550  0.04555917  0.99747650  1.0
  Ni  Ni205  1  0.98233550  0.37889250  0.99747650  1.0
  Ni  Ni206  1  0.98233550  0.71222583  0.99747650  1.0
  Ni  Ni207  1  0.09344661  0.04555917  0.94192094  1.0
  Ni  Ni208  1  0.09344661  0.37889250  0.94192094  1.0
  Ni  Ni209  1  0.09344661  0.71222583  0.94192094  1.0
  Ni  Ni210  1  0.42677994  0.04555917  0.94192094  1.0
  Ni  Ni211  1  0.42677994  0.37889250  0.94192094  1.0
  Ni  Ni212  1  0.42677994  0.71222583  0.94192094  1.0
  Ni  Ni213  1  0.76011328  0.04555917  0.94192094  1.0
  Ni  Ni214  1  0.76011328  0.37889250  0.94192094  1.0
  Ni  Ni215  1  0.76011328  0.71222583  0.94192094  1.0
  Ni  Ni216  1  0.11363461  0.00757050  0.94696794  1.0
  Ni  Ni217  1  0.11363461  0.34090383  0.94696794  1.0
  Ni  Ni218  1  0.11363461  0.67423717  0.94696794  1.0
  Ni  Ni219  1  0.44696794  0.00757050  0.94696794  1.0
  Ni  Ni220  1  0.44696794  0.34090383  0.94696794  1.0
  Ni  Ni221  1  0.44696794  0.67423717  0.94696794  1.0
  Ni  Ni222  1  0.78030128  0.00757050  0.94696794  1.0
  Ni  Ni223  1  0.78030128  0.34090383  0.94696794  1.0
  Ni  Ni224  1  0.78030128  0.67423717  0.94696794  1.0
  Ni  Ni225  1  0.22474572  0.00757050  0.89141239  1.0
  Ni  Ni226  1  0.22474572  0.34090383  0.89141239  1.0
  Ni  Ni227  1  0.22474572  0.67423717  0.89141239  1.0
  Ni  Ni228  1  0.55807906  0.00757050  0.89141239  1.0
  Ni  Ni229  1  0.55807906  0.34090383  0.89141239  1.0
  Ni  Ni230  1  0.55807906  0.67423717  0.89141239  1.0
  Ni  Ni231  1  0.89141239  0.00757050  0.89141239  1.0
  Ni  Ni232  1  0.89141239  0.34090383  0.89141239  1.0
  Ni  Ni233  1  0.89141239  0.67423717  0.89141239  1.0
  Ni  Ni234  1  0.18932594  0.30291517  0.84085161  1.0
  Ni  Ni235  1  0.18932594  0.63624850  0.84085161  1.0
  Ni  Ni236  1  0.18932594  0.96958183  0.84085161  1.0
  Ni  Ni237  1  0.52265928  0.30291517  0.84085161  1.0
  Ni  Ni238  1  0.52265928  0.63624850  0.84085161  1.0
  Ni  Ni239  1  0.52265928  0.96958183  0.84085161  1.0
  Ni  Ni240  1  0.85599261  0.30291517  0.84085161  1.0
  Ni  Ni241  1  0.85599261  0.63624850  0.84085161  1.0
  Ni  Ni242  1  0.85599261  0.96958183  0.84085161  1.0
  Ni  Ni243  1  0.30043706  0.30291517  0.78529606  1.0
  Ni  Ni244  1  0.30043706  0.63624850  0.78529606  1.0
  Ni  Ni245  1  0.30043706  0.96958183  0.78529606  1.0
  Ni  Ni246  1  0.63377039  0.30291517  0.78529606  1.0
  Ni  Ni247  1  0.63377039  0.63624850  0.78529606  1.0
  Ni  Ni248  1  0.63377039  0.96958183  0.78529606  1.0
  Ni  Ni249  1  0.96710372  0.30291517  0.78529606  1.0
  Ni  Ni250  1  0.96710372  0.63624850  0.78529606  1.0
  Ni  Ni251  1  0.96710372  0.96958183  0.78529606  1.0
  Ni  Ni252  1  0.18853406  0.13516183  0.83995856  1.0
  Ni  Ni253  1  0.18853406  0.46849517  0.83995856  1.0
  Ni  Ni254  1  0.18853406  0.80182850  0.83995856  1.0
  Ni  Ni255  1  0.52186739  0.13516183  0.83995856  1.0
  Ni  Ni256  1  0.52186739  0.46849517  0.83995856  1.0
  Ni  Ni257  1  0.52186739  0.80182850  0.83995856  1.0
  Ni  Ni258  1  0.85520072  0.13516183  0.83995856  1.0
  Ni  Ni259  1  0.85520072  0.46849517  0.83995856  1.0
  Ni  Ni260  1  0.85520072  0.80182850  0.83995856  1.0
  Ni  Ni261  1  0.29964517  0.13516183  0.78440300  1.0
  Ni  Ni262  1  0.29964517  0.46849517  0.78440300  1.0
  Ni  Ni263  1  0.29964517  0.80182850  0.78440300  1.0
  Ni  Ni264  1  0.63297850  0.13516183  0.78440300  1.0
  Ni  Ni265  1  0.63297850  0.46849517  0.78440300  1.0
  Ni  Ni266  1  0.63297850  0.80182850  0.78440300  1.0
  Ni  Ni267  1  0.96631183  0.13516183  0.78440300  1.0
  Ni  Ni268  1  0.96631183  0.46849517  0.78440300  1.0
  Ni  Ni269  1  0.96631183  0.80182850  0.78440300  1.0
  Ni  Ni270  1  0.30043706  0.30291517  0.86870772  1.0
  Ni  Ni271  1  0.30043706  0.63624850  0.86870772  1.0
  Ni  Ni272  1  0.30043706  0.96958183  0.86870772  1.0
  Ni  Ni273  1  0.63377039  0.30291517  0.86870772  1.0
  Ni  Ni274  1  0.63377039  0.63624850  0.86870772  1.0
  Ni  Ni275  1  0.63377039  0.96958183  0.86870772  1.0
  Ni  Ni276  1  0.96710372  0.30291517  0.86870772  1.0
  Ni  Ni277  1  0.96710372  0.63624850  0.86870772  1.0
  Ni  Ni278  1  0.96710372  0.96958183  0.86870772  1.0
  Ni  Ni279  1  0.07821483  0.30291517  0.81315217  1.0
  Ni  Ni280  1  0.07821483  0.63624850  0.81315217  1.0
  Ni  Ni281  1  0.07821483  0.96958183  0.81315217  1.0
  Ni  Ni282  1  0.41154817  0.30291517  0.81315217  1.0
  Ni  Ni283  1  0.41154817  0.63624850  0.81315217  1.0
  Ni  Ni284  1  0.41154817  0.96958183  0.81315217  1.0
  Ni  Ni285  1  0.74488150  0.30291517  0.81315217  1.0
  Ni  Ni286  1  0.74488150  0.63624850  0.81315217  1.0
  Ni  Ni287  1  0.74488150  0.96958183  0.81315217  1.0
  Ni  Ni288  1  0.07742294  0.13516183  0.81364928  1.0
  Ni  Ni289  1  0.07742294  0.46849517  0.81364928  1.0
  Ni  Ni290  1  0.07742294  0.80182850  0.81364928  1.0
  Ni  Ni291  1  0.41075628  0.13516183  0.81364928  1.0
  Ni  Ni292  1  0.41075628  0.46849517  0.81364928  1.0
  Ni  Ni293  1  0.41075628  0.80182850  0.81364928  1.0
  Ni  Ni294  1  0.74408961  0.13516183  0.81364928  1.0
  Ni  Ni295  1  0.74408961  0.46849517  0.81364928  1.0
  Ni  Ni296  1  0.74408961  0.80182850  0.81364928  1.0
  Ni  Ni297  1  0.29964517  0.13516183  0.86920483  1.0
  Ni  Ni298  1  0.29964517  0.46849517  0.86920483  1.0
  Ni  Ni299  1  0.29964517  0.80182850  0.86920483  1.0
  Ni  Ni300  1  0.63297850  0.13516183  0.86920483  1.0
  Ni  Ni301  1  0.63297850  0.46849517  0.86920483  1.0
  Ni  Ni302  1  0.63297850  0.80182850  0.86920483  1.0
  Ni  Ni303  1  0.96631183  0.13516183  0.86920483  1.0
  Ni  Ni304  1  0.96631183  0.46849517  0.86920483  1.0
  Ni  Ni305  1  0.96631183  0.80182850  0.86920483  1.0
  Ni  Ni306  1  0.13382261  0.30291517  0.78534828  1.0
  Ni  Ni307  1  0.13382261  0.63624850  0.78534828  1.0
  Ni  Ni308  1  0.13382261  0.96958183  0.78534828  1.0
  Ni  Ni309  1  0.46715594  0.30291517  0.78534828  1.0
  Ni  Ni310  1  0.46715594  0.63624850  0.78534828  1.0
  Ni  Ni311  1  0.46715594  0.96958183  0.78534828  1.0
  Ni  Ni312  1  0.80048928  0.30291517  0.78534828  1.0
  Ni  Ni313  1  0.80048928  0.63624850  0.78534828  1.0
  Ni  Ni314  1  0.80048928  0.96958183  0.78534828  1.0
  Ni  Ni315  1  0.02271150  0.30291517  0.84090383  1.0
  Ni  Ni316  1  0.02271150  0.63624850  0.84090383  1.0
  Ni  Ni317  1  0.02271150  0.96958183  0.84090383  1.0
  Ni  Ni318  1  0.35604483  0.30291517  0.84090383  1.0
  Ni  Ni319  1  0.35604483  0.63624850  0.84090383  1.0
  Ni  Ni320  1  0.35604483  0.96958183  0.84090383  1.0
  Ni  Ni321  1  0.68937817  0.30291517  0.84090383  1.0
  Ni  Ni322  1  0.68937817  0.63624850  0.84090383  1.0
  Ni  Ni323  1  0.68937817  0.96958183  0.84090383  1.0
  Ni  Ni324  1  0.13395750  0.13516183  0.78538200  1.0
  Ni  Ni325  1  0.13395750  0.46849517  0.78538200  1.0
  Ni  Ni326  1  0.13395750  0.80182850  0.78538200  1.0
  Ni  Ni327  1  0.46729083  0.13516183  0.78538200  1.0
  Ni  Ni328  1  0.46729083  0.46849517  0.78538200  1.0
  Ni  Ni329  1  0.46729083  0.80182850  0.78538200  1.0
  Ni  Ni330  1  0.80062417  0.13516183  0.78538200  1.0
  Ni  Ni331  1  0.80062417  0.46849517  0.78538200  1.0
  Ni  Ni332  1  0.80062417  0.80182850  0.78538200  1.0
  Ni  Ni333  1  0.02284639  0.13516183  0.84093756  1.0
  Ni  Ni334  1  0.02284639  0.46849517  0.84093756  1.0
  Ni  Ni335  1  0.02284639  0.80182850  0.84093756  1.0
  Ni  Ni336  1  0.35617972  0.13516183  0.84093756  1.0
  Ni  Ni337  1  0.35617972  0.46849517  0.84093756  1.0
  Ni  Ni338  1  0.35617972  0.80182850  0.84093756  1.0
  Ni  Ni339  1  0.68951306  0.13516183  0.84093756  1.0
  Ni  Ni340  1  0.68951306  0.46849517  0.84093756  1.0
  Ni  Ni341  1  0.68951306  0.80182850  0.84093756  1.0
  Ni  Ni342  1  0.14984628  0.21331250  0.83175511  1.0
  Ni  Ni343  1  0.14984628  0.54664583  0.83175511  1.0
  Ni  Ni344  1  0.14984628  0.87997917  0.83175511  1.0
  Ni  Ni345  1  0.48317961  0.21331250  0.83175511  1.0
  Ni  Ni346  1  0.48317961  0.54664583  0.83175511  1.0
  Ni  Ni347  1  0.48317961  0.87997917  0.83175511  1.0
  Ni  Ni348  1  0.81651294  0.21331250  0.83175511  1.0
  Ni  Ni349  1  0.81651294  0.54664583  0.83175511  1.0
  Ni  Ni350  1  0.81651294  0.87997917  0.83175511  1.0
  Ni  Ni351  1  0.03873517  0.21331250  0.88731067  1.0
  Ni  Ni352  1  0.03873517  0.54664583  0.88731067  1.0
  Ni  Ni353  1  0.03873517  0.87997917  0.88731067  1.0
  Ni  Ni354  1  0.37206850  0.21331250  0.88731067  1.0
  Ni  Ni355  1  0.37206850  0.54664583  0.88731067  1.0
  Ni  Ni356  1  0.37206850  0.87997917  0.88731067  1.0
  Ni  Ni357  1  0.70540183  0.21331250  0.88731067  1.0
  Ni  Ni358  1  0.70540183  0.54664583  0.88731067  1.0
  Ni  Ni359  1  0.70540183  0.87997917  0.88731067  1.0
  Ni  Ni360  1  0.14905439  0.04555917  0.83086206  1.0
  Ni  Ni361  1  0.14905439  0.37889250  0.83086206  1.0
  Ni  Ni362  1  0.14905439  0.71222583  0.83086206  1.0
  Ni  Ni363  1  0.48238772  0.04555917  0.83086206  1.0
  Ni  Ni364  1  0.48238772  0.37889250  0.83086206  1.0
  Ni  Ni365  1  0.48238772  0.71222583  0.83086206  1.0
  Ni  Ni366  1  0.81572106  0.04555917  0.83086206  1.0
  Ni  Ni367  1  0.81572106  0.37889250  0.83086206  1.0
  Ni  Ni368  1  0.81572106  0.71222583  0.83086206  1.0
  Ni  Ni369  1  0.03794328  0.04555917  0.88641761  1.0
  Ni  Ni370  1  0.03794328  0.37889250  0.88641761  1.0
  Ni  Ni371  1  0.03794328  0.71222583  0.88641761  1.0
  Ni  Ni372  1  0.37127661  0.04555917  0.88641761  1.0
  Ni  Ni373  1  0.37127661  0.37889250  0.88641761  1.0
  Ni  Ni374  1  0.37127661  0.71222583  0.88641761  1.0
  Ni  Ni375  1  0.70460994  0.04555917  0.88641761  1.0
  Ni  Ni376  1  0.70460994  0.37889250  0.88641761  1.0
  Ni  Ni377  1  0.70460994  0.71222583  0.88641761  1.0
  Ni  Ni378  1  0.26095739  0.21331250  0.85806439  1.0
  Ni  Ni379  1  0.26095739  0.54664583  0.85806439  1.0
  Ni  Ni380  1  0.26095739  0.87997917  0.85806439  1.0
  Ni  Ni381  1  0.59429072  0.21331250  0.85806439  1.0
  Ni  Ni382  1  0.59429072  0.54664583  0.85806439  1.0
  Ni  Ni383  1  0.59429072  0.87997917  0.85806439  1.0
  Ni  Ni384  1  0.92762406  0.21331250  0.85806439  1.0
  Ni  Ni385  1  0.92762406  0.54664583  0.85806439  1.0
  Ni  Ni386  1  0.92762406  0.87997917  0.85806439  1.0
  Ni  Ni387  1  0.03873517  0.21331250  0.80250883  1.0
  Ni  Ni388  1  0.03873517  0.54664583  0.80250883  1.0
  Ni  Ni389  1  0.03873517  0.87997917  0.80250883  1.0
  Ni  Ni390  1  0.37206850  0.21331250  0.80250883  1.0
  Ni  Ni391  1  0.37206850  0.54664583  0.80250883  1.0
  Ni  Ni392  1  0.37206850  0.87997917  0.80250883  1.0
  Ni  Ni393  1  0.70540183  0.21331250  0.80250883  1.0
  Ni  Ni394  1  0.70540183  0.54664583  0.80250883  1.0
  Ni  Ni395  1  0.70540183  0.87997917  0.80250883  1.0
  Ni  Ni396  1  0.03794328  0.04555917  0.80300594  1.0
  Ni  Ni397  1  0.03794328  0.37889250  0.80300594  1.0
  Ni  Ni398  1  0.03794328  0.71222583  0.80300594  1.0
  Ni  Ni399  1  0.37127661  0.04555917  0.80300594  1.0
  Ni  Ni400  1  0.37127661  0.37889250  0.80300594  1.0
  Ni  Ni401  1  0.37127661  0.71222583  0.80300594  1.0
  Ni  Ni402  1  0.70460994  0.04555917  0.80300594  1.0
  Ni  Ni403  1  0.70460994  0.37889250  0.80300594  1.0
  Ni  Ni404  1  0.70460994  0.71222583  0.80300594  1.0
  Ni  Ni405  1  0.26016550  0.04555917  0.85856150  1.0
  Ni  Ni406  1  0.26016550  0.37889250  0.85856150  1.0
  Ni  Ni407  1  0.26016550  0.71222583  0.85856150  1.0
  Ni  Ni408  1  0.59349883  0.04555917  0.85856150  1.0
  Ni  Ni409  1  0.59349883  0.37889250  0.85856150  1.0
  Ni  Ni410  1  0.59349883  0.71222583  0.85856150  1.0
  Ni  Ni411  1  0.92683217  0.04555917  0.85856150  1.0
  Ni  Ni412  1  0.92683217  0.37889250  0.85856150  1.0
  Ni  Ni413  1  0.92683217  0.71222583  0.85856150  1.0
  Ni  Ni414  1  0.20442283  0.21331250  0.88633167  1.0
  Ni  Ni415  1  0.20442283  0.54664583  0.88633167  1.0
  Ni  Ni416  1  0.20442283  0.87997917  0.88633167  1.0
  Ni  Ni417  1  0.53775617  0.21331250  0.88633167  1.0
  Ni  Ni418  1  0.53775617  0.54664583  0.88633167  1.0
  Ni  Ni419  1  0.53775617  0.87997917  0.88633167  1.0
  Ni  Ni420  1  0.87108950  0.21331250  0.88633167  1.0
  Ni  Ni421  1  0.87108950  0.54664583  0.88633167  1.0
  Ni  Ni422  1  0.87108950  0.87997917  0.88633167  1.0
  Ni  Ni423  1  0.31553394  0.21331250  0.83077611  1.0
  Ni  Ni424  1  0.31553394  0.54664583  0.83077611  1.0
  Ni  Ni425  1  0.31553394  0.87997917  0.83077611  1.0
  Ni  Ni426  1  0.64886728  0.21331250  0.83077611  1.0
  Ni  Ni427  1  0.64886728  0.54664583  0.83077611  1.0
  Ni  Ni428  1  0.64886728  0.87997917  0.83077611  1.0
  Ni  Ni429  1  0.98220061  0.21331250  0.83077611  1.0
  Ni  Ni430  1  0.98220061  0.54664583  0.83077611  1.0
  Ni  Ni431  1  0.98220061  0.87997917  0.83077611  1.0
  Ni  Ni432  1  0.20455772  0.04555917  0.88636539  1.0
  Ni  Ni433  1  0.20455772  0.37889250  0.88636539  1.0
  Ni  Ni434  1  0.20455772  0.71222583  0.88636539  1.0
  Ni  Ni435  1  0.53789106  0.04555917  0.88636539  1.0
  Ni  Ni436  1  0.53789106  0.37889250  0.88636539  1.0
  Ni  Ni437  1  0.53789106  0.71222583  0.88636539  1.0
  Ni  Ni438  1  0.87122439  0.04555917  0.88636539  1.0
  Ni  Ni439  1  0.87122439  0.37889250  0.88636539  1.0
  Ni  Ni440  1  0.87122439  0.71222583  0.88636539  1.0
  Ni  Ni441  1  0.31566883  0.04555917  0.83080983  1.0
  Ni  Ni442  1  0.31566883  0.37889250  0.83080983  1.0
  Ni  Ni443  1  0.31566883  0.71222583  0.83080983  1.0
  Ni  Ni444  1  0.64900217  0.04555917  0.83080983  1.0
  Ni  Ni445  1  0.64900217  0.37889250  0.83080983  1.0
  Ni  Ni446  1  0.64900217  0.71222583  0.83080983  1.0
  Ni  Ni447  1  0.98233550  0.04555917  0.83080983  1.0
  Ni  Ni448  1  0.98233550  0.37889250  0.83080983  1.0
  Ni  Ni449  1  0.98233550  0.71222583  0.83080983  1.0
  Ni  Ni450  1  0.00252350  0.00757050  0.83585683  1.0
  Ni  Ni451  1  0.00252350  0.34090383  0.83585683  1.0
  Ni  Ni452  1  0.00252350  0.67423717  0.83585683  1.0
  Ni  Ni453  1  0.33585683  0.00757050  0.83585683  1.0
  Ni  Ni454  1  0.33585683  0.34090383  0.83585683  1.0
  Ni  Ni455  1  0.33585683  0.67423717  0.83585683  1.0
  Ni  Ni456  1  0.66919017  0.00757050  0.83585683  1.0
  Ni  Ni457  1  0.66919017  0.34090383  0.83585683  1.0
  Ni  Ni458  1  0.66919017  0.67423717  0.83585683  1.0
  Ni  Ni459  1  0.11363461  0.00757050  0.78030128  1.0
  Ni  Ni460  1  0.11363461  0.34090383  0.78030128  1.0
  Ni  Ni461  1  0.11363461  0.67423717  0.78030128  1.0
  Ni  Ni462  1  0.44696794  0.00757050  0.78030128  1.0
  Ni  Ni463  1  0.44696794  0.34090383  0.78030128  1.0
  Ni  Ni464  1  0.44696794  0.67423717  0.78030128  1.0
  Ni  Ni465  1  0.78030128  0.00757050  0.78030128  1.0
  Ni  Ni466  1  0.78030128  0.34090383  0.78030128  1.0
  Ni  Ni467  1  0.78030128  0.67423717  0.78030128  1.0
  Ni  Ni468  1  0.07821483  0.30291517  0.72974050  1.0
  Ni  Ni469  1  0.07821483  0.63624850  0.72974050  1.0
  Ni  Ni470  1  0.07821483  0.96958183  0.72974050  1.0
  Ni  Ni471  1  0.41154817  0.30291517  0.72974050  1.0
  Ni  Ni472  1  0.41154817  0.63624850  0.72974050  1.0
  Ni  Ni473  1  0.41154817  0.96958183  0.72974050  1.0
  Ni  Ni474  1  0.74488150  0.30291517  0.72974050  1.0
  Ni  Ni475  1  0.74488150  0.63624850  0.72974050  1.0
  Ni  Ni476  1  0.74488150  0.96958183  0.72974050  1.0
  Ni  Ni477  1  0.18932594  0.30291517  0.67418494  1.0
  Ni  Ni478  1  0.18932594  0.63624850  0.67418494  1.0
  Ni  Ni479  1  0.18932594  0.96958183  0.67418494  1.0
  Ni  Ni480  1  0.52265928  0.30291517  0.67418494  1.0
  Ni  Ni481  1  0.52265928  0.63624850  0.67418494  1.0
  Ni  Ni482  1  0.52265928  0.96958183  0.67418494  1.0
  Ni  Ni483  1  0.85599261  0.30291517  0.67418494  1.0
  Ni  Ni484  1  0.85599261  0.63624850  0.67418494  1.0
  Ni  Ni485  1  0.85599261  0.96958183  0.67418494  1.0
  Ni  Ni486  1  0.07742294  0.13516183  0.72884744  1.0
  Ni  Ni487  1  0.07742294  0.46849517  0.72884744  1.0
  Ni  Ni488  1  0.07742294  0.80182850  0.72884744  1.0
  Ni  Ni489  1  0.41075628  0.13516183  0.72884744  1.0
  Ni  Ni490  1  0.41075628  0.46849517  0.72884744  1.0
  Ni  Ni491  1  0.41075628  0.80182850  0.72884744  1.0
  Ni  Ni492  1  0.74408961  0.13516183  0.72884744  1.0
  Ni  Ni493  1  0.74408961  0.46849517  0.72884744  1.0
  Ni  Ni494  1  0.74408961  0.80182850  0.72884744  1.0
  Ni  Ni495  1  0.18853406  0.13516183  0.67329189  1.0
  Ni  Ni496  1  0.18853406  0.46849517  0.67329189  1.0
  Ni  Ni497  1  0.18853406  0.80182850  0.67329189  1.0
  Ni  Ni498  1  0.52186739  0.13516183  0.67329189  1.0
  Ni  Ni499  1  0.52186739  0.46849517  0.67329189  1.0
  Ni  Ni500  1  0.52186739  0.80182850  0.67329189  1.0
  Ni  Ni501  1  0.85520072  0.13516183  0.67329189  1.0
  Ni  Ni502  1  0.85520072  0.46849517  0.67329189  1.0
  Ni  Ni503  1  0.85520072  0.80182850  0.67329189  1.0
  Ni  Ni504  1  0.18932594  0.30291517  0.75759661  1.0
  Ni  Ni505  1  0.18932594  0.63624850  0.75759661  1.0
  Ni  Ni506  1  0.18932594  0.96958183  0.75759661  1.0
  Ni  Ni507  1  0.52265928  0.30291517  0.75759661  1.0
  Ni  Ni508  1  0.52265928  0.63624850  0.75759661  1.0
  Ni  Ni509  1  0.52265928  0.96958183  0.75759661  1.0
  Ni  Ni510  1  0.85599261  0.30291517  0.75759661  1.0
  Ni  Ni511  1  0.85599261  0.63624850  0.75759661  1.0
  Ni  Ni512  1  0.85599261  0.96958183  0.75759661  1.0
  Ni  Ni513  1  0.30043706  0.30291517  0.70204106  1.0
  Ni  Ni514  1  0.30043706  0.63624850  0.70204106  1.0
  Ni  Ni515  1  0.30043706  0.96958183  0.70204106  1.0
  Ni  Ni516  1  0.63377039  0.30291517  0.70204106  1.0
  Ni  Ni517  1  0.63377039  0.63624850  0.70204106  1.0
  Ni  Ni518  1  0.63377039  0.96958183  0.70204106  1.0
  Ni  Ni519  1  0.96710372  0.30291517  0.70204106  1.0
  Ni  Ni520  1  0.96710372  0.63624850  0.70204106  1.0
  Ni  Ni521  1  0.96710372  0.96958183  0.70204106  1.0
  Ni  Ni522  1  0.29964517  0.13516183  0.70253817  1.0
  Ni  Ni523  1  0.29964517  0.46849517  0.70253817  1.0
  Ni  Ni524  1  0.29964517  0.80182850  0.70253817  1.0
  Ni  Ni525  1  0.63297850  0.13516183  0.70253817  1.0
  Ni  Ni526  1  0.63297850  0.46849517  0.70253817  1.0
  Ni  Ni527  1  0.63297850  0.80182850  0.70253817  1.0
  Ni  Ni528  1  0.96631183  0.13516183  0.70253817  1.0
  Ni  Ni529  1  0.96631183  0.46849517  0.70253817  1.0
  Ni  Ni530  1  0.96631183  0.80182850  0.70253817  1.0
  Ni  Ni531  1  0.18853406  0.13516183  0.75809372  1.0
  Ni  Ni532  1  0.18853406  0.46849517  0.75809372  1.0
  Ni  Ni533  1  0.18853406  0.80182850  0.75809372  1.0
  Ni  Ni534  1  0.52186739  0.13516183  0.75809372  1.0
  Ni  Ni535  1  0.52186739  0.46849517  0.75809372  1.0
  Ni  Ni536  1  0.52186739  0.80182850  0.75809372  1.0
  Ni  Ni537  1  0.85520072  0.13516183  0.75809372  1.0
  Ni  Ni538  1  0.85520072  0.46849517  0.75809372  1.0
  Ni  Ni539  1  0.85520072  0.80182850  0.75809372  1.0
  Ni  Ni540  1  0.02271150  0.30291517  0.67423717  1.0
  Ni  Ni541  1  0.02271150  0.63624850  0.67423717  1.0
  Ni  Ni542  1  0.02271150  0.96958183  0.67423717  1.0
  Ni  Ni543  1  0.35604483  0.30291517  0.67423717  1.0
  Ni  Ni544  1  0.35604483  0.63624850  0.67423717  1.0
  Ni  Ni545  1  0.35604483  0.96958183  0.67423717  1.0
  Ni  Ni546  1  0.68937817  0.30291517  0.67423717  1.0
  Ni  Ni547  1  0.68937817  0.63624850  0.67423717  1.0
  Ni  Ni548  1  0.68937817  0.96958183  0.67423717  1.0
  Ni  Ni549  1  0.24493372  0.30291517  0.72979272  1.0
  Ni  Ni550  1  0.24493372  0.63624850  0.72979272  1.0
  Ni  Ni551  1  0.24493372  0.96958183  0.72979272  1.0
  Ni  Ni552  1  0.57826706  0.30291517  0.72979272  1.0
  Ni  Ni553  1  0.57826706  0.63624850  0.72979272  1.0
  Ni  Ni554  1  0.57826706  0.96958183  0.72979272  1.0
  Ni  Ni555  1  0.91160039  0.30291517  0.72979272  1.0
  Ni  Ni556  1  0.91160039  0.63624850  0.72979272  1.0
  Ni  Ni557  1  0.91160039  0.96958183  0.72979272  1.0
  Ni  Ni558  1  0.02284639  0.13516183  0.67427089  1.0
  Ni  Ni559  1  0.02284639  0.46849517  0.67427089  1.0
  Ni  Ni560  1  0.02284639  0.80182850  0.67427089  1.0
  Ni  Ni561  1  0.35617972  0.13516183  0.67427089  1.0
  Ni  Ni562  1  0.35617972  0.46849517  0.67427089  1.0
  Ni  Ni563  1  0.35617972  0.80182850  0.67427089  1.0
  Ni  Ni564  1  0.68951306  0.13516183  0.67427089  1.0
  Ni  Ni565  1  0.68951306  0.46849517  0.67427089  1.0
  Ni  Ni566  1  0.68951306  0.80182850  0.67427089  1.0
  Ni  Ni567  1  0.24506861  0.13516183  0.72982644  1.0
  Ni  Ni568  1  0.24506861  0.46849517  0.72982644  1.0
  Ni  Ni569  1  0.24506861  0.80182850  0.72982644  1.0
  Ni  Ni570  1  0.57840194  0.13516183  0.72982644  1.0
  Ni  Ni571  1  0.57840194  0.46849517  0.72982644  1.0
  Ni  Ni572  1  0.57840194  0.80182850  0.72982644  1.0
  Ni  Ni573  1  0.91173528  0.13516183  0.72982644  1.0
  Ni  Ni574  1  0.91173528  0.46849517  0.72982644  1.0
  Ni  Ni575  1  0.91173528  0.80182850  0.72982644  1.0
  Ni  Ni576  1  0.03873517  0.21331250  0.72064400  1.0
  Ni  Ni577  1  0.03873517  0.54664583  0.72064400  1.0
  Ni  Ni578  1  0.03873517  0.87997917  0.72064400  1.0
  Ni  Ni579  1  0.37206850  0.21331250  0.72064400  1.0
  Ni  Ni580  1  0.37206850  0.54664583  0.72064400  1.0
  Ni  Ni581  1  0.37206850  0.87997917  0.72064400  1.0
  Ni  Ni582  1  0.70540183  0.21331250  0.72064400  1.0
  Ni  Ni583  1  0.70540183  0.54664583  0.72064400  1.0
  Ni  Ni584  1  0.70540183  0.87997917  0.72064400  1.0
  Ni  Ni585  1  0.26095739  0.21331250  0.77619956  1.0
  Ni  Ni586  1  0.26095739  0.54664583  0.77619956  1.0
  Ni  Ni587  1  0.26095739  0.87997917  0.77619956  1.0
  Ni  Ni588  1  0.59429072  0.21331250  0.77619956  1.0
  Ni  Ni589  1  0.59429072  0.54664583  0.77619956  1.0
  Ni  Ni590  1  0.59429072  0.87997917  0.77619956  1.0
  Ni  Ni591  1  0.92762406  0.21331250  0.77619956  1.0
  Ni  Ni592  1  0.92762406  0.54664583  0.77619956  1.0
  Ni  Ni593  1  0.92762406  0.87997917  0.77619956  1.0
  Ni  Ni594  1  0.03794328  0.04555917  0.71975094  1.0
  Ni  Ni595  1  0.03794328  0.37889250  0.71975094  1.0
  Ni  Ni596  1  0.03794328  0.71222583  0.71975094  1.0
  Ni  Ni597  1  0.37127661  0.04555917  0.71975094  1.0
  Ni  Ni598  1  0.37127661  0.37889250  0.71975094  1.0
  Ni  Ni599  1  0.37127661  0.71222583  0.71975094  1.0
  Ni  Ni600  1  0.70460994  0.04555917  0.71975094  1.0
  Ni  Ni601  1  0.70460994  0.37889250  0.71975094  1.0
  Ni  Ni602  1  0.70460994  0.71222583  0.71975094  1.0
  Ni  Ni603  1  0.26016550  0.04555917  0.77530650  1.0
  Ni  Ni604  1  0.26016550  0.37889250  0.77530650  1.0
  Ni  Ni605  1  0.26016550  0.71222583  0.77530650  1.0
  Ni  Ni606  1  0.59349883  0.04555917  0.77530650  1.0
  Ni  Ni607  1  0.59349883  0.37889250  0.77530650  1.0
  Ni  Ni608  1  0.59349883  0.71222583  0.77530650  1.0
  Ni  Ni609  1  0.92683217  0.04555917  0.77530650  1.0
  Ni  Ni610  1  0.92683217  0.37889250  0.77530650  1.0
  Ni  Ni611  1  0.92683217  0.71222583  0.77530650  1.0
  Ni  Ni612  1  0.14984628  0.21331250  0.74695328  1.0
  Ni  Ni613  1  0.14984628  0.54664583  0.74695328  1.0
  Ni  Ni614  1  0.14984628  0.87997917  0.74695328  1.0
  Ni  Ni615  1  0.48317961  0.21331250  0.74695328  1.0
  Ni  Ni616  1  0.48317961  0.54664583  0.74695328  1.0
  Ni  Ni617  1  0.48317961  0.87997917  0.74695328  1.0
  Ni  Ni618  1  0.81651294  0.21331250  0.74695328  1.0
  Ni  Ni619  1  0.81651294  0.54664583  0.74695328  1.0
  Ni  Ni620  1  0.81651294  0.87997917  0.74695328  1.0
  Ni  Ni621  1  0.26095739  0.21331250  0.69139772  1.0
  Ni  Ni622  1  0.26095739  0.54664583  0.69139772  1.0
  Ni  Ni623  1  0.26095739  0.87997917  0.69139772  1.0
  Ni  Ni624  1  0.59429072  0.21331250  0.69139772  1.0
  Ni  Ni625  1  0.59429072  0.54664583  0.69139772  1.0
  Ni  Ni626  1  0.59429072  0.87997917  0.69139772  1.0
  Ni  Ni627  1  0.92762406  0.21331250  0.69139772  1.0
  Ni  Ni628  1  0.92762406  0.54664583  0.69139772  1.0
  Ni  Ni629  1  0.92762406  0.87997917  0.69139772  1.0
  Ni  Ni630  1  0.26016550  0.04555917  0.69189483  1.0
  Ni  Ni631  1  0.26016550  0.37889250  0.69189483  1.0
  Ni  Ni632  1  0.26016550  0.71222583  0.69189483  1.0
  Ni  Ni633  1  0.59349883  0.04555917  0.69189483  1.0
  Ni  Ni634  1  0.59349883  0.37889250  0.69189483  1.0
  Ni  Ni635  1  0.59349883  0.71222583  0.69189483  1.0
  Ni  Ni636  1  0.92683217  0.04555917  0.69189483  1.0
  Ni  Ni637  1  0.92683217  0.37889250  0.69189483  1.0
  Ni  Ni638  1  0.92683217  0.71222583  0.69189483  1.0
  Ni  Ni639  1  0.14905439  0.04555917  0.74745039  1.0
  Ni  Ni640  1  0.14905439  0.37889250  0.74745039  1.0
  Ni  Ni641  1  0.14905439  0.71222583  0.74745039  1.0
  Ni  Ni642  1  0.48238772  0.04555917  0.74745039  1.0
  Ni  Ni643  1  0.48238772  0.37889250  0.74745039  1.0
  Ni  Ni644  1  0.48238772  0.71222583  0.74745039  1.0
  Ni  Ni645  1  0.81572106  0.04555917  0.74745039  1.0
  Ni  Ni646  1  0.81572106  0.37889250  0.74745039  1.0
  Ni  Ni647  1  0.81572106  0.71222583  0.74745039  1.0
  Ni  Ni648  1  0.09331172  0.21331250  0.77522056  1.0
  Ni  Ni649  1  0.09331172  0.54664583  0.77522056  1.0
  Ni  Ni650  1  0.09331172  0.87997917  0.77522056  1.0
  Ni  Ni651  1  0.42664506  0.21331250  0.77522056  1.0
  Ni  Ni652  1  0.42664506  0.54664583  0.77522056  1.0
  Ni  Ni653  1  0.42664506  0.87997917  0.77522056  1.0
  Ni  Ni654  1  0.75997839  0.21331250  0.77522056  1.0
  Ni  Ni655  1  0.75997839  0.54664583  0.77522056  1.0
  Ni  Ni656  1  0.75997839  0.87997917  0.77522056  1.0
  Ni  Ni657  1  0.20442283  0.21331250  0.71966500  1.0
  Ni  Ni658  1  0.20442283  0.54664583  0.71966500  1.0
  Ni  Ni659  1  0.20442283  0.87997917  0.71966500  1.0
  Ni  Ni660  1  0.53775617  0.21331250  0.71966500  1.0
  Ni  Ni661  1  0.53775617  0.54664583  0.71966500  1.0
  Ni  Ni662  1  0.53775617  0.87997917  0.71966500  1.0
  Ni  Ni663  1  0.87108950  0.21331250  0.71966500  1.0
  Ni  Ni664  1  0.87108950  0.54664583  0.71966500  1.0
  Ni  Ni665  1  0.87108950  0.87997917  0.71966500  1.0
  Ni  Ni666  1  0.09344661  0.04555917  0.77525428  1.0
  Ni  Ni667  1  0.09344661  0.37889250  0.77525428  1.0
  Ni  Ni668  1  0.09344661  0.71222583  0.77525428  1.0
  Ni  Ni669  1  0.42677994  0.04555917  0.77525428  1.0
  Ni  Ni670  1  0.42677994  0.37889250  0.77525428  1.0
  Ni  Ni671  1  0.42677994  0.71222583  0.77525428  1.0
  Ni  Ni672  1  0.76011328  0.04555917  0.77525428  1.0
  Ni  Ni673  1  0.76011328  0.37889250  0.77525428  1.0
  Ni  Ni674  1  0.76011328  0.71222583  0.77525428  1.0
  Ni  Ni675  1  0.20455772  0.04555917  0.71969872  1.0
  Ni  Ni676  1  0.20455772  0.37889250  0.71969872  1.0
  Ni  Ni677  1  0.20455772  0.71222583  0.71969872  1.0
  Ni  Ni678  1  0.53789106  0.04555917  0.71969872  1.0
  Ni  Ni679  1  0.53789106  0.37889250  0.71969872  1.0
  Ni  Ni680  1  0.53789106  0.71222583  0.71969872  1.0
  Ni  Ni681  1  0.87122439  0.04555917  0.71969872  1.0
  Ni  Ni682  1  0.87122439  0.37889250  0.71969872  1.0
  Ni  Ni683  1  0.87122439  0.71222583  0.71969872  1.0
  Ni  Ni684  1  0.22474572  0.00757050  0.72474572  1.0
  Ni  Ni685  1  0.22474572  0.34090383  0.72474572  1.0
  Ni  Ni686  1  0.22474572  0.67423717  0.72474572  1.0
  Ni  Ni687  1  0.55807906  0.00757050  0.72474572  1.0
  Ni  Ni688  1  0.55807906  0.34090383  0.72474572  1.0
  Ni  Ni689  1  0.55807906  0.67423717  0.72474572  1.0
  Ni  Ni690  1  0.89141239  0.00757050  0.72474572  1.0
  Ni  Ni691  1  0.89141239  0.34090383  0.72474572  1.0
  Ni  Ni692  1  0.89141239  0.67423717  0.72474572  1.0
  Ni  Ni693  1  0.00252350  0.00757050  0.66919017  1.0
  Ni  Ni694  1  0.00252350  0.34090383  0.66919017  1.0
  Ni  Ni695  1  0.00252350  0.67423717  0.66919017  1.0
  Ni  Ni696  1  0.33585683  0.00757050  0.66919017  1.0
  Ni  Ni697  1  0.33585683  0.34090383  0.66919017  1.0
  Ni  Ni698  1  0.33585683  0.67423717  0.66919017  1.0
  Ni  Ni699  1  0.66919017  0.00757050  0.66919017  1.0
  Ni  Ni700  1  0.66919017  0.34090383  0.66919017  1.0
  Ni  Ni701  1  0.66919017  0.67423717  0.66919017  1.0
  Ni  Ni702  1  0.30043706  0.30291517  0.61862939  1.0
  Ni  Ni703  1  0.30043706  0.63624850  0.61862939  1.0
  Ni  Ni704  1  0.30043706  0.96958183  0.61862939  1.0
  Ni  Ni705  1  0.63377039  0.30291517  0.61862939  1.0
  Ni  Ni706  1  0.63377039  0.63624850  0.61862939  1.0
  Ni  Ni707  1  0.63377039  0.96958183  0.61862939  1.0
  Ni  Ni708  1  0.96710372  0.30291517  0.61862939  1.0
  Ni  Ni709  1  0.96710372  0.63624850  0.61862939  1.0
  Ni  Ni710  1  0.96710372  0.96958183  0.61862939  1.0
  Ni  Ni711  1  0.07821483  0.30291517  0.56307383  1.0
  Ni  Ni712  1  0.07821483  0.63624850  0.56307383  1.0
  Ni  Ni713  1  0.07821483  0.96958183  0.56307383  1.0
  Ni  Ni714  1  0.41154817  0.30291517  0.56307383  1.0
  Ni  Ni715  1  0.41154817  0.63624850  0.56307383  1.0
  Ni  Ni716  1  0.41154817  0.96958183  0.56307383  1.0
  Ni  Ni717  1  0.74488150  0.30291517  0.56307383  1.0
  Ni  Ni718  1  0.74488150  0.63624850  0.56307383  1.0
  Ni  Ni719  1  0.74488150  0.96958183  0.56307383  1.0
  Ni  Ni720  1  0.29964517  0.13516183  0.61773633  1.0
  Ni  Ni721  1  0.29964517  0.46849517  0.61773633  1.0
  Ni  Ni722  1  0.29964517  0.80182850  0.61773633  1.0
  Ni  Ni723  1  0.63297850  0.13516183  0.61773633  1.0
  Ni  Ni724  1  0.63297850  0.46849517  0.61773633  1.0
  Ni  Ni725  1  0.63297850  0.80182850  0.61773633  1.0
  Ni  Ni726  1  0.96631183  0.13516183  0.61773633  1.0
  Ni  Ni727  1  0.96631183  0.46849517  0.61773633  1.0
  Ni  Ni728  1  0.96631183  0.80182850  0.61773633  1.0
  Ni  Ni729  1  0.07742294  0.13516183  0.56218078  1.0
  Ni  Ni730  1  0.07742294  0.46849517  0.56218078  1.0
  Ni  Ni731  1  0.07742294  0.80182850  0.56218078  1.0
  Ni  Ni732  1  0.41075628  0.13516183  0.56218078  1.0
  Ni  Ni733  1  0.41075628  0.46849517  0.56218078  1.0
  Ni  Ni734  1  0.41075628  0.80182850  0.56218078  1.0
  Ni  Ni735  1  0.74408961  0.13516183  0.56218078  1.0
  Ni  Ni736  1  0.74408961  0.46849517  0.56218078  1.0
  Ni  Ni737  1  0.74408961  0.80182850  0.56218078  1.0
  Ni  Ni738  1  0.07821483  0.30291517  0.64648550  1.0
  Ni  Ni739  1  0.07821483  0.63624850  0.64648550  1.0
  Ni  Ni740  1  0.07821483  0.96958183  0.64648550  1.0
  Ni  Ni741  1  0.41154817  0.30291517  0.64648550  1.0
  Ni  Ni742  1  0.41154817  0.63624850  0.64648550  1.0
  Ni  Ni743  1  0.41154817  0.96958183  0.64648550  1.0
  Ni  Ni744  1  0.74488150  0.30291517  0.64648550  1.0
  Ni  Ni745  1  0.74488150  0.63624850  0.64648550  1.0
  Ni  Ni746  1  0.74488150  0.96958183  0.64648550  1.0
  Ni  Ni747  1  0.18932594  0.30291517  0.59092994  1.0
  Ni  Ni748  1  0.18932594  0.63624850  0.59092994  1.0
  Ni  Ni749  1  0.18932594  0.96958183  0.59092994  1.0
  Ni  Ni750  1  0.52265928  0.30291517  0.59092994  1.0
  Ni  Ni751  1  0.52265928  0.63624850  0.59092994  1.0
  Ni  Ni752  1  0.52265928  0.96958183  0.59092994  1.0
  Ni  Ni753  1  0.85599261  0.30291517  0.59092994  1.0
  Ni  Ni754  1  0.85599261  0.63624850  0.59092994  1.0
  Ni  Ni755  1  0.85599261  0.96958183  0.59092994  1.0
  Ni  Ni756  1  0.18853406  0.13516183  0.59142706  1.0
  Ni  Ni757  1  0.18853406  0.46849517  0.59142706  1.0
  Ni  Ni758  1  0.18853406  0.80182850  0.59142706  1.0
  Ni  Ni759  1  0.52186739  0.13516183  0.59142706  1.0
  Ni  Ni760  1  0.52186739  0.46849517  0.59142706  1.0
  Ni  Ni761  1  0.52186739  0.80182850  0.59142706  1.0
  Ni  Ni762  1  0.85520072  0.13516183  0.59142706  1.0
  Ni  Ni763  1  0.85520072  0.46849517  0.59142706  1.0
  Ni  Ni764  1  0.85520072  0.80182850  0.59142706  1.0
  Ni  Ni765  1  0.07742294  0.13516183  0.64698261  1.0
  Ni  Ni766  1  0.07742294  0.46849517  0.64698261  1.0
  Ni  Ni767  1  0.07742294  0.80182850  0.64698261  1.0
  Ni  Ni768  1  0.41075628  0.13516183  0.64698261  1.0
  Ni  Ni769  1  0.41075628  0.46849517  0.64698261  1.0
  Ni  Ni770  1  0.41075628  0.80182850  0.64698261  1.0
  Ni  Ni771  1  0.74408961  0.13516183  0.64698261  1.0
  Ni  Ni772  1  0.74408961  0.46849517  0.64698261  1.0
  Ni  Ni773  1  0.74408961  0.80182850  0.64698261  1.0
  Ni  Ni774  1  0.24493372  0.30291517  0.56312606  1.0
  Ni  Ni775  1  0.24493372  0.63624850  0.56312606  1.0
  Ni  Ni776  1  0.24493372  0.96958183  0.56312606  1.0
  Ni  Ni777  1  0.57826706  0.30291517  0.56312606  1.0
  Ni  Ni778  1  0.57826706  0.63624850  0.56312606  1.0
  Ni  Ni779  1  0.57826706  0.96958183  0.56312606  1.0
  Ni  Ni780  1  0.91160039  0.30291517  0.56312606  1.0
  Ni  Ni781  1  0.91160039  0.63624850  0.56312606  1.0
  Ni  Ni782  1  0.91160039  0.96958183  0.56312606  1.0
  Ni  Ni783  1  0.13382261  0.30291517  0.61868161  1.0
  Ni  Ni784  1  0.13382261  0.63624850  0.61868161  1.0
  Ni  Ni785  1  0.13382261  0.96958183  0.61868161  1.0
  Ni  Ni786  1  0.46715594  0.30291517  0.61868161  1.0
  Ni  Ni787  1  0.46715594  0.63624850  0.61868161  1.0
  Ni  Ni788  1  0.46715594  0.96958183  0.61868161  1.0
  Ni  Ni789  1  0.80048928  0.30291517  0.61868161  1.0
  Ni  Ni790  1  0.80048928  0.63624850  0.61868161  1.0
  Ni  Ni791  1  0.80048928  0.96958183  0.61868161  1.0
  Ni  Ni792  1  0.24506861  0.13516183  0.56315978  1.0
  Ni  Ni793  1  0.24506861  0.46849517  0.56315978  1.0
  Ni  Ni794  1  0.24506861  0.80182850  0.56315978  1.0
  Ni  Ni795  1  0.57840194  0.13516183  0.56315978  1.0
  Ni  Ni796  1  0.57840194  0.46849517  0.56315978  1.0
  Ni  Ni797  1  0.57840194  0.80182850  0.56315978  1.0
  Ni  Ni798  1  0.91173528  0.13516183  0.56315978  1.0
  Ni  Ni799  1  0.91173528  0.46849517  0.56315978  1.0
  Ni  Ni800  1  0.91173528  0.80182850  0.56315978  1.0
  Ni  Ni801  1  0.13395750  0.13516183  0.61871533  1.0
  Ni  Ni802  1  0.13395750  0.46849517  0.61871533  1.0
  Ni  Ni803  1  0.13395750  0.80182850  0.61871533  1.0
  Ni  Ni804  1  0.46729083  0.13516183  0.61871533  1.0
  Ni  Ni805  1  0.46729083  0.46849517  0.61871533  1.0
  Ni  Ni806  1  0.46729083  0.80182850  0.61871533  1.0
  Ni  Ni807  1  0.80062417  0.13516183  0.61871533  1.0
  Ni  Ni808  1  0.80062417  0.46849517  0.61871533  1.0
  Ni  Ni809  1  0.80062417  0.80182850  0.61871533  1.0
  Ni  Ni810  1  0.26095739  0.21331250  0.60953289  1.0
  Ni  Ni811  1  0.26095739  0.54664583  0.60953289  1.0
  Ni  Ni812  1  0.26095739  0.87997917  0.60953289  1.0
  Ni  Ni813  1  0.59429072  0.21331250  0.60953289  1.0
  Ni  Ni814  1  0.59429072  0.54664583  0.60953289  1.0
  Ni  Ni815  1  0.59429072  0.87997917  0.60953289  1.0
  Ni  Ni816  1  0.92762406  0.21331250  0.60953289  1.0
  Ni  Ni817  1  0.92762406  0.54664583  0.60953289  1.0
  Ni  Ni818  1  0.92762406  0.87997917  0.60953289  1.0
  Ni  Ni819  1  0.14984628  0.21331250  0.66508844  1.0
  Ni  Ni820  1  0.14984628  0.54664583  0.66508844  1.0
  Ni  Ni821  1  0.14984628  0.87997917  0.66508844  1.0
  Ni  Ni822  1  0.48317961  0.21331250  0.66508844  1.0
  Ni  Ni823  1  0.48317961  0.54664583  0.66508844  1.0
  Ni  Ni824  1  0.48317961  0.87997917  0.66508844  1.0
  Ni  Ni825  1  0.81651294  0.21331250  0.66508844  1.0
  Ni  Ni826  1  0.81651294  0.54664583  0.66508844  1.0
  Ni  Ni827  1  0.81651294  0.87997917  0.66508844  1.0
  Ni  Ni828  1  0.26016550  0.04555917  0.60863983  1.0
  Ni  Ni829  1  0.26016550  0.37889250  0.60863983  1.0
  Ni  Ni830  1  0.26016550  0.71222583  0.60863983  1.0
  Ni  Ni831  1  0.59349883  0.04555917  0.60863983  1.0
  Ni  Ni832  1  0.59349883  0.37889250  0.60863983  1.0
  Ni  Ni833  1  0.59349883  0.71222583  0.60863983  1.0
  Ni  Ni834  1  0.92683217  0.04555917  0.60863983  1.0
  Ni  Ni835  1  0.92683217  0.37889250  0.60863983  1.0
  Ni  Ni836  1  0.92683217  0.71222583  0.60863983  1.0
  Ni  Ni837  1  0.14905439  0.04555917  0.66419539  1.0
  Ni  Ni838  1  0.14905439  0.37889250  0.66419539  1.0
  Ni  Ni839  1  0.14905439  0.71222583  0.66419539  1.0
  Ni  Ni840  1  0.48238772  0.04555917  0.66419539  1.0
  Ni  Ni841  1  0.48238772  0.37889250  0.66419539  1.0
  Ni  Ni842  1  0.48238772  0.71222583  0.66419539  1.0
  Ni  Ni843  1  0.81572106  0.04555917  0.66419539  1.0
  Ni  Ni844  1  0.81572106  0.37889250  0.66419539  1.0
  Ni  Ni845  1  0.81572106  0.71222583  0.66419539  1.0
  Ni  Ni846  1  0.03873517  0.21331250  0.63584217  1.0
  Ni  Ni847  1  0.03873517  0.54664583  0.63584217  1.0
  Ni  Ni848  1  0.03873517  0.87997917  0.63584217  1.0
  Ni  Ni849  1  0.37206850  0.21331250  0.63584217  1.0
  Ni  Ni850  1  0.37206850  0.54664583  0.63584217  1.0
  Ni  Ni851  1  0.37206850  0.87997917  0.63584217  1.0
  Ni  Ni852  1  0.70540183  0.21331250  0.63584217  1.0
  Ni  Ni853  1  0.70540183  0.54664583  0.63584217  1.0
  Ni  Ni854  1  0.70540183  0.87997917  0.63584217  1.0
  Ni  Ni855  1  0.14984628  0.21331250  0.58028661  1.0
  Ni  Ni856  1  0.14984628  0.54664583  0.58028661  1.0
  Ni  Ni857  1  0.14984628  0.87997917  0.58028661  1.0
  Ni  Ni858  1  0.48317961  0.21331250  0.58028661  1.0
  Ni  Ni859  1  0.48317961  0.54664583  0.58028661  1.0
  Ni  Ni860  1  0.48317961  0.87997917  0.58028661  1.0
  Ni  Ni861  1  0.81651294  0.21331250  0.58028661  1.0
  Ni  Ni862  1  0.81651294  0.54664583  0.58028661  1.0
  Ni  Ni863  1  0.81651294  0.87997917  0.58028661  1.0
  Ni  Ni864  1  0.14905439  0.04555917  0.58078372  1.0
  Ni  Ni865  1  0.14905439  0.37889250  0.58078372  1.0
  Ni  Ni866  1  0.14905439  0.71222583  0.58078372  1.0
  Ni  Ni867  1  0.48238772  0.04555917  0.58078372  1.0
  Ni  Ni868  1  0.48238772  0.37889250  0.58078372  1.0
  Ni  Ni869  1  0.48238772  0.71222583  0.58078372  1.0
  Ni  Ni870  1  0.81572106  0.04555917  0.58078372  1.0
  Ni  Ni871  1  0.81572106  0.37889250  0.58078372  1.0
  Ni  Ni872  1  0.81572106  0.71222583  0.58078372  1.0
  Ni  Ni873  1  0.03794328  0.04555917  0.63633928  1.0
  Ni  Ni874  1  0.03794328  0.37889250  0.63633928  1.0
  Ni  Ni875  1  0.03794328  0.71222583  0.63633928  1.0
  Ni  Ni876  1  0.37127661  0.04555917  0.63633928  1.0
  Ni  Ni877  1  0.37127661  0.37889250  0.63633928  1.0
  Ni  Ni878  1  0.37127661  0.71222583  0.63633928  1.0
  Ni  Ni879  1  0.70460994  0.04555917  0.63633928  1.0
  Ni  Ni880  1  0.70460994  0.37889250  0.63633928  1.0
  Ni  Ni881  1  0.70460994  0.71222583  0.63633928  1.0
  Ni  Ni882  1  0.31553394  0.21331250  0.66410944  1.0
  Ni  Ni883  1  0.31553394  0.54664583  0.66410944  1.0
  Ni  Ni884  1  0.31553394  0.87997917  0.66410944  1.0
  Ni  Ni885  1  0.64886728  0.21331250  0.66410944  1.0
  Ni  Ni886  1  0.64886728  0.54664583  0.66410944  1.0
  Ni  Ni887  1  0.64886728  0.87997917  0.66410944  1.0
  Ni  Ni888  1  0.98220061  0.21331250  0.66410944  1.0
  Ni  Ni889  1  0.98220061  0.54664583  0.66410944  1.0
  Ni  Ni890  1  0.98220061  0.87997917  0.66410944  1.0
  Ni  Ni891  1  0.09331172  0.21331250  0.60855389  1.0
  Ni  Ni892  1  0.09331172  0.54664583  0.60855389  1.0
  Ni  Ni893  1  0.09331172  0.87997917  0.60855389  1.0
  Ni  Ni894  1  0.42664506  0.21331250  0.60855389  1.0
  Ni  Ni895  1  0.42664506  0.54664583  0.60855389  1.0
  Ni  Ni896  1  0.42664506  0.87997917  0.60855389  1.0
  Ni  Ni897  1  0.75997839  0.21331250  0.60855389  1.0
  Ni  Ni898  1  0.75997839  0.54664583  0.60855389  1.0
  Ni  Ni899  1  0.75997839  0.87997917  0.60855389  1.0
  Ni  Ni900  1  0.31566883  0.04555917  0.66414317  1.0
  Ni  Ni901  1  0.31566883  0.37889250  0.66414317  1.0
  Ni  Ni902  1  0.31566883  0.71222583  0.66414317  1.0
  Ni  Ni903  1  0.64900217  0.04555917  0.66414317  1.0
  Ni  Ni904  1  0.64900217  0.37889250  0.66414317  1.0
  Ni  Ni905  1  0.64900217  0.71222583  0.66414317  1.0
  Ni  Ni906  1  0.98233550  0.04555917  0.66414317  1.0
  Ni  Ni907  1  0.98233550  0.37889250  0.66414317  1.0
  Ni  Ni908  1  0.98233550  0.71222583  0.66414317  1.0
  Ni  Ni909  1  0.09344661  0.04555917  0.60858761  1.0
  Ni  Ni910  1  0.09344661  0.37889250  0.60858761  1.0
  Ni  Ni911  1  0.09344661  0.71222583  0.60858761  1.0
  Ni  Ni912  1  0.42677994  0.04555917  0.60858761  1.0
  Ni  Ni913  1  0.42677994  0.37889250  0.60858761  1.0
  Ni  Ni914  1  0.42677994  0.71222583  0.60858761  1.0
  Ni  Ni915  1  0.76011328  0.04555917  0.60858761  1.0
  Ni  Ni916  1  0.76011328  0.37889250  0.60858761  1.0
  Ni  Ni917  1  0.76011328  0.71222583  0.60858761  1.0
  Ni  Ni918  1  0.11363461  0.00757050  0.61363461  1.0
  Ni  Ni919  1  0.11363461  0.34090383  0.61363461  1.0
  Ni  Ni920  1  0.11363461  0.67423717  0.61363461  1.0
  Ni  Ni921  1  0.44696794  0.00757050  0.61363461  1.0
  Ni  Ni922  1  0.44696794  0.34090383  0.61363461  1.0
  Ni  Ni923  1  0.44696794  0.67423717  0.61363461  1.0
  Ni  Ni924  1  0.78030128  0.00757050  0.61363461  1.0
  Ni  Ni925  1  0.78030128  0.34090383  0.61363461  1.0
  Ni  Ni926  1  0.78030128  0.67423717  0.61363461  1.0
  Ni  Ni927  1  0.22474572  0.00757050  0.55807906  1.0
  Ni  Ni928  1  0.22474572  0.34090383  0.55807906  1.0
  Ni  Ni929  1  0.22474572  0.67423717  0.55807906  1.0
  Ni  Ni930  1  0.55807906  0.00757050  0.55807906  1.0
  Ni  Ni931  1  0.55807906  0.34090383  0.55807906  1.0
  Ni  Ni932  1  0.55807906  0.67423717  0.55807906  1.0
  Ni  Ni933  1  0.89141239  0.00757050  0.55807906  1.0
  Ni  Ni934  1  0.89141239  0.34090383  0.55807906  1.0
  Ni  Ni935  1  0.89141239  0.67423717  0.55807906  1.0
  Ta  Ta936  1  0.19037950  0.18024650  0.96615417  1.0
  Ta  Ta937  1  0.19037950  0.51357983  0.96615417  1.0
  Ta  Ta938  1  0.19037950  0.84691317  0.96615417  1.0
  Ta  Ta939  1  0.52371283  0.18024650  0.96615417  1.0
  Ta  Ta940  1  0.52371283  0.51357983  0.96615417  1.0
  Ta  Ta941  1  0.52371283  0.84691317  0.96615417  1.0
  Ta  Ta942  1  0.85704617  0.18024650  0.96615417  1.0
  Ta  Ta943  1  0.85704617  0.51357983  0.96615417  1.0
  Ta  Ta944  1  0.85704617  0.84691317  0.96615417  1.0
  Ta  Ta945  1  0.30149061  0.18024650  0.91059861  1.0
  Ta  Ta946  1  0.30149061  0.51357983  0.91059861  1.0
  Ta  Ta947  1  0.30149061  0.84691317  0.91059861  1.0
  Ta  Ta948  1  0.63482394  0.18024650  0.91059861  1.0
  Ta  Ta949  1  0.63482394  0.51357983  0.91059861  1.0
  Ta  Ta950  1  0.63482394  0.84691317  0.91059861  1.0
  Ta  Ta951  1  0.96815728  0.18024650  0.91059861  1.0
  Ta  Ta952  1  0.96815728  0.51357983  0.91059861  1.0
  Ta  Ta953  1  0.96815728  0.84691317  0.91059861  1.0
  Ta  Ta954  1  0.30141772  0.01341583  0.91058039  1.0
  Ta  Ta955  1  0.30141772  0.34674917  0.91058039  1.0
  Ta  Ta956  1  0.30141772  0.68008250  0.91058039  1.0
  Ta  Ta957  1  0.63475106  0.01341583  0.91058039  1.0
  Ta  Ta958  1  0.63475106  0.34674917  0.91058039  1.0
  Ta  Ta959  1  0.63475106  0.68008250  0.91058039  1.0
  Ta  Ta960  1  0.96808439  0.01341583  0.91058039  1.0
  Ta  Ta961  1  0.96808439  0.34674917  0.91058039  1.0
  Ta  Ta962  1  0.96808439  0.68008250  0.91058039  1.0
  Ta  Ta963  1  0.19030661  0.01341583  0.96613594  1.0
  Ta  Ta964  1  0.19030661  0.34674917  0.96613594  1.0
  Ta  Ta965  1  0.19030661  0.68008250  0.96613594  1.0
  Ta  Ta966  1  0.52363994  0.01341583  0.96613594  1.0
  Ta  Ta967  1  0.52363994  0.34674917  0.96613594  1.0
  Ta  Ta968  1  0.52363994  0.68008250  0.96613594  1.0
  Ta  Ta969  1  0.85697328  0.01341583  0.96613594  1.0
  Ta  Ta970  1  0.85697328  0.34674917  0.96613594  1.0
  Ta  Ta971  1  0.85697328  0.68008250  0.96613594  1.0
  Ta  Ta972  1  0.25918483  0.00172517  0.98335550  1.0
  Ta  Ta973  1  0.25918483  0.33505850  0.98335550  1.0
  Ta  Ta974  1  0.25918483  0.66839183  0.98335550  1.0
  Ta  Ta975  1  0.59251817  0.00172517  0.98335550  1.0
  Ta  Ta976  1  0.59251817  0.33505850  0.98335550  1.0
  Ta  Ta977  1  0.59251817  0.66839183  0.98335550  1.0
  Ta  Ta978  1  0.92585150  0.00172517  0.98335550  1.0
  Ta  Ta979  1  0.92585150  0.33505850  0.98335550  1.0
  Ta  Ta980  1  0.92585150  0.66839183  0.98335550  1.0
  Ta  Ta981  1  0.03696261  0.00172517  0.92779994  1.0
  Ta  Ta982  1  0.03696261  0.33505850  0.92779994  1.0
  Ta  Ta983  1  0.03696261  0.66839183  0.92779994  1.0
  Ta  Ta984  1  0.37029594  0.00172517  0.92779994  1.0
  Ta  Ta985  1  0.37029594  0.33505850  0.92779994  1.0
  Ta  Ta986  1  0.37029594  0.66839183  0.92779994  1.0
  Ta  Ta987  1  0.70362928  0.00172517  0.92779994  1.0
  Ta  Ta988  1  0.70362928  0.33505850  0.92779994  1.0
  Ta  Ta989  1  0.70362928  0.66839183  0.92779994  1.0
  Ta  Ta990  1  0.03688972  0.16822783  0.92778172  1.0
  Ta  Ta991  1  0.03688972  0.50156117  0.92778172  1.0
  Ta  Ta992  1  0.03688972  0.83489450  0.92778172  1.0
  Ta  Ta993  1  0.37022306  0.16822783  0.92778172  1.0
  Ta  Ta994  1  0.37022306  0.50156117  0.92778172  1.0
  Ta  Ta995  1  0.37022306  0.83489450  0.92778172  1.0
  Ta  Ta996  1  0.70355639  0.16822783  0.92778172  1.0
  Ta  Ta997  1  0.70355639  0.50156117  0.92778172  1.0
  Ta  Ta998  1  0.70355639  0.83489450  0.92778172  1.0
  Ta  Ta999  1  0.25911194  0.16822783  0.98333728  1.0
  Ta  Ta1000  1  0.25911194  0.50156117  0.98333728  1.0
  Ta  Ta1001  1  0.25911194  0.83489450  0.98333728  1.0
  Ta  Ta1002  1  0.59244528  0.16822783  0.98333728  1.0
  Ta  Ta1003  1  0.59244528  0.50156117  0.98333728  1.0
  Ta  Ta1004  1  0.59244528  0.83489450  0.98333728  1.0
  Ta  Ta1005  1  0.92577861  0.16822783  0.98333728  1.0
  Ta  Ta1006  1  0.92577861  0.50156117  0.98333728  1.0
  Ta  Ta1007  1  0.92577861  0.83489450  0.98333728  1.0
  Ta  Ta1008  1  0.21395417  0.23328950  0.97204783  1.0
  Ta  Ta1009  1  0.21395417  0.56662283  0.97204783  1.0
  Ta  Ta1010  1  0.21395417  0.89995617  0.97204783  1.0
  Ta  Ta1011  1  0.54728750  0.23328950  0.97204783  1.0
  Ta  Ta1012  1  0.54728750  0.56662283  0.97204783  1.0
  Ta  Ta1013  1  0.54728750  0.89995617  0.97204783  1.0
  Ta  Ta1014  1  0.88062083  0.23328950  0.97204783  1.0
  Ta  Ta1015  1  0.88062083  0.56662283  0.97204783  1.0
  Ta  Ta1016  1  0.88062083  0.89995617  0.97204783  1.0
  Ta  Ta1017  1  0.32506528  0.23328950  0.91649228  1.0
  Ta  Ta1018  1  0.32506528  0.56662283  0.91649228  1.0
  Ta  Ta1019  1  0.32506528  0.89995617  0.91649228  1.0
  Ta  Ta1020  1  0.65839861  0.23328950  0.91649228  1.0
  Ta  Ta1021  1  0.65839861  0.56662283  0.91649228  1.0
  Ta  Ta1022  1  0.65839861  0.89995617  0.91649228  1.0
  Ta  Ta1023  1  0.99173194  0.23328950  0.91649228  1.0
  Ta  Ta1024  1  0.99173194  0.56662283  0.91649228  1.0
  Ta  Ta1025  1  0.99173194  0.89995617  0.91649228  1.0
  Ta  Ta1026  1  0.32484217  0.06612083  0.91643650  1.0
  Ta  Ta1027  1  0.32484217  0.39945417  0.91643650  1.0
  Ta  Ta1028  1  0.32484217  0.73278750  0.91643650  1.0
  Ta  Ta1029  1  0.65817550  0.06612083  0.91643650  1.0
  Ta  Ta1030  1  0.65817550  0.39945417  0.91643650  1.0
  Ta  Ta1031  1  0.65817550  0.73278750  0.91643650  1.0
  Ta  Ta1032  1  0.99150883  0.06612083  0.91643650  1.0
  Ta  Ta1033  1  0.99150883  0.39945417  0.91643650  1.0
  Ta  Ta1034  1  0.99150883  0.73278750  0.91643650  1.0
  Ta  Ta1035  1  0.21373106  0.06612083  0.97199206  1.0
  Ta  Ta1036  1  0.21373106  0.39945417  0.97199206  1.0
  Ta  Ta1037  1  0.21373106  0.73278750  0.97199206  1.0
  Ta  Ta1038  1  0.54706439  0.06612083  0.97199206  1.0
  Ta  Ta1039  1  0.54706439  0.39945417  0.97199206  1.0
  Ta  Ta1040  1  0.54706439  0.73278750  0.97199206  1.0
  Ta  Ta1041  1  0.88039772  0.06612083  0.97199206  1.0
  Ta  Ta1042  1  0.88039772  0.39945417  0.97199206  1.0
  Ta  Ta1043  1  0.88039772  0.73278750  0.97199206  1.0
  Ta  Ta1044  1  0.23576039  0.28235350  0.97749939  1.0
  Ta  Ta1045  1  0.23576039  0.61568683  0.97749939  1.0
  Ta  Ta1046  1  0.23576039  0.94902017  0.97749939  1.0
  Ta  Ta1047  1  0.56909372  0.28235350  0.97749939  1.0
  Ta  Ta1048  1  0.56909372  0.61568683  0.97749939  1.0
  Ta  Ta1049  1  0.56909372  0.94902017  0.97749939  1.0
  Ta  Ta1050  1  0.90242706  0.28235350  0.97749939  1.0
  Ta  Ta1051  1  0.90242706  0.61568683  0.97749939  1.0
  Ta  Ta1052  1  0.90242706  0.94902017  0.97749939  1.0
  Ta  Ta1053  1  0.01353817  0.28235350  0.92194383  1.0
  Ta  Ta1054  1  0.01353817  0.61568683  0.92194383  1.0
  Ta  Ta1055  1  0.01353817  0.94902017  0.92194383  1.0
  Ta  Ta1056  1  0.34687150  0.28235350  0.92194383  1.0
  Ta  Ta1057  1  0.34687150  0.61568683  0.92194383  1.0
  Ta  Ta1058  1  0.34687150  0.94902017  0.92194383  1.0
  Ta  Ta1059  1  0.68020483  0.28235350  0.92194383  1.0
  Ta  Ta1060  1  0.68020483  0.61568683  0.92194383  1.0
  Ta  Ta1061  1  0.68020483  0.94902017  0.92194383  1.0
  Ta  Ta1062  1  0.01331506  0.11518483  0.92188806  1.0
  Ta  Ta1063  1  0.01331506  0.44851817  0.92188806  1.0
  Ta  Ta1064  1  0.01331506  0.78185150  0.92188806  1.0
  Ta  Ta1065  1  0.34664839  0.11518483  0.92188806  1.0
  Ta  Ta1066  1  0.34664839  0.44851817  0.92188806  1.0
  Ta  Ta1067  1  0.34664839  0.78185150  0.92188806  1.0
  Ta  Ta1068  1  0.67998172  0.11518483  0.92188806  1.0
  Ta  Ta1069  1  0.67998172  0.44851817  0.92188806  1.0
  Ta  Ta1070  1  0.67998172  0.78185150  0.92188806  1.0
  Ta  Ta1071  1  0.23553728  0.11518483  0.97744361  1.0
  Ta  Ta1072  1  0.23553728  0.44851817  0.97744361  1.0
  Ta  Ta1073  1  0.23553728  0.78185150  0.97744361  1.0
  Ta  Ta1074  1  0.56887061  0.11518483  0.97744361  1.0
  Ta  Ta1075  1  0.56887061  0.44851817  0.97744361  1.0
  Ta  Ta1076  1  0.56887061  0.78185150  0.97744361  1.0
  Ta  Ta1077  1  0.90220394  0.11518483  0.97744361  1.0
  Ta  Ta1078  1  0.90220394  0.44851817  0.97744361  1.0
  Ta  Ta1079  1  0.90220394  0.78185150  0.97744361  1.0
  Ta  Ta1080  1  0.26201061  0.25808317  0.90072861  1.0
  Ta  Ta1081  1  0.26201061  0.59141650  0.90072861  1.0
  Ta  Ta1082  1  0.26201061  0.92474983  0.90072861  1.0
  Ta  Ta1083  1  0.59534394  0.25808317  0.90072861  1.0
  Ta  Ta1084  1  0.59534394  0.59141650  0.90072861  1.0
  Ta  Ta1085  1  0.59534394  0.92474983  0.90072861  1.0
  Ta  Ta1086  1  0.92867728  0.25808317  0.90072861  1.0
  Ta  Ta1087  1  0.92867728  0.59141650  0.90072861  1.0
  Ta  Ta1088  1  0.92867728  0.92474983  0.90072861  1.0
  Ta  Ta1089  1  0.15089950  0.25808317  0.95628417  1.0
  Ta  Ta1090  1  0.15089950  0.59141650  0.95628417  1.0
  Ta  Ta1091  1  0.15089950  0.92474983  0.95628417  1.0
  Ta  Ta1092  1  0.48423283  0.25808317  0.95628417  1.0
  Ta  Ta1093  1  0.48423283  0.59141650  0.95628417  1.0
  Ta  Ta1094  1  0.48423283  0.92474983  0.95628417  1.0
  Ta  Ta1095  1  0.81756617  0.25808317  0.95628417  1.0
  Ta  Ta1096  1  0.81756617  0.59141650  0.95628417  1.0
  Ta  Ta1097  1  0.81756617  0.92474983  0.95628417  1.0
  Ta  Ta1098  1  0.15044083  0.09038450  0.95616950  1.0
  Ta  Ta1099  1  0.15044083  0.42371783  0.95616950  1.0
  Ta  Ta1100  1  0.15044083  0.75705117  0.95616950  1.0
  Ta  Ta1101  1  0.48377417  0.09038450  0.95616950  1.0
  Ta  Ta1102  1  0.48377417  0.42371783  0.95616950  1.0
  Ta  Ta1103  1  0.48377417  0.75705117  0.95616950  1.0
  Ta  Ta1104  1  0.81710750  0.09038450  0.95616950  1.0
  Ta  Ta1105  1  0.81710750  0.42371783  0.95616950  1.0
  Ta  Ta1106  1  0.81710750  0.75705117  0.95616950  1.0
  Ta  Ta1107  1  0.26155194  0.09038450  0.90061394  1.0
  Ta  Ta1108  1  0.26155194  0.42371783  0.90061394  1.0
  Ta  Ta1109  1  0.26155194  0.75705117  0.90061394  1.0
  Ta  Ta1110  1  0.59488528  0.09038450  0.90061394  1.0
  Ta  Ta1111  1  0.59488528  0.42371783  0.90061394  1.0
  Ta  Ta1112  1  0.59488528  0.75705117  0.90061394  1.0
  Ta  Ta1113  1  0.92821861  0.09038450  0.90061394  1.0
  Ta  Ta1114  1  0.92821861  0.42371783  0.90061394  1.0
  Ta  Ta1115  1  0.92821861  0.75705117  0.90061394  1.0
  Ta  Ta1116  1  0.07682839  0.25808983  0.93776639  1.0
  Ta  Ta1117  1  0.07682839  0.59142317  0.93776639  1.0
  Ta  Ta1118  1  0.07682839  0.92475650  0.93776639  1.0
  Ta  Ta1119  1  0.41016172  0.25808983  0.93776639  1.0
  Ta  Ta1120  1  0.41016172  0.59142317  0.93776639  1.0
  Ta  Ta1121  1  0.41016172  0.92475650  0.93776639  1.0
  Ta  Ta1122  1  0.74349506  0.25808983  0.93776639  1.0
  Ta  Ta1123  1  0.74349506  0.59142317  0.93776639  1.0
  Ta  Ta1124  1  0.74349506  0.92475650  0.93776639  1.0
  Ta  Ta1125  1  0.29905061  0.25808983  0.99332194  1.0
  Ta  Ta1126  1  0.29905061  0.59142317  0.99332194  1.0
  Ta  Ta1127  1  0.29905061  0.92475650  0.99332194  1.0
  Ta  Ta1128  1  0.63238394  0.25808983  0.99332194  1.0
  Ta  Ta1129  1  0.63238394  0.59142317  0.99332194  1.0
  Ta  Ta1130  1  0.63238394  0.92475650  0.99332194  1.0
  Ta  Ta1131  1  0.96571728  0.25808983  0.99332194  1.0
  Ta  Ta1132  1  0.96571728  0.59142317  0.99332194  1.0
  Ta  Ta1133  1  0.96571728  0.92475650  0.99332194  1.0
  Ta  Ta1134  1  0.29859194  0.09039117  0.99320728  1.0
  Ta  Ta1135  1  0.29859194  0.42372450  0.99320728  1.0
  Ta  Ta1136  1  0.29859194  0.75705783  0.99320728  1.0
  Ta  Ta1137  1  0.63192528  0.09039117  0.99320728  1.0
  Ta  Ta1138  1  0.63192528  0.42372450  0.99320728  1.0
  Ta  Ta1139  1  0.63192528  0.75705783  0.99320728  1.0
  Ta  Ta1140  1  0.96525861  0.09039117  0.99320728  1.0
  Ta  Ta1141  1  0.96525861  0.42372450  0.99320728  1.0
  Ta  Ta1142  1  0.96525861  0.75705783  0.99320728  1.0
  Ta  Ta1143  1  0.07636972  0.09039117  0.93765172  1.0
  Ta  Ta1144  1  0.07636972  0.42372450  0.93765172  1.0
  Ta  Ta1145  1  0.07636972  0.75705783  0.93765172  1.0
  Ta  Ta1146  1  0.40970306  0.09039117  0.93765172  1.0
  Ta  Ta1147  1  0.40970306  0.42372450  0.93765172  1.0
  Ta  Ta1148  1  0.40970306  0.75705783  0.93765172  1.0
  Ta  Ta1149  1  0.74303639  0.09039117  0.93765172  1.0
  Ta  Ta1150  1  0.74303639  0.42372450  0.93765172  1.0
  Ta  Ta1151  1  0.74303639  0.75705783  0.93765172  1.0
  Ta  Ta1152  1  0.22474572  0.17423717  0.89141239  1.0
  Ta  Ta1153  1  0.22474572  0.50757050  0.89141239  1.0
  Ta  Ta1154  1  0.22474572  0.84090383  0.89141239  1.0
  Ta  Ta1155  1  0.55807906  0.17423717  0.89141239  1.0
  Ta  Ta1156  1  0.55807906  0.50757050  0.89141239  1.0
  Ta  Ta1157  1  0.55807906  0.84090383  0.89141239  1.0
  Ta  Ta1158  1  0.89141239  0.17423717  0.89141239  1.0
  Ta  Ta1159  1  0.89141239  0.50757050  0.89141239  1.0
  Ta  Ta1160  1  0.89141239  0.84090383  0.89141239  1.0
  Ta  Ta1161  1  0.11363461  0.17423717  0.94696794  1.0
  Ta  Ta1162  1  0.11363461  0.50757050  0.94696794  1.0
  Ta  Ta1163  1  0.11363461  0.84090383  0.94696794  1.0
  Ta  Ta1164  1  0.44696794  0.17423717  0.94696794  1.0
  Ta  Ta1165  1  0.44696794  0.50757050  0.94696794  1.0
  Ta  Ta1166  1  0.44696794  0.84090383  0.94696794  1.0
  Ta  Ta1167  1  0.78030128  0.17423717  0.94696794  1.0
  Ta  Ta1168  1  0.78030128  0.50757050  0.94696794  1.0
  Ta  Ta1169  1  0.78030128  0.84090383  0.94696794  1.0
  Ta  Ta1170  1  0.07926839  0.18024650  0.85504306  1.0
  Ta  Ta1171  1  0.07926839  0.51357983  0.85504306  1.0
  Ta  Ta1172  1  0.07926839  0.84691317  0.85504306  1.0
  Ta  Ta1173  1  0.41260172  0.18024650  0.85504306  1.0
  Ta  Ta1174  1  0.41260172  0.51357983  0.85504306  1.0
  Ta  Ta1175  1  0.41260172  0.84691317  0.85504306  1.0
  Ta  Ta1176  1  0.74593506  0.18024650  0.85504306  1.0
  Ta  Ta1177  1  0.74593506  0.51357983  0.85504306  1.0
  Ta  Ta1178  1  0.74593506  0.84691317  0.85504306  1.0
  Ta  Ta1179  1  0.19037950  0.18024650  0.79948750  1.0
  Ta  Ta1180  1  0.19037950  0.51357983  0.79948750  1.0
  Ta  Ta1181  1  0.19037950  0.84691317  0.79948750  1.0
  Ta  Ta1182  1  0.52371283  0.18024650  0.79948750  1.0
  Ta  Ta1183  1  0.52371283  0.51357983  0.79948750  1.0
  Ta  Ta1184  1  0.52371283  0.84691317  0.79948750  1.0
  Ta  Ta1185  1  0.85704617  0.18024650  0.79948750  1.0
  Ta  Ta1186  1  0.85704617  0.51357983  0.79948750  1.0
  Ta  Ta1187  1  0.85704617  0.84691317  0.79948750  1.0
  Ta  Ta1188  1  0.19030661  0.01341583  0.79946928  1.0
  Ta  Ta1189  1  0.19030661  0.34674917  0.79946928  1.0
  Ta  Ta1190  1  0.19030661  0.68008250  0.79946928  1.0
  Ta  Ta1191  1  0.52363994  0.01341583  0.79946928  1.0
  Ta  Ta1192  1  0.52363994  0.34674917  0.79946928  1.0
  Ta  Ta1193  1  0.52363994  0.68008250  0.79946928  1.0
  Ta  Ta1194  1  0.85697328  0.01341583  0.79946928  1.0
  Ta  Ta1195  1  0.85697328  0.34674917  0.79946928  1.0
  Ta  Ta1196  1  0.85697328  0.68008250  0.79946928  1.0
  Ta  Ta1197  1  0.07919550  0.01341583  0.85502483  1.0
  Ta  Ta1198  1  0.07919550  0.34674917  0.85502483  1.0
  Ta  Ta1199  1  0.07919550  0.68008250  0.85502483  1.0
  Ta  Ta1200  1  0.41252883  0.01341583  0.85502483  1.0
  Ta  Ta1201  1  0.41252883  0.34674917  0.85502483  1.0
  Ta  Ta1202  1  0.41252883  0.68008250  0.85502483  1.0
  Ta  Ta1203  1  0.74586217  0.01341583  0.85502483  1.0
  Ta  Ta1204  1  0.74586217  0.34674917  0.85502483  1.0
  Ta  Ta1205  1  0.74586217  0.68008250  0.85502483  1.0
  Ta  Ta1206  1  0.14807372  0.00172517  0.87224439  1.0
  Ta  Ta1207  1  0.14807372  0.33505850  0.87224439  1.0
  Ta  Ta1208  1  0.14807372  0.66839183  0.87224439  1.0
  Ta  Ta1209  1  0.48140706  0.00172517  0.87224439  1.0
  Ta  Ta1210  1  0.48140706  0.33505850  0.87224439  1.0
  Ta  Ta1211  1  0.48140706  0.66839183  0.87224439  1.0
  Ta  Ta1212  1  0.81474039  0.00172517  0.87224439  1.0
  Ta  Ta1213  1  0.81474039  0.33505850  0.87224439  1.0
  Ta  Ta1214  1  0.81474039  0.66839183  0.87224439  1.0
  Ta  Ta1215  1  0.25918483  0.00172517  0.81668883  1.0
  Ta  Ta1216  1  0.25918483  0.33505850  0.81668883  1.0
  Ta  Ta1217  1  0.25918483  0.66839183  0.81668883  1.0
  Ta  Ta1218  1  0.59251817  0.00172517  0.81668883  1.0
  Ta  Ta1219  1  0.59251817  0.33505850  0.81668883  1.0
  Ta  Ta1220  1  0.59251817  0.66839183  0.81668883  1.0
  Ta  Ta1221  1  0.92585150  0.00172517  0.81668883  1.0
  Ta  Ta1222  1  0.92585150  0.33505850  0.81668883  1.0
  Ta  Ta1223  1  0.92585150  0.66839183  0.81668883  1.0
  Ta  Ta1224  1  0.25911194  0.16822783  0.81667061  1.0
  Ta  Ta1225  1  0.25911194  0.50156117  0.81667061  1.0
  Ta  Ta1226  1  0.25911194  0.83489450  0.81667061  1.0
  Ta  Ta1227  1  0.59244528  0.16822783  0.81667061  1.0
  Ta  Ta1228  1  0.59244528  0.50156117  0.81667061  1.0
  Ta  Ta1229  1  0.59244528  0.83489450  0.81667061  1.0
  Ta  Ta1230  1  0.92577861  0.16822783  0.81667061  1.0
  Ta  Ta1231  1  0.92577861  0.50156117  0.81667061  1.0
  Ta  Ta1232  1  0.92577861  0.83489450  0.81667061  1.0
  Ta  Ta1233  1  0.14800083  0.16822783  0.87222617  1.0
  Ta  Ta1234  1  0.14800083  0.50156117  0.87222617  1.0
  Ta  Ta1235  1  0.14800083  0.83489450  0.87222617  1.0
  Ta  Ta1236  1  0.48133417  0.16822783  0.87222617  1.0
  Ta  Ta1237  1  0.48133417  0.50156117  0.87222617  1.0
  Ta  Ta1238  1  0.48133417  0.83489450  0.87222617  1.0
  Ta  Ta1239  1  0.81466750  0.16822783  0.87222617  1.0
  Ta  Ta1240  1  0.81466750  0.50156117  0.87222617  1.0
  Ta  Ta1241  1  0.81466750  0.83489450  0.87222617  1.0
  Ta  Ta1242  1  0.10284306  0.23328950  0.86093672  1.0
  Ta  Ta1243  1  0.10284306  0.56662283  0.86093672  1.0
  Ta  Ta1244  1  0.10284306  0.89995617  0.86093672  1.0
  Ta  Ta1245  1  0.43617639  0.23328950  0.86093672  1.0
  Ta  Ta1246  1  0.43617639  0.56662283  0.86093672  1.0
  Ta  Ta1247  1  0.43617639  0.89995617  0.86093672  1.0
  Ta  Ta1248  1  0.76950972  0.23328950  0.86093672  1.0
  Ta  Ta1249  1  0.76950972  0.56662283  0.86093672  1.0
  Ta  Ta1250  1  0.76950972  0.89995617  0.86093672  1.0
  Ta  Ta1251  1  0.21395417  0.23328950  0.80538117  1.0
  Ta  Ta1252  1  0.21395417  0.56662283  0.80538117  1.0
  Ta  Ta1253  1  0.21395417  0.89995617  0.80538117  1.0
  Ta  Ta1254  1  0.54728750  0.23328950  0.80538117  1.0
  Ta  Ta1255  1  0.54728750  0.56662283  0.80538117  1.0
  Ta  Ta1256  1  0.54728750  0.89995617  0.80538117  1.0
  Ta  Ta1257  1  0.88062083  0.23328950  0.80538117  1.0
  Ta  Ta1258  1  0.88062083  0.56662283  0.80538117  1.0
  Ta  Ta1259  1  0.88062083  0.89995617  0.80538117  1.0
  Ta  Ta1260  1  0.21373106  0.06612083  0.80532539  1.0
  Ta  Ta1261  1  0.21373106  0.39945417  0.80532539  1.0
  Ta  Ta1262  1  0.21373106  0.73278750  0.80532539  1.0
  Ta  Ta1263  1  0.54706439  0.06612083  0.80532539  1.0
  Ta  Ta1264  1  0.54706439  0.39945417  0.80532539  1.0
  Ta  Ta1265  1  0.54706439  0.73278750  0.80532539  1.0
  Ta  Ta1266  1  0.88039772  0.06612083  0.80532539  1.0
  Ta  Ta1267  1  0.88039772  0.39945417  0.80532539  1.0
  Ta  Ta1268  1  0.88039772  0.73278750  0.80532539  1.0
  Ta  Ta1269  1  0.10261994  0.06612083  0.86088094  1.0
  Ta  Ta1270  1  0.10261994  0.39945417  0.86088094  1.0
  Ta  Ta1271  1  0.10261994  0.73278750  0.86088094  1.0
  Ta  Ta1272  1  0.43595328  0.06612083  0.86088094  1.0
  Ta  Ta1273  1  0.43595328  0.39945417  0.86088094  1.0
  Ta  Ta1274  1  0.43595328  0.73278750  0.86088094  1.0
  Ta  Ta1275  1  0.76928661  0.06612083  0.86088094  1.0
  Ta  Ta1276  1  0.76928661  0.39945417  0.86088094  1.0
  Ta  Ta1277  1  0.76928661  0.73278750  0.86088094  1.0
  Ta  Ta1278  1  0.12464928  0.28235350  0.86638828  1.0
  Ta  Ta1279  1  0.12464928  0.61568683  0.86638828  1.0
  Ta  Ta1280  1  0.12464928  0.94902017  0.86638828  1.0
  Ta  Ta1281  1  0.45798261  0.28235350  0.86638828  1.0
  Ta  Ta1282  1  0.45798261  0.61568683  0.86638828  1.0
  Ta  Ta1283  1  0.45798261  0.94902017  0.86638828  1.0
  Ta  Ta1284  1  0.79131594  0.28235350  0.86638828  1.0
  Ta  Ta1285  1  0.79131594  0.61568683  0.86638828  1.0
  Ta  Ta1286  1  0.79131594  0.94902017  0.86638828  1.0
  Ta  Ta1287  1  0.23576039  0.28235350  0.81083272  1.0
  Ta  Ta1288  1  0.23576039  0.61568683  0.81083272  1.0
  Ta  Ta1289  1  0.23576039  0.94902017  0.81083272  1.0
  Ta  Ta1290  1  0.56909372  0.28235350  0.81083272  1.0
  Ta  Ta1291  1  0.56909372  0.61568683  0.81083272  1.0
  Ta  Ta1292  1  0.56909372  0.94902017  0.81083272  1.0
  Ta  Ta1293  1  0.90242706  0.28235350  0.81083272  1.0
  Ta  Ta1294  1  0.90242706  0.61568683  0.81083272  1.0
  Ta  Ta1295  1  0.90242706  0.94902017  0.81083272  1.0
  Ta  Ta1296  1  0.23553728  0.11518483  0.81077694  1.0
  Ta  Ta1297  1  0.23553728  0.44851817  0.81077694  1.0
  Ta  Ta1298  1  0.23553728  0.78185150  0.81077694  1.0
  Ta  Ta1299  1  0.56887061  0.11518483  0.81077694  1.0
  Ta  Ta1300  1  0.56887061  0.44851817  0.81077694  1.0
  Ta  Ta1301  1  0.56887061  0.78185150  0.81077694  1.0
  Ta  Ta1302  1  0.90220394  0.11518483  0.81077694  1.0
  Ta  Ta1303  1  0.90220394  0.44851817  0.81077694  1.0
  Ta  Ta1304  1  0.90220394  0.78185150  0.81077694  1.0
  Ta  Ta1305  1  0.12442617  0.11518483  0.86633250  1.0
  Ta  Ta1306  1  0.12442617  0.44851817  0.86633250  1.0
  Ta  Ta1307  1  0.12442617  0.78185150  0.86633250  1.0
  Ta  Ta1308  1  0.45775950  0.11518483  0.86633250  1.0
  Ta  Ta1309  1  0.45775950  0.44851817  0.86633250  1.0
  Ta  Ta1310  1  0.45775950  0.78185150  0.86633250  1.0
  Ta  Ta1311  1  0.79109283  0.11518483  0.86633250  1.0
  Ta  Ta1312  1  0.79109283  0.44851817  0.86633250  1.0
  Ta  Ta1313  1  0.79109283  0.78185150  0.86633250  1.0
  Ta  Ta1314  1  0.15089950  0.25808317  0.78961750  1.0
  Ta  Ta1315  1  0.15089950  0.59141650  0.78961750  1.0
  Ta  Ta1316  1  0.15089950  0.92474983  0.78961750  1.0
  Ta  Ta1317  1  0.48423283  0.25808317  0.78961750  1.0
  Ta  Ta1318  1  0.48423283  0.59141650  0.78961750  1.0
  Ta  Ta1319  1  0.48423283  0.92474983  0.78961750  1.0
  Ta  Ta1320  1  0.81756617  0.25808317  0.78961750  1.0
  Ta  Ta1321  1  0.81756617  0.59141650  0.78961750  1.0
  Ta  Ta1322  1  0.81756617  0.92474983  0.78961750  1.0
  Ta  Ta1323  1  0.03978839  0.25808317  0.84517306  1.0
  Ta  Ta1324  1  0.03978839  0.59141650  0.84517306  1.0
  Ta  Ta1325  1  0.03978839  0.92474983  0.84517306  1.0
  Ta  Ta1326  1  0.37312172  0.25808317  0.84517306  1.0
  Ta  Ta1327  1  0.37312172  0.59141650  0.84517306  1.0
  Ta  Ta1328  1  0.37312172  0.92474983  0.84517306  1.0
  Ta  Ta1329  1  0.70645506  0.25808317  0.84517306  1.0
  Ta  Ta1330  1  0.70645506  0.59141650  0.84517306  1.0
  Ta  Ta1331  1  0.70645506  0.92474983  0.84517306  1.0
  Ta  Ta1332  1  0.03932972  0.09038450  0.84505839  1.0
  Ta  Ta1333  1  0.03932972  0.42371783  0.84505839  1.0
  Ta  Ta1334  1  0.03932972  0.75705117  0.84505839  1.0
  Ta  Ta1335  1  0.37266306  0.09038450  0.84505839  1.0
  Ta  Ta1336  1  0.37266306  0.42371783  0.84505839  1.0
  Ta  Ta1337  1  0.37266306  0.75705117  0.84505839  1.0
  Ta  Ta1338  1  0.70599639  0.09038450  0.84505839  1.0
  Ta  Ta1339  1  0.70599639  0.42371783  0.84505839  1.0
  Ta  Ta1340  1  0.70599639  0.75705117  0.84505839  1.0
  Ta  Ta1341  1  0.15044083  0.09038450  0.78950283  1.0
  Ta  Ta1342  1  0.15044083  0.42371783  0.78950283  1.0
  Ta  Ta1343  1  0.15044083  0.75705117  0.78950283  1.0
  Ta  Ta1344  1  0.48377417  0.09038450  0.78950283  1.0
  Ta  Ta1345  1  0.48377417  0.42371783  0.78950283  1.0
  Ta  Ta1346  1  0.48377417  0.75705117  0.78950283  1.0
  Ta  Ta1347  1  0.81710750  0.09038450  0.78950283  1.0
  Ta  Ta1348  1  0.81710750  0.42371783  0.78950283  1.0
  Ta  Ta1349  1  0.81710750  0.75705117  0.78950283  1.0
  Ta  Ta1350  1  0.29905061  0.25808983  0.82665528  1.0
  Ta  Ta1351  1  0.29905061  0.59142317  0.82665528  1.0
  Ta  Ta1352  1  0.29905061  0.92475650  0.82665528  1.0
  Ta  Ta1353  1  0.63238394  0.25808983  0.82665528  1.0
  Ta  Ta1354  1  0.63238394  0.59142317  0.82665528  1.0
  Ta  Ta1355  1  0.63238394  0.92475650  0.82665528  1.0
  Ta  Ta1356  1  0.96571728  0.25808983  0.82665528  1.0
  Ta  Ta1357  1  0.96571728  0.59142317  0.82665528  1.0
  Ta  Ta1358  1  0.96571728  0.92475650  0.82665528  1.0
  Ta  Ta1359  1  0.18793950  0.25808983  0.88221083  1.0
  Ta  Ta1360  1  0.18793950  0.59142317  0.88221083  1.0
  Ta  Ta1361  1  0.18793950  0.92475650  0.88221083  1.0
  Ta  Ta1362  1  0.52127283  0.25808983  0.88221083  1.0
  Ta  Ta1363  1  0.52127283  0.59142317  0.88221083  1.0
  Ta  Ta1364  1  0.52127283  0.92475650  0.88221083  1.0
  Ta  Ta1365  1  0.85460617  0.25808983  0.88221083  1.0
  Ta  Ta1366  1  0.85460617  0.59142317  0.88221083  1.0
  Ta  Ta1367  1  0.85460617  0.92475650  0.88221083  1.0
  Ta  Ta1368  1  0.18748083  0.09039117  0.88209617  1.0
  Ta  Ta1369  1  0.18748083  0.42372450  0.88209617  1.0
  Ta  Ta1370  1  0.18748083  0.75705783  0.88209617  1.0
  Ta  Ta1371  1  0.52081417  0.09039117  0.88209617  1.0
  Ta  Ta1372  1  0.52081417  0.42372450  0.88209617  1.0
  Ta  Ta1373  1  0.52081417  0.75705783  0.88209617  1.0
  Ta  Ta1374  1  0.85414750  0.09039117  0.88209617  1.0
  Ta  Ta1375  1  0.85414750  0.42372450  0.88209617  1.0
  Ta  Ta1376  1  0.85414750  0.75705783  0.88209617  1.0
  Ta  Ta1377  1  0.29859194  0.09039117  0.82654061  1.0
  Ta  Ta1378  1  0.29859194  0.42372450  0.82654061  1.0
  Ta  Ta1379  1  0.29859194  0.75705783  0.82654061  1.0
  Ta  Ta1380  1  0.63192528  0.09039117  0.82654061  1.0
  Ta  Ta1381  1  0.63192528  0.42372450  0.82654061  1.0
  Ta  Ta1382  1  0.63192528  0.75705783  0.82654061  1.0
  Ta  Ta1383  1  0.96525861  0.09039117  0.82654061  1.0
  Ta  Ta1384  1  0.96525861  0.42372450  0.82654061  1.0
  Ta  Ta1385  1  0.96525861  0.75705783  0.82654061  1.0
  Ta  Ta1386  1  0.11363461  0.17423717  0.78030128  1.0
  Ta  Ta1387  1  0.11363461  0.50757050  0.78030128  1.0
  Ta  Ta1388  1  0.11363461  0.84090383  0.78030128  1.0
  Ta  Ta1389  1  0.44696794  0.17423717  0.78030128  1.0
  Ta  Ta1390  1  0.44696794  0.50757050  0.78030128  1.0
  Ta  Ta1391  1  0.44696794  0.84090383  0.78030128  1.0
  Ta  Ta1392  1  0.78030128  0.17423717  0.78030128  1.0
  Ta  Ta1393  1  0.78030128  0.50757050  0.78030128  1.0
  Ta  Ta1394  1  0.78030128  0.84090383  0.78030128  1.0
  Ta  Ta1395  1  0.00252350  0.17423717  0.83585683  1.0
  Ta  Ta1396  1  0.00252350  0.50757050  0.83585683  1.0
  Ta  Ta1397  1  0.00252350  0.84090383  0.83585683  1.0
  Ta  Ta1398  1  0.33585683  0.17423717  0.83585683  1.0
  Ta  Ta1399  1  0.33585683  0.50757050  0.83585683  1.0
  Ta  Ta1400  1  0.33585683  0.84090383  0.83585683  1.0
  Ta  Ta1401  1  0.66919017  0.17423717  0.83585683  1.0
  Ta  Ta1402  1  0.66919017  0.50757050  0.83585683  1.0
  Ta  Ta1403  1  0.66919017  0.84090383  0.83585683  1.0
  Ta  Ta1404  1  0.30149061  0.18024650  0.74393194  1.0
  Ta  Ta1405  1  0.30149061  0.51357983  0.74393194  1.0
  Ta  Ta1406  1  0.30149061  0.84691317  0.74393194  1.0
  Ta  Ta1407  1  0.63482394  0.18024650  0.74393194  1.0
  Ta  Ta1408  1  0.63482394  0.51357983  0.74393194  1.0
  Ta  Ta1409  1  0.63482394  0.84691317  0.74393194  1.0
  Ta  Ta1410  1  0.96815728  0.18024650  0.74393194  1.0
  Ta  Ta1411  1  0.96815728  0.51357983  0.74393194  1.0
  Ta  Ta1412  1  0.96815728  0.84691317  0.74393194  1.0
  Ta  Ta1413  1  0.07926839  0.18024650  0.68837639  1.0
  Ta  Ta1414  1  0.07926839  0.51357983  0.68837639  1.0
  Ta  Ta1415  1  0.07926839  0.84691317  0.68837639  1.0
  Ta  Ta1416  1  0.41260172  0.18024650  0.68837639  1.0
  Ta  Ta1417  1  0.41260172  0.51357983  0.68837639  1.0
  Ta  Ta1418  1  0.41260172  0.84691317  0.68837639  1.0
  Ta  Ta1419  1  0.74593506  0.18024650  0.68837639  1.0
  Ta  Ta1420  1  0.74593506  0.51357983  0.68837639  1.0
  Ta  Ta1421  1  0.74593506  0.84691317  0.68837639  1.0
  Ta  Ta1422  1  0.07919550  0.01341583  0.68835817  1.0
  Ta  Ta1423  1  0.07919550  0.34674917  0.68835817  1.0
  Ta  Ta1424  1  0.07919550  0.68008250  0.68835817  1.0
  Ta  Ta1425  1  0.41252883  0.01341583  0.68835817  1.0
  Ta  Ta1426  1  0.41252883  0.34674917  0.68835817  1.0
  Ta  Ta1427  1  0.41252883  0.68008250  0.68835817  1.0
  Ta  Ta1428  1  0.74586217  0.01341583  0.68835817  1.0
  Ta  Ta1429  1  0.74586217  0.34674917  0.68835817  1.0
  Ta  Ta1430  1  0.74586217  0.68008250  0.68835817  1.0
  Ta  Ta1431  1  0.30141772  0.01341583  0.74391372  1.0
  Ta  Ta1432  1  0.30141772  0.34674917  0.74391372  1.0
  Ta  Ta1433  1  0.30141772  0.68008250  0.74391372  1.0
  Ta  Ta1434  1  0.63475106  0.01341583  0.74391372  1.0
  Ta  Ta1435  1  0.63475106  0.34674917  0.74391372  1.0
  Ta  Ta1436  1  0.63475106  0.68008250  0.74391372  1.0
  Ta  Ta1437  1  0.96808439  0.01341583  0.74391372  1.0
  Ta  Ta1438  1  0.96808439  0.34674917  0.74391372  1.0
  Ta  Ta1439  1  0.96808439  0.68008250  0.74391372  1.0
  Ta  Ta1440  1  0.03696261  0.00172517  0.76113328  1.0
  Ta  Ta1441  1  0.03696261  0.33505850  0.76113328  1.0
  Ta  Ta1442  1  0.03696261  0.66839183  0.76113328  1.0
  Ta  Ta1443  1  0.37029594  0.00172517  0.76113328  1.0
  Ta  Ta1444  1  0.37029594  0.33505850  0.76113328  1.0
  Ta  Ta1445  1  0.37029594  0.66839183  0.76113328  1.0
  Ta  Ta1446  1  0.70362928  0.00172517  0.76113328  1.0
  Ta  Ta1447  1  0.70362928  0.33505850  0.76113328  1.0
  Ta  Ta1448  1  0.70362928  0.66839183  0.76113328  1.0
  Ta  Ta1449  1  0.14807372  0.00172517  0.70557772  1.0
  Ta  Ta1450  1  0.14807372  0.33505850  0.70557772  1.0
  Ta  Ta1451  1  0.14807372  0.66839183  0.70557772  1.0
  Ta  Ta1452  1  0.48140706  0.00172517  0.70557772  1.0
  Ta  Ta1453  1  0.48140706  0.33505850  0.70557772  1.0
  Ta  Ta1454  1  0.48140706  0.66839183  0.70557772  1.0
  Ta  Ta1455  1  0.81474039  0.00172517  0.70557772  1.0
  Ta  Ta1456  1  0.81474039  0.33505850  0.70557772  1.0
  Ta  Ta1457  1  0.81474039  0.66839183  0.70557772  1.0
  Ta  Ta1458  1  0.14800083  0.16822783  0.70555950  1.0
  Ta  Ta1459  1  0.14800083  0.50156117  0.70555950  1.0
  Ta  Ta1460  1  0.14800083  0.83489450  0.70555950  1.0
  Ta  Ta1461  1  0.48133417  0.16822783  0.70555950  1.0
  Ta  Ta1462  1  0.48133417  0.50156117  0.70555950  1.0
  Ta  Ta1463  1  0.48133417  0.83489450  0.70555950  1.0
  Ta  Ta1464  1  0.81466750  0.16822783  0.70555950  1.0
  Ta  Ta1465  1  0.81466750  0.50156117  0.70555950  1.0
  Ta  Ta1466  1  0.81466750  0.83489450  0.70555950  1.0
  Ta  Ta1467  1  0.03688972  0.16822783  0.76111506  1.0
  Ta  Ta1468  1  0.03688972  0.50156117  0.76111506  1.0
  Ta  Ta1469  1  0.03688972  0.83489450  0.76111506  1.0
  Ta  Ta1470  1  0.37022306  0.16822783  0.76111506  1.0
  Ta  Ta1471  1  0.37022306  0.50156117  0.76111506  1.0
  Ta  Ta1472  1  0.37022306  0.83489450  0.76111506  1.0
  Ta  Ta1473  1  0.70355639  0.16822783  0.76111506  1.0
  Ta  Ta1474  1  0.70355639  0.50156117  0.76111506  1.0
  Ta  Ta1475  1  0.70355639  0.83489450  0.76111506  1.0
  Ta  Ta1476  1  0.32506528  0.23328950  0.74982561  1.0
  Ta  Ta1477  1  0.32506528  0.56662283  0.74982561  1.0
  Ta  Ta1478  1  0.32506528  0.89995617  0.74982561  1.0
  Ta  Ta1479  1  0.65839861  0.23328950  0.74982561  1.0
  Ta  Ta1480  1  0.65839861  0.56662283  0.74982561  1.0
  Ta  Ta1481  1  0.65839861  0.89995617  0.74982561  1.0
  Ta  Ta1482  1  0.99173194  0.23328950  0.74982561  1.0
  Ta  Ta1483  1  0.99173194  0.56662283  0.74982561  1.0
  Ta  Ta1484  1  0.99173194  0.89995617  0.74982561  1.0
  Ta  Ta1485  1  0.10284306  0.23328950  0.69427006  1.0
  Ta  Ta1486  1  0.10284306  0.56662283  0.69427006  1.0
  Ta  Ta1487  1  0.10284306  0.89995617  0.69427006  1.0
  Ta  Ta1488  1  0.43617639  0.23328950  0.69427006  1.0
  Ta  Ta1489  1  0.43617639  0.56662283  0.69427006  1.0
  Ta  Ta1490  1  0.43617639  0.89995617  0.69427006  1.0
  Ta  Ta1491  1  0.76950972  0.23328950  0.69427006  1.0
  Ta  Ta1492  1  0.76950972  0.56662283  0.69427006  1.0
  Ta  Ta1493  1  0.76950972  0.89995617  0.69427006  1.0
  Ta  Ta1494  1  0.10261994  0.06612083  0.69421428  1.0
  Ta  Ta1495  1  0.10261994  0.39945417  0.69421428  1.0
  Ta  Ta1496  1  0.10261994  0.73278750  0.69421428  1.0
  Ta  Ta1497  1  0.43595328  0.06612083  0.69421428  1.0
  Ta  Ta1498  1  0.43595328  0.39945417  0.69421428  1.0
  Ta  Ta1499  1  0.43595328  0.73278750  0.69421428  1.0
  Ta  Ta1500  1  0.76928661  0.06612083  0.69421428  1.0
  Ta  Ta1501  1  0.76928661  0.39945417  0.69421428  1.0
  Ta  Ta1502  1  0.76928661  0.73278750  0.69421428  1.0
  Ta  Ta1503  1  0.32484217  0.06612083  0.74976983  1.0
  Ta  Ta1504  1  0.32484217  0.39945417  0.74976983  1.0
  Ta  Ta1505  1  0.32484217  0.73278750  0.74976983  1.0
  Ta  Ta1506  1  0.65817550  0.06612083  0.74976983  1.0
  Ta  Ta1507  1  0.65817550  0.39945417  0.74976983  1.0
  Ta  Ta1508  1  0.65817550  0.73278750  0.74976983  1.0
  Ta  Ta1509  1  0.99150883  0.06612083  0.74976983  1.0
  Ta  Ta1510  1  0.99150883  0.39945417  0.74976983  1.0
  Ta  Ta1511  1  0.99150883  0.73278750  0.74976983  1.0
  Ta  Ta1512  1  0.01353817  0.28235350  0.75527717  1.0
  Ta  Ta1513  1  0.01353817  0.61568683  0.75527717  1.0
  Ta  Ta1514  1  0.01353817  0.94902017  0.75527717  1.0
  Ta  Ta1515  1  0.34687150  0.28235350  0.75527717  1.0
  Ta  Ta1516  1  0.34687150  0.61568683  0.75527717  1.0
  Ta  Ta1517  1  0.34687150  0.94902017  0.75527717  1.0
  Ta  Ta1518  1  0.68020483  0.28235350  0.75527717  1.0
  Ta  Ta1519  1  0.68020483  0.61568683  0.75527717  1.0
  Ta  Ta1520  1  0.68020483  0.94902017  0.75527717  1.0
  Ta  Ta1521  1  0.12464928  0.28235350  0.69972161  1.0
  Ta  Ta1522  1  0.12464928  0.61568683  0.69972161  1.0
  Ta  Ta1523  1  0.12464928  0.94902017  0.69972161  1.0
  Ta  Ta1524  1  0.45798261  0.28235350  0.69972161  1.0
  Ta  Ta1525  1  0.45798261  0.61568683  0.69972161  1.0
  Ta  Ta1526  1  0.45798261  0.94902017  0.69972161  1.0
  Ta  Ta1527  1  0.79131594  0.28235350  0.69972161  1.0
  Ta  Ta1528  1  0.79131594  0.61568683  0.69972161  1.0
  Ta  Ta1529  1  0.79131594  0.94902017  0.69972161  1.0
  Ta  Ta1530  1  0.12442617  0.11518483  0.69966583  1.0
  Ta  Ta1531  1  0.12442617  0.44851817  0.69966583  1.0
  Ta  Ta1532  1  0.12442617  0.78185150  0.69966583  1.0
  Ta  Ta1533  1  0.45775950  0.11518483  0.69966583  1.0
  Ta  Ta1534  1  0.45775950  0.44851817  0.69966583  1.0
  Ta  Ta1535  1  0.45775950  0.78185150  0.69966583  1.0
  Ta  Ta1536  1  0.79109283  0.11518483  0.69966583  1.0
  Ta  Ta1537  1  0.79109283  0.44851817  0.69966583  1.0
  Ta  Ta1538  1  0.79109283  0.78185150  0.69966583  1.0
  Ta  Ta1539  1  0.01331506  0.11518483  0.75522139  1.0
  Ta  Ta1540  1  0.01331506  0.44851817  0.75522139  1.0
  Ta  Ta1541  1  0.01331506  0.78185150  0.75522139  1.0
  Ta  Ta1542  1  0.34664839  0.11518483  0.75522139  1.0
  Ta  Ta1543  1  0.34664839  0.44851817  0.75522139  1.0
  Ta  Ta1544  1  0.34664839  0.78185150  0.75522139  1.0
  Ta  Ta1545  1  0.67998172  0.11518483  0.75522139  1.0
  Ta  Ta1546  1  0.67998172  0.44851817  0.75522139  1.0
  Ta  Ta1547  1  0.67998172  0.78185150  0.75522139  1.0
  Ta  Ta1548  1  0.03978839  0.25808317  0.67850639  1.0
  Ta  Ta1549  1  0.03978839  0.59141650  0.67850639  1.0
  Ta  Ta1550  1  0.03978839  0.92474983  0.67850639  1.0
  Ta  Ta1551  1  0.37312172  0.25808317  0.67850639  1.0
  Ta  Ta1552  1  0.37312172  0.59141650  0.67850639  1.0
  Ta  Ta1553  1  0.37312172  0.92474983  0.67850639  1.0
  Ta  Ta1554  1  0.70645506  0.25808317  0.67850639  1.0
  Ta  Ta1555  1  0.70645506  0.59141650  0.67850639  1.0
  Ta  Ta1556  1  0.70645506  0.92474983  0.67850639  1.0
  Ta  Ta1557  1  0.26201061  0.25808317  0.73406194  1.0
  Ta  Ta1558  1  0.26201061  0.59141650  0.73406194  1.0
  Ta  Ta1559  1  0.26201061  0.92474983  0.73406194  1.0
  Ta  Ta1560  1  0.59534394  0.25808317  0.73406194  1.0
  Ta  Ta1561  1  0.59534394  0.59141650  0.73406194  1.0
  Ta  Ta1562  1  0.59534394  0.92474983  0.73406194  1.0
  Ta  Ta1563  1  0.92867728  0.25808317  0.73406194  1.0
  Ta  Ta1564  1  0.92867728  0.59141650  0.73406194  1.0
  Ta  Ta1565  1  0.92867728  0.92474983  0.73406194  1.0
  Ta  Ta1566  1  0.26155194  0.09038450  0.73394728  1.0
  Ta  Ta1567  1  0.26155194  0.42371783  0.73394728  1.0
  Ta  Ta1568  1  0.26155194  0.75705117  0.73394728  1.0
  Ta  Ta1569  1  0.59488528  0.09038450  0.73394728  1.0
  Ta  Ta1570  1  0.59488528  0.42371783  0.73394728  1.0
  Ta  Ta1571  1  0.59488528  0.75705117  0.73394728  1.0
  Ta  Ta1572  1  0.92821861  0.09038450  0.73394728  1.0
  Ta  Ta1573  1  0.92821861  0.42371783  0.73394728  1.0
  Ta  Ta1574  1  0.92821861  0.75705117  0.73394728  1.0
  Ta  Ta1575  1  0.03932972  0.09038450  0.67839172  1.0
  Ta  Ta1576  1  0.03932972  0.42371783  0.67839172  1.0
  Ta  Ta1577  1  0.03932972  0.75705117  0.67839172  1.0
  Ta  Ta1578  1  0.37266306  0.09038450  0.67839172  1.0
  Ta  Ta1579  1  0.37266306  0.42371783  0.67839172  1.0
  Ta  Ta1580  1  0.37266306  0.75705117  0.67839172  1.0
  Ta  Ta1581  1  0.70599639  0.09038450  0.67839172  1.0
  Ta  Ta1582  1  0.70599639  0.42371783  0.67839172  1.0
  Ta  Ta1583  1  0.70599639  0.75705117  0.67839172  1.0
  Ta  Ta1584  1  0.18793950  0.25808983  0.71554417  1.0
  Ta  Ta1585  1  0.18793950  0.59142317  0.71554417  1.0
  Ta  Ta1586  1  0.18793950  0.92475650  0.71554417  1.0
  Ta  Ta1587  1  0.52127283  0.25808983  0.71554417  1.0
  Ta  Ta1588  1  0.52127283  0.59142317  0.71554417  1.0
  Ta  Ta1589  1  0.52127283  0.92475650  0.71554417  1.0
  Ta  Ta1590  1  0.85460617  0.25808983  0.71554417  1.0
  Ta  Ta1591  1  0.85460617  0.59142317  0.71554417  1.0
  Ta  Ta1592  1  0.85460617  0.92475650  0.71554417  1.0
  Ta  Ta1593  1  0.07682839  0.25808983  0.77109972  1.0
  Ta  Ta1594  1  0.07682839  0.59142317  0.77109972  1.0
  Ta  Ta1595  1  0.07682839  0.92475650  0.77109972  1.0
  Ta  Ta1596  1  0.41016172  0.25808983  0.77109972  1.0
  Ta  Ta1597  1  0.41016172  0.59142317  0.77109972  1.0
  Ta  Ta1598  1  0.41016172  0.92475650  0.77109972  1.0
  Ta  Ta1599  1  0.74349506  0.25808983  0.77109972  1.0
  Ta  Ta1600  1  0.74349506  0.59142317  0.77109972  1.0
  Ta  Ta1601  1  0.74349506  0.92475650  0.77109972  1.0
  Ta  Ta1602  1  0.07636972  0.09039117  0.77098506  1.0
  Ta  Ta1603  1  0.07636972  0.42372450  0.77098506  1.0
  Ta  Ta1604  1  0.07636972  0.75705783  0.77098506  1.0
  Ta  Ta1605  1  0.40970306  0.09039117  0.77098506  1.0
  Ta  Ta1606  1  0.40970306  0.42372450  0.77098506  1.0
  Ta  Ta1607  1  0.40970306  0.75705783  0.77098506  1.0
  Ta  Ta1608  1  0.74303639  0.09039117  0.77098506  1.0
  Ta  Ta1609  1  0.74303639  0.42372450  0.77098506  1.0
  Ta  Ta1610  1  0.74303639  0.75705783  0.77098506  1.0
  Ta  Ta1611  1  0.18748083  0.09039117  0.71542950  1.0
  Ta  Ta1612  1  0.18748083  0.42372450  0.71542950  1.0
  Ta  Ta1613  1  0.18748083  0.75705783  0.71542950  1.0
  Ta  Ta1614  1  0.52081417  0.09039117  0.71542950  1.0
  Ta  Ta1615  1  0.52081417  0.42372450  0.71542950  1.0
  Ta  Ta1616  1  0.52081417  0.75705783  0.71542950  1.0
  Ta  Ta1617  1  0.85414750  0.09039117  0.71542950  1.0
  Ta  Ta1618  1  0.85414750  0.42372450  0.71542950  1.0
  Ta  Ta1619  1  0.85414750  0.75705783  0.71542950  1.0
  Ta  Ta1620  1  0.00252350  0.17423717  0.66919017  1.0
  Ta  Ta1621  1  0.00252350  0.50757050  0.66919017  1.0
  Ta  Ta1622  1  0.00252350  0.84090383  0.66919017  1.0
  Ta  Ta1623  1  0.33585683  0.17423717  0.66919017  1.0
  Ta  Ta1624  1  0.33585683  0.50757050  0.66919017  1.0
  Ta  Ta1625  1  0.33585683  0.84090383  0.66919017  1.0
  Ta  Ta1626  1  0.66919017  0.17423717  0.66919017  1.0
  Ta  Ta1627  1  0.66919017  0.50757050  0.66919017  1.0
  Ta  Ta1628  1  0.66919017  0.84090383  0.66919017  1.0
  Ta  Ta1629  1  0.22474572  0.17423717  0.72474572  1.0
  Ta  Ta1630  1  0.22474572  0.50757050  0.72474572  1.0
  Ta  Ta1631  1  0.22474572  0.84090383  0.72474572  1.0
  Ta  Ta1632  1  0.55807906  0.17423717  0.72474572  1.0
  Ta  Ta1633  1  0.55807906  0.50757050  0.72474572  1.0
  Ta  Ta1634  1  0.55807906  0.84090383  0.72474572  1.0
  Ta  Ta1635  1  0.89141239  0.17423717  0.72474572  1.0
  Ta  Ta1636  1  0.89141239  0.50757050  0.72474572  1.0
  Ta  Ta1637  1  0.89141239  0.84090383  0.72474572  1.0
  Ta  Ta1638  1  0.19037950  0.18024650  0.63282083  1.0
  Ta  Ta1639  1  0.19037950  0.51357983  0.63282083  1.0
  Ta  Ta1640  1  0.19037950  0.84691317  0.63282083  1.0
  Ta  Ta1641  1  0.52371283  0.18024650  0.63282083  1.0
  Ta  Ta1642  1  0.52371283  0.51357983  0.63282083  1.0
  Ta  Ta1643  1  0.52371283  0.84691317  0.63282083  1.0
  Ta  Ta1644  1  0.85704617  0.18024650  0.63282083  1.0
  Ta  Ta1645  1  0.85704617  0.51357983  0.63282083  1.0
  Ta  Ta1646  1  0.85704617  0.84691317  0.63282083  1.0
  Ta  Ta1647  1  0.30149061  0.18024650  0.57726528  1.0
  Ta  Ta1648  1  0.30149061  0.51357983  0.57726528  1.0
  Ta  Ta1649  1  0.30149061  0.84691317  0.57726528  1.0
  Ta  Ta1650  1  0.63482394  0.18024650  0.57726528  1.0
  Ta  Ta1651  1  0.63482394  0.51357983  0.57726528  1.0
  Ta  Ta1652  1  0.63482394  0.84691317  0.57726528  1.0
  Ta  Ta1653  1  0.96815728  0.18024650  0.57726528  1.0
  Ta  Ta1654  1  0.96815728  0.51357983  0.57726528  1.0
  Ta  Ta1655  1  0.96815728  0.84691317  0.57726528  1.0
  Ta  Ta1656  1  0.30141772  0.01341583  0.57724706  1.0
  Ta  Ta1657  1  0.30141772  0.34674917  0.57724706  1.0
  Ta  Ta1658  1  0.30141772  0.68008250  0.57724706  1.0
  Ta  Ta1659  1  0.63475106  0.01341583  0.57724706  1.0
  Ta  Ta1660  1  0.63475106  0.34674917  0.57724706  1.0
  Ta  Ta1661  1  0.63475106  0.68008250  0.57724706  1.0
  Ta  Ta1662  1  0.96808439  0.01341583  0.57724706  1.0
  Ta  Ta1663  1  0.96808439  0.34674917  0.57724706  1.0
  Ta  Ta1664  1  0.96808439  0.68008250  0.57724706  1.0
  Ta  Ta1665  1  0.19030661  0.01341583  0.63280261  1.0
  Ta  Ta1666  1  0.19030661  0.34674917  0.63280261  1.0
  Ta  Ta1667  1  0.19030661  0.68008250  0.63280261  1.0
  Ta  Ta1668  1  0.52363994  0.01341583  0.63280261  1.0
  Ta  Ta1669  1  0.52363994  0.34674917  0.63280261  1.0
  Ta  Ta1670  1  0.52363994  0.68008250  0.63280261  1.0
  Ta  Ta1671  1  0.85697328  0.01341583  0.63280261  1.0
  Ta  Ta1672  1  0.85697328  0.34674917  0.63280261  1.0
  Ta  Ta1673  1  0.85697328  0.68008250  0.63280261  1.0
  Ta  Ta1674  1  0.25918483  0.00172517  0.65002217  1.0
  Ta  Ta1675  1  0.25918483  0.33505850  0.65002217  1.0
  Ta  Ta1676  1  0.25918483  0.66839183  0.65002217  1.0
  Ta  Ta1677  1  0.59251817  0.00172517  0.65002217  1.0
  Ta  Ta1678  1  0.59251817  0.33505850  0.65002217  1.0
  Ta  Ta1679  1  0.59251817  0.66839183  0.65002217  1.0
  Ta  Ta1680  1  0.92585150  0.00172517  0.65002217  1.0
  Ta  Ta1681  1  0.92585150  0.33505850  0.65002217  1.0
  Ta  Ta1682  1  0.92585150  0.66839183  0.65002217  1.0
  Ta  Ta1683  1  0.03696261  0.00172517  0.59446661  1.0
  Ta  Ta1684  1  0.03696261  0.33505850  0.59446661  1.0
  Ta  Ta1685  1  0.03696261  0.66839183  0.59446661  1.0
  Ta  Ta1686  1  0.37029594  0.00172517  0.59446661  1.0
  Ta  Ta1687  1  0.37029594  0.33505850  0.59446661  1.0
  Ta  Ta1688  1  0.37029594  0.66839183  0.59446661  1.0
  Ta  Ta1689  1  0.70362928  0.00172517  0.59446661  1.0
  Ta  Ta1690  1  0.70362928  0.33505850  0.59446661  1.0
  Ta  Ta1691  1  0.70362928  0.66839183  0.59446661  1.0
  Ta  Ta1692  1  0.03688972  0.16822783  0.59444839  1.0
  Ta  Ta1693  1  0.03688972  0.50156117  0.59444839  1.0
  Ta  Ta1694  1  0.03688972  0.83489450  0.59444839  1.0
  Ta  Ta1695  1  0.37022306  0.16822783  0.59444839  1.0
  Ta  Ta1696  1  0.37022306  0.50156117  0.59444839  1.0
  Ta  Ta1697  1  0.37022306  0.83489450  0.59444839  1.0
  Ta  Ta1698  1  0.70355639  0.16822783  0.59444839  1.0
  Ta  Ta1699  1  0.70355639  0.50156117  0.59444839  1.0
  Ta  Ta1700  1  0.70355639  0.83489450  0.59444839  1.0
  Ta  Ta1701  1  0.25911194  0.16822783  0.65000394  1.0
  Ta  Ta1702  1  0.25911194  0.50156117  0.65000394  1.0
  Ta  Ta1703  1  0.25911194  0.83489450  0.65000394  1.0
  Ta  Ta1704  1  0.59244528  0.16822783  0.65000394  1.0
  Ta  Ta1705  1  0.59244528  0.50156117  0.65000394  1.0
  Ta  Ta1706  1  0.59244528  0.83489450  0.65000394  1.0
  Ta  Ta1707  1  0.92577861  0.16822783  0.65000394  1.0
  Ta  Ta1708  1  0.92577861  0.50156117  0.65000394  1.0
  Ta  Ta1709  1  0.92577861  0.83489450  0.65000394  1.0
  Ta  Ta1710  1  0.21395417  0.23328950  0.63871450  1.0
  Ta  Ta1711  1  0.21395417  0.56662283  0.63871450  1.0
  Ta  Ta1712  1  0.21395417  0.89995617  0.63871450  1.0
  Ta  Ta1713  1  0.54728750  0.23328950  0.63871450  1.0
  Ta  Ta1714  1  0.54728750  0.56662283  0.63871450  1.0
  Ta  Ta1715  1  0.54728750  0.89995617  0.63871450  1.0
  Ta  Ta1716  1  0.88062083  0.23328950  0.63871450  1.0
  Ta  Ta1717  1  0.88062083  0.56662283  0.63871450  1.0
  Ta  Ta1718  1  0.88062083  0.89995617  0.63871450  1.0
  Ta  Ta1719  1  0.32506528  0.23328950  0.58315894  1.0
  Ta  Ta1720  1  0.32506528  0.56662283  0.58315894  1.0
  Ta  Ta1721  1  0.32506528  0.89995617  0.58315894  1.0
  Ta  Ta1722  1  0.65839861  0.23328950  0.58315894  1.0
  Ta  Ta1723  1  0.65839861  0.56662283  0.58315894  1.0
  Ta  Ta1724  1  0.65839861  0.89995617  0.58315894  1.0
  Ta  Ta1725  1  0.99173194  0.23328950  0.58315894  1.0
  Ta  Ta1726  1  0.99173194  0.56662283  0.58315894  1.0
  Ta  Ta1727  1  0.99173194  0.89995617  0.58315894  1.0
  Ta  Ta1728  1  0.32484217  0.06612083  0.58310317  1.0
  Ta  Ta1729  1  0.32484217  0.39945417  0.58310317  1.0
  Ta  Ta1730  1  0.32484217  0.73278750  0.58310317  1.0
  Ta  Ta1731  1  0.65817550  0.06612083  0.58310317  1.0
  Ta  Ta1732  1  0.65817550  0.39945417  0.58310317  1.0
  Ta  Ta1733  1  0.65817550  0.73278750  0.58310317  1.0
  Ta  Ta1734  1  0.99150883  0.06612083  0.58310317  1.0
  Ta  Ta1735  1  0.99150883  0.39945417  0.58310317  1.0
  Ta  Ta1736  1  0.99150883  0.73278750  0.58310317  1.0
  Ta  Ta1737  1  0.21373106  0.06612083  0.63865872  1.0
  Ta  Ta1738  1  0.21373106  0.39945417  0.63865872  1.0
  Ta  Ta1739  1  0.21373106  0.73278750  0.63865872  1.0
  Ta  Ta1740  1  0.54706439  0.06612083  0.63865872  1.0
  Ta  Ta1741  1  0.54706439  0.39945417  0.63865872  1.0
  Ta  Ta1742  1  0.54706439  0.73278750  0.63865872  1.0
  Ta  Ta1743  1  0.88039772  0.06612083  0.63865872  1.0
  Ta  Ta1744  1  0.88039772  0.39945417  0.63865872  1.0
  Ta  Ta1745  1  0.88039772  0.73278750  0.63865872  1.0
  Ta  Ta1746  1  0.23576039  0.28235350  0.64416606  1.0
  Ta  Ta1747  1  0.23576039  0.61568683  0.64416606  1.0
  Ta  Ta1748  1  0.23576039  0.94902017  0.64416606  1.0
  Ta  Ta1749  1  0.56909372  0.28235350  0.64416606  1.0
  Ta  Ta1750  1  0.56909372  0.61568683  0.64416606  1.0
  Ta  Ta1751  1  0.56909372  0.94902017  0.64416606  1.0
  Ta  Ta1752  1  0.90242706  0.28235350  0.64416606  1.0
  Ta  Ta1753  1  0.90242706  0.61568683  0.64416606  1.0
  Ta  Ta1754  1  0.90242706  0.94902017  0.64416606  1.0
  Ta  Ta1755  1  0.01353817  0.28235350  0.58861050  1.0
  Ta  Ta1756  1  0.01353817  0.61568683  0.58861050  1.0
  Ta  Ta1757  1  0.01353817  0.94902017  0.58861050  1.0
  Ta  Ta1758  1  0.34687150  0.28235350  0.58861050  1.0
  Ta  Ta1759  1  0.34687150  0.61568683  0.58861050  1.0
  Ta  Ta1760  1  0.34687150  0.94902017  0.58861050  1.0
  Ta  Ta1761  1  0.68020483  0.28235350  0.58861050  1.0
  Ta  Ta1762  1  0.68020483  0.61568683  0.58861050  1.0
  Ta  Ta1763  1  0.68020483  0.94902017  0.58861050  1.0
  Ta  Ta1764  1  0.01331506  0.11518483  0.58855472  1.0
  Ta  Ta1765  1  0.01331506  0.44851817  0.58855472  1.0
  Ta  Ta1766  1  0.01331506  0.78185150  0.58855472  1.0
  Ta  Ta1767  1  0.34664839  0.11518483  0.58855472  1.0
  Ta  Ta1768  1  0.34664839  0.44851817  0.58855472  1.0
  Ta  Ta1769  1  0.34664839  0.78185150  0.58855472  1.0
  Ta  Ta1770  1  0.67998172  0.11518483  0.58855472  1.0
  Ta  Ta1771  1  0.67998172  0.44851817  0.58855472  1.0
  Ta  Ta1772  1  0.67998172  0.78185150  0.58855472  1.0
  Ta  Ta1773  1  0.23553728  0.11518483  0.64411028  1.0
  Ta  Ta1774  1  0.23553728  0.44851817  0.64411028  1.0
  Ta  Ta1775  1  0.23553728  0.78185150  0.64411028  1.0
  Ta  Ta1776  1  0.56887061  0.11518483  0.64411028  1.0
  Ta  Ta1777  1  0.56887061  0.44851817  0.64411028  1.0
  Ta  Ta1778  1  0.56887061  0.78185150  0.64411028  1.0
  Ta  Ta1779  1  0.90220394  0.11518483  0.64411028  1.0
  Ta  Ta1780  1  0.90220394  0.44851817  0.64411028  1.0
  Ta  Ta1781  1  0.90220394  0.78185150  0.64411028  1.0
  Ta  Ta1782  1  0.26201061  0.25808317  0.56739528  1.0
  Ta  Ta1783  1  0.26201061  0.59141650  0.56739528  1.0
  Ta  Ta1784  1  0.26201061  0.92474983  0.56739528  1.0
  Ta  Ta1785  1  0.59534394  0.25808317  0.56739528  1.0
  Ta  Ta1786  1  0.59534394  0.59141650  0.56739528  1.0
  Ta  Ta1787  1  0.59534394  0.92474983  0.56739528  1.0
  Ta  Ta1788  1  0.92867728  0.25808317  0.56739528  1.0
  Ta  Ta1789  1  0.92867728  0.59141650  0.56739528  1.0
  Ta  Ta1790  1  0.92867728  0.92474983  0.56739528  1.0
  Ta  Ta1791  1  0.15089950  0.25808317  0.62295083  1.0
  Ta  Ta1792  1  0.15089950  0.59141650  0.62295083  1.0
  Ta  Ta1793  1  0.15089950  0.92474983  0.62295083  1.0
  Ta  Ta1794  1  0.48423283  0.25808317  0.62295083  1.0
  Ta  Ta1795  1  0.48423283  0.59141650  0.62295083  1.0
  Ta  Ta1796  1  0.48423283  0.92474983  0.62295083  1.0
  Ta  Ta1797  1  0.81756617  0.25808317  0.62295083  1.0
  Ta  Ta1798  1  0.81756617  0.59141650  0.62295083  1.0
  Ta  Ta1799  1  0.81756617  0.92474983  0.62295083  1.0
  Ta  Ta1800  1  0.15044083  0.09038450  0.62283617  1.0
  Ta  Ta1801  1  0.15044083  0.42371783  0.62283617  1.0
  Ta  Ta1802  1  0.15044083  0.75705117  0.62283617  1.0
  Ta  Ta1803  1  0.48377417  0.09038450  0.62283617  1.0
  Ta  Ta1804  1  0.48377417  0.42371783  0.62283617  1.0
  Ta  Ta1805  1  0.48377417  0.75705117  0.62283617  1.0
  Ta  Ta1806  1  0.81710750  0.09038450  0.62283617  1.0
  Ta  Ta1807  1  0.81710750  0.42371783  0.62283617  1.0
  Ta  Ta1808  1  0.81710750  0.75705117  0.62283617  1.0
  Ta  Ta1809  1  0.26155194  0.09038450  0.56728061  1.0
  Ta  Ta1810  1  0.26155194  0.42371783  0.56728061  1.0
  Ta  Ta1811  1  0.26155194  0.75705117  0.56728061  1.0
  Ta  Ta1812  1  0.59488528  0.09038450  0.56728061  1.0
  Ta  Ta1813  1  0.59488528  0.42371783  0.56728061  1.0
  Ta  Ta1814  1  0.59488528  0.75705117  0.56728061  1.0
  Ta  Ta1815  1  0.92821861  0.09038450  0.56728061  1.0
  Ta  Ta1816  1  0.92821861  0.42371783  0.56728061  1.0
  Ta  Ta1817  1  0.92821861  0.75705117  0.56728061  1.0
  Ta  Ta1818  1  0.07682839  0.25808983  0.60443306  1.0
  Ta  Ta1819  1  0.07682839  0.59142317  0.60443306  1.0
  Ta  Ta1820  1  0.07682839  0.92475650  0.60443306  1.0
  Ta  Ta1821  1  0.41016172  0.25808983  0.60443306  1.0
  Ta  Ta1822  1  0.41016172  0.59142317  0.60443306  1.0
  Ta  Ta1823  1  0.41016172  0.92475650  0.60443306  1.0
  Ta  Ta1824  1  0.74349506  0.25808983  0.60443306  1.0
  Ta  Ta1825  1  0.74349506  0.59142317  0.60443306  1.0
  Ta  Ta1826  1  0.74349506  0.92475650  0.60443306  1.0
  Ta  Ta1827  1  0.29905061  0.25808983  0.65998861  1.0
  Ta  Ta1828  1  0.29905061  0.59142317  0.65998861  1.0
  Ta  Ta1829  1  0.29905061  0.92475650  0.65998861  1.0
  Ta  Ta1830  1  0.63238394  0.25808983  0.65998861  1.0
  Ta  Ta1831  1  0.63238394  0.59142317  0.65998861  1.0
  Ta  Ta1832  1  0.63238394  0.92475650  0.65998861  1.0
  Ta  Ta1833  1  0.96571728  0.25808983  0.65998861  1.0
  Ta  Ta1834  1  0.96571728  0.59142317  0.65998861  1.0
  Ta  Ta1835  1  0.96571728  0.92475650  0.65998861  1.0
  Ta  Ta1836  1  0.29859194  0.09039117  0.65987394  1.0
  Ta  Ta1837  1  0.29859194  0.42372450  0.65987394  1.0
  Ta  Ta1838  1  0.29859194  0.75705783  0.65987394  1.0
  Ta  Ta1839  1  0.63192528  0.09039117  0.65987394  1.0
  Ta  Ta1840  1  0.63192528  0.42372450  0.65987394  1.0
  Ta  Ta1841  1  0.63192528  0.75705783  0.65987394  1.0
  Ta  Ta1842  1  0.96525861  0.09039117  0.65987394  1.0
  Ta  Ta1843  1  0.96525861  0.42372450  0.65987394  1.0
  Ta  Ta1844  1  0.96525861  0.75705783  0.65987394  1.0
  Ta  Ta1845  1  0.07636972  0.09039117  0.60431839  1.0
  Ta  Ta1846  1  0.07636972  0.42372450  0.60431839  1.0
  Ta  Ta1847  1  0.07636972  0.75705783  0.60431839  1.0
  Ta  Ta1848  1  0.40970306  0.09039117  0.60431839  1.0
  Ta  Ta1849  1  0.40970306  0.42372450  0.60431839  1.0
  Ta  Ta1850  1  0.40970306  0.75705783  0.60431839  1.0
  Ta  Ta1851  1  0.74303639  0.09039117  0.60431839  1.0
  Ta  Ta1852  1  0.74303639  0.42372450  0.60431839  1.0
  Ta  Ta1853  1  0.74303639  0.75705783  0.60431839  1.0
  Ta  Ta1854  1  0.22474572  0.17423717  0.55807906  1.0
  Ta  Ta1855  1  0.22474572  0.50757050  0.55807906  1.0
  Ta  Ta1856  1  0.22474572  0.84090383  0.55807906  1.0
  Ta  Ta1857  1  0.55807906  0.17423717  0.55807906  1.0
  Ta  Ta1858  1  0.55807906  0.50757050  0.55807906  1.0
  Ta  Ta1859  1  0.55807906  0.84090383  0.55807906  1.0
  Ta  Ta1860  1  0.89141239  0.17423717  0.55807906  1.0
  Ta  Ta1861  1  0.89141239  0.50757050  0.55807906  1.0
  Ta  Ta1862  1  0.89141239  0.84090383  0.55807906  1.0
  Ta  Ta1863  1  0.11363461  0.17423717  0.61363461  1.0
  Ta  Ta1864  1  0.11363461  0.50757050  0.61363461  1.0
  Ta  Ta1865  1  0.11363461  0.84090383  0.61363461  1.0
  Ta  Ta1866  1  0.44696794  0.17423717  0.61363461  1.0
  Ta  Ta1867  1  0.44696794  0.50757050  0.61363461  1.0
  Ta  Ta1868  1  0.44696794  0.84090383  0.61363461  1.0
  Ta  Ta1869  1  0.78030128  0.17423717  0.61363461  1.0
  Ta  Ta1870  1  0.78030128  0.50757050  0.61363461  1.0
  Ta  Ta1871  1  0.78030128  0.84090383  0.61363461  1.0
