# generated using pymatgen
data_TaNi3
_symmetry_space_group_name_H-M   'P 1'
_cell_length_a   31.26595370
_cell_length_b   33.87750986
_cell_length_c   35.82177200
_cell_angle_alpha   90.00000000
_cell_angle_beta   119.40760198
_cell_angle_gamma   54.87400513
_symmetry_Int_Tables_number   1
_chemical_formula_structural   TaNi3
_chemical_formula_sum   'Ta216 Ni648'
_cell_volume   24818.29517844
_cell_formula_units_Z   216
loop_
 _symmetry_equiv_pos_site_id
 _symmetry_equiv_pos_as_xyz
  1  'x, y, z'
loop_
 _atom_site_type_symbol
 _atom_site_label
 _atom_site_symmetry_multiplicity
 _atom_site_fract_x
 _atom_site_fract_y
 _atom_site_fract_z
 _atom_site_occupancy
  Ta  Ta0  1  0.19074383  0.20728200  0.08853882  1.0
  Ta  Ta1  1  0.19074383  0.54061533  0.08853882  1.0
  Ta  Ta2  1  0.19074383  0.87394867  0.08853882  1.0
  Ta  Ta3  1  0.52407717  0.20728200  0.08853882  1.0
  Ta  Ta4  1  0.52407717  0.54061533  0.08853882  1.0
  Ta  Ta5  1  0.52407717  0.87394867  0.08853882  1.0
  Ta  Ta6  1  0.85741050  0.20728200  0.08853882  1.0
  Ta  Ta7  1  0.85741050  0.54061533  0.08853882  1.0
  Ta  Ta8  1  0.85741050  0.87394867  0.08853882  1.0
  Ta  Ta9  1  0.02407717  0.20728200  0.01711025  1.0
  Ta  Ta10  1  0.02407717  0.54061533  0.01711025  1.0
  Ta  Ta11  1  0.02407717  0.87394867  0.01711025  1.0
  Ta  Ta12  1  0.35741050  0.20728200  0.01711025  1.0
  Ta  Ta13  1  0.35741050  0.54061533  0.01711025  1.0
  Ta  Ta14  1  0.35741050  0.87394867  0.01711025  1.0
  Ta  Ta15  1  0.69074383  0.20728200  0.01711025  1.0
  Ta  Ta16  1  0.69074383  0.54061533  0.01711025  1.0
  Ta  Ta17  1  0.69074383  0.87394867  0.01711025  1.0
  Ta  Ta18  1  0.30925617  0.12605133  0.06790125  1.0
  Ta  Ta19  1  0.30925617  0.45938467  0.06790125  1.0
  Ta  Ta20  1  0.30925617  0.79271800  0.06790125  1.0
  Ta  Ta21  1  0.64258950  0.12605133  0.06790125  1.0
  Ta  Ta22  1  0.64258950  0.45938467  0.06790125  1.0
  Ta  Ta23  1  0.64258950  0.79271800  0.06790125  1.0
  Ta  Ta24  1  0.97592283  0.12605133  0.06790125  1.0
  Ta  Ta25  1  0.97592283  0.45938467  0.06790125  1.0
  Ta  Ta26  1  0.97592283  0.79271800  0.06790125  1.0
  Ta  Ta27  1  0.14258950  0.12605133  0.13932982  1.0
  Ta  Ta28  1  0.14258950  0.45938467  0.13932982  1.0
  Ta  Ta29  1  0.14258950  0.79271800  0.13932982  1.0
  Ta  Ta30  1  0.47592283  0.12605133  0.13932982  1.0
  Ta  Ta31  1  0.47592283  0.45938467  0.13932982  1.0
  Ta  Ta32  1  0.47592283  0.79271800  0.13932982  1.0
  Ta  Ta33  1  0.80925617  0.12605133  0.13932982  1.0
  Ta  Ta34  1  0.80925617  0.45938467  0.13932982  1.0
  Ta  Ta35  1  0.80925617  0.79271800  0.13932982  1.0
  Ta  Ta36  1  0.32575300  0.04253300  0.00354275  1.0
  Ta  Ta37  1  0.32575300  0.37586633  0.00354275  1.0
  Ta  Ta38  1  0.32575300  0.70919967  0.00354275  1.0
  Ta  Ta39  1  0.65908633  0.04253300  0.00354275  1.0
  Ta  Ta40  1  0.65908633  0.37586633  0.00354275  1.0
  Ta  Ta41  1  0.65908633  0.70919967  0.00354275  1.0
  Ta  Ta42  1  0.99241967  0.04253300  0.00354275  1.0
  Ta  Ta43  1  0.99241967  0.37586633  0.00354275  1.0
  Ta  Ta44  1  0.99241967  0.70919967  0.00354275  1.0
  Ta  Ta45  1  0.15908633  0.04253300  0.07497132  1.0
  Ta  Ta46  1  0.15908633  0.37586633  0.07497132  1.0
  Ta  Ta47  1  0.15908633  0.70919967  0.07497132  1.0
  Ta  Ta48  1  0.49241967  0.04253300  0.07497132  1.0
  Ta  Ta49  1  0.49241967  0.37586633  0.07497132  1.0
  Ta  Ta50  1  0.49241967  0.70919967  0.07497132  1.0
  Ta  Ta51  1  0.82575300  0.04253300  0.07497132  1.0
  Ta  Ta52  1  0.82575300  0.37586633  0.07497132  1.0
  Ta  Ta53  1  0.82575300  0.70919967  0.07497132  1.0
  Ta  Ta54  1  0.17424700  0.29080033  0.01004018  1.0
  Ta  Ta55  1  0.17424700  0.62413367  0.01004018  1.0
  Ta  Ta56  1  0.17424700  0.95746700  0.01004018  1.0
  Ta  Ta57  1  0.50758033  0.29080033  0.01004018  1.0
  Ta  Ta58  1  0.50758033  0.62413367  0.01004018  1.0
  Ta  Ta59  1  0.50758033  0.95746700  0.01004018  1.0
  Ta  Ta60  1  0.84091367  0.29080033  0.01004018  1.0
  Ta  Ta61  1  0.84091367  0.62413367  0.01004018  1.0
  Ta  Ta62  1  0.84091367  0.95746700  0.01004018  1.0
  Ta  Ta63  1  0.00758033  0.29080033  0.08146875  1.0
  Ta  Ta64  1  0.00758033  0.62413367  0.08146875  1.0
  Ta  Ta65  1  0.00758033  0.95746700  0.08146875  1.0
  Ta  Ta66  1  0.34091367  0.29080033  0.08146875  1.0
  Ta  Ta67  1  0.34091367  0.62413367  0.08146875  1.0
  Ta  Ta68  1  0.34091367  0.95746700  0.08146875  1.0
  Ta  Ta69  1  0.67424700  0.29080033  0.08146875  1.0
  Ta  Ta70  1  0.67424700  0.62413367  0.08146875  1.0
  Ta  Ta71  1  0.67424700  0.95746700  0.08146875  1.0
  Ni  Ni72  1  0.09033783  0.29220933  0.00997954  1.0
  Ni  Ni73  1  0.09033783  0.62554267  0.00997954  1.0
  Ni  Ni74  1  0.09033783  0.95887600  0.00997954  1.0
  Ni  Ni75  1  0.42367117  0.29220933  0.00997954  1.0
  Ni  Ni76  1  0.42367117  0.62554267  0.00997954  1.0
  Ni  Ni77  1  0.42367117  0.95887600  0.00997954  1.0
  Ni  Ni78  1  0.75700450  0.29220933  0.00997954  1.0
  Ni  Ni79  1  0.75700450  0.62554267  0.00997954  1.0
  Ni  Ni80  1  0.75700450  0.95887600  0.00997954  1.0
  Ni  Ni81  1  0.25700450  0.29220933  0.08140811  1.0
  Ni  Ni82  1  0.25700450  0.62554267  0.08140811  1.0
  Ni  Ni83  1  0.25700450  0.95887600  0.08140811  1.0
  Ni  Ni84  1  0.59033783  0.29220933  0.08140811  1.0
  Ni  Ni85  1  0.59033783  0.62554267  0.08140811  1.0
  Ni  Ni86  1  0.59033783  0.95887600  0.08140811  1.0
  Ni  Ni87  1  0.92367117  0.29220933  0.08140811  1.0
  Ni  Ni88  1  0.92367117  0.62554267  0.08140811  1.0
  Ni  Ni89  1  0.92367117  0.95887600  0.08140811  1.0
  Ni  Ni90  1  0.27220400  0.20886333  0.08809346  1.0
  Ni  Ni91  1  0.27220400  0.54219667  0.08809346  1.0
  Ni  Ni92  1  0.27220400  0.87553000  0.08809346  1.0
  Ni  Ni93  1  0.60553733  0.20886333  0.08809346  1.0
  Ni  Ni94  1  0.60553733  0.54219667  0.08809346  1.0
  Ni  Ni95  1  0.60553733  0.87553000  0.08809346  1.0
  Ni  Ni96  1  0.93887067  0.20886333  0.08809346  1.0
  Ni  Ni97  1  0.93887067  0.54219667  0.08809346  1.0
  Ni  Ni98  1  0.93887067  0.87553000  0.08809346  1.0
  Ni  Ni99  1  0.10553733  0.20886333  0.01666489  1.0
  Ni  Ni100  1  0.10553733  0.54219667  0.01666489  1.0
  Ni  Ni101  1  0.10553733  0.87553000  0.01666489  1.0
  Ni  Ni102  1  0.43887067  0.20886333  0.01666489  1.0
  Ni  Ni103  1  0.43887067  0.54219667  0.01666489  1.0
  Ni  Ni104  1  0.43887067  0.87553000  0.01666489  1.0
  Ni  Ni105  1  0.77220400  0.20886333  0.01666489  1.0
  Ni  Ni106  1  0.77220400  0.54219667  0.01666489  1.0
  Ni  Ni107  1  0.77220400  0.87553000  0.01666489  1.0
  Ni  Ni108  1  0.17532217  0.29119000  0.08192954  1.0
  Ni  Ni109  1  0.17532217  0.62452333  0.08192954  1.0
  Ni  Ni110  1  0.17532217  0.95785667  0.08192954  1.0
  Ni  Ni111  1  0.50865550  0.29119000  0.08192954  1.0
  Ni  Ni112  1  0.50865550  0.62452333  0.08192954  1.0
  Ni  Ni113  1  0.50865550  0.95785667  0.08192954  1.0
  Ni  Ni114  1  0.84198883  0.29119000  0.08192954  1.0
  Ni  Ni115  1  0.84198883  0.62452333  0.08192954  1.0
  Ni  Ni116  1  0.84198883  0.95785667  0.08192954  1.0
  Ni  Ni117  1  0.00865550  0.29119000  0.01050096  1.0
  Ni  Ni118  1  0.00865550  0.62452333  0.01050096  1.0
  Ni  Ni119  1  0.00865550  0.95785667  0.01050096  1.0
  Ni  Ni120  1  0.34198883  0.29119000  0.01050096  1.0
  Ni  Ni121  1  0.34198883  0.62452333  0.01050096  1.0
  Ni  Ni122  1  0.34198883  0.95785667  0.01050096  1.0
  Ni  Ni123  1  0.67532217  0.29119000  0.01050096  1.0
  Ni  Ni124  1  0.67532217  0.62452333  0.01050096  1.0
  Ni  Ni125  1  0.67532217  0.95785667  0.01050096  1.0
  Ni  Ni126  1  0.22779600  0.12447000  0.14049004  1.0
  Ni  Ni127  1  0.22779600  0.45780333  0.14049004  1.0
  Ni  Ni128  1  0.22779600  0.79113667  0.14049004  1.0
  Ni  Ni129  1  0.56112933  0.12447000  0.14049004  1.0
  Ni  Ni130  1  0.56112933  0.45780333  0.14049004  1.0
  Ni  Ni131  1  0.56112933  0.79113667  0.14049004  1.0
  Ni  Ni132  1  0.89446267  0.12447000  0.14049004  1.0
  Ni  Ni133  1  0.89446267  0.45780333  0.14049004  1.0
  Ni  Ni134  1  0.89446267  0.79113667  0.14049004  1.0
  Ni  Ni135  1  0.06112933  0.12447000  0.06906146  1.0
  Ni  Ni136  1  0.06112933  0.45780333  0.06906146  1.0
  Ni  Ni137  1  0.06112933  0.79113667  0.06906146  1.0
  Ni  Ni138  1  0.39446267  0.12447000  0.06906146  1.0
  Ni  Ni139  1  0.39446267  0.45780333  0.06906146  1.0
  Ni  Ni140  1  0.39446267  0.79113667  0.06906146  1.0
  Ni  Ni141  1  0.72779600  0.12447000  0.06906146  1.0
  Ni  Ni142  1  0.72779600  0.45780333  0.06906146  1.0
  Ni  Ni143  1  0.72779600  0.79113667  0.06906146  1.0
  Ni  Ni144  1  0.31332433  0.12535800  0.14107332  1.0
  Ni  Ni145  1  0.31332433  0.45869133  0.14107332  1.0
  Ni  Ni146  1  0.31332433  0.79202467  0.14107332  1.0
  Ni  Ni147  1  0.64665767  0.12535800  0.14107332  1.0
  Ni  Ni148  1  0.64665767  0.45869133  0.14107332  1.0
  Ni  Ni149  1  0.64665767  0.79202467  0.14107332  1.0
  Ni  Ni150  1  0.97999100  0.12535800  0.14107332  1.0
  Ni  Ni151  1  0.97999100  0.45869133  0.14107332  1.0
  Ni  Ni152  1  0.97999100  0.79202467  0.14107332  1.0
  Ni  Ni153  1  0.14665767  0.12535800  0.06964475  1.0
  Ni  Ni154  1  0.14665767  0.45869133  0.06964475  1.0
  Ni  Ni155  1  0.14665767  0.79202467  0.06964475  1.0
  Ni  Ni156  1  0.47999100  0.12535800  0.06964475  1.0
  Ni  Ni157  1  0.47999100  0.45869133  0.06964475  1.0
  Ni  Ni158  1  0.47999100  0.79202467  0.06964475  1.0
  Ni  Ni159  1  0.81332433  0.12535800  0.06964475  1.0
  Ni  Ni160  1  0.81332433  0.45869133  0.06964475  1.0
  Ni  Ni161  1  0.81332433  0.79202467  0.06964475  1.0
  Ni  Ni162  1  0.09033783  0.29220933  0.08103582  1.0
  Ni  Ni163  1  0.09033783  0.62554267  0.08103582  1.0
  Ni  Ni164  1  0.09033783  0.95887600  0.08103582  1.0
  Ni  Ni165  1  0.42367117  0.29220933  0.08103582  1.0
  Ni  Ni166  1  0.42367117  0.62554267  0.08103582  1.0
  Ni  Ni167  1  0.42367117  0.95887600  0.08103582  1.0
  Ni  Ni168  1  0.75700450  0.29220933  0.08103582  1.0
  Ni  Ni169  1  0.75700450  0.62554267  0.08103582  1.0
  Ni  Ni170  1  0.75700450  0.95887600  0.08103582  1.0
  Ni  Ni171  1  0.25700450  0.29220933  0.00960725  1.0
  Ni  Ni172  1  0.25700450  0.62554267  0.00960725  1.0
  Ni  Ni173  1  0.25700450  0.95887600  0.00960725  1.0
  Ni  Ni174  1  0.59033783  0.29220933  0.00960725  1.0
  Ni  Ni175  1  0.59033783  0.62554267  0.00960725  1.0
  Ni  Ni176  1  0.59033783  0.95887600  0.00960725  1.0
  Ni  Ni177  1  0.92367117  0.29220933  0.00960725  1.0
  Ni  Ni178  1  0.92367117  0.62554267  0.00960725  1.0
  Ni  Ni179  1  0.92367117  0.95887600  0.00960725  1.0
  Ni  Ni180  1  0.18667567  0.20797533  0.01536675  1.0
  Ni  Ni181  1  0.18667567  0.54130867  0.01536675  1.0
  Ni  Ni182  1  0.18667567  0.87464200  0.01536675  1.0
  Ni  Ni183  1  0.52000900  0.20797533  0.01536675  1.0
  Ni  Ni184  1  0.52000900  0.54130867  0.01536675  1.0
  Ni  Ni185  1  0.52000900  0.87464200  0.01536675  1.0
  Ni  Ni186  1  0.85334233  0.20797533  0.01536675  1.0
  Ni  Ni187  1  0.85334233  0.54130867  0.01536675  1.0
  Ni  Ni188  1  0.85334233  0.87464200  0.01536675  1.0
  Ni  Ni189  1  0.02000900  0.20797533  0.08679532  1.0
  Ni  Ni190  1  0.02000900  0.54130867  0.08679532  1.0
  Ni  Ni191  1  0.02000900  0.87464200  0.08679532  1.0
  Ni  Ni192  1  0.35334233  0.20797533  0.08679532  1.0
  Ni  Ni193  1  0.35334233  0.54130867  0.08679532  1.0
  Ni  Ni194  1  0.35334233  0.87464200  0.08679532  1.0
  Ni  Ni195  1  0.68667567  0.20797533  0.08679532  1.0
  Ni  Ni196  1  0.68667567  0.54130867  0.08679532  1.0
  Ni  Ni197  1  0.68667567  0.87464200  0.08679532  1.0
  Ni  Ni198  1  0.07632883  0.04112400  0.00360339  1.0
  Ni  Ni199  1  0.07632883  0.37445733  0.00360339  1.0
  Ni  Ni200  1  0.07632883  0.70779067  0.00360339  1.0
  Ni  Ni201  1  0.40966217  0.04112400  0.00360339  1.0
  Ni  Ni202  1  0.40966217  0.37445733  0.00360339  1.0
  Ni  Ni203  1  0.40966217  0.70779067  0.00360339  1.0
  Ni  Ni204  1  0.74299550  0.04112400  0.00360339  1.0
  Ni  Ni205  1  0.74299550  0.37445733  0.00360339  1.0
  Ni  Ni206  1  0.74299550  0.70779067  0.00360339  1.0
  Ni  Ni207  1  0.24299550  0.04112400  0.07503196  1.0
  Ni  Ni208  1  0.24299550  0.37445733  0.07503196  1.0
  Ni  Ni209  1  0.24299550  0.70779067  0.07503196  1.0
  Ni  Ni210  1  0.57632883  0.04112400  0.07503196  1.0
  Ni  Ni211  1  0.57632883  0.37445733  0.07503196  1.0
  Ni  Ni212  1  0.57632883  0.70779067  0.07503196  1.0
  Ni  Ni213  1  0.90966217  0.04112400  0.07503196  1.0
  Ni  Ni214  1  0.90966217  0.37445733  0.07503196  1.0
  Ni  Ni215  1  0.90966217  0.70779067  0.07503196  1.0
  Ni  Ni216  1  0.07632883  0.04112400  0.07540425  1.0
  Ni  Ni217  1  0.07632883  0.37445733  0.07540425  1.0
  Ni  Ni218  1  0.07632883  0.70779067  0.07540425  1.0
  Ni  Ni219  1  0.40966217  0.04112400  0.07540425  1.0
  Ni  Ni220  1  0.40966217  0.37445733  0.07540425  1.0
  Ni  Ni221  1  0.40966217  0.70779067  0.07540425  1.0
  Ni  Ni222  1  0.74299550  0.04112400  0.07540425  1.0
  Ni  Ni223  1  0.74299550  0.37445733  0.07540425  1.0
  Ni  Ni224  1  0.74299550  0.70779067  0.07540425  1.0
  Ni  Ni225  1  0.24299550  0.04112400  0.00397568  1.0
  Ni  Ni226  1  0.24299550  0.37445733  0.00397568  1.0
  Ni  Ni227  1  0.24299550  0.70779067  0.00397568  1.0
  Ni  Ni228  1  0.57632883  0.04112400  0.00397568  1.0
  Ni  Ni229  1  0.57632883  0.37445733  0.00397568  1.0
  Ni  Ni230  1  0.57632883  0.70779067  0.00397568  1.0
  Ni  Ni231  1  0.90966217  0.04112400  0.00397568  1.0
  Ni  Ni232  1  0.90966217  0.37445733  0.00397568  1.0
  Ni  Ni233  1  0.90966217  0.70779067  0.00397568  1.0
  Ni  Ni234  1  0.22779600  0.12447000  0.06834661  1.0
  Ni  Ni235  1  0.22779600  0.45780333  0.06834661  1.0
  Ni  Ni236  1  0.22779600  0.79113667  0.06834661  1.0
  Ni  Ni237  1  0.56112933  0.12447000  0.06834661  1.0
  Ni  Ni238  1  0.56112933  0.45780333  0.06834661  1.0
  Ni  Ni239  1  0.56112933  0.79113667  0.06834661  1.0
  Ni  Ni240  1  0.89446267  0.12447000  0.06834661  1.0
  Ni  Ni241  1  0.89446267  0.45780333  0.06834661  1.0
  Ni  Ni242  1  0.89446267  0.79113667  0.06834661  1.0
  Ni  Ni243  1  0.06112933  0.12447000  0.13977518  1.0
  Ni  Ni244  1  0.06112933  0.45780333  0.13977518  1.0
  Ni  Ni245  1  0.06112933  0.79113667  0.13977518  1.0
  Ni  Ni246  1  0.39446267  0.12447000  0.13977518  1.0
  Ni  Ni247  1  0.39446267  0.45780333  0.13977518  1.0
  Ni  Ni248  1  0.39446267  0.79113667  0.13977518  1.0
  Ni  Ni249  1  0.72779600  0.12447000  0.13977518  1.0
  Ni  Ni250  1  0.72779600  0.45780333  0.13977518  1.0
  Ni  Ni251  1  0.72779600  0.79113667  0.13977518  1.0
  Ni  Ni252  1  0.32467783  0.04214333  0.07451054  1.0
  Ni  Ni253  1  0.32467783  0.37547667  0.07451054  1.0
  Ni  Ni254  1  0.32467783  0.70881000  0.07451054  1.0
  Ni  Ni255  1  0.65801117  0.04214333  0.07451054  1.0
  Ni  Ni256  1  0.65801117  0.37547667  0.07451054  1.0
  Ni  Ni257  1  0.65801117  0.70881000  0.07451054  1.0
  Ni  Ni258  1  0.99134450  0.04214333  0.07451054  1.0
  Ni  Ni259  1  0.99134450  0.37547667  0.07451054  1.0
  Ni  Ni260  1  0.99134450  0.70881000  0.07451054  1.0
  Ni  Ni261  1  0.15801117  0.04214333  0.00308196  1.0
  Ni  Ni262  1  0.15801117  0.37547667  0.00308196  1.0
  Ni  Ni263  1  0.15801117  0.70881000  0.00308196  1.0
  Ni  Ni264  1  0.49134450  0.04214333  0.00308196  1.0
  Ni  Ni265  1  0.49134450  0.37547667  0.00308196  1.0
  Ni  Ni266  1  0.49134450  0.70881000  0.00308196  1.0
  Ni  Ni267  1  0.82467783  0.04214333  0.00308196  1.0
  Ni  Ni268  1  0.82467783  0.37547667  0.00308196  1.0
  Ni  Ni269  1  0.82467783  0.70881000  0.00308196  1.0
  Ni  Ni270  1  0.27220400  0.20886333  0.01595004  1.0
  Ni  Ni271  1  0.27220400  0.54219667  0.01595004  1.0
  Ni  Ni272  1  0.27220400  0.87553000  0.01595004  1.0
  Ni  Ni273  1  0.60553733  0.20886333  0.01595004  1.0
  Ni  Ni274  1  0.60553733  0.54219667  0.01595004  1.0
  Ni  Ni275  1  0.60553733  0.87553000  0.01595004  1.0
  Ni  Ni276  1  0.93887067  0.20886333  0.01595004  1.0
  Ni  Ni277  1  0.93887067  0.54219667  0.01595004  1.0
  Ni  Ni278  1  0.93887067  0.87553000  0.01595004  1.0
  Ni  Ni279  1  0.10553733  0.20886333  0.08737861  1.0
  Ni  Ni280  1  0.10553733  0.54219667  0.08737861  1.0
  Ni  Ni281  1  0.10553733  0.87553000  0.08737861  1.0
  Ni  Ni282  1  0.43887067  0.20886333  0.08737861  1.0
  Ni  Ni283  1  0.43887067  0.54219667  0.08737861  1.0
  Ni  Ni284  1  0.43887067  0.87553000  0.08737861  1.0
  Ni  Ni285  1  0.77220400  0.20886333  0.08737861  1.0
  Ni  Ni286  1  0.77220400  0.54219667  0.08737861  1.0
  Ni  Ni287  1  0.77220400  0.87553000  0.08737861  1.0
  Ta  Ta288  1  0.19074383  0.20728200  0.23139596  1.0
  Ta  Ta289  1  0.19074383  0.54061533  0.23139596  1.0
  Ta  Ta290  1  0.19074383  0.87394867  0.23139596  1.0
  Ta  Ta291  1  0.52407717  0.20728200  0.23139596  1.0
  Ta  Ta292  1  0.52407717  0.54061533  0.23139596  1.0
  Ta  Ta293  1  0.52407717  0.87394867  0.23139596  1.0
  Ta  Ta294  1  0.85741050  0.20728200  0.23139596  1.0
  Ta  Ta295  1  0.85741050  0.54061533  0.23139596  1.0
  Ta  Ta296  1  0.85741050  0.87394867  0.23139596  1.0
  Ta  Ta297  1  0.02407717  0.20728200  0.15996739  1.0
  Ta  Ta298  1  0.02407717  0.54061533  0.15996739  1.0
  Ta  Ta299  1  0.02407717  0.87394867  0.15996739  1.0
  Ta  Ta300  1  0.35741050  0.20728200  0.15996739  1.0
  Ta  Ta301  1  0.35741050  0.54061533  0.15996739  1.0
  Ta  Ta302  1  0.35741050  0.87394867  0.15996739  1.0
  Ta  Ta303  1  0.69074383  0.20728200  0.15996739  1.0
  Ta  Ta304  1  0.69074383  0.54061533  0.15996739  1.0
  Ta  Ta305  1  0.69074383  0.87394867  0.15996739  1.0
  Ta  Ta306  1  0.30925617  0.12605133  0.21075839  1.0
  Ta  Ta307  1  0.30925617  0.45938467  0.21075839  1.0
  Ta  Ta308  1  0.30925617  0.79271800  0.21075839  1.0
  Ta  Ta309  1  0.64258950  0.12605133  0.21075839  1.0
  Ta  Ta310  1  0.64258950  0.45938467  0.21075839  1.0
  Ta  Ta311  1  0.64258950  0.79271800  0.21075839  1.0
  Ta  Ta312  1  0.97592283  0.12605133  0.21075839  1.0
  Ta  Ta313  1  0.97592283  0.45938467  0.21075839  1.0
  Ta  Ta314  1  0.97592283  0.79271800  0.21075839  1.0
  Ta  Ta315  1  0.14258950  0.12605133  0.28218696  1.0
  Ta  Ta316  1  0.14258950  0.45938467  0.28218696  1.0
  Ta  Ta317  1  0.14258950  0.79271800  0.28218696  1.0
  Ta  Ta318  1  0.47592283  0.12605133  0.28218696  1.0
  Ta  Ta319  1  0.47592283  0.45938467  0.28218696  1.0
  Ta  Ta320  1  0.47592283  0.79271800  0.28218696  1.0
  Ta  Ta321  1  0.80925617  0.12605133  0.28218696  1.0
  Ta  Ta322  1  0.80925617  0.45938467  0.28218696  1.0
  Ta  Ta323  1  0.80925617  0.79271800  0.28218696  1.0
  Ta  Ta324  1  0.32575300  0.04253300  0.14639989  1.0
  Ta  Ta325  1  0.32575300  0.37586633  0.14639989  1.0
  Ta  Ta326  1  0.32575300  0.70919967  0.14639989  1.0
  Ta  Ta327  1  0.65908633  0.04253300  0.14639989  1.0
  Ta  Ta328  1  0.65908633  0.37586633  0.14639989  1.0
  Ta  Ta329  1  0.65908633  0.70919967  0.14639989  1.0
  Ta  Ta330  1  0.99241967  0.04253300  0.14639989  1.0
  Ta  Ta331  1  0.99241967  0.37586633  0.14639989  1.0
  Ta  Ta332  1  0.99241967  0.70919967  0.14639989  1.0
  Ta  Ta333  1  0.15908633  0.04253300  0.21782846  1.0
  Ta  Ta334  1  0.15908633  0.37586633  0.21782846  1.0
  Ta  Ta335  1  0.15908633  0.70919967  0.21782846  1.0
  Ta  Ta336  1  0.49241967  0.04253300  0.21782846  1.0
  Ta  Ta337  1  0.49241967  0.37586633  0.21782846  1.0
  Ta  Ta338  1  0.49241967  0.70919967  0.21782846  1.0
  Ta  Ta339  1  0.82575300  0.04253300  0.21782846  1.0
  Ta  Ta340  1  0.82575300  0.37586633  0.21782846  1.0
  Ta  Ta341  1  0.82575300  0.70919967  0.21782846  1.0
  Ta  Ta342  1  0.17424700  0.29080033  0.15289732  1.0
  Ta  Ta343  1  0.17424700  0.62413367  0.15289732  1.0
  Ta  Ta344  1  0.17424700  0.95746700  0.15289732  1.0
  Ta  Ta345  1  0.50758033  0.29080033  0.15289732  1.0
  Ta  Ta346  1  0.50758033  0.62413367  0.15289732  1.0
  Ta  Ta347  1  0.50758033  0.95746700  0.15289732  1.0
  Ta  Ta348  1  0.84091367  0.29080033  0.15289732  1.0
  Ta  Ta349  1  0.84091367  0.62413367  0.15289732  1.0
  Ta  Ta350  1  0.84091367  0.95746700  0.15289732  1.0
  Ta  Ta351  1  0.00758033  0.29080033  0.22432589  1.0
  Ta  Ta352  1  0.00758033  0.62413367  0.22432589  1.0
  Ta  Ta353  1  0.00758033  0.95746700  0.22432589  1.0
  Ta  Ta354  1  0.34091367  0.29080033  0.22432589  1.0
  Ta  Ta355  1  0.34091367  0.62413367  0.22432589  1.0
  Ta  Ta356  1  0.34091367  0.95746700  0.22432589  1.0
  Ta  Ta357  1  0.67424700  0.29080033  0.22432589  1.0
  Ta  Ta358  1  0.67424700  0.62413367  0.22432589  1.0
  Ta  Ta359  1  0.67424700  0.95746700  0.22432589  1.0
  Ni  Ni360  1  0.09033783  0.29220933  0.15283668  1.0
  Ni  Ni361  1  0.09033783  0.62554267  0.15283668  1.0
  Ni  Ni362  1  0.09033783  0.95887600  0.15283668  1.0
  Ni  Ni363  1  0.42367117  0.29220933  0.15283668  1.0
  Ni  Ni364  1  0.42367117  0.62554267  0.15283668  1.0
  Ni  Ni365  1  0.42367117  0.95887600  0.15283668  1.0
  Ni  Ni366  1  0.75700450  0.29220933  0.15283668  1.0
  Ni  Ni367  1  0.75700450  0.62554267  0.15283668  1.0
  Ni  Ni368  1  0.75700450  0.95887600  0.15283668  1.0
  Ni  Ni369  1  0.25700450  0.29220933  0.22426525  1.0
  Ni  Ni370  1  0.25700450  0.62554267  0.22426525  1.0
  Ni  Ni371  1  0.25700450  0.95887600  0.22426525  1.0
  Ni  Ni372  1  0.59033783  0.29220933  0.22426525  1.0
  Ni  Ni373  1  0.59033783  0.62554267  0.22426525  1.0
  Ni  Ni374  1  0.59033783  0.95887600  0.22426525  1.0
  Ni  Ni375  1  0.92367117  0.29220933  0.22426525  1.0
  Ni  Ni376  1  0.92367117  0.62554267  0.22426525  1.0
  Ni  Ni377  1  0.92367117  0.95887600  0.22426525  1.0
  Ni  Ni378  1  0.27220400  0.20886333  0.23095061  1.0
  Ni  Ni379  1  0.27220400  0.54219667  0.23095061  1.0
  Ni  Ni380  1  0.27220400  0.87553000  0.23095061  1.0
  Ni  Ni381  1  0.60553733  0.20886333  0.23095061  1.0
  Ni  Ni382  1  0.60553733  0.54219667  0.23095061  1.0
  Ni  Ni383  1  0.60553733  0.87553000  0.23095061  1.0
  Ni  Ni384  1  0.93887067  0.20886333  0.23095061  1.0
  Ni  Ni385  1  0.93887067  0.54219667  0.23095061  1.0
  Ni  Ni386  1  0.93887067  0.87553000  0.23095061  1.0
  Ni  Ni387  1  0.10553733  0.20886333  0.15952204  1.0
  Ni  Ni388  1  0.10553733  0.54219667  0.15952204  1.0
  Ni  Ni389  1  0.10553733  0.87553000  0.15952204  1.0
  Ni  Ni390  1  0.43887067  0.20886333  0.15952204  1.0
  Ni  Ni391  1  0.43887067  0.54219667  0.15952204  1.0
  Ni  Ni392  1  0.43887067  0.87553000  0.15952204  1.0
  Ni  Ni393  1  0.77220400  0.20886333  0.15952204  1.0
  Ni  Ni394  1  0.77220400  0.54219667  0.15952204  1.0
  Ni  Ni395  1  0.77220400  0.87553000  0.15952204  1.0
  Ni  Ni396  1  0.17532217  0.29119000  0.22478668  1.0
  Ni  Ni397  1  0.17532217  0.62452333  0.22478668  1.0
  Ni  Ni398  1  0.17532217  0.95785667  0.22478668  1.0
  Ni  Ni399  1  0.50865550  0.29119000  0.22478668  1.0
  Ni  Ni400  1  0.50865550  0.62452333  0.22478668  1.0
  Ni  Ni401  1  0.50865550  0.95785667  0.22478668  1.0
  Ni  Ni402  1  0.84198883  0.29119000  0.22478668  1.0
  Ni  Ni403  1  0.84198883  0.62452333  0.22478668  1.0
  Ni  Ni404  1  0.84198883  0.95785667  0.22478668  1.0
  Ni  Ni405  1  0.00865550  0.29119000  0.15335811  1.0
  Ni  Ni406  1  0.00865550  0.62452333  0.15335811  1.0
  Ni  Ni407  1  0.00865550  0.95785667  0.15335811  1.0
  Ni  Ni408  1  0.34198883  0.29119000  0.15335811  1.0
  Ni  Ni409  1  0.34198883  0.62452333  0.15335811  1.0
  Ni  Ni410  1  0.34198883  0.95785667  0.15335811  1.0
  Ni  Ni411  1  0.67532217  0.29119000  0.15335811  1.0
  Ni  Ni412  1  0.67532217  0.62452333  0.15335811  1.0
  Ni  Ni413  1  0.67532217  0.95785667  0.15335811  1.0
  Ni  Ni414  1  0.22779600  0.12447000  0.28334718  1.0
  Ni  Ni415  1  0.22779600  0.45780333  0.28334718  1.0
  Ni  Ni416  1  0.22779600  0.79113667  0.28334718  1.0
  Ni  Ni417  1  0.56112933  0.12447000  0.28334718  1.0
  Ni  Ni418  1  0.56112933  0.45780333  0.28334718  1.0
  Ni  Ni419  1  0.56112933  0.79113667  0.28334718  1.0
  Ni  Ni420  1  0.89446267  0.12447000  0.28334718  1.0
  Ni  Ni421  1  0.89446267  0.45780333  0.28334718  1.0
  Ni  Ni422  1  0.89446267  0.79113667  0.28334718  1.0
  Ni  Ni423  1  0.06112933  0.12447000  0.21191861  1.0
  Ni  Ni424  1  0.06112933  0.45780333  0.21191861  1.0
  Ni  Ni425  1  0.06112933  0.79113667  0.21191861  1.0
  Ni  Ni426  1  0.39446267  0.12447000  0.21191861  1.0
  Ni  Ni427  1  0.39446267  0.45780333  0.21191861  1.0
  Ni  Ni428  1  0.39446267  0.79113667  0.21191861  1.0
  Ni  Ni429  1  0.72779600  0.12447000  0.21191861  1.0
  Ni  Ni430  1  0.72779600  0.45780333  0.21191861  1.0
  Ni  Ni431  1  0.72779600  0.79113667  0.21191861  1.0
  Ni  Ni432  1  0.31332433  0.12535800  0.28393046  1.0
  Ni  Ni433  1  0.31332433  0.45869133  0.28393046  1.0
  Ni  Ni434  1  0.31332433  0.79202467  0.28393046  1.0
  Ni  Ni435  1  0.64665767  0.12535800  0.28393046  1.0
  Ni  Ni436  1  0.64665767  0.45869133  0.28393046  1.0
  Ni  Ni437  1  0.64665767  0.79202467  0.28393046  1.0
  Ni  Ni438  1  0.97999100  0.12535800  0.28393046  1.0
  Ni  Ni439  1  0.97999100  0.45869133  0.28393046  1.0
  Ni  Ni440  1  0.97999100  0.79202467  0.28393046  1.0
  Ni  Ni441  1  0.14665767  0.12535800  0.21250189  1.0
  Ni  Ni442  1  0.14665767  0.45869133  0.21250189  1.0
  Ni  Ni443  1  0.14665767  0.79202467  0.21250189  1.0
  Ni  Ni444  1  0.47999100  0.12535800  0.21250189  1.0
  Ni  Ni445  1  0.47999100  0.45869133  0.21250189  1.0
  Ni  Ni446  1  0.47999100  0.79202467  0.21250189  1.0
  Ni  Ni447  1  0.81332433  0.12535800  0.21250189  1.0
  Ni  Ni448  1  0.81332433  0.45869133  0.21250189  1.0
  Ni  Ni449  1  0.81332433  0.79202467  0.21250189  1.0
  Ni  Ni450  1  0.09033783  0.29220933  0.22389296  1.0
  Ni  Ni451  1  0.09033783  0.62554267  0.22389296  1.0
  Ni  Ni452  1  0.09033783  0.95887600  0.22389296  1.0
  Ni  Ni453  1  0.42367117  0.29220933  0.22389296  1.0
  Ni  Ni454  1  0.42367117  0.62554267  0.22389296  1.0
  Ni  Ni455  1  0.42367117  0.95887600  0.22389296  1.0
  Ni  Ni456  1  0.75700450  0.29220933  0.22389296  1.0
  Ni  Ni457  1  0.75700450  0.62554267  0.22389296  1.0
  Ni  Ni458  1  0.75700450  0.95887600  0.22389296  1.0
  Ni  Ni459  1  0.25700450  0.29220933  0.15246439  1.0
  Ni  Ni460  1  0.25700450  0.62554267  0.15246439  1.0
  Ni  Ni461  1  0.25700450  0.95887600  0.15246439  1.0
  Ni  Ni462  1  0.59033783  0.29220933  0.15246439  1.0
  Ni  Ni463  1  0.59033783  0.62554267  0.15246439  1.0
  Ni  Ni464  1  0.59033783  0.95887600  0.15246439  1.0
  Ni  Ni465  1  0.92367117  0.29220933  0.15246439  1.0
  Ni  Ni466  1  0.92367117  0.62554267  0.15246439  1.0
  Ni  Ni467  1  0.92367117  0.95887600  0.15246439  1.0
  Ni  Ni468  1  0.18667567  0.20797533  0.15822389  1.0
  Ni  Ni469  1  0.18667567  0.54130867  0.15822389  1.0
  Ni  Ni470  1  0.18667567  0.87464200  0.15822389  1.0
  Ni  Ni471  1  0.52000900  0.20797533  0.15822389  1.0
  Ni  Ni472  1  0.52000900  0.54130867  0.15822389  1.0
  Ni  Ni473  1  0.52000900  0.87464200  0.15822389  1.0
  Ni  Ni474  1  0.85334233  0.20797533  0.15822389  1.0
  Ni  Ni475  1  0.85334233  0.54130867  0.15822389  1.0
  Ni  Ni476  1  0.85334233  0.87464200  0.15822389  1.0
  Ni  Ni477  1  0.02000900  0.20797533  0.22965246  1.0
  Ni  Ni478  1  0.02000900  0.54130867  0.22965246  1.0
  Ni  Ni479  1  0.02000900  0.87464200  0.22965246  1.0
  Ni  Ni480  1  0.35334233  0.20797533  0.22965246  1.0
  Ni  Ni481  1  0.35334233  0.54130867  0.22965246  1.0
  Ni  Ni482  1  0.35334233  0.87464200  0.22965246  1.0
  Ni  Ni483  1  0.68667567  0.20797533  0.22965246  1.0
  Ni  Ni484  1  0.68667567  0.54130867  0.22965246  1.0
  Ni  Ni485  1  0.68667567  0.87464200  0.22965246  1.0
  Ni  Ni486  1  0.07632883  0.04112400  0.14646054  1.0
  Ni  Ni487  1  0.07632883  0.37445733  0.14646054  1.0
  Ni  Ni488  1  0.07632883  0.70779067  0.14646054  1.0
  Ni  Ni489  1  0.40966217  0.04112400  0.14646054  1.0
  Ni  Ni490  1  0.40966217  0.37445733  0.14646054  1.0
  Ni  Ni491  1  0.40966217  0.70779067  0.14646054  1.0
  Ni  Ni492  1  0.74299550  0.04112400  0.14646054  1.0
  Ni  Ni493  1  0.74299550  0.37445733  0.14646054  1.0
  Ni  Ni494  1  0.74299550  0.70779067  0.14646054  1.0
  Ni  Ni495  1  0.24299550  0.04112400  0.21788911  1.0
  Ni  Ni496  1  0.24299550  0.37445733  0.21788911  1.0
  Ni  Ni497  1  0.24299550  0.70779067  0.21788911  1.0
  Ni  Ni498  1  0.57632883  0.04112400  0.21788911  1.0
  Ni  Ni499  1  0.57632883  0.37445733  0.21788911  1.0
  Ni  Ni500  1  0.57632883  0.70779067  0.21788911  1.0
  Ni  Ni501  1  0.90966217  0.04112400  0.21788911  1.0
  Ni  Ni502  1  0.90966217  0.37445733  0.21788911  1.0
  Ni  Ni503  1  0.90966217  0.70779067  0.21788911  1.0
  Ni  Ni504  1  0.07632883  0.04112400  0.21826139  1.0
  Ni  Ni505  1  0.07632883  0.37445733  0.21826139  1.0
  Ni  Ni506  1  0.07632883  0.70779067  0.21826139  1.0
  Ni  Ni507  1  0.40966217  0.04112400  0.21826139  1.0
  Ni  Ni508  1  0.40966217  0.37445733  0.21826139  1.0
  Ni  Ni509  1  0.40966217  0.70779067  0.21826139  1.0
  Ni  Ni510  1  0.74299550  0.04112400  0.21826139  1.0
  Ni  Ni511  1  0.74299550  0.37445733  0.21826139  1.0
  Ni  Ni512  1  0.74299550  0.70779067  0.21826139  1.0
  Ni  Ni513  1  0.24299550  0.04112400  0.14683282  1.0
  Ni  Ni514  1  0.24299550  0.37445733  0.14683282  1.0
  Ni  Ni515  1  0.24299550  0.70779067  0.14683282  1.0
  Ni  Ni516  1  0.57632883  0.04112400  0.14683282  1.0
  Ni  Ni517  1  0.57632883  0.37445733  0.14683282  1.0
  Ni  Ni518  1  0.57632883  0.70779067  0.14683282  1.0
  Ni  Ni519  1  0.90966217  0.04112400  0.14683282  1.0
  Ni  Ni520  1  0.90966217  0.37445733  0.14683282  1.0
  Ni  Ni521  1  0.90966217  0.70779067  0.14683282  1.0
  Ni  Ni522  1  0.22779600  0.12447000  0.21120375  1.0
  Ni  Ni523  1  0.22779600  0.45780333  0.21120375  1.0
  Ni  Ni524  1  0.22779600  0.79113667  0.21120375  1.0
  Ni  Ni525  1  0.56112933  0.12447000  0.21120375  1.0
  Ni  Ni526  1  0.56112933  0.45780333  0.21120375  1.0
  Ni  Ni527  1  0.56112933  0.79113667  0.21120375  1.0
  Ni  Ni528  1  0.89446267  0.12447000  0.21120375  1.0
  Ni  Ni529  1  0.89446267  0.45780333  0.21120375  1.0
  Ni  Ni530  1  0.89446267  0.79113667  0.21120375  1.0
  Ni  Ni531  1  0.06112933  0.12447000  0.28263232  1.0
  Ni  Ni532  1  0.06112933  0.45780333  0.28263232  1.0
  Ni  Ni533  1  0.06112933  0.79113667  0.28263232  1.0
  Ni  Ni534  1  0.39446267  0.12447000  0.28263232  1.0
  Ni  Ni535  1  0.39446267  0.45780333  0.28263232  1.0
  Ni  Ni536  1  0.39446267  0.79113667  0.28263232  1.0
  Ni  Ni537  1  0.72779600  0.12447000  0.28263232  1.0
  Ni  Ni538  1  0.72779600  0.45780333  0.28263232  1.0
  Ni  Ni539  1  0.72779600  0.79113667  0.28263232  1.0
  Ni  Ni540  1  0.32467783  0.04214333  0.21736768  1.0
  Ni  Ni541  1  0.32467783  0.37547667  0.21736768  1.0
  Ni  Ni542  1  0.32467783  0.70881000  0.21736768  1.0
  Ni  Ni543  1  0.65801117  0.04214333  0.21736768  1.0
  Ni  Ni544  1  0.65801117  0.37547667  0.21736768  1.0
  Ni  Ni545  1  0.65801117  0.70881000  0.21736768  1.0
  Ni  Ni546  1  0.99134450  0.04214333  0.21736768  1.0
  Ni  Ni547  1  0.99134450  0.37547667  0.21736768  1.0
  Ni  Ni548  1  0.99134450  0.70881000  0.21736768  1.0
  Ni  Ni549  1  0.15801117  0.04214333  0.14593911  1.0
  Ni  Ni550  1  0.15801117  0.37547667  0.14593911  1.0
  Ni  Ni551  1  0.15801117  0.70881000  0.14593911  1.0
  Ni  Ni552  1  0.49134450  0.04214333  0.14593911  1.0
  Ni  Ni553  1  0.49134450  0.37547667  0.14593911  1.0
  Ni  Ni554  1  0.49134450  0.70881000  0.14593911  1.0
  Ni  Ni555  1  0.82467783  0.04214333  0.14593911  1.0
  Ni  Ni556  1  0.82467783  0.37547667  0.14593911  1.0
  Ni  Ni557  1  0.82467783  0.70881000  0.14593911  1.0
  Ni  Ni558  1  0.27220400  0.20886333  0.15880718  1.0
  Ni  Ni559  1  0.27220400  0.54219667  0.15880718  1.0
  Ni  Ni560  1  0.27220400  0.87553000  0.15880718  1.0
  Ni  Ni561  1  0.60553733  0.20886333  0.15880718  1.0
  Ni  Ni562  1  0.60553733  0.54219667  0.15880718  1.0
  Ni  Ni563  1  0.60553733  0.87553000  0.15880718  1.0
  Ni  Ni564  1  0.93887067  0.20886333  0.15880718  1.0
  Ni  Ni565  1  0.93887067  0.54219667  0.15880718  1.0
  Ni  Ni566  1  0.93887067  0.87553000  0.15880718  1.0
  Ni  Ni567  1  0.10553733  0.20886333  0.23023575  1.0
  Ni  Ni568  1  0.10553733  0.54219667  0.23023575  1.0
  Ni  Ni569  1  0.10553733  0.87553000  0.23023575  1.0
  Ni  Ni570  1  0.43887067  0.20886333  0.23023575  1.0
  Ni  Ni571  1  0.43887067  0.54219667  0.23023575  1.0
  Ni  Ni572  1  0.43887067  0.87553000  0.23023575  1.0
  Ni  Ni573  1  0.77220400  0.20886333  0.23023575  1.0
  Ni  Ni574  1  0.77220400  0.54219667  0.23023575  1.0
  Ni  Ni575  1  0.77220400  0.87553000  0.23023575  1.0
  Ta  Ta576  1  0.19074383  0.20728200  0.37425311  1.0
  Ta  Ta577  1  0.19074383  0.54061533  0.37425311  1.0
  Ta  Ta578  1  0.19074383  0.87394867  0.37425311  1.0
  Ta  Ta579  1  0.52407717  0.20728200  0.37425311  1.0
  Ta  Ta580  1  0.52407717  0.54061533  0.37425311  1.0
  Ta  Ta581  1  0.52407717  0.87394867  0.37425311  1.0
  Ta  Ta582  1  0.85741050  0.20728200  0.37425311  1.0
  Ta  Ta583  1  0.85741050  0.54061533  0.37425311  1.0
  Ta  Ta584  1  0.85741050  0.87394867  0.37425311  1.0
  Ta  Ta585  1  0.02407717  0.20728200  0.30282454  1.0
  Ta  Ta586  1  0.02407717  0.54061533  0.30282454  1.0
  Ta  Ta587  1  0.02407717  0.87394867  0.30282454  1.0
  Ta  Ta588  1  0.35741050  0.20728200  0.30282454  1.0
  Ta  Ta589  1  0.35741050  0.54061533  0.30282454  1.0
  Ta  Ta590  1  0.35741050  0.87394867  0.30282454  1.0
  Ta  Ta591  1  0.69074383  0.20728200  0.30282454  1.0
  Ta  Ta592  1  0.69074383  0.54061533  0.30282454  1.0
  Ta  Ta593  1  0.69074383  0.87394867  0.30282454  1.0
  Ta  Ta594  1  0.30925617  0.12605133  0.35361554  1.0
  Ta  Ta595  1  0.30925617  0.45938467  0.35361554  1.0
  Ta  Ta596  1  0.30925617  0.79271800  0.35361554  1.0
  Ta  Ta597  1  0.64258950  0.12605133  0.35361554  1.0
  Ta  Ta598  1  0.64258950  0.45938467  0.35361554  1.0
  Ta  Ta599  1  0.64258950  0.79271800  0.35361554  1.0
  Ta  Ta600  1  0.97592283  0.12605133  0.35361554  1.0
  Ta  Ta601  1  0.97592283  0.45938467  0.35361554  1.0
  Ta  Ta602  1  0.97592283  0.79271800  0.35361554  1.0
  Ta  Ta603  1  0.14258950  0.12605133  0.42504411  1.0
  Ta  Ta604  1  0.14258950  0.45938467  0.42504411  1.0
  Ta  Ta605  1  0.14258950  0.79271800  0.42504411  1.0
  Ta  Ta606  1  0.47592283  0.12605133  0.42504411  1.0
  Ta  Ta607  1  0.47592283  0.45938467  0.42504411  1.0
  Ta  Ta608  1  0.47592283  0.79271800  0.42504411  1.0
  Ta  Ta609  1  0.80925617  0.12605133  0.42504411  1.0
  Ta  Ta610  1  0.80925617  0.45938467  0.42504411  1.0
  Ta  Ta611  1  0.80925617  0.79271800  0.42504411  1.0
  Ta  Ta612  1  0.32575300  0.04253300  0.28925704  1.0
  Ta  Ta613  1  0.32575300  0.37586633  0.28925704  1.0
  Ta  Ta614  1  0.32575300  0.70919967  0.28925704  1.0
  Ta  Ta615  1  0.65908633  0.04253300  0.28925704  1.0
  Ta  Ta616  1  0.65908633  0.37586633  0.28925704  1.0
  Ta  Ta617  1  0.65908633  0.70919967  0.28925704  1.0
  Ta  Ta618  1  0.99241967  0.04253300  0.28925704  1.0
  Ta  Ta619  1  0.99241967  0.37586633  0.28925704  1.0
  Ta  Ta620  1  0.99241967  0.70919967  0.28925704  1.0
  Ta  Ta621  1  0.15908633  0.04253300  0.36068561  1.0
  Ta  Ta622  1  0.15908633  0.37586633  0.36068561  1.0
  Ta  Ta623  1  0.15908633  0.70919967  0.36068561  1.0
  Ta  Ta624  1  0.49241967  0.04253300  0.36068561  1.0
  Ta  Ta625  1  0.49241967  0.37586633  0.36068561  1.0
  Ta  Ta626  1  0.49241967  0.70919967  0.36068561  1.0
  Ta  Ta627  1  0.82575300  0.04253300  0.36068561  1.0
  Ta  Ta628  1  0.82575300  0.37586633  0.36068561  1.0
  Ta  Ta629  1  0.82575300  0.70919967  0.36068561  1.0
  Ta  Ta630  1  0.17424700  0.29080033  0.29575446  1.0
  Ta  Ta631  1  0.17424700  0.62413367  0.29575446  1.0
  Ta  Ta632  1  0.17424700  0.95746700  0.29575446  1.0
  Ta  Ta633  1  0.50758033  0.29080033  0.29575446  1.0
  Ta  Ta634  1  0.50758033  0.62413367  0.29575446  1.0
  Ta  Ta635  1  0.50758033  0.95746700  0.29575446  1.0
  Ta  Ta636  1  0.84091367  0.29080033  0.29575446  1.0
  Ta  Ta637  1  0.84091367  0.62413367  0.29575446  1.0
  Ta  Ta638  1  0.84091367  0.95746700  0.29575446  1.0
  Ta  Ta639  1  0.00758033  0.29080033  0.36718304  1.0
  Ta  Ta640  1  0.00758033  0.62413367  0.36718304  1.0
  Ta  Ta641  1  0.00758033  0.95746700  0.36718304  1.0
  Ta  Ta642  1  0.34091367  0.29080033  0.36718304  1.0
  Ta  Ta643  1  0.34091367  0.62413367  0.36718304  1.0
  Ta  Ta644  1  0.34091367  0.95746700  0.36718304  1.0
  Ta  Ta645  1  0.67424700  0.29080033  0.36718304  1.0
  Ta  Ta646  1  0.67424700  0.62413367  0.36718304  1.0
  Ta  Ta647  1  0.67424700  0.95746700  0.36718304  1.0
  Ni  Ni648  1  0.09033783  0.29220933  0.29569382  1.0
  Ni  Ni649  1  0.09033783  0.62554267  0.29569382  1.0
  Ni  Ni650  1  0.09033783  0.95887600  0.29569382  1.0
  Ni  Ni651  1  0.42367117  0.29220933  0.29569382  1.0
  Ni  Ni652  1  0.42367117  0.62554267  0.29569382  1.0
  Ni  Ni653  1  0.42367117  0.95887600  0.29569382  1.0
  Ni  Ni654  1  0.75700450  0.29220933  0.29569382  1.0
  Ni  Ni655  1  0.75700450  0.62554267  0.29569382  1.0
  Ni  Ni656  1  0.75700450  0.95887600  0.29569382  1.0
  Ni  Ni657  1  0.25700450  0.29220933  0.36712239  1.0
  Ni  Ni658  1  0.25700450  0.62554267  0.36712239  1.0
  Ni  Ni659  1  0.25700450  0.95887600  0.36712239  1.0
  Ni  Ni660  1  0.59033783  0.29220933  0.36712239  1.0
  Ni  Ni661  1  0.59033783  0.62554267  0.36712239  1.0
  Ni  Ni662  1  0.59033783  0.95887600  0.36712239  1.0
  Ni  Ni663  1  0.92367117  0.29220933  0.36712239  1.0
  Ni  Ni664  1  0.92367117  0.62554267  0.36712239  1.0
  Ni  Ni665  1  0.92367117  0.95887600  0.36712239  1.0
  Ni  Ni666  1  0.27220400  0.20886333  0.37380775  1.0
  Ni  Ni667  1  0.27220400  0.54219667  0.37380775  1.0
  Ni  Ni668  1  0.27220400  0.87553000  0.37380775  1.0
  Ni  Ni669  1  0.60553733  0.20886333  0.37380775  1.0
  Ni  Ni670  1  0.60553733  0.54219667  0.37380775  1.0
  Ni  Ni671  1  0.60553733  0.87553000  0.37380775  1.0
  Ni  Ni672  1  0.93887067  0.20886333  0.37380775  1.0
  Ni  Ni673  1  0.93887067  0.54219667  0.37380775  1.0
  Ni  Ni674  1  0.93887067  0.87553000  0.37380775  1.0
  Ni  Ni675  1  0.10553733  0.20886333  0.30237918  1.0
  Ni  Ni676  1  0.10553733  0.54219667  0.30237918  1.0
  Ni  Ni677  1  0.10553733  0.87553000  0.30237918  1.0
  Ni  Ni678  1  0.43887067  0.20886333  0.30237918  1.0
  Ni  Ni679  1  0.43887067  0.54219667  0.30237918  1.0
  Ni  Ni680  1  0.43887067  0.87553000  0.30237918  1.0
  Ni  Ni681  1  0.77220400  0.20886333  0.30237918  1.0
  Ni  Ni682  1  0.77220400  0.54219667  0.30237918  1.0
  Ni  Ni683  1  0.77220400  0.87553000  0.30237918  1.0
  Ni  Ni684  1  0.17532217  0.29119000  0.36764382  1.0
  Ni  Ni685  1  0.17532217  0.62452333  0.36764382  1.0
  Ni  Ni686  1  0.17532217  0.95785667  0.36764382  1.0
  Ni  Ni687  1  0.50865550  0.29119000  0.36764382  1.0
  Ni  Ni688  1  0.50865550  0.62452333  0.36764382  1.0
  Ni  Ni689  1  0.50865550  0.95785667  0.36764382  1.0
  Ni  Ni690  1  0.84198883  0.29119000  0.36764382  1.0
  Ni  Ni691  1  0.84198883  0.62452333  0.36764382  1.0
  Ni  Ni692  1  0.84198883  0.95785667  0.36764382  1.0
  Ni  Ni693  1  0.00865550  0.29119000  0.29621525  1.0
  Ni  Ni694  1  0.00865550  0.62452333  0.29621525  1.0
  Ni  Ni695  1  0.00865550  0.95785667  0.29621525  1.0
  Ni  Ni696  1  0.34198883  0.29119000  0.29621525  1.0
  Ni  Ni697  1  0.34198883  0.62452333  0.29621525  1.0
  Ni  Ni698  1  0.34198883  0.95785667  0.29621525  1.0
  Ni  Ni699  1  0.67532217  0.29119000  0.29621525  1.0
  Ni  Ni700  1  0.67532217  0.62452333  0.29621525  1.0
  Ni  Ni701  1  0.67532217  0.95785667  0.29621525  1.0
  Ni  Ni702  1  0.22779600  0.12447000  0.42620432  1.0
  Ni  Ni703  1  0.22779600  0.45780333  0.42620432  1.0
  Ni  Ni704  1  0.22779600  0.79113667  0.42620432  1.0
  Ni  Ni705  1  0.56112933  0.12447000  0.42620432  1.0
  Ni  Ni706  1  0.56112933  0.45780333  0.42620432  1.0
  Ni  Ni707  1  0.56112933  0.79113667  0.42620432  1.0
  Ni  Ni708  1  0.89446267  0.12447000  0.42620432  1.0
  Ni  Ni709  1  0.89446267  0.45780333  0.42620432  1.0
  Ni  Ni710  1  0.89446267  0.79113667  0.42620432  1.0
  Ni  Ni711  1  0.06112933  0.12447000  0.35477575  1.0
  Ni  Ni712  1  0.06112933  0.45780333  0.35477575  1.0
  Ni  Ni713  1  0.06112933  0.79113667  0.35477575  1.0
  Ni  Ni714  1  0.39446267  0.12447000  0.35477575  1.0
  Ni  Ni715  1  0.39446267  0.45780333  0.35477575  1.0
  Ni  Ni716  1  0.39446267  0.79113667  0.35477575  1.0
  Ni  Ni717  1  0.72779600  0.12447000  0.35477575  1.0
  Ni  Ni718  1  0.72779600  0.45780333  0.35477575  1.0
  Ni  Ni719  1  0.72779600  0.79113667  0.35477575  1.0
  Ni  Ni720  1  0.31332433  0.12535800  0.42678761  1.0
  Ni  Ni721  1  0.31332433  0.45869133  0.42678761  1.0
  Ni  Ni722  1  0.31332433  0.79202467  0.42678761  1.0
  Ni  Ni723  1  0.64665767  0.12535800  0.42678761  1.0
  Ni  Ni724  1  0.64665767  0.45869133  0.42678761  1.0
  Ni  Ni725  1  0.64665767  0.79202467  0.42678761  1.0
  Ni  Ni726  1  0.97999100  0.12535800  0.42678761  1.0
  Ni  Ni727  1  0.97999100  0.45869133  0.42678761  1.0
  Ni  Ni728  1  0.97999100  0.79202467  0.42678761  1.0
  Ni  Ni729  1  0.14665767  0.12535800  0.35535904  1.0
  Ni  Ni730  1  0.14665767  0.45869133  0.35535904  1.0
  Ni  Ni731  1  0.14665767  0.79202467  0.35535904  1.0
  Ni  Ni732  1  0.47999100  0.12535800  0.35535904  1.0
  Ni  Ni733  1  0.47999100  0.45869133  0.35535904  1.0
  Ni  Ni734  1  0.47999100  0.79202467  0.35535904  1.0
  Ni  Ni735  1  0.81332433  0.12535800  0.35535904  1.0
  Ni  Ni736  1  0.81332433  0.45869133  0.35535904  1.0
  Ni  Ni737  1  0.81332433  0.79202467  0.35535904  1.0
  Ni  Ni738  1  0.09033783  0.29220933  0.36675011  1.0
  Ni  Ni739  1  0.09033783  0.62554267  0.36675011  1.0
  Ni  Ni740  1  0.09033783  0.95887600  0.36675011  1.0
  Ni  Ni741  1  0.42367117  0.29220933  0.36675011  1.0
  Ni  Ni742  1  0.42367117  0.62554267  0.36675011  1.0
  Ni  Ni743  1  0.42367117  0.95887600  0.36675011  1.0
  Ni  Ni744  1  0.75700450  0.29220933  0.36675011  1.0
  Ni  Ni745  1  0.75700450  0.62554267  0.36675011  1.0
  Ni  Ni746  1  0.75700450  0.95887600  0.36675011  1.0
  Ni  Ni747  1  0.25700450  0.29220933  0.29532154  1.0
  Ni  Ni748  1  0.25700450  0.62554267  0.29532154  1.0
  Ni  Ni749  1  0.25700450  0.95887600  0.29532154  1.0
  Ni  Ni750  1  0.59033783  0.29220933  0.29532154  1.0
  Ni  Ni751  1  0.59033783  0.62554267  0.29532154  1.0
  Ni  Ni752  1  0.59033783  0.95887600  0.29532154  1.0
  Ni  Ni753  1  0.92367117  0.29220933  0.29532154  1.0
  Ni  Ni754  1  0.92367117  0.62554267  0.29532154  1.0
  Ni  Ni755  1  0.92367117  0.95887600  0.29532154  1.0
  Ni  Ni756  1  0.18667567  0.20797533  0.30108104  1.0
  Ni  Ni757  1  0.18667567  0.54130867  0.30108104  1.0
  Ni  Ni758  1  0.18667567  0.87464200  0.30108104  1.0
  Ni  Ni759  1  0.52000900  0.20797533  0.30108104  1.0
  Ni  Ni760  1  0.52000900  0.54130867  0.30108104  1.0
  Ni  Ni761  1  0.52000900  0.87464200  0.30108104  1.0
  Ni  Ni762  1  0.85334233  0.20797533  0.30108104  1.0
  Ni  Ni763  1  0.85334233  0.54130867  0.30108104  1.0
  Ni  Ni764  1  0.85334233  0.87464200  0.30108104  1.0
  Ni  Ni765  1  0.02000900  0.20797533  0.37250961  1.0
  Ni  Ni766  1  0.02000900  0.54130867  0.37250961  1.0
  Ni  Ni767  1  0.02000900  0.87464200  0.37250961  1.0
  Ni  Ni768  1  0.35334233  0.20797533  0.37250961  1.0
  Ni  Ni769  1  0.35334233  0.54130867  0.37250961  1.0
  Ni  Ni770  1  0.35334233  0.87464200  0.37250961  1.0
  Ni  Ni771  1  0.68667567  0.20797533  0.37250961  1.0
  Ni  Ni772  1  0.68667567  0.54130867  0.37250961  1.0
  Ni  Ni773  1  0.68667567  0.87464200  0.37250961  1.0
  Ni  Ni774  1  0.07632883  0.04112400  0.28931768  1.0
  Ni  Ni775  1  0.07632883  0.37445733  0.28931768  1.0
  Ni  Ni776  1  0.07632883  0.70779067  0.28931768  1.0
  Ni  Ni777  1  0.40966217  0.04112400  0.28931768  1.0
  Ni  Ni778  1  0.40966217  0.37445733  0.28931768  1.0
  Ni  Ni779  1  0.40966217  0.70779067  0.28931768  1.0
  Ni  Ni780  1  0.74299550  0.04112400  0.28931768  1.0
  Ni  Ni781  1  0.74299550  0.37445733  0.28931768  1.0
  Ni  Ni782  1  0.74299550  0.70779067  0.28931768  1.0
  Ni  Ni783  1  0.24299550  0.04112400  0.36074625  1.0
  Ni  Ni784  1  0.24299550  0.37445733  0.36074625  1.0
  Ni  Ni785  1  0.24299550  0.70779067  0.36074625  1.0
  Ni  Ni786  1  0.57632883  0.04112400  0.36074625  1.0
  Ni  Ni787  1  0.57632883  0.37445733  0.36074625  1.0
  Ni  Ni788  1  0.57632883  0.70779067  0.36074625  1.0
  Ni  Ni789  1  0.90966217  0.04112400  0.36074625  1.0
  Ni  Ni790  1  0.90966217  0.37445733  0.36074625  1.0
  Ni  Ni791  1  0.90966217  0.70779067  0.36074625  1.0
  Ni  Ni792  1  0.07632883  0.04112400  0.36111854  1.0
  Ni  Ni793  1  0.07632883  0.37445733  0.36111854  1.0
  Ni  Ni794  1  0.07632883  0.70779067  0.36111854  1.0
  Ni  Ni795  1  0.40966217  0.04112400  0.36111854  1.0
  Ni  Ni796  1  0.40966217  0.37445733  0.36111854  1.0
  Ni  Ni797  1  0.40966217  0.70779067  0.36111854  1.0
  Ni  Ni798  1  0.74299550  0.04112400  0.36111854  1.0
  Ni  Ni799  1  0.74299550  0.37445733  0.36111854  1.0
  Ni  Ni800  1  0.74299550  0.70779067  0.36111854  1.0
  Ni  Ni801  1  0.24299550  0.04112400  0.28968996  1.0
  Ni  Ni802  1  0.24299550  0.37445733  0.28968996  1.0
  Ni  Ni803  1  0.24299550  0.70779067  0.28968996  1.0
  Ni  Ni804  1  0.57632883  0.04112400  0.28968996  1.0
  Ni  Ni805  1  0.57632883  0.37445733  0.28968996  1.0
  Ni  Ni806  1  0.57632883  0.70779067  0.28968996  1.0
  Ni  Ni807  1  0.90966217  0.04112400  0.28968996  1.0
  Ni  Ni808  1  0.90966217  0.37445733  0.28968996  1.0
  Ni  Ni809  1  0.90966217  0.70779067  0.28968996  1.0
  Ni  Ni810  1  0.22779600  0.12447000  0.35406089  1.0
  Ni  Ni811  1  0.22779600  0.45780333  0.35406089  1.0
  Ni  Ni812  1  0.22779600  0.79113667  0.35406089  1.0
  Ni  Ni813  1  0.56112933  0.12447000  0.35406089  1.0
  Ni  Ni814  1  0.56112933  0.45780333  0.35406089  1.0
  Ni  Ni815  1  0.56112933  0.79113667  0.35406089  1.0
  Ni  Ni816  1  0.89446267  0.12447000  0.35406089  1.0
  Ni  Ni817  1  0.89446267  0.45780333  0.35406089  1.0
  Ni  Ni818  1  0.89446267  0.79113667  0.35406089  1.0
  Ni  Ni819  1  0.06112933  0.12447000  0.42548946  1.0
  Ni  Ni820  1  0.06112933  0.45780333  0.42548946  1.0
  Ni  Ni821  1  0.06112933  0.79113667  0.42548946  1.0
  Ni  Ni822  1  0.39446267  0.12447000  0.42548946  1.0
  Ni  Ni823  1  0.39446267  0.45780333  0.42548946  1.0
  Ni  Ni824  1  0.39446267  0.79113667  0.42548946  1.0
  Ni  Ni825  1  0.72779600  0.12447000  0.42548946  1.0
  Ni  Ni826  1  0.72779600  0.45780333  0.42548946  1.0
  Ni  Ni827  1  0.72779600  0.79113667  0.42548946  1.0
  Ni  Ni828  1  0.32467783  0.04214333  0.36022482  1.0
  Ni  Ni829  1  0.32467783  0.37547667  0.36022482  1.0
  Ni  Ni830  1  0.32467783  0.70881000  0.36022482  1.0
  Ni  Ni831  1  0.65801117  0.04214333  0.36022482  1.0
  Ni  Ni832  1  0.65801117  0.37547667  0.36022482  1.0
  Ni  Ni833  1  0.65801117  0.70881000  0.36022482  1.0
  Ni  Ni834  1  0.99134450  0.04214333  0.36022482  1.0
  Ni  Ni835  1  0.99134450  0.37547667  0.36022482  1.0
  Ni  Ni836  1  0.99134450  0.70881000  0.36022482  1.0
  Ni  Ni837  1  0.15801117  0.04214333  0.28879625  1.0
  Ni  Ni838  1  0.15801117  0.37547667  0.28879625  1.0
  Ni  Ni839  1  0.15801117  0.70881000  0.28879625  1.0
  Ni  Ni840  1  0.49134450  0.04214333  0.28879625  1.0
  Ni  Ni841  1  0.49134450  0.37547667  0.28879625  1.0
  Ni  Ni842  1  0.49134450  0.70881000  0.28879625  1.0
  Ni  Ni843  1  0.82467783  0.04214333  0.28879625  1.0
  Ni  Ni844  1  0.82467783  0.37547667  0.28879625  1.0
  Ni  Ni845  1  0.82467783  0.70881000  0.28879625  1.0
  Ni  Ni846  1  0.27220400  0.20886333  0.30166432  1.0
  Ni  Ni847  1  0.27220400  0.54219667  0.30166432  1.0
  Ni  Ni848  1  0.27220400  0.87553000  0.30166432  1.0
  Ni  Ni849  1  0.60553733  0.20886333  0.30166432  1.0
  Ni  Ni850  1  0.60553733  0.54219667  0.30166432  1.0
  Ni  Ni851  1  0.60553733  0.87553000  0.30166432  1.0
  Ni  Ni852  1  0.93887067  0.20886333  0.30166432  1.0
  Ni  Ni853  1  0.93887067  0.54219667  0.30166432  1.0
  Ni  Ni854  1  0.93887067  0.87553000  0.30166432  1.0
  Ni  Ni855  1  0.10553733  0.20886333  0.37309289  1.0
  Ni  Ni856  1  0.10553733  0.54219667  0.37309289  1.0
  Ni  Ni857  1  0.10553733  0.87553000  0.37309289  1.0
  Ni  Ni858  1  0.43887067  0.20886333  0.37309289  1.0
  Ni  Ni859  1  0.43887067  0.54219667  0.37309289  1.0
  Ni  Ni860  1  0.43887067  0.87553000  0.37309289  1.0
  Ni  Ni861  1  0.77220400  0.20886333  0.37309289  1.0
  Ni  Ni862  1  0.77220400  0.54219667  0.37309289  1.0
  Ni  Ni863  1  0.77220400  0.87553000  0.37309289  1.0
