# generated using pymatgen
data_TaNi
_symmetry_space_group_name_H-M   'P 1'
_cell_length_a   53.89704558
_cell_length_b   106.79148071
_cell_length_c   215.58818232
_cell_angle_alpha   7.82066102
_cell_angle_beta   15.64132203
_cell_angle_gamma   13.58825392
_symmetry_Int_Tables_number   1
_chemical_formula_structural   TaNi
_chemical_formula_sum   'Ta585 Ni585'
_cell_volume   39669.81417296
_cell_formula_units_Z   585
loop_
 _symmetry_equiv_pos_site_id
 _symmetry_equiv_pos_as_xyz
  1  'x, y, z'
loop_
 _atom_site_type_symbol
 _atom_site_label
 _atom_site_symmetry_multiplicity
 _atom_site_fract_x
 _atom_site_fract_y
 _atom_site_fract_z
 _atom_site_occupancy
  Ta  Ta0  1  0.27577467  0.27577467  0.06251958  1.0
  Ta  Ta1  1  0.27577467  0.60910800  0.06251958  1.0
  Ta  Ta2  1  0.27577467  0.94244133  0.06251958  1.0
  Ta  Ta3  1  0.60910800  0.27577467  0.06251958  1.0
  Ta  Ta4  1  0.60910800  0.60910800  0.06251958  1.0
  Ta  Ta5  1  0.60910800  0.94244133  0.06251958  1.0
  Ta  Ta6  1  0.94244133  0.27577467  0.06251958  1.0
  Ta  Ta7  1  0.94244133  0.60910800  0.06251958  1.0
  Ta  Ta8  1  0.94244133  0.94244133  0.06251958  1.0
  Ta  Ta9  1  0.10916267  0.10916267  0.06251958  1.0
  Ta  Ta10  1  0.10916267  0.44249600  0.06251958  1.0
  Ta  Ta11  1  0.10916267  0.77582933  0.06251958  1.0
  Ta  Ta12  1  0.44249600  0.10916267  0.06251958  1.0
  Ta  Ta13  1  0.44249600  0.44249600  0.06251958  1.0
  Ta  Ta14  1  0.44249600  0.77582933  0.06251958  1.0
  Ta  Ta15  1  0.77582933  0.10916267  0.06251958  1.0
  Ta  Ta16  1  0.77582933  0.44249600  0.06251958  1.0
  Ta  Ta17  1  0.77582933  0.77582933  0.06251958  1.0
  Ta  Ta18  1  0.22417067  0.22417067  0.06251958  1.0
  Ta  Ta19  1  0.22417067  0.55750400  0.06251958  1.0
  Ta  Ta20  1  0.22417067  0.89083733  0.06251958  1.0
  Ta  Ta21  1  0.55750400  0.22417067  0.06251958  1.0
  Ta  Ta22  1  0.55750400  0.55750400  0.06251958  1.0
  Ta  Ta23  1  0.55750400  0.89083733  0.06251958  1.0
  Ta  Ta24  1  0.89083733  0.22417067  0.06251958  1.0
  Ta  Ta25  1  0.89083733  0.55750400  0.06251958  1.0
  Ta  Ta26  1  0.89083733  0.89083733  0.06251958  1.0
  Ta  Ta27  1  0.05755867  0.05755867  0.06251958  1.0
  Ta  Ta28  1  0.05755867  0.39089200  0.06251958  1.0
  Ta  Ta29  1  0.05755867  0.72422533  0.06251958  1.0
  Ta  Ta30  1  0.39089200  0.05755867  0.06251958  1.0
  Ta  Ta31  1  0.39089200  0.39089200  0.06251958  1.0
  Ta  Ta32  1  0.39089200  0.72422533  0.06251958  1.0
  Ta  Ta33  1  0.72422533  0.05755867  0.06251958  1.0
  Ta  Ta34  1  0.72422533  0.39089200  0.06251958  1.0
  Ta  Ta35  1  0.72422533  0.72422533  0.06251958  1.0
  Ta  Ta36  1  0.25809367  0.25809367  0.06251958  1.0
  Ta  Ta37  1  0.25809367  0.59142700  0.06251958  1.0
  Ta  Ta38  1  0.25809367  0.92476033  0.06251958  1.0
  Ta  Ta39  1  0.59142700  0.25809367  0.06251958  1.0
  Ta  Ta40  1  0.59142700  0.59142700  0.06251958  1.0
  Ta  Ta41  1  0.59142700  0.92476033  0.06251958  1.0
  Ta  Ta42  1  0.92476033  0.25809367  0.06251958  1.0
  Ta  Ta43  1  0.92476033  0.59142700  0.06251958  1.0
  Ta  Ta44  1  0.92476033  0.92476033  0.06251958  1.0
  Ta  Ta45  1  0.09159433  0.09159433  0.06251958  1.0
  Ta  Ta46  1  0.09159433  0.42492767  0.06251958  1.0
  Ta  Ta47  1  0.09159433  0.75826100  0.06251958  1.0
  Ta  Ta48  1  0.42492767  0.09159433  0.06251958  1.0
  Ta  Ta49  1  0.42492767  0.42492767  0.06251958  1.0
  Ta  Ta50  1  0.42492767  0.75826100  0.06251958  1.0
  Ta  Ta51  1  0.75826100  0.09159433  0.06251958  1.0
  Ta  Ta52  1  0.75826100  0.42492767  0.06251958  1.0
  Ta  Ta53  1  0.75826100  0.75826100  0.06251958  1.0
  Ta  Ta54  1  0.24173900  0.24173900  0.06251958  1.0
  Ta  Ta55  1  0.24173900  0.57507233  0.06251958  1.0
  Ta  Ta56  1  0.24173900  0.90840567  0.06251958  1.0
  Ta  Ta57  1  0.57507233  0.24173900  0.06251958  1.0
  Ta  Ta58  1  0.57507233  0.57507233  0.06251958  1.0
  Ta  Ta59  1  0.57507233  0.90840567  0.06251958  1.0
  Ta  Ta60  1  0.90840567  0.24173900  0.06251958  1.0
  Ta  Ta61  1  0.90840567  0.57507233  0.06251958  1.0
  Ta  Ta62  1  0.90840567  0.90840567  0.06251958  1.0
  Ta  Ta63  1  0.07523967  0.07523967  0.06251958  1.0
  Ta  Ta64  1  0.07523967  0.40857300  0.06251958  1.0
  Ta  Ta65  1  0.07523967  0.74190633  0.06251958  1.0
  Ta  Ta66  1  0.40857300  0.07523967  0.06251958  1.0
  Ta  Ta67  1  0.40857300  0.40857300  0.06251958  1.0
  Ta  Ta68  1  0.40857300  0.74190633  0.06251958  1.0
  Ta  Ta69  1  0.74190633  0.07523967  0.06251958  1.0
  Ta  Ta70  1  0.74190633  0.40857300  0.06251958  1.0
  Ta  Ta71  1  0.74190633  0.74190633  0.06251958  1.0
  Ta  Ta72  1  0.13871800  0.13871800  0.06251958  1.0
  Ta  Ta73  1  0.13871800  0.47205133  0.06251958  1.0
  Ta  Ta74  1  0.13871800  0.80538467  0.06251958  1.0
  Ta  Ta75  1  0.47205133  0.13871800  0.06251958  1.0
  Ta  Ta76  1  0.47205133  0.47205133  0.06251958  1.0
  Ta  Ta77  1  0.47205133  0.80538467  0.06251958  1.0
  Ta  Ta78  1  0.80538467  0.13871800  0.06251958  1.0
  Ta  Ta79  1  0.80538467  0.47205133  0.06251958  1.0
  Ta  Ta80  1  0.80538467  0.80538467  0.06251958  1.0
  Ta  Ta81  1  0.30572867  0.30572867  0.06251958  1.0
  Ta  Ta82  1  0.30572867  0.63906200  0.06251958  1.0
  Ta  Ta83  1  0.30572867  0.97239533  0.06251958  1.0
  Ta  Ta84  1  0.63906200  0.30572867  0.06251958  1.0
  Ta  Ta85  1  0.63906200  0.63906200  0.06251958  1.0
  Ta  Ta86  1  0.63906200  0.97239533  0.06251958  1.0
  Ta  Ta87  1  0.97239533  0.30572867  0.06251958  1.0
  Ta  Ta88  1  0.97239533  0.63906200  0.06251958  1.0
  Ta  Ta89  1  0.97239533  0.97239533  0.06251958  1.0
  Ta  Ta90  1  0.02760467  0.02760467  0.06251958  1.0
  Ta  Ta91  1  0.02760467  0.36093800  0.06251958  1.0
  Ta  Ta92  1  0.02760467  0.69427133  0.06251958  1.0
  Ta  Ta93  1  0.36093800  0.02760467  0.06251958  1.0
  Ta  Ta94  1  0.36093800  0.36093800  0.06251958  1.0
  Ta  Ta95  1  0.36093800  0.69427133  0.06251958  1.0
  Ta  Ta96  1  0.69427133  0.02760467  0.06251958  1.0
  Ta  Ta97  1  0.69427133  0.36093800  0.06251958  1.0
  Ta  Ta98  1  0.69427133  0.69427133  0.06251958  1.0
  Ta  Ta99  1  0.19461533  0.19461533  0.06251958  1.0
  Ta  Ta100  1  0.19461533  0.52794867  0.06251958  1.0
  Ta  Ta101  1  0.19461533  0.86128200  0.06251958  1.0
  Ta  Ta102  1  0.52794867  0.19461533  0.06251958  1.0
  Ta  Ta103  1  0.52794867  0.52794867  0.06251958  1.0
  Ta  Ta104  1  0.52794867  0.86128200  0.06251958  1.0
  Ta  Ta105  1  0.86128200  0.19461533  0.06251958  1.0
  Ta  Ta106  1  0.86128200  0.52794867  0.06251958  1.0
  Ta  Ta107  1  0.86128200  0.86128200  0.06251958  1.0
  Ta  Ta108  1  0.16666667  0.16666667  0.06251958  1.0
  Ta  Ta109  1  0.16666667  0.50000000  0.06251958  1.0
  Ta  Ta110  1  0.16666667  0.83333333  0.06251958  1.0
  Ta  Ta111  1  0.50000000  0.16666667  0.06251958  1.0
  Ta  Ta112  1  0.50000000  0.50000000  0.06251958  1.0
  Ta  Ta113  1  0.50000000  0.83333333  0.06251958  1.0
  Ta  Ta114  1  0.83333333  0.16666667  0.06251958  1.0
  Ta  Ta115  1  0.83333333  0.50000000  0.06251958  1.0
  Ta  Ta116  1  0.83333333  0.83333333  0.06251958  1.0
  Ni  Ni117  1  0.06827067  0.06827067  0.02081375  1.0
  Ni  Ni118  1  0.06827067  0.40160400  0.02081375  1.0
  Ni  Ni119  1  0.06827067  0.73493733  0.02081375  1.0
  Ni  Ni120  1  0.40160400  0.06827067  0.02081375  1.0
  Ni  Ni121  1  0.40160400  0.40160400  0.02081375  1.0
  Ni  Ni122  1  0.40160400  0.73493733  0.02081375  1.0
  Ni  Ni123  1  0.73493733  0.06827067  0.02081375  1.0
  Ni  Ni124  1  0.73493733  0.40160400  0.02081375  1.0
  Ni  Ni125  1  0.73493733  0.73493733  0.02081375  1.0
  Ni  Ni126  1  0.23622633  0.23622633  0.02011867  1.0
  Ni  Ni127  1  0.23622633  0.56955967  0.02011867  1.0
  Ni  Ni128  1  0.23622633  0.90289300  0.02011867  1.0
  Ni  Ni129  1  0.56955967  0.23622633  0.02011867  1.0
  Ni  Ni130  1  0.56955967  0.56955967  0.02011867  1.0
  Ni  Ni131  1  0.56955967  0.90289300  0.02011867  1.0
  Ni  Ni132  1  0.90289300  0.23622633  0.02011867  1.0
  Ni  Ni133  1  0.90289300  0.56955967  0.02011867  1.0
  Ni  Ni134  1  0.90289300  0.90289300  0.02011867  1.0
  Ni  Ni135  1  0.06827067  0.23478067  0.02089208  1.0
  Ni  Ni136  1  0.06827067  0.56811400  0.02089208  1.0
  Ni  Ni137  1  0.06827067  0.90144733  0.02089208  1.0
  Ni  Ni138  1  0.40160400  0.23478067  0.02089208  1.0
  Ni  Ni139  1  0.40160400  0.56811400  0.02089208  1.0
  Ni  Ni140  1  0.40160400  0.90144733  0.02089208  1.0
  Ni  Ni141  1  0.73493733  0.23478067  0.02089208  1.0
  Ni  Ni142  1  0.73493733  0.56811400  0.02089208  1.0
  Ni  Ni143  1  0.73493733  0.90144733  0.02089208  1.0
  Ni  Ni144  1  0.23622633  0.06662267  0.02158717  1.0
  Ni  Ni145  1  0.23622633  0.39995600  0.02158717  1.0
  Ni  Ni146  1  0.23622633  0.73328933  0.02158717  1.0
  Ni  Ni147  1  0.56955967  0.06662267  0.02158717  1.0
  Ni  Ni148  1  0.56955967  0.39995600  0.02158717  1.0
  Ni  Ni149  1  0.56955967  0.73328933  0.02158717  1.0
  Ni  Ni150  1  0.90289300  0.06662267  0.02158717  1.0
  Ni  Ni151  1  0.90289300  0.39995600  0.02158717  1.0
  Ni  Ni152  1  0.90289300  0.73328933  0.02158717  1.0
  Ni  Ni153  1  0.23478067  0.06827067  0.06251958  1.0
  Ni  Ni154  1  0.23478067  0.40160400  0.06251958  1.0
  Ni  Ni155  1  0.23478067  0.73493733  0.06251958  1.0
  Ni  Ni156  1  0.56811400  0.06827067  0.06251958  1.0
  Ni  Ni157  1  0.56811400  0.40160400  0.06251958  1.0
  Ni  Ni158  1  0.56811400  0.73493733  0.06251958  1.0
  Ni  Ni159  1  0.90144733  0.06827067  0.06251958  1.0
  Ni  Ni160  1  0.90144733  0.40160400  0.06251958  1.0
  Ni  Ni161  1  0.90144733  0.73493733  0.06251958  1.0
  Ni  Ni162  1  0.06662267  0.23622633  0.06251958  1.0
  Ni  Ni163  1  0.06662267  0.56955967  0.06251958  1.0
  Ni  Ni164  1  0.06662267  0.90289300  0.06251958  1.0
  Ni  Ni165  1  0.39995600  0.23622633  0.06251958  1.0
  Ni  Ni166  1  0.39995600  0.56955967  0.06251958  1.0
  Ni  Ni167  1  0.39995600  0.90289300  0.06251958  1.0
  Ni  Ni168  1  0.73328933  0.23622633  0.06251958  1.0
  Ni  Ni169  1  0.73328933  0.56955967  0.06251958  1.0
  Ni  Ni170  1  0.73328933  0.90289300  0.06251958  1.0
  Ni  Ni171  1  0.09710700  0.09710700  0.02158717  1.0
  Ni  Ni172  1  0.09710700  0.43044033  0.02158717  1.0
  Ni  Ni173  1  0.09710700  0.76377367  0.02158717  1.0
  Ni  Ni174  1  0.43044033  0.09710700  0.02158717  1.0
  Ni  Ni175  1  0.43044033  0.43044033  0.02158717  1.0
  Ni  Ni176  1  0.43044033  0.76377367  0.02158717  1.0
  Ni  Ni177  1  0.76377367  0.09710700  0.02158717  1.0
  Ni  Ni178  1  0.76377367  0.43044033  0.02158717  1.0
  Ni  Ni179  1  0.76377367  0.76377367  0.02158717  1.0
  Ni  Ni180  1  0.26506267  0.26506267  0.02089208  1.0
  Ni  Ni181  1  0.26506267  0.59839600  0.02089208  1.0
  Ni  Ni182  1  0.26506267  0.93172933  0.02089208  1.0
  Ni  Ni183  1  0.59839600  0.26506267  0.02089208  1.0
  Ni  Ni184  1  0.59839600  0.59839600  0.02089208  1.0
  Ni  Ni185  1  0.59839600  0.93172933  0.02089208  1.0
  Ni  Ni186  1  0.93172933  0.26506267  0.02089208  1.0
  Ni  Ni187  1  0.93172933  0.59839600  0.02089208  1.0
  Ni  Ni188  1  0.93172933  0.93172933  0.02089208  1.0
  Ni  Ni189  1  0.09710700  0.26671067  0.02011867  1.0
  Ni  Ni190  1  0.09710700  0.60004400  0.02011867  1.0
  Ni  Ni191  1  0.09710700  0.93337733  0.02011867  1.0
  Ni  Ni192  1  0.43044033  0.26671067  0.02011867  1.0
  Ni  Ni193  1  0.43044033  0.60004400  0.02011867  1.0
  Ni  Ni194  1  0.43044033  0.93337733  0.02011867  1.0
  Ni  Ni195  1  0.76377367  0.26671067  0.02011867  1.0
  Ni  Ni196  1  0.76377367  0.60004400  0.02011867  1.0
  Ni  Ni197  1  0.76377367  0.93337733  0.02011867  1.0
  Ni  Ni198  1  0.26506267  0.09855267  0.02081375  1.0
  Ni  Ni199  1  0.26506267  0.43188600  0.02081375  1.0
  Ni  Ni200  1  0.26506267  0.76521933  0.02081375  1.0
  Ni  Ni201  1  0.59839600  0.09855267  0.02081375  1.0
  Ni  Ni202  1  0.59839600  0.43188600  0.02081375  1.0
  Ni  Ni203  1  0.59839600  0.76521933  0.02081375  1.0
  Ni  Ni204  1  0.93172933  0.09855267  0.02081375  1.0
  Ni  Ni205  1  0.93172933  0.43188600  0.02081375  1.0
  Ni  Ni206  1  0.93172933  0.76521933  0.02081375  1.0
  Ni  Ni207  1  0.26671067  0.09710700  0.06251958  1.0
  Ni  Ni208  1  0.26671067  0.43044033  0.06251958  1.0
  Ni  Ni209  1  0.26671067  0.76377367  0.06251958  1.0
  Ni  Ni210  1  0.60004400  0.09710700  0.06251958  1.0
  Ni  Ni211  1  0.60004400  0.43044033  0.06251958  1.0
  Ni  Ni212  1  0.60004400  0.76377367  0.06251958  1.0
  Ni  Ni213  1  0.93337733  0.09710700  0.06251958  1.0
  Ni  Ni214  1  0.93337733  0.43044033  0.06251958  1.0
  Ni  Ni215  1  0.93337733  0.76377367  0.06251958  1.0
  Ni  Ni216  1  0.09855267  0.26506267  0.06251958  1.0
  Ni  Ni217  1  0.09855267  0.59839600  0.06251958  1.0
  Ni  Ni218  1  0.09855267  0.93172933  0.06251958  1.0
  Ni  Ni219  1  0.43188600  0.26506267  0.06251958  1.0
  Ni  Ni220  1  0.43188600  0.59839600  0.06251958  1.0
  Ni  Ni221  1  0.43188600  0.93172933  0.06251958  1.0
  Ni  Ni222  1  0.76521933  0.26506267  0.06251958  1.0
  Ni  Ni223  1  0.76521933  0.59839600  0.06251958  1.0
  Ni  Ni224  1  0.76521933  0.93172933  0.06251958  1.0
  Ni  Ni225  1  0.00000000  0.00000000  0.06251958  1.0
  Ni  Ni226  1  0.00000000  0.33333333  0.06251958  1.0
  Ni  Ni227  1  0.00000000  0.66666667  0.06251958  1.0
  Ni  Ni228  1  0.33333333  0.00000000  0.06251958  1.0
  Ni  Ni229  1  0.33333333  0.33333333  0.06251958  1.0
  Ni  Ni230  1  0.33333333  0.66666667  0.06251958  1.0
  Ni  Ni231  1  0.66666667  0.00000000  0.06251958  1.0
  Ni  Ni232  1  0.66666667  0.33333333  0.06251958  1.0
  Ni  Ni233  1  0.66666667  0.66666667  0.06251958  1.0
  Ta  Ta234  1  0.27577467  0.27577467  0.14585292  1.0
  Ta  Ta235  1  0.27577467  0.60910800  0.14585292  1.0
  Ta  Ta236  1  0.27577467  0.94244133  0.14585292  1.0
  Ta  Ta237  1  0.60910800  0.27577467  0.14585292  1.0
  Ta  Ta238  1  0.60910800  0.60910800  0.14585292  1.0
  Ta  Ta239  1  0.60910800  0.94244133  0.14585292  1.0
  Ta  Ta240  1  0.94244133  0.27577467  0.14585292  1.0
  Ta  Ta241  1  0.94244133  0.60910800  0.14585292  1.0
  Ta  Ta242  1  0.94244133  0.94244133  0.14585292  1.0
  Ta  Ta243  1  0.10916267  0.10916267  0.14585292  1.0
  Ta  Ta244  1  0.10916267  0.44249600  0.14585292  1.0
  Ta  Ta245  1  0.10916267  0.77582933  0.14585292  1.0
  Ta  Ta246  1  0.44249600  0.10916267  0.14585292  1.0
  Ta  Ta247  1  0.44249600  0.44249600  0.14585292  1.0
  Ta  Ta248  1  0.44249600  0.77582933  0.14585292  1.0
  Ta  Ta249  1  0.77582933  0.10916267  0.14585292  1.0
  Ta  Ta250  1  0.77582933  0.44249600  0.14585292  1.0
  Ta  Ta251  1  0.77582933  0.77582933  0.14585292  1.0
  Ta  Ta252  1  0.22417067  0.22417067  0.14585292  1.0
  Ta  Ta253  1  0.22417067  0.55750400  0.14585292  1.0
  Ta  Ta254  1  0.22417067  0.89083733  0.14585292  1.0
  Ta  Ta255  1  0.55750400  0.22417067  0.14585292  1.0
  Ta  Ta256  1  0.55750400  0.55750400  0.14585292  1.0
  Ta  Ta257  1  0.55750400  0.89083733  0.14585292  1.0
  Ta  Ta258  1  0.89083733  0.22417067  0.14585292  1.0
  Ta  Ta259  1  0.89083733  0.55750400  0.14585292  1.0
  Ta  Ta260  1  0.89083733  0.89083733  0.14585292  1.0
  Ta  Ta261  1  0.05755867  0.05755867  0.14585292  1.0
  Ta  Ta262  1  0.05755867  0.39089200  0.14585292  1.0
  Ta  Ta263  1  0.05755867  0.72422533  0.14585292  1.0
  Ta  Ta264  1  0.39089200  0.05755867  0.14585292  1.0
  Ta  Ta265  1  0.39089200  0.39089200  0.14585292  1.0
  Ta  Ta266  1  0.39089200  0.72422533  0.14585292  1.0
  Ta  Ta267  1  0.72422533  0.05755867  0.14585292  1.0
  Ta  Ta268  1  0.72422533  0.39089200  0.14585292  1.0
  Ta  Ta269  1  0.72422533  0.72422533  0.14585292  1.0
  Ta  Ta270  1  0.25809367  0.25809367  0.14585292  1.0
  Ta  Ta271  1  0.25809367  0.59142700  0.14585292  1.0
  Ta  Ta272  1  0.25809367  0.92476033  0.14585292  1.0
  Ta  Ta273  1  0.59142700  0.25809367  0.14585292  1.0
  Ta  Ta274  1  0.59142700  0.59142700  0.14585292  1.0
  Ta  Ta275  1  0.59142700  0.92476033  0.14585292  1.0
  Ta  Ta276  1  0.92476033  0.25809367  0.14585292  1.0
  Ta  Ta277  1  0.92476033  0.59142700  0.14585292  1.0
  Ta  Ta278  1  0.92476033  0.92476033  0.14585292  1.0
  Ta  Ta279  1  0.09159433  0.09159433  0.14585292  1.0
  Ta  Ta280  1  0.09159433  0.42492767  0.14585292  1.0
  Ta  Ta281  1  0.09159433  0.75826100  0.14585292  1.0
  Ta  Ta282  1  0.42492767  0.09159433  0.14585292  1.0
  Ta  Ta283  1  0.42492767  0.42492767  0.14585292  1.0
  Ta  Ta284  1  0.42492767  0.75826100  0.14585292  1.0
  Ta  Ta285  1  0.75826100  0.09159433  0.14585292  1.0
  Ta  Ta286  1  0.75826100  0.42492767  0.14585292  1.0
  Ta  Ta287  1  0.75826100  0.75826100  0.14585292  1.0
  Ta  Ta288  1  0.24173900  0.24173900  0.14585292  1.0
  Ta  Ta289  1  0.24173900  0.57507233  0.14585292  1.0
  Ta  Ta290  1  0.24173900  0.90840567  0.14585292  1.0
  Ta  Ta291  1  0.57507233  0.24173900  0.14585292  1.0
  Ta  Ta292  1  0.57507233  0.57507233  0.14585292  1.0
  Ta  Ta293  1  0.57507233  0.90840567  0.14585292  1.0
  Ta  Ta294  1  0.90840567  0.24173900  0.14585292  1.0
  Ta  Ta295  1  0.90840567  0.57507233  0.14585292  1.0
  Ta  Ta296  1  0.90840567  0.90840567  0.14585292  1.0
  Ta  Ta297  1  0.07523967  0.07523967  0.14585292  1.0
  Ta  Ta298  1  0.07523967  0.40857300  0.14585292  1.0
  Ta  Ta299  1  0.07523967  0.74190633  0.14585292  1.0
  Ta  Ta300  1  0.40857300  0.07523967  0.14585292  1.0
  Ta  Ta301  1  0.40857300  0.40857300  0.14585292  1.0
  Ta  Ta302  1  0.40857300  0.74190633  0.14585292  1.0
  Ta  Ta303  1  0.74190633  0.07523967  0.14585292  1.0
  Ta  Ta304  1  0.74190633  0.40857300  0.14585292  1.0
  Ta  Ta305  1  0.74190633  0.74190633  0.14585292  1.0
  Ta  Ta306  1  0.13871800  0.13871800  0.14585292  1.0
  Ta  Ta307  1  0.13871800  0.47205133  0.14585292  1.0
  Ta  Ta308  1  0.13871800  0.80538467  0.14585292  1.0
  Ta  Ta309  1  0.47205133  0.13871800  0.14585292  1.0
  Ta  Ta310  1  0.47205133  0.47205133  0.14585292  1.0
  Ta  Ta311  1  0.47205133  0.80538467  0.14585292  1.0
  Ta  Ta312  1  0.80538467  0.13871800  0.14585292  1.0
  Ta  Ta313  1  0.80538467  0.47205133  0.14585292  1.0
  Ta  Ta314  1  0.80538467  0.80538467  0.14585292  1.0
  Ta  Ta315  1  0.30572867  0.30572867  0.14585292  1.0
  Ta  Ta316  1  0.30572867  0.63906200  0.14585292  1.0
  Ta  Ta317  1  0.30572867  0.97239533  0.14585292  1.0
  Ta  Ta318  1  0.63906200  0.30572867  0.14585292  1.0
  Ta  Ta319  1  0.63906200  0.63906200  0.14585292  1.0
  Ta  Ta320  1  0.63906200  0.97239533  0.14585292  1.0
  Ta  Ta321  1  0.97239533  0.30572867  0.14585292  1.0
  Ta  Ta322  1  0.97239533  0.63906200  0.14585292  1.0
  Ta  Ta323  1  0.97239533  0.97239533  0.14585292  1.0
  Ta  Ta324  1  0.02760467  0.02760467  0.14585292  1.0
  Ta  Ta325  1  0.02760467  0.36093800  0.14585292  1.0
  Ta  Ta326  1  0.02760467  0.69427133  0.14585292  1.0
  Ta  Ta327  1  0.36093800  0.02760467  0.14585292  1.0
  Ta  Ta328  1  0.36093800  0.36093800  0.14585292  1.0
  Ta  Ta329  1  0.36093800  0.69427133  0.14585292  1.0
  Ta  Ta330  1  0.69427133  0.02760467  0.14585292  1.0
  Ta  Ta331  1  0.69427133  0.36093800  0.14585292  1.0
  Ta  Ta332  1  0.69427133  0.69427133  0.14585292  1.0
  Ta  Ta333  1  0.19461533  0.19461533  0.14585292  1.0
  Ta  Ta334  1  0.19461533  0.52794867  0.14585292  1.0
  Ta  Ta335  1  0.19461533  0.86128200  0.14585292  1.0
  Ta  Ta336  1  0.52794867  0.19461533  0.14585292  1.0
  Ta  Ta337  1  0.52794867  0.52794867  0.14585292  1.0
  Ta  Ta338  1  0.52794867  0.86128200  0.14585292  1.0
  Ta  Ta339  1  0.86128200  0.19461533  0.14585292  1.0
  Ta  Ta340  1  0.86128200  0.52794867  0.14585292  1.0
  Ta  Ta341  1  0.86128200  0.86128200  0.14585292  1.0
  Ta  Ta342  1  0.16666667  0.16666667  0.14585292  1.0
  Ta  Ta343  1  0.16666667  0.50000000  0.14585292  1.0
  Ta  Ta344  1  0.16666667  0.83333333  0.14585292  1.0
  Ta  Ta345  1  0.50000000  0.16666667  0.14585292  1.0
  Ta  Ta346  1  0.50000000  0.50000000  0.14585292  1.0
  Ta  Ta347  1  0.50000000  0.83333333  0.14585292  1.0
  Ta  Ta348  1  0.83333333  0.16666667  0.14585292  1.0
  Ta  Ta349  1  0.83333333  0.50000000  0.14585292  1.0
  Ta  Ta350  1  0.83333333  0.83333333  0.14585292  1.0
  Ni  Ni351  1  0.06827067  0.06827067  0.10414708  1.0
  Ni  Ni352  1  0.06827067  0.40160400  0.10414708  1.0
  Ni  Ni353  1  0.06827067  0.73493733  0.10414708  1.0
  Ni  Ni354  1  0.40160400  0.06827067  0.10414708  1.0
  Ni  Ni355  1  0.40160400  0.40160400  0.10414708  1.0
  Ni  Ni356  1  0.40160400  0.73493733  0.10414708  1.0
  Ni  Ni357  1  0.73493733  0.06827067  0.10414708  1.0
  Ni  Ni358  1  0.73493733  0.40160400  0.10414708  1.0
  Ni  Ni359  1  0.73493733  0.73493733  0.10414708  1.0
  Ni  Ni360  1  0.23622633  0.23622633  0.10345200  1.0
  Ni  Ni361  1  0.23622633  0.56955967  0.10345200  1.0
  Ni  Ni362  1  0.23622633  0.90289300  0.10345200  1.0
  Ni  Ni363  1  0.56955967  0.23622633  0.10345200  1.0
  Ni  Ni364  1  0.56955967  0.56955967  0.10345200  1.0
  Ni  Ni365  1  0.56955967  0.90289300  0.10345200  1.0
  Ni  Ni366  1  0.90289300  0.23622633  0.10345200  1.0
  Ni  Ni367  1  0.90289300  0.56955967  0.10345200  1.0
  Ni  Ni368  1  0.90289300  0.90289300  0.10345200  1.0
  Ni  Ni369  1  0.06827067  0.23478067  0.10422542  1.0
  Ni  Ni370  1  0.06827067  0.56811400  0.10422542  1.0
  Ni  Ni371  1  0.06827067  0.90144733  0.10422542  1.0
  Ni  Ni372  1  0.40160400  0.23478067  0.10422542  1.0
  Ni  Ni373  1  0.40160400  0.56811400  0.10422542  1.0
  Ni  Ni374  1  0.40160400  0.90144733  0.10422542  1.0
  Ni  Ni375  1  0.73493733  0.23478067  0.10422542  1.0
  Ni  Ni376  1  0.73493733  0.56811400  0.10422542  1.0
  Ni  Ni377  1  0.73493733  0.90144733  0.10422542  1.0
  Ni  Ni378  1  0.23622633  0.06662267  0.10492050  1.0
  Ni  Ni379  1  0.23622633  0.39995600  0.10492050  1.0
  Ni  Ni380  1  0.23622633  0.73328933  0.10492050  1.0
  Ni  Ni381  1  0.56955967  0.06662267  0.10492050  1.0
  Ni  Ni382  1  0.56955967  0.39995600  0.10492050  1.0
  Ni  Ni383  1  0.56955967  0.73328933  0.10492050  1.0
  Ni  Ni384  1  0.90289300  0.06662267  0.10492050  1.0
  Ni  Ni385  1  0.90289300  0.39995600  0.10492050  1.0
  Ni  Ni386  1  0.90289300  0.73328933  0.10492050  1.0
  Ni  Ni387  1  0.23478067  0.06827067  0.14585292  1.0
  Ni  Ni388  1  0.23478067  0.40160400  0.14585292  1.0
  Ni  Ni389  1  0.23478067  0.73493733  0.14585292  1.0
  Ni  Ni390  1  0.56811400  0.06827067  0.14585292  1.0
  Ni  Ni391  1  0.56811400  0.40160400  0.14585292  1.0
  Ni  Ni392  1  0.56811400  0.73493733  0.14585292  1.0
  Ni  Ni393  1  0.90144733  0.06827067  0.14585292  1.0
  Ni  Ni394  1  0.90144733  0.40160400  0.14585292  1.0
  Ni  Ni395  1  0.90144733  0.73493733  0.14585292  1.0
  Ni  Ni396  1  0.06662267  0.23622633  0.14585292  1.0
  Ni  Ni397  1  0.06662267  0.56955967  0.14585292  1.0
  Ni  Ni398  1  0.06662267  0.90289300  0.14585292  1.0
  Ni  Ni399  1  0.39995600  0.23622633  0.14585292  1.0
  Ni  Ni400  1  0.39995600  0.56955967  0.14585292  1.0
  Ni  Ni401  1  0.39995600  0.90289300  0.14585292  1.0
  Ni  Ni402  1  0.73328933  0.23622633  0.14585292  1.0
  Ni  Ni403  1  0.73328933  0.56955967  0.14585292  1.0
  Ni  Ni404  1  0.73328933  0.90289300  0.14585292  1.0
  Ni  Ni405  1  0.09710700  0.09710700  0.10492050  1.0
  Ni  Ni406  1  0.09710700  0.43044033  0.10492050  1.0
  Ni  Ni407  1  0.09710700  0.76377367  0.10492050  1.0
  Ni  Ni408  1  0.43044033  0.09710700  0.10492050  1.0
  Ni  Ni409  1  0.43044033  0.43044033  0.10492050  1.0
  Ni  Ni410  1  0.43044033  0.76377367  0.10492050  1.0
  Ni  Ni411  1  0.76377367  0.09710700  0.10492050  1.0
  Ni  Ni412  1  0.76377367  0.43044033  0.10492050  1.0
  Ni  Ni413  1  0.76377367  0.76377367  0.10492050  1.0
  Ni  Ni414  1  0.26506267  0.26506267  0.10422542  1.0
  Ni  Ni415  1  0.26506267  0.59839600  0.10422542  1.0
  Ni  Ni416  1  0.26506267  0.93172933  0.10422542  1.0
  Ni  Ni417  1  0.59839600  0.26506267  0.10422542  1.0
  Ni  Ni418  1  0.59839600  0.59839600  0.10422542  1.0
  Ni  Ni419  1  0.59839600  0.93172933  0.10422542  1.0
  Ni  Ni420  1  0.93172933  0.26506267  0.10422542  1.0
  Ni  Ni421  1  0.93172933  0.59839600  0.10422542  1.0
  Ni  Ni422  1  0.93172933  0.93172933  0.10422542  1.0
  Ni  Ni423  1  0.09710700  0.26671067  0.10345200  1.0
  Ni  Ni424  1  0.09710700  0.60004400  0.10345200  1.0
  Ni  Ni425  1  0.09710700  0.93337733  0.10345200  1.0
  Ni  Ni426  1  0.43044033  0.26671067  0.10345200  1.0
  Ni  Ni427  1  0.43044033  0.60004400  0.10345200  1.0
  Ni  Ni428  1  0.43044033  0.93337733  0.10345200  1.0
  Ni  Ni429  1  0.76377367  0.26671067  0.10345200  1.0
  Ni  Ni430  1  0.76377367  0.60004400  0.10345200  1.0
  Ni  Ni431  1  0.76377367  0.93337733  0.10345200  1.0
  Ni  Ni432  1  0.26506267  0.09855267  0.10414708  1.0
  Ni  Ni433  1  0.26506267  0.43188600  0.10414708  1.0
  Ni  Ni434  1  0.26506267  0.76521933  0.10414708  1.0
  Ni  Ni435  1  0.59839600  0.09855267  0.10414708  1.0
  Ni  Ni436  1  0.59839600  0.43188600  0.10414708  1.0
  Ni  Ni437  1  0.59839600  0.76521933  0.10414708  1.0
  Ni  Ni438  1  0.93172933  0.09855267  0.10414708  1.0
  Ni  Ni439  1  0.93172933  0.43188600  0.10414708  1.0
  Ni  Ni440  1  0.93172933  0.76521933  0.10414708  1.0
  Ni  Ni441  1  0.26671067  0.09710700  0.14585292  1.0
  Ni  Ni442  1  0.26671067  0.43044033  0.14585292  1.0
  Ni  Ni443  1  0.26671067  0.76377367  0.14585292  1.0
  Ni  Ni444  1  0.60004400  0.09710700  0.14585292  1.0
  Ni  Ni445  1  0.60004400  0.43044033  0.14585292  1.0
  Ni  Ni446  1  0.60004400  0.76377367  0.14585292  1.0
  Ni  Ni447  1  0.93337733  0.09710700  0.14585292  1.0
  Ni  Ni448  1  0.93337733  0.43044033  0.14585292  1.0
  Ni  Ni449  1  0.93337733  0.76377367  0.14585292  1.0
  Ni  Ni450  1  0.09855267  0.26506267  0.14585292  1.0
  Ni  Ni451  1  0.09855267  0.59839600  0.14585292  1.0
  Ni  Ni452  1  0.09855267  0.93172933  0.14585292  1.0
  Ni  Ni453  1  0.43188600  0.26506267  0.14585292  1.0
  Ni  Ni454  1  0.43188600  0.59839600  0.14585292  1.0
  Ni  Ni455  1  0.43188600  0.93172933  0.14585292  1.0
  Ni  Ni456  1  0.76521933  0.26506267  0.14585292  1.0
  Ni  Ni457  1  0.76521933  0.59839600  0.14585292  1.0
  Ni  Ni458  1  0.76521933  0.93172933  0.14585292  1.0
  Ni  Ni459  1  0.00000000  0.00000000  0.14585292  1.0
  Ni  Ni460  1  0.00000000  0.33333333  0.14585292  1.0
  Ni  Ni461  1  0.00000000  0.66666667  0.14585292  1.0
  Ni  Ni462  1  0.33333333  0.00000000  0.14585292  1.0
  Ni  Ni463  1  0.33333333  0.33333333  0.14585292  1.0
  Ni  Ni464  1  0.33333333  0.66666667  0.14585292  1.0
  Ni  Ni465  1  0.66666667  0.00000000  0.14585292  1.0
  Ni  Ni466  1  0.66666667  0.33333333  0.14585292  1.0
  Ni  Ni467  1  0.66666667  0.66666667  0.14585292  1.0
  Ta  Ta468  1  0.27577467  0.27577467  0.22918625  1.0
  Ta  Ta469  1  0.27577467  0.60910800  0.22918625  1.0
  Ta  Ta470  1  0.27577467  0.94244133  0.22918625  1.0
  Ta  Ta471  1  0.60910800  0.27577467  0.22918625  1.0
  Ta  Ta472  1  0.60910800  0.60910800  0.22918625  1.0
  Ta  Ta473  1  0.60910800  0.94244133  0.22918625  1.0
  Ta  Ta474  1  0.94244133  0.27577467  0.22918625  1.0
  Ta  Ta475  1  0.94244133  0.60910800  0.22918625  1.0
  Ta  Ta476  1  0.94244133  0.94244133  0.22918625  1.0
  Ta  Ta477  1  0.10916267  0.10916267  0.22918625  1.0
  Ta  Ta478  1  0.10916267  0.44249600  0.22918625  1.0
  Ta  Ta479  1  0.10916267  0.77582933  0.22918625  1.0
  Ta  Ta480  1  0.44249600  0.10916267  0.22918625  1.0
  Ta  Ta481  1  0.44249600  0.44249600  0.22918625  1.0
  Ta  Ta482  1  0.44249600  0.77582933  0.22918625  1.0
  Ta  Ta483  1  0.77582933  0.10916267  0.22918625  1.0
  Ta  Ta484  1  0.77582933  0.44249600  0.22918625  1.0
  Ta  Ta485  1  0.77582933  0.77582933  0.22918625  1.0
  Ta  Ta486  1  0.22417067  0.22417067  0.22918625  1.0
  Ta  Ta487  1  0.22417067  0.55750400  0.22918625  1.0
  Ta  Ta488  1  0.22417067  0.89083733  0.22918625  1.0
  Ta  Ta489  1  0.55750400  0.22417067  0.22918625  1.0
  Ta  Ta490  1  0.55750400  0.55750400  0.22918625  1.0
  Ta  Ta491  1  0.55750400  0.89083733  0.22918625  1.0
  Ta  Ta492  1  0.89083733  0.22417067  0.22918625  1.0
  Ta  Ta493  1  0.89083733  0.55750400  0.22918625  1.0
  Ta  Ta494  1  0.89083733  0.89083733  0.22918625  1.0
  Ta  Ta495  1  0.05755867  0.05755867  0.22918625  1.0
  Ta  Ta496  1  0.05755867  0.39089200  0.22918625  1.0
  Ta  Ta497  1  0.05755867  0.72422533  0.22918625  1.0
  Ta  Ta498  1  0.39089200  0.05755867  0.22918625  1.0
  Ta  Ta499  1  0.39089200  0.39089200  0.22918625  1.0
  Ta  Ta500  1  0.39089200  0.72422533  0.22918625  1.0
  Ta  Ta501  1  0.72422533  0.05755867  0.22918625  1.0
  Ta  Ta502  1  0.72422533  0.39089200  0.22918625  1.0
  Ta  Ta503  1  0.72422533  0.72422533  0.22918625  1.0
  Ta  Ta504  1  0.25809367  0.25809367  0.22918625  1.0
  Ta  Ta505  1  0.25809367  0.59142700  0.22918625  1.0
  Ta  Ta506  1  0.25809367  0.92476033  0.22918625  1.0
  Ta  Ta507  1  0.59142700  0.25809367  0.22918625  1.0
  Ta  Ta508  1  0.59142700  0.59142700  0.22918625  1.0
  Ta  Ta509  1  0.59142700  0.92476033  0.22918625  1.0
  Ta  Ta510  1  0.92476033  0.25809367  0.22918625  1.0
  Ta  Ta511  1  0.92476033  0.59142700  0.22918625  1.0
  Ta  Ta512  1  0.92476033  0.92476033  0.22918625  1.0
  Ta  Ta513  1  0.09159433  0.09159433  0.22918625  1.0
  Ta  Ta514  1  0.09159433  0.42492767  0.22918625  1.0
  Ta  Ta515  1  0.09159433  0.75826100  0.22918625  1.0
  Ta  Ta516  1  0.42492767  0.09159433  0.22918625  1.0
  Ta  Ta517  1  0.42492767  0.42492767  0.22918625  1.0
  Ta  Ta518  1  0.42492767  0.75826100  0.22918625  1.0
  Ta  Ta519  1  0.75826100  0.09159433  0.22918625  1.0
  Ta  Ta520  1  0.75826100  0.42492767  0.22918625  1.0
  Ta  Ta521  1  0.75826100  0.75826100  0.22918625  1.0
  Ta  Ta522  1  0.24173900  0.24173900  0.22918625  1.0
  Ta  Ta523  1  0.24173900  0.57507233  0.22918625  1.0
  Ta  Ta524  1  0.24173900  0.90840567  0.22918625  1.0
  Ta  Ta525  1  0.57507233  0.24173900  0.22918625  1.0
  Ta  Ta526  1  0.57507233  0.57507233  0.22918625  1.0
  Ta  Ta527  1  0.57507233  0.90840567  0.22918625  1.0
  Ta  Ta528  1  0.90840567  0.24173900  0.22918625  1.0
  Ta  Ta529  1  0.90840567  0.57507233  0.22918625  1.0
  Ta  Ta530  1  0.90840567  0.90840567  0.22918625  1.0
  Ta  Ta531  1  0.07523967  0.07523967  0.22918625  1.0
  Ta  Ta532  1  0.07523967  0.40857300  0.22918625  1.0
  Ta  Ta533  1  0.07523967  0.74190633  0.22918625  1.0
  Ta  Ta534  1  0.40857300  0.07523967  0.22918625  1.0
  Ta  Ta535  1  0.40857300  0.40857300  0.22918625  1.0
  Ta  Ta536  1  0.40857300  0.74190633  0.22918625  1.0
  Ta  Ta537  1  0.74190633  0.07523967  0.22918625  1.0
  Ta  Ta538  1  0.74190633  0.40857300  0.22918625  1.0
  Ta  Ta539  1  0.74190633  0.74190633  0.22918625  1.0
  Ta  Ta540  1  0.13871800  0.13871800  0.22918625  1.0
  Ta  Ta541  1  0.13871800  0.47205133  0.22918625  1.0
  Ta  Ta542  1  0.13871800  0.80538467  0.22918625  1.0
  Ta  Ta543  1  0.47205133  0.13871800  0.22918625  1.0
  Ta  Ta544  1  0.47205133  0.47205133  0.22918625  1.0
  Ta  Ta545  1  0.47205133  0.80538467  0.22918625  1.0
  Ta  Ta546  1  0.80538467  0.13871800  0.22918625  1.0
  Ta  Ta547  1  0.80538467  0.47205133  0.22918625  1.0
  Ta  Ta548  1  0.80538467  0.80538467  0.22918625  1.0
  Ta  Ta549  1  0.30572867  0.30572867  0.22918625  1.0
  Ta  Ta550  1  0.30572867  0.63906200  0.22918625  1.0
  Ta  Ta551  1  0.30572867  0.97239533  0.22918625  1.0
  Ta  Ta552  1  0.63906200  0.30572867  0.22918625  1.0
  Ta  Ta553  1  0.63906200  0.63906200  0.22918625  1.0
  Ta  Ta554  1  0.63906200  0.97239533  0.22918625  1.0
  Ta  Ta555  1  0.97239533  0.30572867  0.22918625  1.0
  Ta  Ta556  1  0.97239533  0.63906200  0.22918625  1.0
  Ta  Ta557  1  0.97239533  0.97239533  0.22918625  1.0
  Ta  Ta558  1  0.02760467  0.02760467  0.22918625  1.0
  Ta  Ta559  1  0.02760467  0.36093800  0.22918625  1.0
  Ta  Ta560  1  0.02760467  0.69427133  0.22918625  1.0
  Ta  Ta561  1  0.36093800  0.02760467  0.22918625  1.0
  Ta  Ta562  1  0.36093800  0.36093800  0.22918625  1.0
  Ta  Ta563  1  0.36093800  0.69427133  0.22918625  1.0
  Ta  Ta564  1  0.69427133  0.02760467  0.22918625  1.0
  Ta  Ta565  1  0.69427133  0.36093800  0.22918625  1.0
  Ta  Ta566  1  0.69427133  0.69427133  0.22918625  1.0
  Ta  Ta567  1  0.19461533  0.19461533  0.22918625  1.0
  Ta  Ta568  1  0.19461533  0.52794867  0.22918625  1.0
  Ta  Ta569  1  0.19461533  0.86128200  0.22918625  1.0
  Ta  Ta570  1  0.52794867  0.19461533  0.22918625  1.0
  Ta  Ta571  1  0.52794867  0.52794867  0.22918625  1.0
  Ta  Ta572  1  0.52794867  0.86128200  0.22918625  1.0
  Ta  Ta573  1  0.86128200  0.19461533  0.22918625  1.0
  Ta  Ta574  1  0.86128200  0.52794867  0.22918625  1.0
  Ta  Ta575  1  0.86128200  0.86128200  0.22918625  1.0
  Ta  Ta576  1  0.16666667  0.16666667  0.22918625  1.0
  Ta  Ta577  1  0.16666667  0.50000000  0.22918625  1.0
  Ta  Ta578  1  0.16666667  0.83333333  0.22918625  1.0
  Ta  Ta579  1  0.50000000  0.16666667  0.22918625  1.0
  Ta  Ta580  1  0.50000000  0.50000000  0.22918625  1.0
  Ta  Ta581  1  0.50000000  0.83333333  0.22918625  1.0
  Ta  Ta582  1  0.83333333  0.16666667  0.22918625  1.0
  Ta  Ta583  1  0.83333333  0.50000000  0.22918625  1.0
  Ta  Ta584  1  0.83333333  0.83333333  0.22918625  1.0
  Ni  Ni585  1  0.06827067  0.06827067  0.18748042  1.0
  Ni  Ni586  1  0.06827067  0.40160400  0.18748042  1.0
  Ni  Ni587  1  0.06827067  0.73493733  0.18748042  1.0
  Ni  Ni588  1  0.40160400  0.06827067  0.18748042  1.0
  Ni  Ni589  1  0.40160400  0.40160400  0.18748042  1.0
  Ni  Ni590  1  0.40160400  0.73493733  0.18748042  1.0
  Ni  Ni591  1  0.73493733  0.06827067  0.18748042  1.0
  Ni  Ni592  1  0.73493733  0.40160400  0.18748042  1.0
  Ni  Ni593  1  0.73493733  0.73493733  0.18748042  1.0
  Ni  Ni594  1  0.23622633  0.23622633  0.18678533  1.0
  Ni  Ni595  1  0.23622633  0.56955967  0.18678533  1.0
  Ni  Ni596  1  0.23622633  0.90289300  0.18678533  1.0
  Ni  Ni597  1  0.56955967  0.23622633  0.18678533  1.0
  Ni  Ni598  1  0.56955967  0.56955967  0.18678533  1.0
  Ni  Ni599  1  0.56955967  0.90289300  0.18678533  1.0
  Ni  Ni600  1  0.90289300  0.23622633  0.18678533  1.0
  Ni  Ni601  1  0.90289300  0.56955967  0.18678533  1.0
  Ni  Ni602  1  0.90289300  0.90289300  0.18678533  1.0
  Ni  Ni603  1  0.06827067  0.23478067  0.18755875  1.0
  Ni  Ni604  1  0.06827067  0.56811400  0.18755875  1.0
  Ni  Ni605  1  0.06827067  0.90144733  0.18755875  1.0
  Ni  Ni606  1  0.40160400  0.23478067  0.18755875  1.0
  Ni  Ni607  1  0.40160400  0.56811400  0.18755875  1.0
  Ni  Ni608  1  0.40160400  0.90144733  0.18755875  1.0
  Ni  Ni609  1  0.73493733  0.23478067  0.18755875  1.0
  Ni  Ni610  1  0.73493733  0.56811400  0.18755875  1.0
  Ni  Ni611  1  0.73493733  0.90144733  0.18755875  1.0
  Ni  Ni612  1  0.23622633  0.06662267  0.18825383  1.0
  Ni  Ni613  1  0.23622633  0.39995600  0.18825383  1.0
  Ni  Ni614  1  0.23622633  0.73328933  0.18825383  1.0
  Ni  Ni615  1  0.56955967  0.06662267  0.18825383  1.0
  Ni  Ni616  1  0.56955967  0.39995600  0.18825383  1.0
  Ni  Ni617  1  0.56955967  0.73328933  0.18825383  1.0
  Ni  Ni618  1  0.90289300  0.06662267  0.18825383  1.0
  Ni  Ni619  1  0.90289300  0.39995600  0.18825383  1.0
  Ni  Ni620  1  0.90289300  0.73328933  0.18825383  1.0
  Ni  Ni621  1  0.23478067  0.06827067  0.22918625  1.0
  Ni  Ni622  1  0.23478067  0.40160400  0.22918625  1.0
  Ni  Ni623  1  0.23478067  0.73493733  0.22918625  1.0
  Ni  Ni624  1  0.56811400  0.06827067  0.22918625  1.0
  Ni  Ni625  1  0.56811400  0.40160400  0.22918625  1.0
  Ni  Ni626  1  0.56811400  0.73493733  0.22918625  1.0
  Ni  Ni627  1  0.90144733  0.06827067  0.22918625  1.0
  Ni  Ni628  1  0.90144733  0.40160400  0.22918625  1.0
  Ni  Ni629  1  0.90144733  0.73493733  0.22918625  1.0
  Ni  Ni630  1  0.06662267  0.23622633  0.22918625  1.0
  Ni  Ni631  1  0.06662267  0.56955967  0.22918625  1.0
  Ni  Ni632  1  0.06662267  0.90289300  0.22918625  1.0
  Ni  Ni633  1  0.39995600  0.23622633  0.22918625  1.0
  Ni  Ni634  1  0.39995600  0.56955967  0.22918625  1.0
  Ni  Ni635  1  0.39995600  0.90289300  0.22918625  1.0
  Ni  Ni636  1  0.73328933  0.23622633  0.22918625  1.0
  Ni  Ni637  1  0.73328933  0.56955967  0.22918625  1.0
  Ni  Ni638  1  0.73328933  0.90289300  0.22918625  1.0
  Ni  Ni639  1  0.09710700  0.09710700  0.18825383  1.0
  Ni  Ni640  1  0.09710700  0.43044033  0.18825383  1.0
  Ni  Ni641  1  0.09710700  0.76377367  0.18825383  1.0
  Ni  Ni642  1  0.43044033  0.09710700  0.18825383  1.0
  Ni  Ni643  1  0.43044033  0.43044033  0.18825383  1.0
  Ni  Ni644  1  0.43044033  0.76377367  0.18825383  1.0
  Ni  Ni645  1  0.76377367  0.09710700  0.18825383  1.0
  Ni  Ni646  1  0.76377367  0.43044033  0.18825383  1.0
  Ni  Ni647  1  0.76377367  0.76377367  0.18825383  1.0
  Ni  Ni648  1  0.26506267  0.26506267  0.18755875  1.0
  Ni  Ni649  1  0.26506267  0.59839600  0.18755875  1.0
  Ni  Ni650  1  0.26506267  0.93172933  0.18755875  1.0
  Ni  Ni651  1  0.59839600  0.26506267  0.18755875  1.0
  Ni  Ni652  1  0.59839600  0.59839600  0.18755875  1.0
  Ni  Ni653  1  0.59839600  0.93172933  0.18755875  1.0
  Ni  Ni654  1  0.93172933  0.26506267  0.18755875  1.0
  Ni  Ni655  1  0.93172933  0.59839600  0.18755875  1.0
  Ni  Ni656  1  0.93172933  0.93172933  0.18755875  1.0
  Ni  Ni657  1  0.09710700  0.26671067  0.18678533  1.0
  Ni  Ni658  1  0.09710700  0.60004400  0.18678533  1.0
  Ni  Ni659  1  0.09710700  0.93337733  0.18678533  1.0
  Ni  Ni660  1  0.43044033  0.26671067  0.18678533  1.0
  Ni  Ni661  1  0.43044033  0.60004400  0.18678533  1.0
  Ni  Ni662  1  0.43044033  0.93337733  0.18678533  1.0
  Ni  Ni663  1  0.76377367  0.26671067  0.18678533  1.0
  Ni  Ni664  1  0.76377367  0.60004400  0.18678533  1.0
  Ni  Ni665  1  0.76377367  0.93337733  0.18678533  1.0
  Ni  Ni666  1  0.26506267  0.09855267  0.18748042  1.0
  Ni  Ni667  1  0.26506267  0.43188600  0.18748042  1.0
  Ni  Ni668  1  0.26506267  0.76521933  0.18748042  1.0
  Ni  Ni669  1  0.59839600  0.09855267  0.18748042  1.0
  Ni  Ni670  1  0.59839600  0.43188600  0.18748042  1.0
  Ni  Ni671  1  0.59839600  0.76521933  0.18748042  1.0
  Ni  Ni672  1  0.93172933  0.09855267  0.18748042  1.0
  Ni  Ni673  1  0.93172933  0.43188600  0.18748042  1.0
  Ni  Ni674  1  0.93172933  0.76521933  0.18748042  1.0
  Ni  Ni675  1  0.26671067  0.09710700  0.22918625  1.0
  Ni  Ni676  1  0.26671067  0.43044033  0.22918625  1.0
  Ni  Ni677  1  0.26671067  0.76377367  0.22918625  1.0
  Ni  Ni678  1  0.60004400  0.09710700  0.22918625  1.0
  Ni  Ni679  1  0.60004400  0.43044033  0.22918625  1.0
  Ni  Ni680  1  0.60004400  0.76377367  0.22918625  1.0
  Ni  Ni681  1  0.93337733  0.09710700  0.22918625  1.0
  Ni  Ni682  1  0.93337733  0.43044033  0.22918625  1.0
  Ni  Ni683  1  0.93337733  0.76377367  0.22918625  1.0
  Ni  Ni684  1  0.09855267  0.26506267  0.22918625  1.0
  Ni  Ni685  1  0.09855267  0.59839600  0.22918625  1.0
  Ni  Ni686  1  0.09855267  0.93172933  0.22918625  1.0
  Ni  Ni687  1  0.43188600  0.26506267  0.22918625  1.0
  Ni  Ni688  1  0.43188600  0.59839600  0.22918625  1.0
  Ni  Ni689  1  0.43188600  0.93172933  0.22918625  1.0
  Ni  Ni690  1  0.76521933  0.26506267  0.22918625  1.0
  Ni  Ni691  1  0.76521933  0.59839600  0.22918625  1.0
  Ni  Ni692  1  0.76521933  0.93172933  0.22918625  1.0
  Ni  Ni693  1  0.00000000  0.00000000  0.22918625  1.0
  Ni  Ni694  1  0.00000000  0.33333333  0.22918625  1.0
  Ni  Ni695  1  0.00000000  0.66666667  0.22918625  1.0
  Ni  Ni696  1  0.33333333  0.00000000  0.22918625  1.0
  Ni  Ni697  1  0.33333333  0.33333333  0.22918625  1.0
  Ni  Ni698  1  0.33333333  0.66666667  0.22918625  1.0
  Ni  Ni699  1  0.66666667  0.00000000  0.22918625  1.0
  Ni  Ni700  1  0.66666667  0.33333333  0.22918625  1.0
  Ni  Ni701  1  0.66666667  0.66666667  0.22918625  1.0
  Ta  Ta702  1  0.27577467  0.27577467  0.31251958  1.0
  Ta  Ta703  1  0.27577467  0.60910800  0.31251958  1.0
  Ta  Ta704  1  0.27577467  0.94244133  0.31251958  1.0
  Ta  Ta705  1  0.60910800  0.27577467  0.31251958  1.0
  Ta  Ta706  1  0.60910800  0.60910800  0.31251958  1.0
  Ta  Ta707  1  0.60910800  0.94244133  0.31251958  1.0
  Ta  Ta708  1  0.94244133  0.27577467  0.31251958  1.0
  Ta  Ta709  1  0.94244133  0.60910800  0.31251958  1.0
  Ta  Ta710  1  0.94244133  0.94244133  0.31251958  1.0
  Ta  Ta711  1  0.10916267  0.10916267  0.31251958  1.0
  Ta  Ta712  1  0.10916267  0.44249600  0.31251958  1.0
  Ta  Ta713  1  0.10916267  0.77582933  0.31251958  1.0
  Ta  Ta714  1  0.44249600  0.10916267  0.31251958  1.0
  Ta  Ta715  1  0.44249600  0.44249600  0.31251958  1.0
  Ta  Ta716  1  0.44249600  0.77582933  0.31251958  1.0
  Ta  Ta717  1  0.77582933  0.10916267  0.31251958  1.0
  Ta  Ta718  1  0.77582933  0.44249600  0.31251958  1.0
  Ta  Ta719  1  0.77582933  0.77582933  0.31251958  1.0
  Ta  Ta720  1  0.22417067  0.22417067  0.31251958  1.0
  Ta  Ta721  1  0.22417067  0.55750400  0.31251958  1.0
  Ta  Ta722  1  0.22417067  0.89083733  0.31251958  1.0
  Ta  Ta723  1  0.55750400  0.22417067  0.31251958  1.0
  Ta  Ta724  1  0.55750400  0.55750400  0.31251958  1.0
  Ta  Ta725  1  0.55750400  0.89083733  0.31251958  1.0
  Ta  Ta726  1  0.89083733  0.22417067  0.31251958  1.0
  Ta  Ta727  1  0.89083733  0.55750400  0.31251958  1.0
  Ta  Ta728  1  0.89083733  0.89083733  0.31251958  1.0
  Ta  Ta729  1  0.05755867  0.05755867  0.31251958  1.0
  Ta  Ta730  1  0.05755867  0.39089200  0.31251958  1.0
  Ta  Ta731  1  0.05755867  0.72422533  0.31251958  1.0
  Ta  Ta732  1  0.39089200  0.05755867  0.31251958  1.0
  Ta  Ta733  1  0.39089200  0.39089200  0.31251958  1.0
  Ta  Ta734  1  0.39089200  0.72422533  0.31251958  1.0
  Ta  Ta735  1  0.72422533  0.05755867  0.31251958  1.0
  Ta  Ta736  1  0.72422533  0.39089200  0.31251958  1.0
  Ta  Ta737  1  0.72422533  0.72422533  0.31251958  1.0
  Ta  Ta738  1  0.25809367  0.25809367  0.31251958  1.0
  Ta  Ta739  1  0.25809367  0.59142700  0.31251958  1.0
  Ta  Ta740  1  0.25809367  0.92476033  0.31251958  1.0
  Ta  Ta741  1  0.59142700  0.25809367  0.31251958  1.0
  Ta  Ta742  1  0.59142700  0.59142700  0.31251958  1.0
  Ta  Ta743  1  0.59142700  0.92476033  0.31251958  1.0
  Ta  Ta744  1  0.92476033  0.25809367  0.31251958  1.0
  Ta  Ta745  1  0.92476033  0.59142700  0.31251958  1.0
  Ta  Ta746  1  0.92476033  0.92476033  0.31251958  1.0
  Ta  Ta747  1  0.09159433  0.09159433  0.31251958  1.0
  Ta  Ta748  1  0.09159433  0.42492767  0.31251958  1.0
  Ta  Ta749  1  0.09159433  0.75826100  0.31251958  1.0
  Ta  Ta750  1  0.42492767  0.09159433  0.31251958  1.0
  Ta  Ta751  1  0.42492767  0.42492767  0.31251958  1.0
  Ta  Ta752  1  0.42492767  0.75826100  0.31251958  1.0
  Ta  Ta753  1  0.75826100  0.09159433  0.31251958  1.0
  Ta  Ta754  1  0.75826100  0.42492767  0.31251958  1.0
  Ta  Ta755  1  0.75826100  0.75826100  0.31251958  1.0
  Ta  Ta756  1  0.24173900  0.24173900  0.31251958  1.0
  Ta  Ta757  1  0.24173900  0.57507233  0.31251958  1.0
  Ta  Ta758  1  0.24173900  0.90840567  0.31251958  1.0
  Ta  Ta759  1  0.57507233  0.24173900  0.31251958  1.0
  Ta  Ta760  1  0.57507233  0.57507233  0.31251958  1.0
  Ta  Ta761  1  0.57507233  0.90840567  0.31251958  1.0
  Ta  Ta762  1  0.90840567  0.24173900  0.31251958  1.0
  Ta  Ta763  1  0.90840567  0.57507233  0.31251958  1.0
  Ta  Ta764  1  0.90840567  0.90840567  0.31251958  1.0
  Ta  Ta765  1  0.07523967  0.07523967  0.31251958  1.0
  Ta  Ta766  1  0.07523967  0.40857300  0.31251958  1.0
  Ta  Ta767  1  0.07523967  0.74190633  0.31251958  1.0
  Ta  Ta768  1  0.40857300  0.07523967  0.31251958  1.0
  Ta  Ta769  1  0.40857300  0.40857300  0.31251958  1.0
  Ta  Ta770  1  0.40857300  0.74190633  0.31251958  1.0
  Ta  Ta771  1  0.74190633  0.07523967  0.31251958  1.0
  Ta  Ta772  1  0.74190633  0.40857300  0.31251958  1.0
  Ta  Ta773  1  0.74190633  0.74190633  0.31251958  1.0
  Ta  Ta774  1  0.13871800  0.13871800  0.31251958  1.0
  Ta  Ta775  1  0.13871800  0.47205133  0.31251958  1.0
  Ta  Ta776  1  0.13871800  0.80538467  0.31251958  1.0
  Ta  Ta777  1  0.47205133  0.13871800  0.31251958  1.0
  Ta  Ta778  1  0.47205133  0.47205133  0.31251958  1.0
  Ta  Ta779  1  0.47205133  0.80538467  0.31251958  1.0
  Ta  Ta780  1  0.80538467  0.13871800  0.31251958  1.0
  Ta  Ta781  1  0.80538467  0.47205133  0.31251958  1.0
  Ta  Ta782  1  0.80538467  0.80538467  0.31251958  1.0
  Ta  Ta783  1  0.30572867  0.30572867  0.31251958  1.0
  Ta  Ta784  1  0.30572867  0.63906200  0.31251958  1.0
  Ta  Ta785  1  0.30572867  0.97239533  0.31251958  1.0
  Ta  Ta786  1  0.63906200  0.30572867  0.31251958  1.0
  Ta  Ta787  1  0.63906200  0.63906200  0.31251958  1.0
  Ta  Ta788  1  0.63906200  0.97239533  0.31251958  1.0
  Ta  Ta789  1  0.97239533  0.30572867  0.31251958  1.0
  Ta  Ta790  1  0.97239533  0.63906200  0.31251958  1.0
  Ta  Ta791  1  0.97239533  0.97239533  0.31251958  1.0
  Ta  Ta792  1  0.02760467  0.02760467  0.31251958  1.0
  Ta  Ta793  1  0.02760467  0.36093800  0.31251958  1.0
  Ta  Ta794  1  0.02760467  0.69427133  0.31251958  1.0
  Ta  Ta795  1  0.36093800  0.02760467  0.31251958  1.0
  Ta  Ta796  1  0.36093800  0.36093800  0.31251958  1.0
  Ta  Ta797  1  0.36093800  0.69427133  0.31251958  1.0
  Ta  Ta798  1  0.69427133  0.02760467  0.31251958  1.0
  Ta  Ta799  1  0.69427133  0.36093800  0.31251958  1.0
  Ta  Ta800  1  0.69427133  0.69427133  0.31251958  1.0
  Ta  Ta801  1  0.19461533  0.19461533  0.31251958  1.0
  Ta  Ta802  1  0.19461533  0.52794867  0.31251958  1.0
  Ta  Ta803  1  0.19461533  0.86128200  0.31251958  1.0
  Ta  Ta804  1  0.52794867  0.19461533  0.31251958  1.0
  Ta  Ta805  1  0.52794867  0.52794867  0.31251958  1.0
  Ta  Ta806  1  0.52794867  0.86128200  0.31251958  1.0
  Ta  Ta807  1  0.86128200  0.19461533  0.31251958  1.0
  Ta  Ta808  1  0.86128200  0.52794867  0.31251958  1.0
  Ta  Ta809  1  0.86128200  0.86128200  0.31251958  1.0
  Ta  Ta810  1  0.16666667  0.16666667  0.31251958  1.0
  Ta  Ta811  1  0.16666667  0.50000000  0.31251958  1.0
  Ta  Ta812  1  0.16666667  0.83333333  0.31251958  1.0
  Ta  Ta813  1  0.50000000  0.16666667  0.31251958  1.0
  Ta  Ta814  1  0.50000000  0.50000000  0.31251958  1.0
  Ta  Ta815  1  0.50000000  0.83333333  0.31251958  1.0
  Ta  Ta816  1  0.83333333  0.16666667  0.31251958  1.0
  Ta  Ta817  1  0.83333333  0.50000000  0.31251958  1.0
  Ta  Ta818  1  0.83333333  0.83333333  0.31251958  1.0
  Ni  Ni819  1  0.06827067  0.06827067  0.27081375  1.0
  Ni  Ni820  1  0.06827067  0.40160400  0.27081375  1.0
  Ni  Ni821  1  0.06827067  0.73493733  0.27081375  1.0
  Ni  Ni822  1  0.40160400  0.06827067  0.27081375  1.0
  Ni  Ni823  1  0.40160400  0.40160400  0.27081375  1.0
  Ni  Ni824  1  0.40160400  0.73493733  0.27081375  1.0
  Ni  Ni825  1  0.73493733  0.06827067  0.27081375  1.0
  Ni  Ni826  1  0.73493733  0.40160400  0.27081375  1.0
  Ni  Ni827  1  0.73493733  0.73493733  0.27081375  1.0
  Ni  Ni828  1  0.23622633  0.23622633  0.27011867  1.0
  Ni  Ni829  1  0.23622633  0.56955967  0.27011867  1.0
  Ni  Ni830  1  0.23622633  0.90289300  0.27011867  1.0
  Ni  Ni831  1  0.56955967  0.23622633  0.27011867  1.0
  Ni  Ni832  1  0.56955967  0.56955967  0.27011867  1.0
  Ni  Ni833  1  0.56955967  0.90289300  0.27011867  1.0
  Ni  Ni834  1  0.90289300  0.23622633  0.27011867  1.0
  Ni  Ni835  1  0.90289300  0.56955967  0.27011867  1.0
  Ni  Ni836  1  0.90289300  0.90289300  0.27011867  1.0
  Ni  Ni837  1  0.06827067  0.23478067  0.27089208  1.0
  Ni  Ni838  1  0.06827067  0.56811400  0.27089208  1.0
  Ni  Ni839  1  0.06827067  0.90144733  0.27089208  1.0
  Ni  Ni840  1  0.40160400  0.23478067  0.27089208  1.0
  Ni  Ni841  1  0.40160400  0.56811400  0.27089208  1.0
  Ni  Ni842  1  0.40160400  0.90144733  0.27089208  1.0
  Ni  Ni843  1  0.73493733  0.23478067  0.27089208  1.0
  Ni  Ni844  1  0.73493733  0.56811400  0.27089208  1.0
  Ni  Ni845  1  0.73493733  0.90144733  0.27089208  1.0
  Ni  Ni846  1  0.23622633  0.06662267  0.27158717  1.0
  Ni  Ni847  1  0.23622633  0.39995600  0.27158717  1.0
  Ni  Ni848  1  0.23622633  0.73328933  0.27158717  1.0
  Ni  Ni849  1  0.56955967  0.06662267  0.27158717  1.0
  Ni  Ni850  1  0.56955967  0.39995600  0.27158717  1.0
  Ni  Ni851  1  0.56955967  0.73328933  0.27158717  1.0
  Ni  Ni852  1  0.90289300  0.06662267  0.27158717  1.0
  Ni  Ni853  1  0.90289300  0.39995600  0.27158717  1.0
  Ni  Ni854  1  0.90289300  0.73328933  0.27158717  1.0
  Ni  Ni855  1  0.23478067  0.06827067  0.31251958  1.0
  Ni  Ni856  1  0.23478067  0.40160400  0.31251958  1.0
  Ni  Ni857  1  0.23478067  0.73493733  0.31251958  1.0
  Ni  Ni858  1  0.56811400  0.06827067  0.31251958  1.0
  Ni  Ni859  1  0.56811400  0.40160400  0.31251958  1.0
  Ni  Ni860  1  0.56811400  0.73493733  0.31251958  1.0
  Ni  Ni861  1  0.90144733  0.06827067  0.31251958  1.0
  Ni  Ni862  1  0.90144733  0.40160400  0.31251958  1.0
  Ni  Ni863  1  0.90144733  0.73493733  0.31251958  1.0
  Ni  Ni864  1  0.06662267  0.23622633  0.31251958  1.0
  Ni  Ni865  1  0.06662267  0.56955967  0.31251958  1.0
  Ni  Ni866  1  0.06662267  0.90289300  0.31251958  1.0
  Ni  Ni867  1  0.39995600  0.23622633  0.31251958  1.0
  Ni  Ni868  1  0.39995600  0.56955967  0.31251958  1.0
  Ni  Ni869  1  0.39995600  0.90289300  0.31251958  1.0
  Ni  Ni870  1  0.73328933  0.23622633  0.31251958  1.0
  Ni  Ni871  1  0.73328933  0.56955967  0.31251958  1.0
  Ni  Ni872  1  0.73328933  0.90289300  0.31251958  1.0
  Ni  Ni873  1  0.09710700  0.09710700  0.27158717  1.0
  Ni  Ni874  1  0.09710700  0.43044033  0.27158717  1.0
  Ni  Ni875  1  0.09710700  0.76377367  0.27158717  1.0
  Ni  Ni876  1  0.43044033  0.09710700  0.27158717  1.0
  Ni  Ni877  1  0.43044033  0.43044033  0.27158717  1.0
  Ni  Ni878  1  0.43044033  0.76377367  0.27158717  1.0
  Ni  Ni879  1  0.76377367  0.09710700  0.27158717  1.0
  Ni  Ni880  1  0.76377367  0.43044033  0.27158717  1.0
  Ni  Ni881  1  0.76377367  0.76377367  0.27158717  1.0
  Ni  Ni882  1  0.26506267  0.26506267  0.27089208  1.0
  Ni  Ni883  1  0.26506267  0.59839600  0.27089208  1.0
  Ni  Ni884  1  0.26506267  0.93172933  0.27089208  1.0
  Ni  Ni885  1  0.59839600  0.26506267  0.27089208  1.0
  Ni  Ni886  1  0.59839600  0.59839600  0.27089208  1.0
  Ni  Ni887  1  0.59839600  0.93172933  0.27089208  1.0
  Ni  Ni888  1  0.93172933  0.26506267  0.27089208  1.0
  Ni  Ni889  1  0.93172933  0.59839600  0.27089208  1.0
  Ni  Ni890  1  0.93172933  0.93172933  0.27089208  1.0
  Ni  Ni891  1  0.09710700  0.26671067  0.27011867  1.0
  Ni  Ni892  1  0.09710700  0.60004400  0.27011867  1.0
  Ni  Ni893  1  0.09710700  0.93337733  0.27011867  1.0
  Ni  Ni894  1  0.43044033  0.26671067  0.27011867  1.0
  Ni  Ni895  1  0.43044033  0.60004400  0.27011867  1.0
  Ni  Ni896  1  0.43044033  0.93337733  0.27011867  1.0
  Ni  Ni897  1  0.76377367  0.26671067  0.27011867  1.0
  Ni  Ni898  1  0.76377367  0.60004400  0.27011867  1.0
  Ni  Ni899  1  0.76377367  0.93337733  0.27011867  1.0
  Ni  Ni900  1  0.26506267  0.09855267  0.27081375  1.0
  Ni  Ni901  1  0.26506267  0.43188600  0.27081375  1.0
  Ni  Ni902  1  0.26506267  0.76521933  0.27081375  1.0
  Ni  Ni903  1  0.59839600  0.09855267  0.27081375  1.0
  Ni  Ni904  1  0.59839600  0.43188600  0.27081375  1.0
  Ni  Ni905  1  0.59839600  0.76521933  0.27081375  1.0
  Ni  Ni906  1  0.93172933  0.09855267  0.27081375  1.0
  Ni  Ni907  1  0.93172933  0.43188600  0.27081375  1.0
  Ni  Ni908  1  0.93172933  0.76521933  0.27081375  1.0
  Ni  Ni909  1  0.26671067  0.09710700  0.31251958  1.0
  Ni  Ni910  1  0.26671067  0.43044033  0.31251958  1.0
  Ni  Ni911  1  0.26671067  0.76377367  0.31251958  1.0
  Ni  Ni912  1  0.60004400  0.09710700  0.31251958  1.0
  Ni  Ni913  1  0.60004400  0.43044033  0.31251958  1.0
  Ni  Ni914  1  0.60004400  0.76377367  0.31251958  1.0
  Ni  Ni915  1  0.93337733  0.09710700  0.31251958  1.0
  Ni  Ni916  1  0.93337733  0.43044033  0.31251958  1.0
  Ni  Ni917  1  0.93337733  0.76377367  0.31251958  1.0
  Ni  Ni918  1  0.09855267  0.26506267  0.31251958  1.0
  Ni  Ni919  1  0.09855267  0.59839600  0.31251958  1.0
  Ni  Ni920  1  0.09855267  0.93172933  0.31251958  1.0
  Ni  Ni921  1  0.43188600  0.26506267  0.31251958  1.0
  Ni  Ni922  1  0.43188600  0.59839600  0.31251958  1.0
  Ni  Ni923  1  0.43188600  0.93172933  0.31251958  1.0
  Ni  Ni924  1  0.76521933  0.26506267  0.31251958  1.0
  Ni  Ni925  1  0.76521933  0.59839600  0.31251958  1.0
  Ni  Ni926  1  0.76521933  0.93172933  0.31251958  1.0
  Ni  Ni927  1  0.00000000  0.00000000  0.31251958  1.0
  Ni  Ni928  1  0.00000000  0.33333333  0.31251958  1.0
  Ni  Ni929  1  0.00000000  0.66666667  0.31251958  1.0
  Ni  Ni930  1  0.33333333  0.00000000  0.31251958  1.0
  Ni  Ni931  1  0.33333333  0.33333333  0.31251958  1.0
  Ni  Ni932  1  0.33333333  0.66666667  0.31251958  1.0
  Ni  Ni933  1  0.66666667  0.00000000  0.31251958  1.0
  Ni  Ni934  1  0.66666667  0.33333333  0.31251958  1.0
  Ni  Ni935  1  0.66666667  0.66666667  0.31251958  1.0
  Ta  Ta936  1  0.27577467  0.27577467  0.39585292  1.0
  Ta  Ta937  1  0.27577467  0.60910800  0.39585292  1.0
  Ta  Ta938  1  0.27577467  0.94244133  0.39585292  1.0
  Ta  Ta939  1  0.60910800  0.27577467  0.39585292  1.0
  Ta  Ta940  1  0.60910800  0.60910800  0.39585292  1.0
  Ta  Ta941  1  0.60910800  0.94244133  0.39585292  1.0
  Ta  Ta942  1  0.94244133  0.27577467  0.39585292  1.0
  Ta  Ta943  1  0.94244133  0.60910800  0.39585292  1.0
  Ta  Ta944  1  0.94244133  0.94244133  0.39585292  1.0
  Ta  Ta945  1  0.10916267  0.10916267  0.39585292  1.0
  Ta  Ta946  1  0.10916267  0.44249600  0.39585292  1.0
  Ta  Ta947  1  0.10916267  0.77582933  0.39585292  1.0
  Ta  Ta948  1  0.44249600  0.10916267  0.39585292  1.0
  Ta  Ta949  1  0.44249600  0.44249600  0.39585292  1.0
  Ta  Ta950  1  0.44249600  0.77582933  0.39585292  1.0
  Ta  Ta951  1  0.77582933  0.10916267  0.39585292  1.0
  Ta  Ta952  1  0.77582933  0.44249600  0.39585292  1.0
  Ta  Ta953  1  0.77582933  0.77582933  0.39585292  1.0
  Ta  Ta954  1  0.22417067  0.22417067  0.39585292  1.0
  Ta  Ta955  1  0.22417067  0.55750400  0.39585292  1.0
  Ta  Ta956  1  0.22417067  0.89083733  0.39585292  1.0
  Ta  Ta957  1  0.55750400  0.22417067  0.39585292  1.0
  Ta  Ta958  1  0.55750400  0.55750400  0.39585292  1.0
  Ta  Ta959  1  0.55750400  0.89083733  0.39585292  1.0
  Ta  Ta960  1  0.89083733  0.22417067  0.39585292  1.0
  Ta  Ta961  1  0.89083733  0.55750400  0.39585292  1.0
  Ta  Ta962  1  0.89083733  0.89083733  0.39585292  1.0
  Ta  Ta963  1  0.05755867  0.05755867  0.39585292  1.0
  Ta  Ta964  1  0.05755867  0.39089200  0.39585292  1.0
  Ta  Ta965  1  0.05755867  0.72422533  0.39585292  1.0
  Ta  Ta966  1  0.39089200  0.05755867  0.39585292  1.0
  Ta  Ta967  1  0.39089200  0.39089200  0.39585292  1.0
  Ta  Ta968  1  0.39089200  0.72422533  0.39585292  1.0
  Ta  Ta969  1  0.72422533  0.05755867  0.39585292  1.0
  Ta  Ta970  1  0.72422533  0.39089200  0.39585292  1.0
  Ta  Ta971  1  0.72422533  0.72422533  0.39585292  1.0
  Ta  Ta972  1  0.25809367  0.25809367  0.39585292  1.0
  Ta  Ta973  1  0.25809367  0.59142700  0.39585292  1.0
  Ta  Ta974  1  0.25809367  0.92476033  0.39585292  1.0
  Ta  Ta975  1  0.59142700  0.25809367  0.39585292  1.0
  Ta  Ta976  1  0.59142700  0.59142700  0.39585292  1.0
  Ta  Ta977  1  0.59142700  0.92476033  0.39585292  1.0
  Ta  Ta978  1  0.92476033  0.25809367  0.39585292  1.0
  Ta  Ta979  1  0.92476033  0.59142700  0.39585292  1.0
  Ta  Ta980  1  0.92476033  0.92476033  0.39585292  1.0
  Ta  Ta981  1  0.09159433  0.09159433  0.39585292  1.0
  Ta  Ta982  1  0.09159433  0.42492767  0.39585292  1.0
  Ta  Ta983  1  0.09159433  0.75826100  0.39585292  1.0
  Ta  Ta984  1  0.42492767  0.09159433  0.39585292  1.0
  Ta  Ta985  1  0.42492767  0.42492767  0.39585292  1.0
  Ta  Ta986  1  0.42492767  0.75826100  0.39585292  1.0
  Ta  Ta987  1  0.75826100  0.09159433  0.39585292  1.0
  Ta  Ta988  1  0.75826100  0.42492767  0.39585292  1.0
  Ta  Ta989  1  0.75826100  0.75826100  0.39585292  1.0
  Ta  Ta990  1  0.24173900  0.24173900  0.39585292  1.0
  Ta  Ta991  1  0.24173900  0.57507233  0.39585292  1.0
  Ta  Ta992  1  0.24173900  0.90840567  0.39585292  1.0
  Ta  Ta993  1  0.57507233  0.24173900  0.39585292  1.0
  Ta  Ta994  1  0.57507233  0.57507233  0.39585292  1.0
  Ta  Ta995  1  0.57507233  0.90840567  0.39585292  1.0
  Ta  Ta996  1  0.90840567  0.24173900  0.39585292  1.0
  Ta  Ta997  1  0.90840567  0.57507233  0.39585292  1.0
  Ta  Ta998  1  0.90840567  0.90840567  0.39585292  1.0
  Ta  Ta999  1  0.07523967  0.07523967  0.39585292  1.0
  Ta  Ta1000  1  0.07523967  0.40857300  0.39585292  1.0
  Ta  Ta1001  1  0.07523967  0.74190633  0.39585292  1.0
  Ta  Ta1002  1  0.40857300  0.07523967  0.39585292  1.0
  Ta  Ta1003  1  0.40857300  0.40857300  0.39585292  1.0
  Ta  Ta1004  1  0.40857300  0.74190633  0.39585292  1.0
  Ta  Ta1005  1  0.74190633  0.07523967  0.39585292  1.0
  Ta  Ta1006  1  0.74190633  0.40857300  0.39585292  1.0
  Ta  Ta1007  1  0.74190633  0.74190633  0.39585292  1.0
  Ta  Ta1008  1  0.13871800  0.13871800  0.39585292  1.0
  Ta  Ta1009  1  0.13871800  0.47205133  0.39585292  1.0
  Ta  Ta1010  1  0.13871800  0.80538467  0.39585292  1.0
  Ta  Ta1011  1  0.47205133  0.13871800  0.39585292  1.0
  Ta  Ta1012  1  0.47205133  0.47205133  0.39585292  1.0
  Ta  Ta1013  1  0.47205133  0.80538467  0.39585292  1.0
  Ta  Ta1014  1  0.80538467  0.13871800  0.39585292  1.0
  Ta  Ta1015  1  0.80538467  0.47205133  0.39585292  1.0
  Ta  Ta1016  1  0.80538467  0.80538467  0.39585292  1.0
  Ta  Ta1017  1  0.30572867  0.30572867  0.39585292  1.0
  Ta  Ta1018  1  0.30572867  0.63906200  0.39585292  1.0
  Ta  Ta1019  1  0.30572867  0.97239533  0.39585292  1.0
  Ta  Ta1020  1  0.63906200  0.30572867  0.39585292  1.0
  Ta  Ta1021  1  0.63906200  0.63906200  0.39585292  1.0
  Ta  Ta1022  1  0.63906200  0.97239533  0.39585292  1.0
  Ta  Ta1023  1  0.97239533  0.30572867  0.39585292  1.0
  Ta  Ta1024  1  0.97239533  0.63906200  0.39585292  1.0
  Ta  Ta1025  1  0.97239533  0.97239533  0.39585292  1.0
  Ta  Ta1026  1  0.02760467  0.02760467  0.39585292  1.0
  Ta  Ta1027  1  0.02760467  0.36093800  0.39585292  1.0
  Ta  Ta1028  1  0.02760467  0.69427133  0.39585292  1.0
  Ta  Ta1029  1  0.36093800  0.02760467  0.39585292  1.0
  Ta  Ta1030  1  0.36093800  0.36093800  0.39585292  1.0
  Ta  Ta1031  1  0.36093800  0.69427133  0.39585292  1.0
  Ta  Ta1032  1  0.69427133  0.02760467  0.39585292  1.0
  Ta  Ta1033  1  0.69427133  0.36093800  0.39585292  1.0
  Ta  Ta1034  1  0.69427133  0.69427133  0.39585292  1.0
  Ta  Ta1035  1  0.19461533  0.19461533  0.39585292  1.0
  Ta  Ta1036  1  0.19461533  0.52794867  0.39585292  1.0
  Ta  Ta1037  1  0.19461533  0.86128200  0.39585292  1.0
  Ta  Ta1038  1  0.52794867  0.19461533  0.39585292  1.0
  Ta  Ta1039  1  0.52794867  0.52794867  0.39585292  1.0
  Ta  Ta1040  1  0.52794867  0.86128200  0.39585292  1.0
  Ta  Ta1041  1  0.86128200  0.19461533  0.39585292  1.0
  Ta  Ta1042  1  0.86128200  0.52794867  0.39585292  1.0
  Ta  Ta1043  1  0.86128200  0.86128200  0.39585292  1.0
  Ta  Ta1044  1  0.16666667  0.16666667  0.39585292  1.0
  Ta  Ta1045  1  0.16666667  0.50000000  0.39585292  1.0
  Ta  Ta1046  1  0.16666667  0.83333333  0.39585292  1.0
  Ta  Ta1047  1  0.50000000  0.16666667  0.39585292  1.0
  Ta  Ta1048  1  0.50000000  0.50000000  0.39585292  1.0
  Ta  Ta1049  1  0.50000000  0.83333333  0.39585292  1.0
  Ta  Ta1050  1  0.83333333  0.16666667  0.39585292  1.0
  Ta  Ta1051  1  0.83333333  0.50000000  0.39585292  1.0
  Ta  Ta1052  1  0.83333333  0.83333333  0.39585292  1.0
  Ni  Ni1053  1  0.06827067  0.06827067  0.35414708  1.0
  Ni  Ni1054  1  0.06827067  0.40160400  0.35414708  1.0
  Ni  Ni1055  1  0.06827067  0.73493733  0.35414708  1.0
  Ni  Ni1056  1  0.40160400  0.06827067  0.35414708  1.0
  Ni  Ni1057  1  0.40160400  0.40160400  0.35414708  1.0
  Ni  Ni1058  1  0.40160400  0.73493733  0.35414708  1.0
  Ni  Ni1059  1  0.73493733  0.06827067  0.35414708  1.0
  Ni  Ni1060  1  0.73493733  0.40160400  0.35414708  1.0
  Ni  Ni1061  1  0.73493733  0.73493733  0.35414708  1.0
  Ni  Ni1062  1  0.23622633  0.23622633  0.35345200  1.0
  Ni  Ni1063  1  0.23622633  0.56955967  0.35345200  1.0
  Ni  Ni1064  1  0.23622633  0.90289300  0.35345200  1.0
  Ni  Ni1065  1  0.56955967  0.23622633  0.35345200  1.0
  Ni  Ni1066  1  0.56955967  0.56955967  0.35345200  1.0
  Ni  Ni1067  1  0.56955967  0.90289300  0.35345200  1.0
  Ni  Ni1068  1  0.90289300  0.23622633  0.35345200  1.0
  Ni  Ni1069  1  0.90289300  0.56955967  0.35345200  1.0
  Ni  Ni1070  1  0.90289300  0.90289300  0.35345200  1.0
  Ni  Ni1071  1  0.06827067  0.23478067  0.35422542  1.0
  Ni  Ni1072  1  0.06827067  0.56811400  0.35422542  1.0
  Ni  Ni1073  1  0.06827067  0.90144733  0.35422542  1.0
  Ni  Ni1074  1  0.40160400  0.23478067  0.35422542  1.0
  Ni  Ni1075  1  0.40160400  0.56811400  0.35422542  1.0
  Ni  Ni1076  1  0.40160400  0.90144733  0.35422542  1.0
  Ni  Ni1077  1  0.73493733  0.23478067  0.35422542  1.0
  Ni  Ni1078  1  0.73493733  0.56811400  0.35422542  1.0
  Ni  Ni1079  1  0.73493733  0.90144733  0.35422542  1.0
  Ni  Ni1080  1  0.23622633  0.06662267  0.35492050  1.0
  Ni  Ni1081  1  0.23622633  0.39995600  0.35492050  1.0
  Ni  Ni1082  1  0.23622633  0.73328933  0.35492050  1.0
  Ni  Ni1083  1  0.56955967  0.06662267  0.35492050  1.0
  Ni  Ni1084  1  0.56955967  0.39995600  0.35492050  1.0
  Ni  Ni1085  1  0.56955967  0.73328933  0.35492050  1.0
  Ni  Ni1086  1  0.90289300  0.06662267  0.35492050  1.0
  Ni  Ni1087  1  0.90289300  0.39995600  0.35492050  1.0
  Ni  Ni1088  1  0.90289300  0.73328933  0.35492050  1.0
  Ni  Ni1089  1  0.23478067  0.06827067  0.39585292  1.0
  Ni  Ni1090  1  0.23478067  0.40160400  0.39585292  1.0
  Ni  Ni1091  1  0.23478067  0.73493733  0.39585292  1.0
  Ni  Ni1092  1  0.56811400  0.06827067  0.39585292  1.0
  Ni  Ni1093  1  0.56811400  0.40160400  0.39585292  1.0
  Ni  Ni1094  1  0.56811400  0.73493733  0.39585292  1.0
  Ni  Ni1095  1  0.90144733  0.06827067  0.39585292  1.0
  Ni  Ni1096  1  0.90144733  0.40160400  0.39585292  1.0
  Ni  Ni1097  1  0.90144733  0.73493733  0.39585292  1.0
  Ni  Ni1098  1  0.06662267  0.23622633  0.39585292  1.0
  Ni  Ni1099  1  0.06662267  0.56955967  0.39585292  1.0
  Ni  Ni1100  1  0.06662267  0.90289300  0.39585292  1.0
  Ni  Ni1101  1  0.39995600  0.23622633  0.39585292  1.0
  Ni  Ni1102  1  0.39995600  0.56955967  0.39585292  1.0
  Ni  Ni1103  1  0.39995600  0.90289300  0.39585292  1.0
  Ni  Ni1104  1  0.73328933  0.23622633  0.39585292  1.0
  Ni  Ni1105  1  0.73328933  0.56955967  0.39585292  1.0
  Ni  Ni1106  1  0.73328933  0.90289300  0.39585292  1.0
  Ni  Ni1107  1  0.09710700  0.09710700  0.35492050  1.0
  Ni  Ni1108  1  0.09710700  0.43044033  0.35492050  1.0
  Ni  Ni1109  1  0.09710700  0.76377367  0.35492050  1.0
  Ni  Ni1110  1  0.43044033  0.09710700  0.35492050  1.0
  Ni  Ni1111  1  0.43044033  0.43044033  0.35492050  1.0
  Ni  Ni1112  1  0.43044033  0.76377367  0.35492050  1.0
  Ni  Ni1113  1  0.76377367  0.09710700  0.35492050  1.0
  Ni  Ni1114  1  0.76377367  0.43044033  0.35492050  1.0
  Ni  Ni1115  1  0.76377367  0.76377367  0.35492050  1.0
  Ni  Ni1116  1  0.26506267  0.26506267  0.35422542  1.0
  Ni  Ni1117  1  0.26506267  0.59839600  0.35422542  1.0
  Ni  Ni1118  1  0.26506267  0.93172933  0.35422542  1.0
  Ni  Ni1119  1  0.59839600  0.26506267  0.35422542  1.0
  Ni  Ni1120  1  0.59839600  0.59839600  0.35422542  1.0
  Ni  Ni1121  1  0.59839600  0.93172933  0.35422542  1.0
  Ni  Ni1122  1  0.93172933  0.26506267  0.35422542  1.0
  Ni  Ni1123  1  0.93172933  0.59839600  0.35422542  1.0
  Ni  Ni1124  1  0.93172933  0.93172933  0.35422542  1.0
  Ni  Ni1125  1  0.09710700  0.26671067  0.35345200  1.0
  Ni  Ni1126  1  0.09710700  0.60004400  0.35345200  1.0
  Ni  Ni1127  1  0.09710700  0.93337733  0.35345200  1.0
  Ni  Ni1128  1  0.43044033  0.26671067  0.35345200  1.0
  Ni  Ni1129  1  0.43044033  0.60004400  0.35345200  1.0
  Ni  Ni1130  1  0.43044033  0.93337733  0.35345200  1.0
  Ni  Ni1131  1  0.76377367  0.26671067  0.35345200  1.0
  Ni  Ni1132  1  0.76377367  0.60004400  0.35345200  1.0
  Ni  Ni1133  1  0.76377367  0.93337733  0.35345200  1.0
  Ni  Ni1134  1  0.26506267  0.09855267  0.35414708  1.0
  Ni  Ni1135  1  0.26506267  0.43188600  0.35414708  1.0
  Ni  Ni1136  1  0.26506267  0.76521933  0.35414708  1.0
  Ni  Ni1137  1  0.59839600  0.09855267  0.35414708  1.0
  Ni  Ni1138  1  0.59839600  0.43188600  0.35414708  1.0
  Ni  Ni1139  1  0.59839600  0.76521933  0.35414708  1.0
  Ni  Ni1140  1  0.93172933  0.09855267  0.35414708  1.0
  Ni  Ni1141  1  0.93172933  0.43188600  0.35414708  1.0
  Ni  Ni1142  1  0.93172933  0.76521933  0.35414708  1.0
  Ni  Ni1143  1  0.26671067  0.09710700  0.39585292  1.0
  Ni  Ni1144  1  0.26671067  0.43044033  0.39585292  1.0
  Ni  Ni1145  1  0.26671067  0.76377367  0.39585292  1.0
  Ni  Ni1146  1  0.60004400  0.09710700  0.39585292  1.0
  Ni  Ni1147  1  0.60004400  0.43044033  0.39585292  1.0
  Ni  Ni1148  1  0.60004400  0.76377367  0.39585292  1.0
  Ni  Ni1149  1  0.93337733  0.09710700  0.39585292  1.0
  Ni  Ni1150  1  0.93337733  0.43044033  0.39585292  1.0
  Ni  Ni1151  1  0.93337733  0.76377367  0.39585292  1.0
  Ni  Ni1152  1  0.09855267  0.26506267  0.39585292  1.0
  Ni  Ni1153  1  0.09855267  0.59839600  0.39585292  1.0
  Ni  Ni1154  1  0.09855267  0.93172933  0.39585292  1.0
  Ni  Ni1155  1  0.43188600  0.26506267  0.39585292  1.0
  Ni  Ni1156  1  0.43188600  0.59839600  0.39585292  1.0
  Ni  Ni1157  1  0.43188600  0.93172933  0.39585292  1.0
  Ni  Ni1158  1  0.76521933  0.26506267  0.39585292  1.0
  Ni  Ni1159  1  0.76521933  0.59839600  0.39585292  1.0
  Ni  Ni1160  1  0.76521933  0.93172933  0.39585292  1.0
  Ni  Ni1161  1  0.00000000  0.00000000  0.39585292  1.0
  Ni  Ni1162  1  0.00000000  0.33333333  0.39585292  1.0
  Ni  Ni1163  1  0.00000000  0.66666667  0.39585292  1.0
  Ni  Ni1164  1  0.33333333  0.00000000  0.39585292  1.0
  Ni  Ni1165  1  0.33333333  0.33333333  0.39585292  1.0
  Ni  Ni1166  1  0.33333333  0.66666667  0.39585292  1.0
  Ni  Ni1167  1  0.66666667  0.00000000  0.39585292  1.0
  Ni  Ni1168  1  0.66666667  0.33333333  0.39585292  1.0
  Ni  Ni1169  1  0.66666667  0.66666667  0.39585292  1.0
