# generated using pymatgen
data_TaNi3
_symmetry_space_group_name_H-M   'P 1'
_cell_length_a   30.10570777
_cell_length_b   30.97413356
_cell_length_c   29.09675500
_cell_angle_alpha   84.81901770
_cell_angle_beta   88.38406947
_cell_angle_gamma   66.70557294
_symmetry_Int_Tables_number   1
_chemical_formula_structural   TaNi3
_chemical_formula_sum   'Ta216 Ni648'
_cell_volume   24818.29517844
_cell_formula_units_Z   216
loop_
 _symmetry_equiv_pos_site_id
 _symmetry_equiv_pos_as_xyz
  1  'x, y, z'
loop_
 _atom_site_type_symbol
 _atom_site_label
 _atom_site_symmetry_multiplicity
 _atom_site_fract_x
 _atom_site_fract_y
 _atom_site_fract_z
 _atom_site_occupancy
  Ni  Ni0  1  0.03737438  0.00374962  0.94891136  1.0
  Ni  Ni1  1  0.03737438  0.33708295  0.94891136  1.0
  Ni  Ni2  1  0.03737438  0.67041629  0.94891136  1.0
  Ni  Ni3  1  0.37070771  0.00374962  0.94891136  1.0
  Ni  Ni4  1  0.37070771  0.33708295  0.94891136  1.0
  Ni  Ni5  1  0.37070771  0.67041629  0.94891136  1.0
  Ni  Ni6  1  0.70404105  0.00374962  0.94891136  1.0
  Ni  Ni7  1  0.70404105  0.33708295  0.94891136  1.0
  Ni  Ni8  1  0.70404105  0.67041629  0.94891136  1.0
  Ni  Ni9  1  0.22785057  0.14660676  0.87748279  1.0
  Ni  Ni10  1  0.22785057  0.47994010  0.87748279  1.0
  Ni  Ni11  1  0.22785057  0.81327343  0.87748279  1.0
  Ni  Ni12  1  0.56118390  0.14660676  0.87748279  1.0
  Ni  Ni13  1  0.56118390  0.47994010  0.87748279  1.0
  Ni  Ni14  1  0.56118390  0.81327343  0.87748279  1.0
  Ni  Ni15  1  0.89451724  0.14660676  0.87748279  1.0
  Ni  Ni16  1  0.89451724  0.47994010  0.87748279  1.0
  Ni  Ni17  1  0.89451724  0.81327343  0.87748279  1.0
  Ni  Ni18  1  0.06535895  0.05911105  0.98937714  1.0
  Ni  Ni19  1  0.06535895  0.39244438  0.98937714  1.0
  Ni  Ni20  1  0.06535895  0.72577771  0.98937714  1.0
  Ni  Ni21  1  0.39869229  0.05911105  0.98937714  1.0
  Ni  Ni22  1  0.39869229  0.39244438  0.98937714  1.0
  Ni  Ni23  1  0.39869229  0.72577771  0.98937714  1.0
  Ni  Ni24  1  0.73202562  0.05911105  0.98937714  1.0
  Ni  Ni25  1  0.73202562  0.39244438  0.98937714  1.0
  Ni  Ni26  1  0.73202562  0.72577771  0.98937714  1.0
  Ni  Ni27  1  0.25583514  0.20196819  0.91794857  1.0
  Ni  Ni28  1  0.25583514  0.53530152  0.91794857  1.0
  Ni  Ni29  1  0.25583514  0.86863486  0.91794857  1.0
  Ni  Ni30  1  0.58916848  0.20196819  0.91794857  1.0
  Ni  Ni31  1  0.58916848  0.53530152  0.91794857  1.0
  Ni  Ni32  1  0.58916848  0.86863486  0.91794857  1.0
  Ni  Ni33  1  0.92250181  0.20196819  0.91794857  1.0
  Ni  Ni34  1  0.92250181  0.53530152  0.91794857  1.0
  Ni  Ni35  1  0.92250181  0.86863486  0.91794857  1.0
  Ni  Ni36  1  0.02641871  0.01572462  0.85895886  1.0
  Ni  Ni37  1  0.02641871  0.34905795  0.85895886  1.0
  Ni  Ni38  1  0.02641871  0.68239129  0.85895886  1.0
  Ni  Ni39  1  0.35975205  0.01572462  0.85895886  1.0
  Ni  Ni40  1  0.35975205  0.34905795  0.85895886  1.0
  Ni  Ni41  1  0.35975205  0.68239129  0.85895886  1.0
  Ni  Ni42  1  0.69308538  0.01572462  0.85895886  1.0
  Ni  Ni43  1  0.69308538  0.34905795  0.85895886  1.0
  Ni  Ni44  1  0.69308538  0.68239129  0.85895886  1.0
  Ni  Ni45  1  0.16927586  0.20620081  0.93038743  1.0
  Ni  Ni46  1  0.16927586  0.53953414  0.93038743  1.0
  Ni  Ni47  1  0.16927586  0.87286748  0.93038743  1.0
  Ni  Ni48  1  0.50260919  0.20620081  0.93038743  1.0
  Ni  Ni49  1  0.50260919  0.53953414  0.93038743  1.0
  Ni  Ni50  1  0.50260919  0.87286748  0.93038743  1.0
  Ni  Ni51  1  0.83594252  0.20620081  0.93038743  1.0
  Ni  Ni52  1  0.83594252  0.53953414  0.93038743  1.0
  Ni  Ni53  1  0.83594252  0.87286748  0.93038743  1.0
  Ni  Ni54  1  0.05297381  0.15588952  0.90312257  1.0
  Ni  Ni55  1  0.05297381  0.48922286  0.90312257  1.0
  Ni  Ni56  1  0.05297381  0.82255619  0.90312257  1.0
  Ni  Ni57  1  0.38630714  0.15588952  0.90312257  1.0
  Ni  Ni58  1  0.38630714  0.48922286  0.90312257  1.0
  Ni  Ni59  1  0.38630714  0.82255619  0.90312257  1.0
  Ni  Ni60  1  0.71964048  0.15588952  0.90312257  1.0
  Ni  Ni61  1  0.71964048  0.48922286  0.90312257  1.0
  Ni  Ni62  1  0.71964048  0.82255619  0.90312257  1.0
  Ni  Ni63  1  0.19583095  0.01303238  0.97455114  1.0
  Ni  Ni64  1  0.19583095  0.34636571  0.97455114  1.0
  Ni  Ni65  1  0.19583095  0.67969905  0.97455114  1.0
  Ni  Ni66  1  0.52916429  0.01303238  0.97455114  1.0
  Ni  Ni67  1  0.52916429  0.34636571  0.97455114  1.0
  Ni  Ni68  1  0.52916429  0.67969905  0.97455114  1.0
  Ni  Ni69  1  0.86249762  0.01303238  0.97455114  1.0
  Ni  Ni70  1  0.86249762  0.34636571  0.97455114  1.0
  Ni  Ni71  1  0.86249762  0.67969905  0.97455114  1.0
  Ni  Ni72  1  0.06560943  0.14236590  0.99013471  1.0
  Ni  Ni73  1  0.06560943  0.47569924  0.99013471  1.0
  Ni  Ni74  1  0.06560943  0.80903257  0.99013471  1.0
  Ni  Ni75  1  0.39894276  0.14236590  0.99013471  1.0
  Ni  Ni76  1  0.39894276  0.47569924  0.99013471  1.0
  Ni  Ni77  1  0.39894276  0.80903257  0.99013471  1.0
  Ni  Ni78  1  0.73227610  0.14236590  0.99013471  1.0
  Ni  Ni79  1  0.73227610  0.47569924  0.99013471  1.0
  Ni  Ni80  1  0.73227610  0.80903257  0.99013471  1.0
  Ni  Ni81  1  0.25608562  0.28522305  0.91870614  1.0
  Ni  Ni82  1  0.25608562  0.61855638  0.91870614  1.0
  Ni  Ni83  1  0.25608562  0.95188971  0.91870614  1.0
  Ni  Ni84  1  0.58941895  0.28522305  0.91870614  1.0
  Ni  Ni85  1  0.58941895  0.61855638  0.91870614  1.0
  Ni  Ni86  1  0.58941895  0.95188971  0.91870614  1.0
  Ni  Ni87  1  0.92275229  0.28522305  0.91870614  1.0
  Ni  Ni88  1  0.92275229  0.61855638  0.91870614  1.0
  Ni  Ni89  1  0.92275229  0.95188971  0.91870614  1.0
  Ni  Ni90  1  0.29965143  0.07480590  0.91338321  1.0
  Ni  Ni91  1  0.29965143  0.40813924  0.91338321  1.0
  Ni  Ni92  1  0.29965143  0.74147257  0.91338321  1.0
  Ni  Ni93  1  0.63298476  0.07480590  0.91338321  1.0
  Ni  Ni94  1  0.63298476  0.40813924  0.91338321  1.0
  Ni  Ni95  1  0.63298476  0.74147257  0.91338321  1.0
  Ni  Ni96  1  0.96631810  0.07480590  0.91338321  1.0
  Ni  Ni97  1  0.96631810  0.40813924  0.91338321  1.0
  Ni  Ni98  1  0.96631810  0.74147257  0.91338321  1.0
  Ni  Ni99  1  0.10917524  0.26528210  0.98481179  1.0
  Ni  Ni100  1  0.10917524  0.59861543  0.98481179  1.0
  Ni  Ni101  1  0.10917524  0.93194876  0.98481179  1.0
  Ni  Ni102  1  0.44250857  0.26528210  0.98481179  1.0
  Ni  Ni103  1  0.44250857  0.59861543  0.98481179  1.0
  Ni  Ni104  1  0.44250857  0.93194876  0.98481179  1.0
  Ni  Ni105  1  0.77584190  0.26528210  0.98481179  1.0
  Ni  Ni106  1  0.77584190  0.59861543  0.98481179  1.0
  Ni  Ni107  1  0.77584190  0.93194876  0.98481179  1.0
  Ni  Ni108  1  0.31534295  0.14334838  0.86700814  1.0
  Ni  Ni109  1  0.31534295  0.47668171  0.86700814  1.0
  Ni  Ni110  1  0.31534295  0.81001505  0.86700814  1.0
  Ni  Ni111  1  0.64867629  0.14334838  0.86700814  1.0
  Ni  Ni112  1  0.64867629  0.47668171  0.86700814  1.0
  Ni  Ni113  1  0.64867629  0.81001505  0.86700814  1.0
  Ni  Ni114  1  0.98200962  0.14334838  0.86700814  1.0
  Ni  Ni115  1  0.98200962  0.47668171  0.86700814  1.0
  Ni  Ni116  1  0.98200962  0.81001505  0.86700814  1.0
  Ni  Ni117  1  0.12486676  0.00049124  0.93843671  1.0
  Ni  Ni118  1  0.12486676  0.33382457  0.93843671  1.0
  Ni  Ni119  1  0.12486676  0.66715790  0.93843671  1.0
  Ni  Ni120  1  0.45820010  0.00049124  0.93843671  1.0
  Ni  Ni121  1  0.45820010  0.33382457  0.93843671  1.0
  Ni  Ni122  1  0.45820010  0.66715790  0.93843671  1.0
  Ni  Ni123  1  0.79153343  0.00049124  0.93843671  1.0
  Ni  Ni124  1  0.79153343  0.33382457  0.93843671  1.0
  Ni  Ni125  1  0.79153343  0.66715790  0.93843671  1.0
  Ni  Ni126  1  0.01024467  0.28196467  0.90823150  1.0
  Ni  Ni127  1  0.01024467  0.61529800  0.90823150  1.0
  Ni  Ni128  1  0.01024467  0.94863133  0.90823150  1.0
  Ni  Ni129  1  0.34357800  0.28196467  0.90823150  1.0
  Ni  Ni130  1  0.34357800  0.61529800  0.90823150  1.0
  Ni  Ni131  1  0.34357800  0.94863133  0.90823150  1.0
  Ni  Ni132  1  0.67691133  0.28196467  0.90823150  1.0
  Ni  Ni133  1  0.67691133  0.61529800  0.90823150  1.0
  Ni  Ni134  1  0.67691133  0.94863133  0.90823150  1.0
  Ni  Ni135  1  0.15310181  0.13910752  0.97966007  1.0
  Ni  Ni136  1  0.15310181  0.47244086  0.97966007  1.0
  Ni  Ni137  1  0.15310181  0.80577419  0.97966007  1.0
  Ni  Ni138  1  0.48643514  0.13910752  0.97966007  1.0
  Ni  Ni139  1  0.48643514  0.47244086  0.97966007  1.0
  Ni  Ni140  1  0.48643514  0.80577419  0.97966007  1.0
  Ni  Ni141  1  0.81976848  0.13910752  0.97966007  1.0
  Ni  Ni142  1  0.81976848  0.47244086  0.97966007  1.0
  Ni  Ni143  1  0.81976848  0.80577419  0.97966007  1.0
  Ni  Ni144  1  0.08130095  0.21090838  0.94375964  1.0
  Ni  Ni145  1  0.08130095  0.54424171  0.94375964  1.0
  Ni  Ni146  1  0.08130095  0.87757505  0.94375964  1.0
  Ni  Ni147  1  0.41463429  0.21090838  0.94375964  1.0
  Ni  Ni148  1  0.41463429  0.54424171  0.94375964  1.0
  Ni  Ni149  1  0.41463429  0.87757505  0.94375964  1.0
  Ni  Ni150  1  0.74796762  0.21090838  0.94375964  1.0
  Ni  Ni151  1  0.74796762  0.54424171  0.94375964  1.0
  Ni  Ni152  1  0.74796762  0.87757505  0.94375964  1.0
  Ni  Ni153  1  0.27177714  0.02043219  0.87233107  1.0
  Ni  Ni154  1  0.27177714  0.35376552  0.87233107  1.0
  Ni  Ni155  1  0.27177714  0.68709886  0.87233107  1.0
  Ni  Ni156  1  0.60511048  0.02043219  0.87233107  1.0
  Ni  Ni157  1  0.60511048  0.35376552  0.87233107  1.0
  Ni  Ni158  1  0.60511048  0.68709886  0.87233107  1.0
  Ni  Ni159  1  0.93844381  0.02043219  0.87233107  1.0
  Ni  Ni160  1  0.93844381  0.35376552  0.87233107  1.0
  Ni  Ni161  1  0.93844381  0.68709886  0.87233107  1.0
  Ni  Ni162  1  0.31559343  0.22660324  0.86776571  1.0
  Ni  Ni163  1  0.31559343  0.55993657  0.86776571  1.0
  Ni  Ni164  1  0.31559343  0.89326990  0.86776571  1.0
  Ni  Ni165  1  0.64892676  0.22660324  0.86776571  1.0
  Ni  Ni166  1  0.64892676  0.55993657  0.86776571  1.0
  Ni  Ni167  1  0.64892676  0.89326990  0.86776571  1.0
  Ni  Ni168  1  0.98226010  0.22660324  0.86776571  1.0
  Ni  Ni169  1  0.98226010  0.55993657  0.86776571  1.0
  Ni  Ni170  1  0.98226010  0.89326990  0.86776571  1.0
  Ni  Ni171  1  0.12511724  0.08374610  0.93919429  1.0
  Ni  Ni172  1  0.12511724  0.41707943  0.93919429  1.0
  Ni  Ni173  1  0.12511724  0.75041276  0.93919429  1.0
  Ni  Ni174  1  0.45845057  0.08374610  0.93919429  1.0
  Ni  Ni175  1  0.45845057  0.41707943  0.93919429  1.0
  Ni  Ni176  1  0.45845057  0.75041276  0.93919429  1.0
  Ni  Ni177  1  0.79178390  0.08374610  0.93919429  1.0
  Ni  Ni178  1  0.79178390  0.41707943  0.93919429  1.0
  Ni  Ni179  1  0.79178390  0.75041276  0.93919429  1.0
  Ni  Ni180  1  0.02120033  0.26998967  0.99818400  1.0
  Ni  Ni181  1  0.02120033  0.60332300  0.99818400  1.0
  Ni  Ni182  1  0.02120033  0.93665633  0.99818400  1.0
  Ni  Ni183  1  0.35453367  0.26998967  0.99818400  1.0
  Ni  Ni184  1  0.35453367  0.60332300  0.99818400  1.0
  Ni  Ni185  1  0.35453367  0.93665633  0.99818400  1.0
  Ni  Ni186  1  0.68786700  0.26998967  0.99818400  1.0
  Ni  Ni187  1  0.68786700  0.60332300  0.99818400  1.0
  Ni  Ni188  1  0.68786700  0.93665633  0.99818400  1.0
  Ni  Ni189  1  0.21167652  0.07951348  0.92675543  1.0
  Ni  Ni190  1  0.21167652  0.41284681  0.92675543  1.0
  Ni  Ni191  1  0.21167652  0.74618014  0.92675543  1.0
  Ni  Ni192  1  0.54500986  0.07951348  0.92675543  1.0
  Ni  Ni193  1  0.54500986  0.41284681  0.92675543  1.0
  Ni  Ni194  1  0.54500986  0.74618014  0.92675543  1.0
  Ni  Ni195  1  0.87834319  0.07951348  0.92675543  1.0
  Ni  Ni196  1  0.87834319  0.41284681  0.92675543  1.0
  Ni  Ni197  1  0.87834319  0.74618014  0.92675543  1.0
  Ni  Ni198  1  0.32797857  0.12982476  0.95402029  1.0
  Ni  Ni199  1  0.32797857  0.46315810  0.95402029  1.0
  Ni  Ni200  1  0.32797857  0.79649143  0.95402029  1.0
  Ni  Ni201  1  0.66131190  0.12982476  0.95402029  1.0
  Ni  Ni202  1  0.66131190  0.46315810  0.95402029  1.0
  Ni  Ni203  1  0.66131190  0.79649143  0.95402029  1.0
  Ni  Ni204  1  0.99464524  0.12982476  0.95402029  1.0
  Ni  Ni205  1  0.99464524  0.46315810  0.95402029  1.0
  Ni  Ni206  1  0.99464524  0.79649143  0.95402029  1.0
  Ni  Ni207  1  0.18512143  0.27268190  0.88259171  1.0
  Ni  Ni208  1  0.18512143  0.60601524  0.88259171  1.0
  Ni  Ni209  1  0.18512143  0.93934857  0.88259171  1.0
  Ni  Ni210  1  0.51845476  0.27268190  0.88259171  1.0
  Ni  Ni211  1  0.51845476  0.60601524  0.88259171  1.0
  Ni  Ni212  1  0.51845476  0.93934857  0.88259171  1.0
  Ni  Ni213  1  0.85178810  0.27268190  0.88259171  1.0
  Ni  Ni214  1  0.85178810  0.60601524  0.88259171  1.0
  Ni  Ni215  1  0.85178810  0.93934857  0.88259171  1.0
  Ni  Ni216  1  0.08499343  0.28946390  0.80605421  1.0
  Ni  Ni217  1  0.08499343  0.62279724  0.80605421  1.0
  Ni  Ni218  1  0.08499343  0.95613057  0.80605421  1.0
  Ni  Ni219  1  0.41832676  0.28946390  0.80605421  1.0
  Ni  Ni220  1  0.41832676  0.62279724  0.80605421  1.0
  Ni  Ni221  1  0.41832676  0.95613057  0.80605421  1.0
  Ni  Ni222  1  0.75166010  0.28946390  0.80605421  1.0
  Ni  Ni223  1  0.75166010  0.62279724  0.80605421  1.0
  Ni  Ni224  1  0.75166010  0.95613057  0.80605421  1.0
  Ni  Ni225  1  0.27546962  0.09898771  0.73462564  1.0
  Ni  Ni226  1  0.27546962  0.43232105  0.73462564  1.0
  Ni  Ni227  1  0.27546962  0.76565438  0.73462564  1.0
  Ni  Ni228  1  0.60880295  0.09898771  0.73462564  1.0
  Ni  Ni229  1  0.60880295  0.43232105  0.73462564  1.0
  Ni  Ni230  1  0.60880295  0.76565438  0.73462564  1.0
  Ni  Ni231  1  0.94213629  0.09898771  0.73462564  1.0
  Ni  Ni232  1  0.94213629  0.43232105  0.73462564  1.0
  Ni  Ni233  1  0.94213629  0.76565438  0.73462564  1.0
  Ni  Ni234  1  0.11297800  0.01149200  0.84652000  1.0
  Ni  Ni235  1  0.11297800  0.34482533  0.84652000  1.0
  Ni  Ni236  1  0.11297800  0.67815867  0.84652000  1.0
  Ni  Ni237  1  0.44631133  0.01149200  0.84652000  1.0
  Ni  Ni238  1  0.44631133  0.34482533  0.84652000  1.0
  Ni  Ni239  1  0.44631133  0.67815867  0.84652000  1.0
  Ni  Ni240  1  0.77964467  0.01149200  0.84652000  1.0
  Ni  Ni241  1  0.77964467  0.34482533  0.84652000  1.0
  Ni  Ni242  1  0.77964467  0.67815867  0.84652000  1.0
  Ni  Ni243  1  0.30345419  0.15434914  0.77509143  1.0
  Ni  Ni244  1  0.30345419  0.48768248  0.77509143  1.0
  Ni  Ni245  1  0.30345419  0.82101581  0.77509143  1.0
  Ni  Ni246  1  0.63678752  0.15434914  0.77509143  1.0
  Ni  Ni247  1  0.63678752  0.48768248  0.77509143  1.0
  Ni  Ni248  1  0.63678752  0.82101581  0.77509143  1.0
  Ni  Ni249  1  0.97012086  0.15434914  0.77509143  1.0
  Ni  Ni250  1  0.97012086  0.48768248  0.77509143  1.0
  Ni  Ni251  1  0.97012086  0.82101581  0.77509143  1.0
  Ni  Ni252  1  0.07403776  0.30143890  0.71610171  1.0
  Ni  Ni253  1  0.07403776  0.63477224  0.71610171  1.0
  Ni  Ni254  1  0.07403776  0.96810557  0.71610171  1.0
  Ni  Ni255  1  0.40737110  0.30143890  0.71610171  1.0
  Ni  Ni256  1  0.40737110  0.63477224  0.71610171  1.0
  Ni  Ni257  1  0.40737110  0.96810557  0.71610171  1.0
  Ni  Ni258  1  0.74070443  0.30143890  0.71610171  1.0
  Ni  Ni259  1  0.74070443  0.63477224  0.71610171  1.0
  Ni  Ni260  1  0.74070443  0.96810557  0.71610171  1.0
  Ni  Ni261  1  0.21689490  0.15858176  0.78753029  1.0
  Ni  Ni262  1  0.21689490  0.49191510  0.78753029  1.0
  Ni  Ni263  1  0.21689490  0.82524843  0.78753029  1.0
  Ni  Ni264  1  0.55022824  0.15858176  0.78753029  1.0
  Ni  Ni265  1  0.55022824  0.49191510  0.78753029  1.0
  Ni  Ni266  1  0.55022824  0.82524843  0.78753029  1.0
  Ni  Ni267  1  0.88356157  0.15858176  0.78753029  1.0
  Ni  Ni268  1  0.88356157  0.49191510  0.78753029  1.0
  Ni  Ni269  1  0.88356157  0.82524843  0.78753029  1.0
  Ni  Ni270  1  0.10059286  0.10827048  0.76026543  1.0
  Ni  Ni271  1  0.10059286  0.44160381  0.76026543  1.0
  Ni  Ni272  1  0.10059286  0.77493714  0.76026543  1.0
  Ni  Ni273  1  0.43392619  0.10827048  0.76026543  1.0
  Ni  Ni274  1  0.43392619  0.44160381  0.76026543  1.0
  Ni  Ni275  1  0.43392619  0.77493714  0.76026543  1.0
  Ni  Ni276  1  0.76725952  0.10827048  0.76026543  1.0
  Ni  Ni277  1  0.76725952  0.44160381  0.76026543  1.0
  Ni  Ni278  1  0.76725952  0.77493714  0.76026543  1.0
  Ni  Ni279  1  0.24345000  0.29874667  0.83169400  1.0
  Ni  Ni280  1  0.24345000  0.63208000  0.83169400  1.0
  Ni  Ni281  1  0.24345000  0.96541333  0.83169400  1.0
  Ni  Ni282  1  0.57678333  0.29874667  0.83169400  1.0
  Ni  Ni283  1  0.57678333  0.63208000  0.83169400  1.0
  Ni  Ni284  1  0.57678333  0.96541333  0.83169400  1.0
  Ni  Ni285  1  0.91011667  0.29874667  0.83169400  1.0
  Ni  Ni286  1  0.91011667  0.63208000  0.83169400  1.0
  Ni  Ni287  1  0.91011667  0.96541333  0.83169400  1.0
  Ni  Ni288  1  0.11322848  0.09474686  0.84727757  1.0
  Ni  Ni289  1  0.11322848  0.42808019  0.84727757  1.0
  Ni  Ni290  1  0.11322848  0.76141352  0.84727757  1.0
  Ni  Ni291  1  0.44656181  0.09474686  0.84727757  1.0
  Ni  Ni292  1  0.44656181  0.42808019  0.84727757  1.0
  Ni  Ni293  1  0.44656181  0.76141352  0.84727757  1.0
  Ni  Ni294  1  0.77989514  0.09474686  0.84727757  1.0
  Ni  Ni295  1  0.77989514  0.42808019  0.84727757  1.0
  Ni  Ni296  1  0.77989514  0.76141352  0.84727757  1.0
  Ni  Ni297  1  0.30370467  0.23760400  0.77584900  1.0
  Ni  Ni298  1  0.30370467  0.57093733  0.77584900  1.0
  Ni  Ni299  1  0.30370467  0.90427067  0.77584900  1.0
  Ni  Ni300  1  0.63703800  0.23760400  0.77584900  1.0
  Ni  Ni301  1  0.63703800  0.57093733  0.77584900  1.0
  Ni  Ni302  1  0.63703800  0.90427067  0.77584900  1.0
  Ni  Ni303  1  0.97037133  0.23760400  0.77584900  1.0
  Ni  Ni304  1  0.97037133  0.57093733  0.77584900  1.0
  Ni  Ni305  1  0.97037133  0.90427067  0.77584900  1.0
  Ni  Ni306  1  0.01393714  0.02718686  0.77052607  1.0
  Ni  Ni307  1  0.01393714  0.36052019  0.77052607  1.0
  Ni  Ni308  1  0.01393714  0.69385352  0.77052607  1.0
  Ni  Ni309  1  0.34727048  0.02718686  0.77052607  1.0
  Ni  Ni310  1  0.34727048  0.36052019  0.77052607  1.0
  Ni  Ni311  1  0.34727048  0.69385352  0.77052607  1.0
  Ni  Ni312  1  0.68060381  0.02718686  0.77052607  1.0
  Ni  Ni313  1  0.68060381  0.36052019  0.77052607  1.0
  Ni  Ni314  1  0.68060381  0.69385352  0.77052607  1.0
  Ni  Ni315  1  0.15679429  0.21766305  0.84195464  1.0
  Ni  Ni316  1  0.15679429  0.55099638  0.84195464  1.0
  Ni  Ni317  1  0.15679429  0.88432971  0.84195464  1.0
  Ni  Ni318  1  0.49012762  0.21766305  0.84195464  1.0
  Ni  Ni319  1  0.49012762  0.55099638  0.84195464  1.0
  Ni  Ni320  1  0.49012762  0.88432971  0.84195464  1.0
  Ni  Ni321  1  0.82346095  0.21766305  0.84195464  1.0
  Ni  Ni322  1  0.82346095  0.55099638  0.84195464  1.0
  Ni  Ni323  1  0.82346095  0.88432971  0.84195464  1.0
  Ni  Ni324  1  0.02962867  0.09572933  0.72415100  1.0
  Ni  Ni325  1  0.02962867  0.42906267  0.72415100  1.0
  Ni  Ni326  1  0.02962867  0.76239600  0.72415100  1.0
  Ni  Ni327  1  0.36296200  0.09572933  0.72415100  1.0
  Ni  Ni328  1  0.36296200  0.42906267  0.72415100  1.0
  Ni  Ni329  1  0.36296200  0.76239600  0.72415100  1.0
  Ni  Ni330  1  0.69629533  0.09572933  0.72415100  1.0
  Ni  Ni331  1  0.69629533  0.42906267  0.72415100  1.0
  Ni  Ni332  1  0.69629533  0.76239600  0.72415100  1.0
  Ni  Ni333  1  0.17248581  0.28620552  0.79557957  1.0
  Ni  Ni334  1  0.17248581  0.61953886  0.79557957  1.0
  Ni  Ni335  1  0.17248581  0.95287219  0.79557957  1.0
  Ni  Ni336  1  0.50581914  0.28620552  0.79557957  1.0
  Ni  Ni337  1  0.50581914  0.61953886  0.79557957  1.0
  Ni  Ni338  1  0.50581914  0.95287219  0.79557957  1.0
  Ni  Ni339  1  0.83915248  0.28620552  0.79557957  1.0
  Ni  Ni340  1  0.83915248  0.61953886  0.79557957  1.0
  Ni  Ni341  1  0.83915248  0.95287219  0.79557957  1.0
  Ni  Ni342  1  0.05786371  0.23434562  0.76537436  1.0
  Ni  Ni343  1  0.05786371  0.56767895  0.76537436  1.0
  Ni  Ni344  1  0.05786371  0.90101229  0.76537436  1.0
  Ni  Ni345  1  0.39119705  0.23434562  0.76537436  1.0
  Ni  Ni346  1  0.39119705  0.56767895  0.76537436  1.0
  Ni  Ni347  1  0.39119705  0.90101229  0.76537436  1.0
  Ni  Ni348  1  0.72453038  0.23434562  0.76537436  1.0
  Ni  Ni349  1  0.72453038  0.56767895  0.76537436  1.0
  Ni  Ni350  1  0.72453038  0.90101229  0.76537436  1.0
  Ni  Ni351  1  0.20072086  0.09148848  0.83680293  1.0
  Ni  Ni352  1  0.20072086  0.42482181  0.83680293  1.0
  Ni  Ni353  1  0.20072086  0.75815514  0.83680293  1.0
  Ni  Ni354  1  0.53405419  0.09148848  0.83680293  1.0
  Ni  Ni355  1  0.53405419  0.42482181  0.83680293  1.0
  Ni  Ni356  1  0.53405419  0.75815514  0.83680293  1.0
  Ni  Ni357  1  0.86738752  0.09148848  0.83680293  1.0
  Ni  Ni358  1  0.86738752  0.42482181  0.83680293  1.0
  Ni  Ni359  1  0.86738752  0.75815514  0.83680293  1.0
  Ni  Ni360  1  0.12892000  0.16328933  0.80090250  1.0
  Ni  Ni361  1  0.12892000  0.49662267  0.80090250  1.0
  Ni  Ni362  1  0.12892000  0.82995600  0.80090250  1.0
  Ni  Ni363  1  0.46225333  0.16328933  0.80090250  1.0
  Ni  Ni364  1  0.46225333  0.49662267  0.80090250  1.0
  Ni  Ni365  1  0.46225333  0.82995600  0.80090250  1.0
  Ni  Ni366  1  0.79558667  0.16328933  0.80090250  1.0
  Ni  Ni367  1  0.79558667  0.49662267  0.80090250  1.0
  Ni  Ni368  1  0.79558667  0.82995600  0.80090250  1.0
  Ni  Ni369  1  0.31939619  0.30614648  0.72947393  1.0
  Ni  Ni370  1  0.31939619  0.63947981  0.72947393  1.0
  Ni  Ni371  1  0.31939619  0.97281314  0.72947393  1.0
  Ni  Ni372  1  0.65272952  0.30614648  0.72947393  1.0
  Ni  Ni373  1  0.65272952  0.63947981  0.72947393  1.0
  Ni  Ni374  1  0.65272952  0.97281314  0.72947393  1.0
  Ni  Ni375  1  0.98606286  0.30614648  0.72947393  1.0
  Ni  Ni376  1  0.98606286  0.63947981  0.72947393  1.0
  Ni  Ni377  1  0.98606286  0.97281314  0.72947393  1.0
  Ni  Ni378  1  0.02987914  0.17898419  0.72490857  1.0
  Ni  Ni379  1  0.02987914  0.51231752  0.72490857  1.0
  Ni  Ni380  1  0.02987914  0.84565086  0.72490857  1.0
  Ni  Ni381  1  0.36321248  0.17898419  0.72490857  1.0
  Ni  Ni382  1  0.36321248  0.51231752  0.72490857  1.0
  Ni  Ni383  1  0.36321248  0.84565086  0.72490857  1.0
  Ni  Ni384  1  0.69654581  0.17898419  0.72490857  1.0
  Ni  Ni385  1  0.69654581  0.51231752  0.72490857  1.0
  Ni  Ni386  1  0.69654581  0.84565086  0.72490857  1.0
  Ni  Ni387  1  0.17273629  0.03612705  0.79633714  1.0
  Ni  Ni388  1  0.17273629  0.36946038  0.79633714  1.0
  Ni  Ni389  1  0.17273629  0.70279371  0.79633714  1.0
  Ni  Ni390  1  0.50606962  0.03612705  0.79633714  1.0
  Ni  Ni391  1  0.50606962  0.36946038  0.79633714  1.0
  Ni  Ni392  1  0.50606962  0.70279371  0.79633714  1.0
  Ni  Ni393  1  0.83940295  0.03612705  0.79633714  1.0
  Ni  Ni394  1  0.83940295  0.36946038  0.79633714  1.0
  Ni  Ni395  1  0.83940295  0.70279371  0.79633714  1.0
  Ni  Ni396  1  0.06881938  0.22237062  0.85532686  1.0
  Ni  Ni397  1  0.06881938  0.55570395  0.85532686  1.0
  Ni  Ni398  1  0.06881938  0.88903729  0.85532686  1.0
  Ni  Ni399  1  0.40215271  0.22237062  0.85532686  1.0
  Ni  Ni400  1  0.40215271  0.55570395  0.85532686  1.0
  Ni  Ni401  1  0.40215271  0.88903729  0.85532686  1.0
  Ni  Ni402  1  0.73548605  0.22237062  0.85532686  1.0
  Ni  Ni403  1  0.73548605  0.55570395  0.85532686  1.0
  Ni  Ni404  1  0.73548605  0.88903729  0.85532686  1.0
  Ni  Ni405  1  0.25929557  0.03189443  0.78389829  1.0
  Ni  Ni406  1  0.25929557  0.36522776  0.78389829  1.0
  Ni  Ni407  1  0.25929557  0.69856110  0.78389829  1.0
  Ni  Ni408  1  0.59262890  0.03189443  0.78389829  1.0
  Ni  Ni409  1  0.59262890  0.36522776  0.78389829  1.0
  Ni  Ni410  1  0.59262890  0.69856110  0.78389829  1.0
  Ni  Ni411  1  0.92596224  0.03189443  0.78389829  1.0
  Ni  Ni412  1  0.92596224  0.36522776  0.78389829  1.0
  Ni  Ni413  1  0.92596224  0.69856110  0.78389829  1.0
  Ni  Ni414  1  0.04226429  0.08220571  0.81116314  1.0
  Ni  Ni415  1  0.04226429  0.41553905  0.81116314  1.0
  Ni  Ni416  1  0.04226429  0.74887238  0.81116314  1.0
  Ni  Ni417  1  0.37559762  0.08220571  0.81116314  1.0
  Ni  Ni418  1  0.37559762  0.41553905  0.81116314  1.0
  Ni  Ni419  1  0.37559762  0.74887238  0.81116314  1.0
  Ni  Ni420  1  0.70893095  0.08220571  0.81116314  1.0
  Ni  Ni421  1  0.70893095  0.41553905  0.81116314  1.0
  Ni  Ni422  1  0.70893095  0.74887238  0.81116314  1.0
  Ni  Ni423  1  0.23274048  0.22506286  0.73973457  1.0
  Ni  Ni424  1  0.23274048  0.55839619  0.73973457  1.0
  Ni  Ni425  1  0.23274048  0.89172952  0.73973457  1.0
  Ni  Ni426  1  0.56607381  0.22506286  0.73973457  1.0
  Ni  Ni427  1  0.56607381  0.55839619  0.73973457  1.0
  Ni  Ni428  1  0.56607381  0.89172952  0.73973457  1.0
  Ni  Ni429  1  0.89940714  0.22506286  0.73973457  1.0
  Ni  Ni430  1  0.89940714  0.55839619  0.73973457  1.0
  Ni  Ni431  1  0.89940714  0.89172952  0.73973457  1.0
  Ni  Ni432  1  0.13261248  0.24184486  0.66319707  1.0
  Ni  Ni433  1  0.13261248  0.57517819  0.66319707  1.0
  Ni  Ni434  1  0.13261248  0.90851152  0.66319707  1.0
  Ni  Ni435  1  0.46594581  0.24184486  0.66319707  1.0
  Ni  Ni436  1  0.46594581  0.57517819  0.66319707  1.0
  Ni  Ni437  1  0.46594581  0.90851152  0.66319707  1.0
  Ni  Ni438  1  0.79927914  0.24184486  0.66319707  1.0
  Ni  Ni439  1  0.79927914  0.57517819  0.66319707  1.0
  Ni  Ni440  1  0.79927914  0.90851152  0.66319707  1.0
  Ni  Ni441  1  0.32308867  0.05136867  0.59176850  1.0
  Ni  Ni442  1  0.32308867  0.38470200  0.59176850  1.0
  Ni  Ni443  1  0.32308867  0.71803533  0.59176850  1.0
  Ni  Ni444  1  0.65642200  0.05136867  0.59176850  1.0
  Ni  Ni445  1  0.65642200  0.38470200  0.59176850  1.0
  Ni  Ni446  1  0.65642200  0.71803533  0.59176850  1.0
  Ni  Ni447  1  0.98975533  0.05136867  0.59176850  1.0
  Ni  Ni448  1  0.98975533  0.38470200  0.59176850  1.0
  Ni  Ni449  1  0.98975533  0.71803533  0.59176850  1.0
  Ni  Ni450  1  0.16059705  0.29720629  0.70366286  1.0
  Ni  Ni451  1  0.16059705  0.63053962  0.70366286  1.0
  Ni  Ni452  1  0.16059705  0.96387295  0.70366286  1.0
  Ni  Ni453  1  0.49393038  0.29720629  0.70366286  1.0
  Ni  Ni454  1  0.49393038  0.63053962  0.70366286  1.0
  Ni  Ni455  1  0.49393038  0.96387295  0.70366286  1.0
  Ni  Ni456  1  0.82726371  0.29720629  0.70366286  1.0
  Ni  Ni457  1  0.82726371  0.63053962  0.70366286  1.0
  Ni  Ni458  1  0.82726371  0.96387295  0.70366286  1.0
  Ni  Ni459  1  0.01773990  0.10673010  0.63223429  1.0
  Ni  Ni460  1  0.01773990  0.44006343  0.63223429  1.0
  Ni  Ni461  1  0.01773990  0.77339676  0.63223429  1.0
  Ni  Ni462  1  0.35107324  0.10673010  0.63223429  1.0
  Ni  Ni463  1  0.35107324  0.44006343  0.63223429  1.0
  Ni  Ni464  1  0.35107324  0.77339676  0.63223429  1.0
  Ni  Ni465  1  0.68440657  0.10673010  0.63223429  1.0
  Ni  Ni466  1  0.68440657  0.44006343  0.63223429  1.0
  Ni  Ni467  1  0.68440657  0.77339676  0.63223429  1.0
  Ni  Ni468  1  0.12165681  0.25381986  0.57324457  1.0
  Ni  Ni469  1  0.12165681  0.58715319  0.57324457  1.0
  Ni  Ni470  1  0.12165681  0.92048652  0.57324457  1.0
  Ni  Ni471  1  0.45499014  0.25381986  0.57324457  1.0
  Ni  Ni472  1  0.45499014  0.58715319  0.57324457  1.0
  Ni  Ni473  1  0.45499014  0.92048652  0.57324457  1.0
  Ni  Ni474  1  0.78832348  0.25381986  0.57324457  1.0
  Ni  Ni475  1  0.78832348  0.58715319  0.57324457  1.0
  Ni  Ni476  1  0.78832348  0.92048652  0.57324457  1.0
  Ni  Ni477  1  0.26451395  0.11096271  0.64467314  1.0
  Ni  Ni478  1  0.26451395  0.44429605  0.64467314  1.0
  Ni  Ni479  1  0.26451395  0.77762938  0.64467314  1.0
  Ni  Ni480  1  0.59784729  0.11096271  0.64467314  1.0
  Ni  Ni481  1  0.59784729  0.44429605  0.64467314  1.0
  Ni  Ni482  1  0.59784729  0.77762938  0.64467314  1.0
  Ni  Ni483  1  0.93118062  0.11096271  0.64467314  1.0
  Ni  Ni484  1  0.93118062  0.44429605  0.64467314  1.0
  Ni  Ni485  1  0.93118062  0.77762938  0.64467314  1.0
  Ni  Ni486  1  0.14821190  0.06065143  0.61740829  1.0
  Ni  Ni487  1  0.14821190  0.39398476  0.61740829  1.0
  Ni  Ni488  1  0.14821190  0.72731810  0.61740829  1.0
  Ni  Ni489  1  0.48154524  0.06065143  0.61740829  1.0
  Ni  Ni490  1  0.48154524  0.39398476  0.61740829  1.0
  Ni  Ni491  1  0.48154524  0.72731810  0.61740829  1.0
  Ni  Ni492  1  0.81487857  0.06065143  0.61740829  1.0
  Ni  Ni493  1  0.81487857  0.39398476  0.61740829  1.0
  Ni  Ni494  1  0.81487857  0.72731810  0.61740829  1.0
  Ni  Ni495  1  0.29106905  0.25112762  0.68883686  1.0
  Ni  Ni496  1  0.29106905  0.58446095  0.68883686  1.0
  Ni  Ni497  1  0.29106905  0.91779429  0.68883686  1.0
  Ni  Ni498  1  0.62440238  0.25112762  0.68883686  1.0
  Ni  Ni499  1  0.62440238  0.58446095  0.68883686  1.0
  Ni  Ni500  1  0.62440238  0.91779429  0.68883686  1.0
  Ni  Ni501  1  0.95773571  0.25112762  0.68883686  1.0
  Ni  Ni502  1  0.95773571  0.58446095  0.68883686  1.0
  Ni  Ni503  1  0.95773571  0.91779429  0.68883686  1.0
  Ni  Ni504  1  0.16084752  0.04712781  0.70442043  1.0
  Ni  Ni505  1  0.16084752  0.38046114  0.70442043  1.0
  Ni  Ni506  1  0.16084752  0.71379448  0.70442043  1.0
  Ni  Ni507  1  0.49418086  0.04712781  0.70442043  1.0
  Ni  Ni508  1  0.49418086  0.38046114  0.70442043  1.0
  Ni  Ni509  1  0.49418086  0.71379448  0.70442043  1.0
  Ni  Ni510  1  0.82751419  0.04712781  0.70442043  1.0
  Ni  Ni511  1  0.82751419  0.38046114  0.70442043  1.0
  Ni  Ni512  1  0.82751419  0.71379448  0.70442043  1.0
  Ni  Ni513  1  0.01799038  0.18998495  0.63299186  1.0
  Ni  Ni514  1  0.01799038  0.52331829  0.63299186  1.0
  Ni  Ni515  1  0.01799038  0.85665162  0.63299186  1.0
  Ni  Ni516  1  0.35132371  0.18998495  0.63299186  1.0
  Ni  Ni517  1  0.35132371  0.52331829  0.63299186  1.0
  Ni  Ni518  1  0.35132371  0.85665162  0.63299186  1.0
  Ni  Ni519  1  0.68465705  0.18998495  0.63299186  1.0
  Ni  Ni520  1  0.68465705  0.52331829  0.63299186  1.0
  Ni  Ni521  1  0.68465705  0.85665162  0.63299186  1.0
  Ni  Ni522  1  0.06155619  0.31290114  0.62766893  1.0
  Ni  Ni523  1  0.06155619  0.64623448  0.62766893  1.0
  Ni  Ni524  1  0.06155619  0.97956781  0.62766893  1.0
  Ni  Ni525  1  0.39488952  0.31290114  0.62766893  1.0
  Ni  Ni526  1  0.39488952  0.64623448  0.62766893  1.0
  Ni  Ni527  1  0.39488952  0.97956781  0.62766893  1.0
  Ni  Ni528  1  0.72822286  0.31290114  0.62766893  1.0
  Ni  Ni529  1  0.72822286  0.64623448  0.62766893  1.0
  Ni  Ni530  1  0.72822286  0.97956781  0.62766893  1.0
  Ni  Ni531  1  0.20441333  0.17004400  0.69909750  1.0
  Ni  Ni532  1  0.20441333  0.50337733  0.69909750  1.0
  Ni  Ni533  1  0.20441333  0.83671067  0.69909750  1.0
  Ni  Ni534  1  0.53774667  0.17004400  0.69909750  1.0
  Ni  Ni535  1  0.53774667  0.50337733  0.69909750  1.0
  Ni  Ni536  1  0.53774667  0.83671067  0.69909750  1.0
  Ni  Ni537  1  0.87108000  0.17004400  0.69909750  1.0
  Ni  Ni538  1  0.87108000  0.50337733  0.69909750  1.0
  Ni  Ni539  1  0.87108000  0.83671067  0.69909750  1.0
  Ni  Ni540  1  0.07724771  0.04811029  0.58129386  1.0
  Ni  Ni541  1  0.07724771  0.38144362  0.58129386  1.0
  Ni  Ni542  1  0.07724771  0.71477695  0.58129386  1.0
  Ni  Ni543  1  0.41058105  0.04811029  0.58129386  1.0
  Ni  Ni544  1  0.41058105  0.38144362  0.58129386  1.0
  Ni  Ni545  1  0.41058105  0.71477695  0.58129386  1.0
  Ni  Ni546  1  0.74391438  0.04811029  0.58129386  1.0
  Ni  Ni547  1  0.74391438  0.38144362  0.58129386  1.0
  Ni  Ni548  1  0.74391438  0.71477695  0.58129386  1.0
  Ni  Ni549  1  0.22010486  0.23858648  0.65272243  1.0
  Ni  Ni550  1  0.22010486  0.57191981  0.65272243  1.0
  Ni  Ni551  1  0.22010486  0.90525314  0.65272243  1.0
  Ni  Ni552  1  0.55343819  0.23858648  0.65272243  1.0
  Ni  Ni553  1  0.55343819  0.57191981  0.65272243  1.0
  Ni  Ni554  1  0.55343819  0.90525314  0.65272243  1.0
  Ni  Ni555  1  0.88677152  0.23858648  0.65272243  1.0
  Ni  Ni556  1  0.88677152  0.57191981  0.65272243  1.0
  Ni  Ni557  1  0.88677152  0.90525314  0.65272243  1.0
  Ni  Ni558  1  0.10548276  0.18672657  0.62251721  1.0
  Ni  Ni559  1  0.10548276  0.52005990  0.62251721  1.0
  Ni  Ni560  1  0.10548276  0.85339324  0.62251721  1.0
  Ni  Ni561  1  0.43881610  0.18672657  0.62251721  1.0
  Ni  Ni562  1  0.43881610  0.52005990  0.62251721  1.0
  Ni  Ni563  1  0.43881610  0.85339324  0.62251721  1.0
  Ni  Ni564  1  0.77214943  0.18672657  0.62251721  1.0
  Ni  Ni565  1  0.77214943  0.52005990  0.62251721  1.0
  Ni  Ni566  1  0.77214943  0.85339324  0.62251721  1.0
  Ni  Ni567  1  0.24833990  0.04386943  0.69394579  1.0
  Ni  Ni568  1  0.24833990  0.37720276  0.69394579  1.0
  Ni  Ni569  1  0.24833990  0.71053610  0.69394579  1.0
  Ni  Ni570  1  0.58167324  0.04386943  0.69394579  1.0
  Ni  Ni571  1  0.58167324  0.37720276  0.69394579  1.0
  Ni  Ni572  1  0.58167324  0.71053610  0.69394579  1.0
  Ni  Ni573  1  0.91500657  0.04386943  0.69394579  1.0
  Ni  Ni574  1  0.91500657  0.37720276  0.69394579  1.0
  Ni  Ni575  1  0.91500657  0.71053610  0.69394579  1.0
  Ni  Ni576  1  0.17653905  0.11567029  0.65804536  1.0
  Ni  Ni577  1  0.17653905  0.44900362  0.65804536  1.0
  Ni  Ni578  1  0.17653905  0.78233695  0.65804536  1.0
  Ni  Ni579  1  0.50987238  0.11567029  0.65804536  1.0
  Ni  Ni580  1  0.50987238  0.44900362  0.65804536  1.0
  Ni  Ni581  1  0.50987238  0.78233695  0.65804536  1.0
  Ni  Ni582  1  0.84320571  0.11567029  0.65804536  1.0
  Ni  Ni583  1  0.84320571  0.44900362  0.65804536  1.0
  Ni  Ni584  1  0.84320571  0.78233695  0.65804536  1.0
  Ni  Ni585  1  0.03368190  0.25852743  0.58661679  1.0
  Ni  Ni586  1  0.03368190  0.59186076  0.58661679  1.0
  Ni  Ni587  1  0.03368190  0.92519410  0.58661679  1.0
  Ni  Ni588  1  0.36701524  0.25852743  0.58661679  1.0
  Ni  Ni589  1  0.36701524  0.59186076  0.58661679  1.0
  Ni  Ni590  1  0.36701524  0.92519410  0.58661679  1.0
  Ni  Ni591  1  0.70034857  0.25852743  0.58661679  1.0
  Ni  Ni592  1  0.70034857  0.59186076  0.58661679  1.0
  Ni  Ni593  1  0.70034857  0.92519410  0.58661679  1.0
  Ni  Ni594  1  0.07749819  0.13136514  0.58205143  1.0
  Ni  Ni595  1  0.07749819  0.46469848  0.58205143  1.0
  Ni  Ni596  1  0.07749819  0.79803181  0.58205143  1.0
  Ni  Ni597  1  0.41083152  0.13136514  0.58205143  1.0
  Ni  Ni598  1  0.41083152  0.46469848  0.58205143  1.0
  Ni  Ni599  1  0.41083152  0.79803181  0.58205143  1.0
  Ni  Ni600  1  0.74416486  0.13136514  0.58205143  1.0
  Ni  Ni601  1  0.74416486  0.46469848  0.58205143  1.0
  Ni  Ni602  1  0.74416486  0.79803181  0.58205143  1.0
  Ni  Ni603  1  0.22035533  0.32184133  0.65348000  1.0
  Ni  Ni604  1  0.22035533  0.65517467  0.65348000  1.0
  Ni  Ni605  1  0.22035533  0.98850800  0.65348000  1.0
  Ni  Ni606  1  0.55368867  0.32184133  0.65348000  1.0
  Ni  Ni607  1  0.55368867  0.65517467  0.65348000  1.0
  Ni  Ni608  1  0.55368867  0.98850800  0.65348000  1.0
  Ni  Ni609  1  0.88702200  0.32184133  0.65348000  1.0
  Ni  Ni610  1  0.88702200  0.65517467  0.65348000  1.0
  Ni  Ni611  1  0.88702200  0.98850800  0.65348000  1.0
  Ni  Ni612  1  0.11643843  0.17475157  0.71246971  1.0
  Ni  Ni613  1  0.11643843  0.50808490  0.71246971  1.0
  Ni  Ni614  1  0.11643843  0.84141824  0.71246971  1.0
  Ni  Ni615  1  0.44977176  0.17475157  0.71246971  1.0
  Ni  Ni616  1  0.44977176  0.50808490  0.71246971  1.0
  Ni  Ni617  1  0.44977176  0.84141824  0.71246971  1.0
  Ni  Ni618  1  0.78310510  0.17475157  0.71246971  1.0
  Ni  Ni619  1  0.78310510  0.50808490  0.71246971  1.0
  Ni  Ni620  1  0.78310510  0.84141824  0.71246971  1.0
  Ni  Ni621  1  0.30691462  0.31760871  0.64104114  1.0
  Ni  Ni622  1  0.30691462  0.65094205  0.64104114  1.0
  Ni  Ni623  1  0.30691462  0.98427538  0.64104114  1.0
  Ni  Ni624  1  0.64024795  0.31760871  0.64104114  1.0
  Ni  Ni625  1  0.64024795  0.65094205  0.64104114  1.0
  Ni  Ni626  1  0.64024795  0.98427538  0.64104114  1.0
  Ni  Ni627  1  0.97358129  0.31760871  0.64104114  1.0
  Ni  Ni628  1  0.97358129  0.65094205  0.64104114  1.0
  Ni  Ni629  1  0.97358129  0.98427538  0.64104114  1.0
  Ni  Ni630  1  0.08988333  0.03458667  0.66830600  1.0
  Ni  Ni631  1  0.08988333  0.36792000  0.66830600  1.0
  Ni  Ni632  1  0.08988333  0.70125333  0.66830600  1.0
  Ni  Ni633  1  0.42321667  0.03458667  0.66830600  1.0
  Ni  Ni634  1  0.42321667  0.36792000  0.66830600  1.0
  Ni  Ni635  1  0.42321667  0.70125333  0.66830600  1.0
  Ni  Ni636  1  0.75655000  0.03458667  0.66830600  1.0
  Ni  Ni637  1  0.75655000  0.36792000  0.66830600  1.0
  Ni  Ni638  1  0.75655000  0.70125333  0.66830600  1.0
  Ni  Ni639  1  0.28035952  0.17744381  0.59687743  1.0
  Ni  Ni640  1  0.28035952  0.51077714  0.59687743  1.0
  Ni  Ni641  1  0.28035952  0.84411048  0.59687743  1.0
  Ni  Ni642  1  0.61369286  0.17744381  0.59687743  1.0
  Ni  Ni643  1  0.61369286  0.51077714  0.59687743  1.0
  Ni  Ni644  1  0.61369286  0.84411048  0.59687743  1.0
  Ni  Ni645  1  0.94702619  0.17744381  0.59687743  1.0
  Ni  Ni646  1  0.94702619  0.51077714  0.59687743  1.0
  Ni  Ni647  1  0.94702619  0.84411048  0.59687743  1.0
  Ta  Ta648  1  0.05479862  0.07125271  0.89968114  1.0
  Ta  Ta649  1  0.05479862  0.40458605  0.89968114  1.0
  Ta  Ta650  1  0.05479862  0.73791938  0.89968114  1.0
  Ta  Ta651  1  0.38813195  0.07125271  0.89968114  1.0
  Ta  Ta652  1  0.38813195  0.40458605  0.89968114  1.0
  Ta  Ta653  1  0.38813195  0.73791938  0.89968114  1.0
  Ta  Ta654  1  0.72146529  0.07125271  0.89968114  1.0
  Ta  Ta655  1  0.72146529  0.40458605  0.89968114  1.0
  Ta  Ta656  1  0.72146529  0.73791938  0.89968114  1.0
  Ta  Ta657  1  0.19765576  0.26172890  0.97110971  1.0
  Ta  Ta658  1  0.19765576  0.59506224  0.97110971  1.0
  Ta  Ta659  1  0.19765576  0.92839557  0.97110971  1.0
  Ta  Ta660  1  0.53098910  0.26172890  0.97110971  1.0
  Ta  Ta661  1  0.53098910  0.59506224  0.97110971  1.0
  Ta  Ta662  1  0.53098910  0.92839557  0.97110971  1.0
  Ta  Ta663  1  0.86432243  0.26172890  0.97110971  1.0
  Ta  Ta664  1  0.86432243  0.59506224  0.97110971  1.0
  Ta  Ta665  1  0.86432243  0.92839557  0.97110971  1.0
  Ta  Ta666  1  0.32615376  0.21446157  0.95746171  1.0
  Ta  Ta667  1  0.32615376  0.54779490  0.95746171  1.0
  Ta  Ta668  1  0.32615376  0.88112824  0.95746171  1.0
  Ta  Ta669  1  0.65948710  0.21446157  0.95746171  1.0
  Ta  Ta670  1  0.65948710  0.54779490  0.95746171  1.0
  Ta  Ta671  1  0.65948710  0.88112824  0.95746171  1.0
  Ta  Ta672  1  0.99282043  0.21446157  0.95746171  1.0
  Ta  Ta673  1  0.99282043  0.54779490  0.95746171  1.0
  Ta  Ta674  1  0.99282043  0.88112824  0.95746171  1.0
  Ta  Ta675  1  0.18329662  0.02398538  0.88603314  1.0
  Ta  Ta676  1  0.18329662  0.35731871  0.88603314  1.0
  Ta  Ta677  1  0.18329662  0.69065205  0.88603314  1.0
  Ta  Ta678  1  0.51662995  0.02398538  0.88603314  1.0
  Ta  Ta679  1  0.51662995  0.35731871  0.88603314  1.0
  Ta  Ta680  1  0.51662995  0.69065205  0.88603314  1.0
  Ta  Ta681  1  0.84996329  0.02398538  0.88603314  1.0
  Ta  Ta682  1  0.84996329  0.35731871  0.88603314  1.0
  Ta  Ta683  1  0.84996329  0.69065205  0.88603314  1.0
  Ta  Ta684  1  0.14044381  0.15035652  0.88986907  1.0
  Ta  Ta685  1  0.14044381  0.48368986  0.88986907  1.0
  Ta  Ta686  1  0.14044381  0.81702319  0.88986907  1.0
  Ta  Ta687  1  0.47377714  0.15035652  0.88986907  1.0
  Ta  Ta688  1  0.47377714  0.48368986  0.88986907  1.0
  Ta  Ta689  1  0.47377714  0.81702319  0.88986907  1.0
  Ta  Ta690  1  0.80711048  0.15035652  0.88986907  1.0
  Ta  Ta691  1  0.80711048  0.48368986  0.88986907  1.0
  Ta  Ta692  1  0.80711048  0.81702319  0.88986907  1.0
  Ta  Ta693  1  0.28330095  0.00749938  0.96129764  1.0
  Ta  Ta694  1  0.28330095  0.34083271  0.96129764  1.0
  Ta  Ta695  1  0.28330095  0.67416605  0.96129764  1.0
  Ta  Ta696  1  0.61663429  0.00749938  0.96129764  1.0
  Ta  Ta697  1  0.61663429  0.34083271  0.96129764  1.0
  Ta  Ta698  1  0.61663429  0.67416605  0.96129764  1.0
  Ta  Ta699  1  0.94996762  0.00749938  0.96129764  1.0
  Ta  Ta700  1  0.94996762  0.34083271  0.96129764  1.0
  Ta  Ta701  1  0.94996762  0.67416605  0.96129764  1.0
  Ta  Ta702  1  0.24050857  0.13535776  0.96727379  1.0
  Ta  Ta703  1  0.24050857  0.46869110  0.96727379  1.0
  Ta  Ta704  1  0.24050857  0.80202443  0.96727379  1.0
  Ta  Ta705  1  0.57384190  0.13535776  0.96727379  1.0
  Ta  Ta706  1  0.57384190  0.46869110  0.96727379  1.0
  Ta  Ta707  1  0.57384190  0.80202443  0.96727379  1.0
  Ta  Ta708  1  0.90717524  0.13535776  0.96727379  1.0
  Ta  Ta709  1  0.90717524  0.46869110  0.96727379  1.0
  Ta  Ta710  1  0.90717524  0.80202443  0.96727379  1.0
  Ta  Ta711  1  0.09765143  0.27821490  0.89584521  1.0
  Ta  Ta712  1  0.09765143  0.61154824  0.89584521  1.0
  Ta  Ta713  1  0.09765143  0.94488157  0.89584521  1.0
  Ta  Ta714  1  0.43098476  0.27821490  0.89584521  1.0
  Ta  Ta715  1  0.43098476  0.61154824  0.89584521  1.0
  Ta  Ta716  1  0.43098476  0.94488157  0.89584521  1.0
  Ta  Ta717  1  0.76431810  0.27821490  0.89584521  1.0
  Ta  Ta718  1  0.76431810  0.61154824  0.89584521  1.0
  Ta  Ta719  1  0.76431810  0.94488157  0.89584521  1.0
  Ta  Ta720  1  0.10241767  0.02363367  0.75682400  1.0
  Ta  Ta721  1  0.10241767  0.35696700  0.75682400  1.0
  Ta  Ta722  1  0.10241767  0.69030033  0.75682400  1.0
  Ta  Ta723  1  0.43575100  0.02363367  0.75682400  1.0
  Ta  Ta724  1  0.43575100  0.35696700  0.75682400  1.0
  Ta  Ta725  1  0.43575100  0.69030033  0.75682400  1.0
  Ta  Ta726  1  0.76908433  0.02363367  0.75682400  1.0
  Ta  Ta727  1  0.76908433  0.35696700  0.75682400  1.0
  Ta  Ta728  1  0.76908433  0.69030033  0.75682400  1.0
  Ta  Ta729  1  0.24527481  0.21410986  0.82825257  1.0
  Ta  Ta730  1  0.24527481  0.54744319  0.82825257  1.0
  Ta  Ta731  1  0.24527481  0.88077652  0.82825257  1.0
  Ta  Ta732  1  0.57860814  0.21410986  0.82825257  1.0
  Ta  Ta733  1  0.57860814  0.54744319  0.82825257  1.0
  Ta  Ta734  1  0.57860814  0.88077652  0.82825257  1.0
  Ta  Ta735  1  0.91194148  0.21410986  0.82825257  1.0
  Ta  Ta736  1  0.91194148  0.54744319  0.82825257  1.0
  Ta  Ta737  1  0.91194148  0.88077652  0.82825257  1.0
  Ta  Ta738  1  0.04043948  0.16684252  0.81460457  1.0
  Ta  Ta739  1  0.04043948  0.50017586  0.81460457  1.0
  Ta  Ta740  1  0.04043948  0.83350919  0.81460457  1.0
  Ta  Ta741  1  0.37377281  0.16684252  0.81460457  1.0
  Ta  Ta742  1  0.37377281  0.50017586  0.81460457  1.0
  Ta  Ta743  1  0.37377281  0.83350919  0.81460457  1.0
  Ta  Ta744  1  0.70710614  0.16684252  0.81460457  1.0
  Ta  Ta745  1  0.70710614  0.50017586  0.81460457  1.0
  Ta  Ta746  1  0.70710614  0.83350919  0.81460457  1.0
  Ta  Ta747  1  0.23091567  0.30969967  0.74317600  1.0
  Ta  Ta748  1  0.23091567  0.64303300  0.74317600  1.0
  Ta  Ta749  1  0.23091567  0.97636633  0.74317600  1.0
  Ta  Ta750  1  0.56424900  0.30969967  0.74317600  1.0
  Ta  Ta751  1  0.56424900  0.64303300  0.74317600  1.0
  Ta  Ta752  1  0.56424900  0.97636633  0.74317600  1.0
  Ta  Ta753  1  0.89758233  0.30969967  0.74317600  1.0
  Ta  Ta754  1  0.89758233  0.64303300  0.74317600  1.0
  Ta  Ta755  1  0.89758233  0.97636633  0.74317600  1.0
  Ta  Ta756  1  0.18806286  0.10273748  0.74701193  1.0
  Ta  Ta757  1  0.18806286  0.43607081  0.74701193  1.0
  Ta  Ta758  1  0.18806286  0.76940414  0.74701193  1.0
  Ta  Ta759  1  0.52139619  0.10273748  0.74701193  1.0
  Ta  Ta760  1  0.52139619  0.43607081  0.74701193  1.0
  Ta  Ta761  1  0.52139619  0.76940414  0.74701193  1.0
  Ta  Ta762  1  0.85472952  0.10273748  0.74701193  1.0
  Ta  Ta763  1  0.85472952  0.43607081  0.74701193  1.0
  Ta  Ta764  1  0.85472952  0.76940414  0.74701193  1.0
  Ta  Ta765  1  0.33092000  0.29321367  0.81844050  1.0
  Ta  Ta766  1  0.33092000  0.62654700  0.81844050  1.0
  Ta  Ta767  1  0.33092000  0.95988033  0.81844050  1.0
  Ta  Ta768  1  0.66425333  0.29321367  0.81844050  1.0
  Ta  Ta769  1  0.66425333  0.62654700  0.81844050  1.0
  Ta  Ta770  1  0.66425333  0.95988033  0.81844050  1.0
  Ta  Ta771  1  0.99758667  0.29321367  0.81844050  1.0
  Ta  Ta772  1  0.99758667  0.62654700  0.81844050  1.0
  Ta  Ta773  1  0.99758667  0.95988033  0.81844050  1.0
  Ta  Ta774  1  0.28812762  0.08773871  0.82441664  1.0
  Ta  Ta775  1  0.28812762  0.42107205  0.82441664  1.0
  Ta  Ta776  1  0.28812762  0.75440538  0.82441664  1.0
  Ta  Ta777  1  0.62146095  0.08773871  0.82441664  1.0
  Ta  Ta778  1  0.62146095  0.42107205  0.82441664  1.0
  Ta  Ta779  1  0.62146095  0.75440538  0.82441664  1.0
  Ta  Ta780  1  0.95479429  0.08773871  0.82441664  1.0
  Ta  Ta781  1  0.95479429  0.42107205  0.82441664  1.0
  Ta  Ta782  1  0.95479429  0.75440538  0.82441664  1.0
  Ta  Ta783  1  0.14527048  0.23059586  0.75298807  1.0
  Ta  Ta784  1  0.14527048  0.56392919  0.75298807  1.0
  Ta  Ta785  1  0.14527048  0.89726252  0.75298807  1.0
  Ta  Ta786  1  0.47860381  0.23059586  0.75298807  1.0
  Ta  Ta787  1  0.47860381  0.56392919  0.75298807  1.0
  Ta  Ta788  1  0.47860381  0.89726252  0.75298807  1.0
  Ta  Ta789  1  0.81193714  0.23059586  0.75298807  1.0
  Ta  Ta790  1  0.81193714  0.56392919  0.75298807  1.0
  Ta  Ta791  1  0.81193714  0.89726252  0.75298807  1.0
  Ta  Ta792  1  0.15003671  0.30934795  0.61396686  1.0
  Ta  Ta793  1  0.15003671  0.64268129  0.61396686  1.0
  Ta  Ta794  1  0.15003671  0.97601462  0.61396686  1.0
  Ta  Ta795  1  0.48337005  0.30934795  0.61396686  1.0
  Ta  Ta796  1  0.48337005  0.64268129  0.61396686  1.0
  Ta  Ta797  1  0.48337005  0.97601462  0.61396686  1.0
  Ta  Ta798  1  0.81670338  0.30934795  0.61396686  1.0
  Ta  Ta799  1  0.81670338  0.64268129  0.61396686  1.0
  Ta  Ta800  1  0.81670338  0.97601462  0.61396686  1.0
  Ta  Ta801  1  0.29289386  0.16649081  0.68539543  1.0
  Ta  Ta802  1  0.29289386  0.49982414  0.68539543  1.0
  Ta  Ta803  1  0.29289386  0.83315748  0.68539543  1.0
  Ta  Ta804  1  0.62622719  0.16649081  0.68539543  1.0
  Ta  Ta805  1  0.62622719  0.49982414  0.68539543  1.0
  Ta  Ta806  1  0.62622719  0.83315748  0.68539543  1.0
  Ta  Ta807  1  0.95956052  0.16649081  0.68539543  1.0
  Ta  Ta808  1  0.95956052  0.49982414  0.68539543  1.0
  Ta  Ta809  1  0.95956052  0.83315748  0.68539543  1.0
  Ta  Ta810  1  0.08805852  0.11922348  0.67174743  1.0
  Ta  Ta811  1  0.08805852  0.45255681  0.67174743  1.0
  Ta  Ta812  1  0.08805852  0.78589014  0.67174743  1.0
  Ta  Ta813  1  0.42139186  0.11922348  0.67174743  1.0
  Ta  Ta814  1  0.42139186  0.45255681  0.67174743  1.0
  Ta  Ta815  1  0.42139186  0.78589014  0.67174743  1.0
  Ta  Ta816  1  0.75472519  0.11922348  0.67174743  1.0
  Ta  Ta817  1  0.75472519  0.45255681  0.67174743  1.0
  Ta  Ta818  1  0.75472519  0.78589014  0.67174743  1.0
  Ta  Ta819  1  0.27853471  0.26208062  0.60031886  1.0
  Ta  Ta820  1  0.27853471  0.59541395  0.60031886  1.0
  Ta  Ta821  1  0.27853471  0.92874729  0.60031886  1.0
  Ta  Ta822  1  0.61186805  0.26208062  0.60031886  1.0
  Ta  Ta823  1  0.61186805  0.59541395  0.60031886  1.0
  Ta  Ta824  1  0.61186805  0.92874729  0.60031886  1.0
  Ta  Ta825  1  0.94520138  0.26208062  0.60031886  1.0
  Ta  Ta826  1  0.94520138  0.59541395  0.60031886  1.0
  Ta  Ta827  1  0.94520138  0.92874729  0.60031886  1.0
  Ta  Ta828  1  0.23568190  0.05511843  0.60415479  1.0
  Ta  Ta829  1  0.23568190  0.38845176  0.60415479  1.0
  Ta  Ta830  1  0.23568190  0.72178510  0.60415479  1.0
  Ta  Ta831  1  0.56901524  0.05511843  0.60415479  1.0
  Ta  Ta832  1  0.56901524  0.38845176  0.60415479  1.0
  Ta  Ta833  1  0.56901524  0.72178510  0.60415479  1.0
  Ta  Ta834  1  0.90234857  0.05511843  0.60415479  1.0
  Ta  Ta835  1  0.90234857  0.38845176  0.60415479  1.0
  Ta  Ta836  1  0.90234857  0.72178510  0.60415479  1.0
  Ta  Ta837  1  0.04520571  0.24559462  0.67558336  1.0
  Ta  Ta838  1  0.04520571  0.57892795  0.67558336  1.0
  Ta  Ta839  1  0.04520571  0.91226129  0.67558336  1.0
  Ta  Ta840  1  0.37853905  0.24559462  0.67558336  1.0
  Ta  Ta841  1  0.37853905  0.57892795  0.67558336  1.0
  Ta  Ta842  1  0.37853905  0.91226129  0.67558336  1.0
  Ta  Ta843  1  0.71187238  0.24559462  0.67558336  1.0
  Ta  Ta844  1  0.71187238  0.57892795  0.67558336  1.0
  Ta  Ta845  1  0.71187238  0.91226129  0.67558336  1.0
  Ta  Ta846  1  0.00241333  0.04011967  0.68155950  1.0
  Ta  Ta847  1  0.00241333  0.37345300  0.68155950  1.0
  Ta  Ta848  1  0.00241333  0.70678633  0.68155950  1.0
  Ta  Ta849  1  0.33574667  0.04011967  0.68155950  1.0
  Ta  Ta850  1  0.33574667  0.37345300  0.68155950  1.0
  Ta  Ta851  1  0.33574667  0.70678633  0.68155950  1.0
  Ta  Ta852  1  0.66908000  0.04011967  0.68155950  1.0
  Ta  Ta853  1  0.66908000  0.37345300  0.68155950  1.0
  Ta  Ta854  1  0.66908000  0.70678633  0.68155950  1.0
  Ta  Ta855  1  0.19288952  0.18297681  0.61013093  1.0
  Ta  Ta856  1  0.19288952  0.51631014  0.61013093  1.0
  Ta  Ta857  1  0.19288952  0.84964348  0.61013093  1.0
  Ta  Ta858  1  0.52622286  0.18297681  0.61013093  1.0
  Ta  Ta859  1  0.52622286  0.51631014  0.61013093  1.0
  Ta  Ta860  1  0.52622286  0.84964348  0.61013093  1.0
  Ta  Ta861  1  0.85955619  0.18297681  0.61013093  1.0
  Ta  Ta862  1  0.85955619  0.51631014  0.61013093  1.0
  Ta  Ta863  1  0.85955619  0.84964348  0.61013093  1.0
