# generated using pymatgen
data_TaNi3
_symmetry_space_group_name_H-M   'P 1'
_cell_length_a   30.10570777
_cell_length_b   33.58907935
_cell_length_c   27.41945481
_cell_angle_alpha   78.45423849
_cell_angle_beta   81.46669613
_cell_angle_gamma   66.37989825
_symmetry_Int_Tables_number   1
_chemical_formula_structural   TaNi3
_chemical_formula_sum   'Ta216 Ni648'
_cell_volume   24818.29517844
_cell_formula_units_Z   216
loop_
 _symmetry_equiv_pos_site_id
 _symmetry_equiv_pos_as_xyz
  1  'x, y, z'
loop_
 _atom_site_type_symbol
 _atom_site_label
 _atom_site_symmetry_multiplicity
 _atom_site_fract_x
 _atom_site_fract_y
 _atom_site_fract_z
 _atom_site_occupancy
  Ni  Ni0  1  0.30486417  0.16170183  0.03796450  1.0
  Ni  Ni1  1  0.30486417  0.49503517  0.03796450  1.0
  Ni  Ni2  1  0.30486417  0.82836850  0.03796450  1.0
  Ni  Ni3  1  0.63819750  0.16170183  0.03796450  1.0
  Ni  Ni4  1  0.63819750  0.49503517  0.03796450  1.0
  Ni  Ni5  1  0.63819750  0.82836850  0.03796450  1.0
  Ni  Ni6  1  0.97153083  0.16170183  0.03796450  1.0
  Ni  Ni7  1  0.97153083  0.49503517  0.03796450  1.0
  Ni  Ni8  1  0.97153083  0.82836850  0.03796450  1.0
  Ni  Ni9  1  0.32867369  0.28074945  0.10939307  1.0
  Ni  Ni10  1  0.32867369  0.61408279  0.10939307  1.0
  Ni  Ni11  1  0.32867369  0.94741612  0.10939307  1.0
  Ni  Ni12  1  0.66200702  0.28074945  0.10939307  1.0
  Ni  Ni13  1  0.66200702  0.61408279  0.10939307  1.0
  Ni  Ni14  1  0.66200702  0.94741612  0.10939307  1.0
  Ni  Ni15  1  0.99534036  0.28074945  0.10939307  1.0
  Ni  Ni16  1  0.99534036  0.61408279  0.10939307  1.0
  Ni  Ni17  1  0.99534036  0.94741612  0.10939307  1.0
  Ni  Ni18  1  0.24691333  0.15238467  0.11415000  1.0
  Ni  Ni19  1  0.24691333  0.48571800  0.11415000  1.0
  Ni  Ni20  1  0.24691333  0.81905133  0.11415000  1.0
  Ni  Ni21  1  0.58024667  0.15238467  0.11415000  1.0
  Ni  Ni22  1  0.58024667  0.48571800  0.11415000  1.0
  Ni  Ni23  1  0.58024667  0.81905133  0.11415000  1.0
  Ni  Ni24  1  0.91358000  0.15238467  0.11415000  1.0
  Ni  Ni25  1  0.91358000  0.48571800  0.11415000  1.0
  Ni  Ni26  1  0.91358000  0.81905133  0.11415000  1.0
  Ni  Ni27  1  0.22310381  0.03333705  0.04272143  1.0
  Ni  Ni28  1  0.22310381  0.36667038  0.04272143  1.0
  Ni  Ni29  1  0.22310381  0.70000371  0.04272143  1.0
  Ni  Ni30  1  0.55643714  0.03333705  0.04272143  1.0
  Ni  Ni31  1  0.55643714  0.36667038  0.04272143  1.0
  Ni  Ni32  1  0.55643714  0.70000371  0.04272143  1.0
  Ni  Ni33  1  0.88977048  0.03333705  0.04272143  1.0
  Ni  Ni34  1  0.88977048  0.36667038  0.04272143  1.0
  Ni  Ni35  1  0.88977048  0.70000371  0.04272143  1.0
  Ni  Ni36  1  0.32162533  0.08520100  0.09130600  1.0
  Ni  Ni37  1  0.32162533  0.41853433  0.09130600  1.0
  Ni  Ni38  1  0.32162533  0.75186767  0.09130600  1.0
  Ni  Ni39  1  0.65495867  0.08520100  0.09130600  1.0
  Ni  Ni40  1  0.65495867  0.41853433  0.09130600  1.0
  Ni  Ni41  1  0.65495867  0.75186767  0.09130600  1.0
  Ni  Ni42  1  0.98829200  0.08520100  0.09130600  1.0
  Ni  Ni43  1  0.98829200  0.41853433  0.09130600  1.0
  Ni  Ni44  1  0.98829200  0.75186767  0.09130600  1.0
  Ni  Ni45  1  0.29781581  0.29948671  0.01987743  1.0
  Ni  Ni46  1  0.29781581  0.63282005  0.01987743  1.0
  Ni  Ni47  1  0.29781581  0.96615338  0.01987743  1.0
  Ni  Ni48  1  0.63114914  0.29948671  0.01987743  1.0
  Ni  Ni49  1  0.63114914  0.63282005  0.01987743  1.0
  Ni  Ni50  1  0.63114914  0.96615338  0.01987743  1.0
  Ni  Ni51  1  0.96448248  0.29948671  0.01987743  1.0
  Ni  Ni52  1  0.96448248  0.63282005  0.01987743  1.0
  Ni  Ni53  1  0.96448248  0.96615338  0.01987743  1.0
  Ni  Ni54  1  0.14582467  0.14463867  0.06406400  1.0
  Ni  Ni55  1  0.14582467  0.47797200  0.06406400  1.0
  Ni  Ni56  1  0.14582467  0.81130533  0.06406400  1.0
  Ni  Ni57  1  0.47915800  0.14463867  0.06406400  1.0
  Ni  Ni58  1  0.47915800  0.47797200  0.06406400  1.0
  Ni  Ni59  1  0.47915800  0.81130533  0.06406400  1.0
  Ni  Ni60  1  0.81249133  0.14463867  0.06406400  1.0
  Ni  Ni61  1  0.81249133  0.47797200  0.06406400  1.0
  Ni  Ni62  1  0.81249133  0.81130533  0.06406400  1.0
  Ni  Ni63  1  0.16963419  0.26368629  0.13549257  1.0
  Ni  Ni64  1  0.16963419  0.59701962  0.13549257  1.0
  Ni  Ni65  1  0.16963419  0.93035295  0.13549257  1.0
  Ni  Ni66  1  0.50296752  0.26368629  0.13549257  1.0
  Ni  Ni67  1  0.50296752  0.59701962  0.13549257  1.0
  Ni  Ni68  1  0.50296752  0.93035295  0.13549257  1.0
  Ni  Ni69  1  0.83630086  0.26368629  0.13549257  1.0
  Ni  Ni70  1  0.83630086  0.59701962  0.13549257  1.0
  Ni  Ni71  1  0.83630086  0.93035295  0.13549257  1.0
  Ni  Ni72  1  0.12797081  0.22376205  0.00783843  1.0
  Ni  Ni73  1  0.12797081  0.55709538  0.00783843  1.0
  Ni  Ni74  1  0.12797081  0.89042871  0.00783843  1.0
  Ni  Ni75  1  0.46130414  0.22376205  0.00783843  1.0
  Ni  Ni76  1  0.46130414  0.55709538  0.00783843  1.0
  Ni  Ni77  1  0.46130414  0.89042871  0.00783843  1.0
  Ni  Ni78  1  0.79463748  0.22376205  0.00783843  1.0
  Ni  Ni79  1  0.79463748  0.55709538  0.00783843  1.0
  Ni  Ni80  1  0.79463748  0.89042871  0.00783843  1.0
  Ni  Ni81  1  0.15178033  0.00947633  0.07926700  1.0
  Ni  Ni82  1  0.15178033  0.34280967  0.07926700  1.0
  Ni  Ni83  1  0.15178033  0.67614300  0.07926700  1.0
  Ni  Ni84  1  0.48511367  0.00947633  0.07926700  1.0
  Ni  Ni85  1  0.48511367  0.34280967  0.07926700  1.0
  Ni  Ni86  1  0.48511367  0.67614300  0.07926700  1.0
  Ni  Ni87  1  0.81844700  0.00947633  0.07926700  1.0
  Ni  Ni88  1  0.81844700  0.34280967  0.07926700  1.0
  Ni  Ni89  1  0.81844700  0.67614300  0.07926700  1.0
  Ni  Ni90  1  0.29302145  0.10248826  0.00243636  1.0
  Ni  Ni91  1  0.29302145  0.43582160  0.00243636  1.0
  Ni  Ni92  1  0.29302145  0.76915493  0.00243636  1.0
  Ni  Ni93  1  0.62635479  0.10248826  0.00243636  1.0
  Ni  Ni94  1  0.62635479  0.43582160  0.00243636  1.0
  Ni  Ni95  1  0.62635479  0.76915493  0.00243636  1.0
  Ni  Ni96  1  0.95968812  0.10248826  0.00243636  1.0
  Ni  Ni97  1  0.95968812  0.43582160  0.00243636  1.0
  Ni  Ni98  1  0.95968812  0.76915493  0.00243636  1.0
  Ni  Ni99  1  0.31683098  0.22153588  0.07386493  1.0
  Ni  Ni100  1  0.31683098  0.55486921  0.07386493  1.0
  Ni  Ni101  1  0.31683098  0.88820255  0.07386493  1.0
  Ni  Ni102  1  0.65016431  0.22153588  0.07386493  1.0
  Ni  Ni103  1  0.65016431  0.55486921  0.07386493  1.0
  Ni  Ni104  1  0.65016431  0.88820255  0.07386493  1.0
  Ni  Ni105  1  0.98349764  0.22153588  0.07386493  1.0
  Ni  Ni106  1  0.98349764  0.55486921  0.07386493  1.0
  Ni  Ni107  1  0.98349764  0.88820255  0.07386493  1.0
  Ni  Ni108  1  0.25298157  0.01433319  0.13501871  1.0
  Ni  Ni109  1  0.25298157  0.34766652  0.13501871  1.0
  Ni  Ni110  1  0.25298157  0.68099986  0.13501871  1.0
  Ni  Ni111  1  0.58631490  0.01433319  0.13501871  1.0
  Ni  Ni112  1  0.58631490  0.34766652  0.13501871  1.0
  Ni  Ni113  1  0.58631490  0.68099986  0.13501871  1.0
  Ni  Ni114  1  0.91964824  0.01433319  0.13501871  1.0
  Ni  Ni115  1  0.91964824  0.34766652  0.13501871  1.0
  Ni  Ni116  1  0.91964824  0.68099986  0.13501871  1.0
  Ni  Ni117  1  0.22917205  0.22861890  0.06359014  1.0
  Ni  Ni118  1  0.22917205  0.56195224  0.06359014  1.0
  Ni  Ni119  1  0.22917205  0.89528557  0.06359014  1.0
  Ni  Ni120  1  0.56250538  0.22861890  0.06359014  1.0
  Ni  Ni121  1  0.56250538  0.56195224  0.06359014  1.0
  Ni  Ni122  1  0.56250538  0.89528557  0.06359014  1.0
  Ni  Ni123  1  0.89583871  0.22861890  0.06359014  1.0
  Ni  Ni124  1  0.89583871  0.56195224  0.06359014  1.0
  Ni  Ni125  1  0.89583871  0.89528557  0.06359014  1.0
  Ni  Ni126  1  0.07608821  0.07639340  0.10489264  1.0
  Ni  Ni127  1  0.07608821  0.40972674  0.10489264  1.0
  Ni  Ni128  1  0.07608821  0.74306007  0.10489264  1.0
  Ni  Ni129  1  0.40942155  0.07639340  0.10489264  1.0
  Ni  Ni130  1  0.40942155  0.40972674  0.10489264  1.0
  Ni  Ni131  1  0.40942155  0.74306007  0.10489264  1.0
  Ni  Ni132  1  0.74275488  0.07639340  0.10489264  1.0
  Ni  Ni133  1  0.74275488  0.40972674  0.10489264  1.0
  Ni  Ni134  1  0.74275488  0.74306007  0.10489264  1.0
  Ni  Ni135  1  0.05227869  0.29067912  0.03346407  1.0
  Ni  Ni136  1  0.05227869  0.62401245  0.03346407  1.0
  Ni  Ni137  1  0.05227869  0.95734579  0.03346407  1.0
  Ni  Ni138  1  0.38561202  0.29067912  0.03346407  1.0
  Ni  Ni139  1  0.38561202  0.62401245  0.03346407  1.0
  Ni  Ni140  1  0.38561202  0.95734579  0.03346407  1.0
  Ni  Ni141  1  0.71894536  0.29067912  0.03346407  1.0
  Ni  Ni142  1  0.71894536  0.62401245  0.03346407  1.0
  Ni  Ni143  1  0.71894536  0.95734579  0.03346407  1.0
  Ni  Ni144  1  0.08793093  0.13560698  0.14042079  1.0
  Ni  Ni145  1  0.08793093  0.46894031  0.14042079  1.0
  Ni  Ni146  1  0.08793093  0.80227364  0.14042079  1.0
  Ni  Ni147  1  0.42126426  0.13560698  0.14042079  1.0
  Ni  Ni148  1  0.42126426  0.46894031  0.14042079  1.0
  Ni  Ni149  1  0.42126426  0.80227364  0.14042079  1.0
  Ni  Ni150  1  0.75459760  0.13560698  0.14042079  1.0
  Ni  Ni151  1  0.75459760  0.46894031  0.14042079  1.0
  Ni  Ni152  1  0.75459760  0.80227364  0.14042079  1.0
  Ni  Ni153  1  0.06412140  0.01655936  0.06899221  1.0
  Ni  Ni154  1  0.06412140  0.34989269  0.06899221  1.0
  Ni  Ni155  1  0.06412140  0.68322602  0.06899221  1.0
  Ni  Ni156  1  0.39745474  0.01655936  0.06899221  1.0
  Ni  Ni157  1  0.39745474  0.34989269  0.06899221  1.0
  Ni  Ni158  1  0.39745474  0.68322602  0.06899221  1.0
  Ni  Ni159  1  0.73078807  0.01655936  0.06899221  1.0
  Ni  Ni160  1  0.73078807  0.34989269  0.06899221  1.0
  Ni  Ni161  1  0.73078807  0.68322602  0.06899221  1.0
  Ni  Ni162  1  0.13403905  0.08571057  0.02870714  1.0
  Ni  Ni163  1  0.13403905  0.41904390  0.02870714  1.0
  Ni  Ni164  1  0.13403905  0.75237724  0.02870714  1.0
  Ni  Ni165  1  0.46737238  0.08571057  0.02870714  1.0
  Ni  Ni166  1  0.46737238  0.41904390  0.02870714  1.0
  Ni  Ni167  1  0.46737238  0.75237724  0.02870714  1.0
  Ni  Ni168  1  0.80070571  0.08571057  0.02870714  1.0
  Ni  Ni169  1  0.80070571  0.41904390  0.02870714  1.0
  Ni  Ni170  1  0.80070571  0.75237724  0.02870714  1.0
  Ni  Ni171  1  0.15784857  0.20475819  0.10013571  1.0
  Ni  Ni172  1  0.15784857  0.53809152  0.10013571  1.0
  Ni  Ni173  1  0.15784857  0.87142486  0.10013571  1.0
  Ni  Ni174  1  0.49118190  0.20475819  0.10013571  1.0
  Ni  Ni175  1  0.49118190  0.53809152  0.10013571  1.0
  Ni  Ni176  1  0.49118190  0.87142486  0.10013571  1.0
  Ni  Ni177  1  0.82451524  0.20475819  0.10013571  1.0
  Ni  Ni178  1  0.82451524  0.53809152  0.10013571  1.0
  Ni  Ni179  1  0.82451524  0.87142486  0.10013571  1.0
  Ni  Ni180  1  0.05932705  0.15289424  0.05155114  1.0
  Ni  Ni181  1  0.05932705  0.48622757  0.05155114  1.0
  Ni  Ni182  1  0.05932705  0.81956090  0.05155114  1.0
  Ni  Ni183  1  0.39266038  0.15289424  0.05155114  1.0
  Ni  Ni184  1  0.39266038  0.48622757  0.05155114  1.0
  Ni  Ni185  1  0.39266038  0.81956090  0.05155114  1.0
  Ni  Ni186  1  0.72599371  0.15289424  0.05155114  1.0
  Ni  Ni187  1  0.72599371  0.48622757  0.05155114  1.0
  Ni  Ni188  1  0.72599371  0.81956090  0.05155114  1.0
  Ni  Ni189  1  0.08313657  0.27194186  0.12297971  1.0
  Ni  Ni190  1  0.08313657  0.60527519  0.12297971  1.0
  Ni  Ni191  1  0.08313657  0.93860852  0.12297971  1.0
  Ni  Ni192  1  0.41646990  0.27194186  0.12297971  1.0
  Ni  Ni193  1  0.41646990  0.60527519  0.12297971  1.0
  Ni  Ni194  1  0.41646990  0.93860852  0.12297971  1.0
  Ni  Ni195  1  0.74980324  0.27194186  0.12297971  1.0
  Ni  Ni196  1  0.74980324  0.60527519  0.12297971  1.0
  Ni  Ni197  1  0.74980324  0.93860852  0.12297971  1.0
  Ni  Ni198  1  0.23512771  0.09345657  0.07879314  1.0
  Ni  Ni199  1  0.23512771  0.42678990  0.07879314  1.0
  Ni  Ni200  1  0.23512771  0.76012324  0.07879314  1.0
  Ni  Ni201  1  0.56846105  0.09345657  0.07879314  1.0
  Ni  Ni202  1  0.56846105  0.42678990  0.07879314  1.0
  Ni  Ni203  1  0.56846105  0.76012324  0.07879314  1.0
  Ni  Ni204  1  0.90179438  0.09345657  0.07879314  1.0
  Ni  Ni205  1  0.90179438  0.42678990  0.07879314  1.0
  Ni  Ni206  1  0.90179438  0.76012324  0.07879314  1.0
  Ni  Ni207  1  0.21131819  0.30774229  0.00736457  1.0
  Ni  Ni208  1  0.21131819  0.64107562  0.00736457  1.0
  Ni  Ni209  1  0.21131819  0.97440895  0.00736457  1.0
  Ni  Ni210  1  0.54465152  0.30774229  0.00736457  1.0
  Ni  Ni211  1  0.54465152  0.64107562  0.00736457  1.0
  Ni  Ni212  1  0.54465152  0.97440895  0.00736457  1.0
  Ni  Ni213  1  0.87798486  0.30774229  0.00736457  1.0
  Ni  Ni214  1  0.87798486  0.64107562  0.00736457  1.0
  Ni  Ni215  1  0.87798486  0.97440895  0.00736457  1.0
  Ni  Ni216  1  0.01914988  0.06646374  0.18082164  1.0
  Ni  Ni217  1  0.01914988  0.39979707  0.18082164  1.0
  Ni  Ni218  1  0.01914988  0.73313040  0.18082164  1.0
  Ni  Ni219  1  0.35248321  0.06646374  0.18082164  1.0
  Ni  Ni220  1  0.35248321  0.39979707  0.18082164  1.0
  Ni  Ni221  1  0.35248321  0.73313040  0.18082164  1.0
  Ni  Ni222  1  0.68581655  0.06646374  0.18082164  1.0
  Ni  Ni223  1  0.68581655  0.39979707  0.18082164  1.0
  Ni  Ni224  1  0.68581655  0.73313040  0.18082164  1.0
  Ni  Ni225  1  0.04295940  0.18551136  0.25225021  1.0
  Ni  Ni226  1  0.04295940  0.51884469  0.25225021  1.0
  Ni  Ni227  1  0.04295940  0.85217802  0.25225021  1.0
  Ni  Ni228  1  0.37629274  0.18551136  0.25225021  1.0
  Ni  Ni229  1  0.37629274  0.51884469  0.25225021  1.0
  Ni  Ni230  1  0.37629274  0.85217802  0.25225021  1.0
  Ni  Ni231  1  0.70962607  0.18551136  0.25225021  1.0
  Ni  Ni232  1  0.70962607  0.51884469  0.25225021  1.0
  Ni  Ni233  1  0.70962607  0.85217802  0.25225021  1.0
  Ni  Ni234  1  0.29453238  0.05714657  0.25700714  1.0
  Ni  Ni235  1  0.29453238  0.39047990  0.25700714  1.0
  Ni  Ni236  1  0.29453238  0.72381324  0.25700714  1.0
  Ni  Ni237  1  0.62786571  0.05714657  0.25700714  1.0
  Ni  Ni238  1  0.62786571  0.39047990  0.25700714  1.0
  Ni  Ni239  1  0.62786571  0.72381324  0.25700714  1.0
  Ni  Ni240  1  0.96119905  0.05714657  0.25700714  1.0
  Ni  Ni241  1  0.96119905  0.39047990  0.25700714  1.0
  Ni  Ni242  1  0.96119905  0.72381324  0.25700714  1.0
  Ni  Ni243  1  0.27072286  0.27143229  0.18557857  1.0
  Ni  Ni244  1  0.27072286  0.60476562  0.18557857  1.0
  Ni  Ni245  1  0.27072286  0.93809895  0.18557857  1.0
  Ni  Ni246  1  0.60405619  0.27143229  0.18557857  1.0
  Ni  Ni247  1  0.60405619  0.60476562  0.18557857  1.0
  Ni  Ni248  1  0.60405619  0.93809895  0.18557857  1.0
  Ni  Ni249  1  0.93738952  0.27143229  0.18557857  1.0
  Ni  Ni250  1  0.93738952  0.60476562  0.18557857  1.0
  Ni  Ni251  1  0.93738952  0.93809895  0.18557857  1.0
  Ni  Ni252  1  0.03591105  0.32329624  0.23416314  1.0
  Ni  Ni253  1  0.03591105  0.65662957  0.23416314  1.0
  Ni  Ni254  1  0.03591105  0.98996290  0.23416314  1.0
  Ni  Ni255  1  0.36924438  0.32329624  0.23416314  1.0
  Ni  Ni256  1  0.36924438  0.65662957  0.23416314  1.0
  Ni  Ni257  1  0.36924438  0.98996290  0.23416314  1.0
  Ni  Ni258  1  0.70257771  0.32329624  0.23416314  1.0
  Ni  Ni259  1  0.70257771  0.65662957  0.23416314  1.0
  Ni  Ni260  1  0.70257771  0.98996290  0.23416314  1.0
  Ni  Ni261  1  0.01210152  0.20424862  0.16273457  1.0
  Ni  Ni262  1  0.01210152  0.53758195  0.16273457  1.0
  Ni  Ni263  1  0.01210152  0.87091529  0.16273457  1.0
  Ni  Ni264  1  0.34543486  0.20424862  0.16273457  1.0
  Ni  Ni265  1  0.34543486  0.53758195  0.16273457  1.0
  Ni  Ni266  1  0.34543486  0.87091529  0.16273457  1.0
  Ni  Ni267  1  0.67876819  0.20424862  0.16273457  1.0
  Ni  Ni268  1  0.67876819  0.53758195  0.16273457  1.0
  Ni  Ni269  1  0.67876819  0.87091529  0.16273457  1.0
  Ni  Ni270  1  0.19344371  0.04940057  0.20692114  1.0
  Ni  Ni271  1  0.19344371  0.38273390  0.20692114  1.0
  Ni  Ni272  1  0.19344371  0.71606724  0.20692114  1.0
  Ni  Ni273  1  0.52677705  0.04940057  0.20692114  1.0
  Ni  Ni274  1  0.52677705  0.38273390  0.20692114  1.0
  Ni  Ni275  1  0.52677705  0.71606724  0.20692114  1.0
  Ni  Ni276  1  0.86011038  0.04940057  0.20692114  1.0
  Ni  Ni277  1  0.86011038  0.38273390  0.20692114  1.0
  Ni  Ni278  1  0.86011038  0.71606724  0.20692114  1.0
  Ni  Ni279  1  0.21725324  0.16844819  0.27834971  1.0
  Ni  Ni280  1  0.21725324  0.50178152  0.27834971  1.0
  Ni  Ni281  1  0.21725324  0.83511486  0.27834971  1.0
  Ni  Ni282  1  0.55058657  0.16844819  0.27834971  1.0
  Ni  Ni283  1  0.55058657  0.50178152  0.27834971  1.0
  Ni  Ni284  1  0.55058657  0.83511486  0.27834971  1.0
  Ni  Ni285  1  0.88391990  0.16844819  0.27834971  1.0
  Ni  Ni286  1  0.88391990  0.50178152  0.27834971  1.0
  Ni  Ni287  1  0.88391990  0.83511486  0.27834971  1.0
  Ni  Ni288  1  0.17558986  0.12852395  0.15069557  1.0
  Ni  Ni289  1  0.17558986  0.46185729  0.15069557  1.0
  Ni  Ni290  1  0.17558986  0.79519062  0.15069557  1.0
  Ni  Ni291  1  0.50892319  0.12852395  0.15069557  1.0
  Ni  Ni292  1  0.50892319  0.46185729  0.15069557  1.0
  Ni  Ni293  1  0.50892319  0.79519062  0.15069557  1.0
  Ni  Ni294  1  0.84225652  0.12852395  0.15069557  1.0
  Ni  Ni295  1  0.84225652  0.46185729  0.15069557  1.0
  Ni  Ni296  1  0.84225652  0.79519062  0.15069557  1.0
  Ni  Ni297  1  0.19939938  0.24757157  0.22212414  1.0
  Ni  Ni298  1  0.19939938  0.58090490  0.22212414  1.0
  Ni  Ni299  1  0.19939938  0.91423824  0.22212414  1.0
  Ni  Ni300  1  0.53273271  0.24757157  0.22212414  1.0
  Ni  Ni301  1  0.53273271  0.58090490  0.22212414  1.0
  Ni  Ni302  1  0.53273271  0.91423824  0.22212414  1.0
  Ni  Ni303  1  0.86606605  0.24757157  0.22212414  1.0
  Ni  Ni304  1  0.86606605  0.58090490  0.22212414  1.0
  Ni  Ni305  1  0.86606605  0.91423824  0.22212414  1.0
  Ni  Ni306  1  0.00730717  0.00725017  0.14529350  1.0
  Ni  Ni307  1  0.00730717  0.34058350  0.14529350  1.0
  Ni  Ni308  1  0.00730717  0.67391683  0.14529350  1.0
  Ni  Ni309  1  0.34064050  0.00725017  0.14529350  1.0
  Ni  Ni310  1  0.34064050  0.34058350  0.14529350  1.0
  Ni  Ni311  1  0.34064050  0.67391683  0.14529350  1.0
  Ni  Ni312  1  0.67397383  0.00725017  0.14529350  1.0
  Ni  Ni313  1  0.67397383  0.34058350  0.14529350  1.0
  Ni  Ni314  1  0.67397383  0.67391683  0.14529350  1.0
  Ni  Ni315  1  0.03111669  0.12629779  0.21672207  1.0
  Ni  Ni316  1  0.03111669  0.45963112  0.21672207  1.0
  Ni  Ni317  1  0.03111669  0.79296445  0.21672207  1.0
  Ni  Ni318  1  0.36445002  0.12629779  0.21672207  1.0
  Ni  Ni319  1  0.36445002  0.45963112  0.21672207  1.0
  Ni  Ni320  1  0.36445002  0.79296445  0.21672207  1.0
  Ni  Ni321  1  0.69778336  0.12629779  0.21672207  1.0
  Ni  Ni322  1  0.69778336  0.45963112  0.21672207  1.0
  Ni  Ni323  1  0.69778336  0.79296445  0.21672207  1.0
  Ni  Ni324  1  0.30060062  0.25242843  0.27787586  1.0
  Ni  Ni325  1  0.30060062  0.58576176  0.27787586  1.0
  Ni  Ni326  1  0.30060062  0.91909510  0.27787586  1.0
  Ni  Ni327  1  0.63393395  0.25242843  0.27787586  1.0
  Ni  Ni328  1  0.63393395  0.58576176  0.27787586  1.0
  Ni  Ni329  1  0.63393395  0.91909510  0.27787586  1.0
  Ni  Ni330  1  0.96726729  0.25242843  0.27787586  1.0
  Ni  Ni331  1  0.96726729  0.58576176  0.27787586  1.0
  Ni  Ni332  1  0.96726729  0.91909510  0.27787586  1.0
  Ni  Ni333  1  0.27679110  0.13338081  0.20644729  1.0
  Ni  Ni334  1  0.27679110  0.46671414  0.20644729  1.0
  Ni  Ni335  1  0.27679110  0.80004748  0.20644729  1.0
  Ni  Ni336  1  0.61012443  0.13338081  0.20644729  1.0
  Ni  Ni337  1  0.61012443  0.46671414  0.20644729  1.0
  Ni  Ni338  1  0.61012443  0.80004748  0.20644729  1.0
  Ni  Ni339  1  0.94345776  0.13338081  0.20644729  1.0
  Ni  Ni340  1  0.94345776  0.46671414  0.20644729  1.0
  Ni  Ni341  1  0.94345776  0.80004748  0.20644729  1.0
  Ni  Ni342  1  0.12370726  0.31448864  0.24774979  1.0
  Ni  Ni343  1  0.12370726  0.64782198  0.24774979  1.0
  Ni  Ni344  1  0.12370726  0.98115531  0.24774979  1.0
  Ni  Ni345  1  0.45704060  0.31448864  0.24774979  1.0
  Ni  Ni346  1  0.45704060  0.64782198  0.24774979  1.0
  Ni  Ni347  1  0.45704060  0.98115531  0.24774979  1.0
  Ni  Ni348  1  0.79037393  0.31448864  0.24774979  1.0
  Ni  Ni349  1  0.79037393  0.64782198  0.24774979  1.0
  Ni  Ni350  1  0.79037393  0.98115531  0.24774979  1.0
  Ni  Ni351  1  0.09989774  0.19544102  0.17632121  1.0
  Ni  Ni352  1  0.09989774  0.52877436  0.17632121  1.0
  Ni  Ni353  1  0.09989774  0.86210769  0.17632121  1.0
  Ni  Ni354  1  0.43323107  0.19544102  0.17632121  1.0
  Ni  Ni355  1  0.43323107  0.52877436  0.17632121  1.0
  Ni  Ni356  1  0.43323107  0.86210769  0.17632121  1.0
  Ni  Ni357  1  0.76656440  0.19544102  0.17632121  1.0
  Ni  Ni358  1  0.76656440  0.52877436  0.17632121  1.0
  Ni  Ni359  1  0.76656440  0.86210769  0.17632121  1.0
  Ni  Ni360  1  0.13554998  0.04036888  0.28327793  1.0
  Ni  Ni361  1  0.13554998  0.37370221  0.28327793  1.0
  Ni  Ni362  1  0.13554998  0.70703555  0.28327793  1.0
  Ni  Ni363  1  0.46888331  0.04036888  0.28327793  1.0
  Ni  Ni364  1  0.46888331  0.37370221  0.28327793  1.0
  Ni  Ni365  1  0.46888331  0.70703555  0.28327793  1.0
  Ni  Ni366  1  0.80221664  0.04036888  0.28327793  1.0
  Ni  Ni367  1  0.80221664  0.37370221  0.28327793  1.0
  Ni  Ni368  1  0.80221664  0.70703555  0.28327793  1.0
  Ni  Ni369  1  0.11174045  0.25465460  0.21184936  1.0
  Ni  Ni370  1  0.11174045  0.58798793  0.21184936  1.0
  Ni  Ni371  1  0.11174045  0.92132126  0.21184936  1.0
  Ni  Ni372  1  0.44507379  0.25465460  0.21184936  1.0
  Ni  Ni373  1  0.44507379  0.58798793  0.21184936  1.0
  Ni  Ni374  1  0.44507379  0.92132126  0.21184936  1.0
  Ni  Ni375  1  0.77840712  0.25465460  0.21184936  1.0
  Ni  Ni376  1  0.77840712  0.58798793  0.21184936  1.0
  Ni  Ni377  1  0.77840712  0.92132126  0.21184936  1.0
  Ni  Ni378  1  0.18165810  0.32380581  0.17156429  1.0
  Ni  Ni379  1  0.18165810  0.65713914  0.17156429  1.0
  Ni  Ni380  1  0.18165810  0.99047248  0.17156429  1.0
  Ni  Ni381  1  0.51499143  0.32380581  0.17156429  1.0
  Ni  Ni382  1  0.51499143  0.65713914  0.17156429  1.0
  Ni  Ni383  1  0.51499143  0.99047248  0.17156429  1.0
  Ni  Ni384  1  0.84832476  0.32380581  0.17156429  1.0
  Ni  Ni385  1  0.84832476  0.65713914  0.17156429  1.0
  Ni  Ni386  1  0.84832476  0.99047248  0.17156429  1.0
  Ni  Ni387  1  0.20546762  0.10952010  0.24299286  1.0
  Ni  Ni388  1  0.20546762  0.44285343  0.24299286  1.0
  Ni  Ni389  1  0.20546762  0.77618676  0.24299286  1.0
  Ni  Ni390  1  0.53880095  0.10952010  0.24299286  1.0
  Ni  Ni391  1  0.53880095  0.44285343  0.24299286  1.0
  Ni  Ni392  1  0.53880095  0.77618676  0.24299286  1.0
  Ni  Ni393  1  0.87213429  0.10952010  0.24299286  1.0
  Ni  Ni394  1  0.87213429  0.44285343  0.24299286  1.0
  Ni  Ni395  1  0.87213429  0.77618676  0.24299286  1.0
  Ni  Ni396  1  0.10694610  0.05765614  0.19440829  1.0
  Ni  Ni397  1  0.10694610  0.39098948  0.19440829  1.0
  Ni  Ni398  1  0.10694610  0.72432281  0.19440829  1.0
  Ni  Ni399  1  0.44027943  0.05765614  0.19440829  1.0
  Ni  Ni400  1  0.44027943  0.39098948  0.19440829  1.0
  Ni  Ni401  1  0.44027943  0.72432281  0.19440829  1.0
  Ni  Ni402  1  0.77361276  0.05765614  0.19440829  1.0
  Ni  Ni403  1  0.77361276  0.39098948  0.19440829  1.0
  Ni  Ni404  1  0.77361276  0.72432281  0.19440829  1.0
  Ni  Ni405  1  0.13075562  0.17670376  0.26583686  1.0
  Ni  Ni406  1  0.13075562  0.51003710  0.26583686  1.0
  Ni  Ni407  1  0.13075562  0.84337043  0.26583686  1.0
  Ni  Ni408  1  0.46408895  0.17670376  0.26583686  1.0
  Ni  Ni409  1  0.46408895  0.51003710  0.26583686  1.0
  Ni  Ni410  1  0.46408895  0.84337043  0.26583686  1.0
  Ni  Ni411  1  0.79742229  0.17670376  0.26583686  1.0
  Ni  Ni412  1  0.79742229  0.51003710  0.26583686  1.0
  Ni  Ni413  1  0.79742229  0.84337043  0.26583686  1.0
  Ni  Ni414  1  0.28274676  0.33155181  0.22165029  1.0
  Ni  Ni415  1  0.28274676  0.66488514  0.22165029  1.0
  Ni  Ni416  1  0.28274676  0.99821848  0.22165029  1.0
  Ni  Ni417  1  0.61608010  0.33155181  0.22165029  1.0
  Ni  Ni418  1  0.61608010  0.66488514  0.22165029  1.0
  Ni  Ni419  1  0.61608010  0.99821848  0.22165029  1.0
  Ni  Ni420  1  0.94941343  0.33155181  0.22165029  1.0
  Ni  Ni421  1  0.94941343  0.66488514  0.22165029  1.0
  Ni  Ni422  1  0.94941343  0.99821848  0.22165029  1.0
  Ni  Ni423  1  0.25893724  0.21250419  0.15022171  1.0
  Ni  Ni424  1  0.25893724  0.54583752  0.15022171  1.0
  Ni  Ni425  1  0.25893724  0.87917086  0.15022171  1.0
  Ni  Ni426  1  0.59227057  0.21250419  0.15022171  1.0
  Ni  Ni427  1  0.59227057  0.54583752  0.15022171  1.0
  Ni  Ni428  1  0.59227057  0.87917086  0.15022171  1.0
  Ni  Ni429  1  0.92560390  0.21250419  0.15022171  1.0
  Ni  Ni430  1  0.92560390  0.54583752  0.15022171  1.0
  Ni  Ni431  1  0.92560390  0.87917086  0.15022171  1.0
  Ni  Ni432  1  0.06676893  0.30455898  0.32367879  1.0
  Ni  Ni433  1  0.06676893  0.63789231  0.32367879  1.0
  Ni  Ni434  1  0.06676893  0.97122564  0.32367879  1.0
  Ni  Ni435  1  0.40010226  0.30455898  0.32367879  1.0
  Ni  Ni436  1  0.40010226  0.63789231  0.32367879  1.0
  Ni  Ni437  1  0.40010226  0.97122564  0.32367879  1.0
  Ni  Ni438  1  0.73343560  0.30455898  0.32367879  1.0
  Ni  Ni439  1  0.73343560  0.63789231  0.32367879  1.0
  Ni  Ni440  1  0.73343560  0.97122564  0.32367879  1.0
  Ni  Ni441  1  0.09057845  0.09027326  0.39510736  1.0
  Ni  Ni442  1  0.09057845  0.42360660  0.39510736  1.0
  Ni  Ni443  1  0.09057845  0.75693993  0.39510736  1.0
  Ni  Ni444  1  0.42391179  0.09027326  0.39510736  1.0
  Ni  Ni445  1  0.42391179  0.42360660  0.39510736  1.0
  Ni  Ni446  1  0.42391179  0.75693993  0.39510736  1.0
  Ni  Ni447  1  0.75724512  0.09027326  0.39510736  1.0
  Ni  Ni448  1  0.75724512  0.42360660  0.39510736  1.0
  Ni  Ni449  1  0.75724512  0.75693993  0.39510736  1.0
  Ni  Ni450  1  0.00881810  0.29524181  0.39986429  1.0
  Ni  Ni451  1  0.00881810  0.62857514  0.39986429  1.0
  Ni  Ni452  1  0.00881810  0.96190848  0.39986429  1.0
  Ni  Ni453  1  0.34215143  0.29524181  0.39986429  1.0
  Ni  Ni454  1  0.34215143  0.62857514  0.39986429  1.0
  Ni  Ni455  1  0.34215143  0.96190848  0.39986429  1.0
  Ni  Ni456  1  0.67548476  0.29524181  0.39986429  1.0
  Ni  Ni457  1  0.67548476  0.62857514  0.39986429  1.0
  Ni  Ni458  1  0.67548476  0.96190848  0.39986429  1.0
  Ni  Ni459  1  0.31834190  0.17619419  0.32843571  1.0
  Ni  Ni460  1  0.31834190  0.50952752  0.32843571  1.0
  Ni  Ni461  1  0.31834190  0.84286086  0.32843571  1.0
  Ni  Ni462  1  0.65167524  0.17619419  0.32843571  1.0
  Ni  Ni463  1  0.65167524  0.50952752  0.32843571  1.0
  Ni  Ni464  1  0.65167524  0.84286086  0.32843571  1.0
  Ni  Ni465  1  0.98500857  0.17619419  0.32843571  1.0
  Ni  Ni466  1  0.98500857  0.50952752  0.32843571  1.0
  Ni  Ni467  1  0.98500857  0.84286086  0.32843571  1.0
  Ni  Ni468  1  0.08353010  0.22805814  0.37702029  1.0
  Ni  Ni469  1  0.08353010  0.56139148  0.37702029  1.0
  Ni  Ni470  1  0.08353010  0.89472481  0.37702029  1.0
  Ni  Ni471  1  0.41686343  0.22805814  0.37702029  1.0
  Ni  Ni472  1  0.41686343  0.56139148  0.37702029  1.0
  Ni  Ni473  1  0.41686343  0.89472481  0.37702029  1.0
  Ni  Ni474  1  0.75019676  0.22805814  0.37702029  1.0
  Ni  Ni475  1  0.75019676  0.56139148  0.37702029  1.0
  Ni  Ni476  1  0.75019676  0.89472481  0.37702029  1.0
  Ni  Ni477  1  0.05972057  0.10901052  0.30559171  1.0
  Ni  Ni478  1  0.05972057  0.44234386  0.30559171  1.0
  Ni  Ni479  1  0.05972057  0.77567719  0.30559171  1.0
  Ni  Ni480  1  0.39305390  0.10901052  0.30559171  1.0
  Ni  Ni481  1  0.39305390  0.44234386  0.30559171  1.0
  Ni  Ni482  1  0.39305390  0.77567719  0.30559171  1.0
  Ni  Ni483  1  0.72638724  0.10901052  0.30559171  1.0
  Ni  Ni484  1  0.72638724  0.44234386  0.30559171  1.0
  Ni  Ni485  1  0.72638724  0.77567719  0.30559171  1.0
  Ni  Ni486  1  0.24106276  0.28749581  0.34977829  1.0
  Ni  Ni487  1  0.24106276  0.62082914  0.34977829  1.0
  Ni  Ni488  1  0.24106276  0.95416248  0.34977829  1.0
  Ni  Ni489  1  0.57439610  0.28749581  0.34977829  1.0
  Ni  Ni490  1  0.57439610  0.62082914  0.34977829  1.0
  Ni  Ni491  1  0.57439610  0.95416248  0.34977829  1.0
  Ni  Ni492  1  0.90772943  0.28749581  0.34977829  1.0
  Ni  Ni493  1  0.90772943  0.62082914  0.34977829  1.0
  Ni  Ni494  1  0.90772943  0.95416248  0.34977829  1.0
  Ni  Ni495  1  0.26487229  0.07321010  0.42120686  1.0
  Ni  Ni496  1  0.26487229  0.40654343  0.42120686  1.0
  Ni  Ni497  1  0.26487229  0.73987676  0.42120686  1.0
  Ni  Ni498  1  0.59820562  0.07321010  0.42120686  1.0
  Ni  Ni499  1  0.59820562  0.40654343  0.42120686  1.0
  Ni  Ni500  1  0.59820562  0.73987676  0.42120686  1.0
  Ni  Ni501  1  0.93153895  0.07321010  0.42120686  1.0
  Ni  Ni502  1  0.93153895  0.40654343  0.42120686  1.0
  Ni  Ni503  1  0.93153895  0.73987676  0.42120686  1.0
  Ni  Ni504  1  0.22320890  0.03328586  0.29355271  1.0
  Ni  Ni505  1  0.22320890  0.36661919  0.29355271  1.0
  Ni  Ni506  1  0.22320890  0.69995252  0.29355271  1.0
  Ni  Ni507  1  0.55654224  0.03328586  0.29355271  1.0
  Ni  Ni508  1  0.55654224  0.36661919  0.29355271  1.0
  Ni  Ni509  1  0.55654224  0.69995252  0.29355271  1.0
  Ni  Ni510  1  0.88987557  0.03328586  0.29355271  1.0
  Ni  Ni511  1  0.88987557  0.36661919  0.29355271  1.0
  Ni  Ni512  1  0.88987557  0.69995252  0.29355271  1.0
  Ni  Ni513  1  0.24701843  0.15233348  0.36498129  1.0
  Ni  Ni514  1  0.24701843  0.48566681  0.36498129  1.0
  Ni  Ni515  1  0.24701843  0.81900014  0.36498129  1.0
  Ni  Ni516  1  0.58035176  0.15233348  0.36498129  1.0
  Ni  Ni517  1  0.58035176  0.48566681  0.36498129  1.0
  Ni  Ni518  1  0.58035176  0.81900014  0.36498129  1.0
  Ni  Ni519  1  0.91368510  0.15233348  0.36498129  1.0
  Ni  Ni520  1  0.91368510  0.48566681  0.36498129  1.0
  Ni  Ni521  1  0.91368510  0.81900014  0.36498129  1.0
  Ni  Ni522  1  0.05492621  0.24534540  0.28815064  1.0
  Ni  Ni523  1  0.05492621  0.57867874  0.28815064  1.0
  Ni  Ni524  1  0.05492621  0.91201207  0.28815064  1.0
  Ni  Ni525  1  0.38825955  0.24534540  0.28815064  1.0
  Ni  Ni526  1  0.38825955  0.57867874  0.28815064  1.0
  Ni  Ni527  1  0.38825955  0.91201207  0.28815064  1.0
  Ni  Ni528  1  0.72159288  0.24534540  0.28815064  1.0
  Ni  Ni529  1  0.72159288  0.57867874  0.28815064  1.0
  Ni  Ni530  1  0.72159288  0.91201207  0.28815064  1.0
  Ni  Ni531  1  0.07873574  0.03105969  0.35957921  1.0
  Ni  Ni532  1  0.07873574  0.36439302  0.35957921  1.0
  Ni  Ni533  1  0.07873574  0.69772636  0.35957921  1.0
  Ni  Ni534  1  0.41206907  0.03105969  0.35957921  1.0
  Ni  Ni535  1  0.41206907  0.36439302  0.35957921  1.0
  Ni  Ni536  1  0.41206907  0.69772636  0.35957921  1.0
  Ni  Ni537  1  0.74540240  0.03105969  0.35957921  1.0
  Ni  Ni538  1  0.74540240  0.36439302  0.35957921  1.0
  Ni  Ni539  1  0.74540240  0.69772636  0.35957921  1.0
  Ni  Ni540  1  0.01488633  0.15719033  0.42073300  1.0
  Ni  Ni541  1  0.01488633  0.49052367  0.42073300  1.0
  Ni  Ni542  1  0.01488633  0.82385700  0.42073300  1.0
  Ni  Ni543  1  0.34821967  0.15719033  0.42073300  1.0
  Ni  Ni544  1  0.34821967  0.49052367  0.42073300  1.0
  Ni  Ni545  1  0.34821967  0.82385700  0.42073300  1.0
  Ni  Ni546  1  0.68155300  0.15719033  0.42073300  1.0
  Ni  Ni547  1  0.68155300  0.49052367  0.42073300  1.0
  Ni  Ni548  1  0.68155300  0.82385700  0.42073300  1.0
  Ni  Ni549  1  0.32441014  0.03814271  0.34930443  1.0
  Ni  Ni550  1  0.32441014  0.37147605  0.34930443  1.0
  Ni  Ni551  1  0.32441014  0.70480938  0.34930443  1.0
  Ni  Ni552  1  0.65774348  0.03814271  0.34930443  1.0
  Ni  Ni553  1  0.65774348  0.37147605  0.34930443  1.0
  Ni  Ni554  1  0.65774348  0.70480938  0.34930443  1.0
  Ni  Ni555  1  0.99107681  0.03814271  0.34930443  1.0
  Ni  Ni556  1  0.99107681  0.37147605  0.34930443  1.0
  Ni  Ni557  1  0.99107681  0.70480938  0.34930443  1.0
  Ni  Ni558  1  0.17132631  0.21925055  0.39060693  1.0
  Ni  Ni559  1  0.17132631  0.55258388  0.39060693  1.0
  Ni  Ni560  1  0.17132631  0.88591721  0.39060693  1.0
  Ni  Ni561  1  0.50465964  0.21925055  0.39060693  1.0
  Ni  Ni562  1  0.50465964  0.55258388  0.39060693  1.0
  Ni  Ni563  1  0.50465964  0.88591721  0.39060693  1.0
  Ni  Ni564  1  0.83799298  0.21925055  0.39060693  1.0
  Ni  Ni565  1  0.83799298  0.55258388  0.39060693  1.0
  Ni  Ni566  1  0.83799298  0.88591721  0.39060693  1.0
  Ni  Ni567  1  0.14751679  0.10020293  0.31917836  1.0
  Ni  Ni568  1  0.14751679  0.43353626  0.31917836  1.0
  Ni  Ni569  1  0.14751679  0.76686960  0.31917836  1.0
  Ni  Ni570  1  0.48085012  0.10020293  0.31917836  1.0
  Ni  Ni571  1  0.48085012  0.43353626  0.31917836  1.0
  Ni  Ni572  1  0.48085012  0.76686960  0.31917836  1.0
  Ni  Ni573  1  0.81418345  0.10020293  0.31917836  1.0
  Ni  Ni574  1  0.81418345  0.43353626  0.31917836  1.0
  Ni  Ni575  1  0.81418345  0.76686960  0.31917836  1.0
  Ni  Ni576  1  0.18316902  0.27846412  0.42613507  1.0
  Ni  Ni577  1  0.18316902  0.61179745  0.42613507  1.0
  Ni  Ni578  1  0.18316902  0.94513079  0.42613507  1.0
  Ni  Ni579  1  0.51650236  0.27846412  0.42613507  1.0
  Ni  Ni580  1  0.51650236  0.61179745  0.42613507  1.0
  Ni  Ni581  1  0.51650236  0.94513079  0.42613507  1.0
  Ni  Ni582  1  0.84983569  0.27846412  0.42613507  1.0
  Ni  Ni583  1  0.84983569  0.61179745  0.42613507  1.0
  Ni  Ni584  1  0.84983569  0.94513079  0.42613507  1.0
  Ni  Ni585  1  0.15935950  0.15941650  0.35470650  1.0
  Ni  Ni586  1  0.15935950  0.49274983  0.35470650  1.0
  Ni  Ni587  1  0.15935950  0.82608317  0.35470650  1.0
  Ni  Ni588  1  0.49269283  0.15941650  0.35470650  1.0
  Ni  Ni589  1  0.49269283  0.49274983  0.35470650  1.0
  Ni  Ni590  1  0.49269283  0.82608317  0.35470650  1.0
  Ni  Ni591  1  0.82602617  0.15941650  0.35470650  1.0
  Ni  Ni592  1  0.82602617  0.49274983  0.35470650  1.0
  Ni  Ni593  1  0.82602617  0.82608317  0.35470650  1.0
  Ni  Ni594  1  0.22927714  0.22856771  0.31442143  1.0
  Ni  Ni595  1  0.22927714  0.56190105  0.31442143  1.0
  Ni  Ni596  1  0.22927714  0.89523438  0.31442143  1.0
  Ni  Ni597  1  0.56261048  0.22856771  0.31442143  1.0
  Ni  Ni598  1  0.56261048  0.56190105  0.31442143  1.0
  Ni  Ni599  1  0.56261048  0.89523438  0.31442143  1.0
  Ni  Ni600  1  0.89594381  0.22856771  0.31442143  1.0
  Ni  Ni601  1  0.89594381  0.56190105  0.31442143  1.0
  Ni  Ni602  1  0.89594381  0.89523438  0.31442143  1.0
  Ni  Ni603  1  0.25308667  0.01428200  0.38585000  1.0
  Ni  Ni604  1  0.25308667  0.34761533  0.38585000  1.0
  Ni  Ni605  1  0.25308667  0.68094867  0.38585000  1.0
  Ni  Ni606  1  0.58642000  0.01428200  0.38585000  1.0
  Ni  Ni607  1  0.58642000  0.34761533  0.38585000  1.0
  Ni  Ni608  1  0.58642000  0.68094867  0.38585000  1.0
  Ni  Ni609  1  0.91975333  0.01428200  0.38585000  1.0
  Ni  Ni610  1  0.91975333  0.34761533  0.38585000  1.0
  Ni  Ni611  1  0.91975333  0.68094867  0.38585000  1.0
  Ni  Ni612  1  0.15456514  0.29575138  0.33726543  1.0
  Ni  Ni613  1  0.15456514  0.62908471  0.33726543  1.0
  Ni  Ni614  1  0.15456514  0.96241805  0.33726543  1.0
  Ni  Ni615  1  0.48789848  0.29575138  0.33726543  1.0
  Ni  Ni616  1  0.48789848  0.62908471  0.33726543  1.0
  Ni  Ni617  1  0.48789848  0.96241805  0.33726543  1.0
  Ni  Ni618  1  0.82123181  0.29575138  0.33726543  1.0
  Ni  Ni619  1  0.82123181  0.62908471  0.33726543  1.0
  Ni  Ni620  1  0.82123181  0.96241805  0.33726543  1.0
  Ni  Ni621  1  0.17837467  0.08146567  0.40869400  1.0
  Ni  Ni622  1  0.17837467  0.41479900  0.40869400  1.0
  Ni  Ni623  1  0.17837467  0.74813233  0.40869400  1.0
  Ni  Ni624  1  0.51170800  0.08146567  0.40869400  1.0
  Ni  Ni625  1  0.51170800  0.41479900  0.40869400  1.0
  Ni  Ni626  1  0.51170800  0.74813233  0.40869400  1.0
  Ni  Ni627  1  0.84504133  0.08146567  0.40869400  1.0
  Ni  Ni628  1  0.84504133  0.41479900  0.40869400  1.0
  Ni  Ni629  1  0.84504133  0.74813233  0.40869400  1.0
  Ni  Ni630  1  0.33036581  0.23631371  0.36450743  1.0
  Ni  Ni631  1  0.33036581  0.56964705  0.36450743  1.0
  Ni  Ni632  1  0.33036581  0.90298038  0.36450743  1.0
  Ni  Ni633  1  0.66369914  0.23631371  0.36450743  1.0
  Ni  Ni634  1  0.66369914  0.56964705  0.36450743  1.0
  Ni  Ni635  1  0.66369914  0.90298038  0.36450743  1.0
  Ni  Ni636  1  0.99703248  0.23631371  0.36450743  1.0
  Ni  Ni637  1  0.99703248  0.56964705  0.36450743  1.0
  Ni  Ni638  1  0.99703248  0.90298038  0.36450743  1.0
  Ni  Ni639  1  0.30655629  0.11726610  0.29307886  1.0
  Ni  Ni640  1  0.30655629  0.45059943  0.29307886  1.0
  Ni  Ni641  1  0.30655629  0.78393276  0.29307886  1.0
  Ni  Ni642  1  0.63988962  0.11726610  0.29307886  1.0
  Ni  Ni643  1  0.63988962  0.45059943  0.29307886  1.0
  Ni  Ni644  1  0.63988962  0.78393276  0.29307886  1.0
  Ni  Ni645  1  0.97322295  0.11726610  0.29307886  1.0
  Ni  Ni646  1  0.97322295  0.45059943  0.29307886  1.0
  Ni  Ni647  1  0.97322295  0.78393276  0.29307886  1.0
  Ta  Ta648  1  0.21565924  0.17127119  0.02513171  1.0
  Ta  Ta649  1  0.21565924  0.50460452  0.02513171  1.0
  Ta  Ta650  1  0.21565924  0.83793786  0.02513171  1.0
  Ta  Ta651  1  0.54899257  0.17127119  0.02513171  1.0
  Ta  Ta652  1  0.54899257  0.50460452  0.02513171  1.0
  Ta  Ta653  1  0.54899257  0.83793786  0.02513171  1.0
  Ta  Ta654  1  0.88232590  0.17127119  0.02513171  1.0
  Ta  Ta655  1  0.88232590  0.50460452  0.02513171  1.0
  Ta  Ta656  1  0.88232590  0.83793786  0.02513171  1.0
  Ta  Ta657  1  0.23946876  0.29031881  0.09656029  1.0
  Ta  Ta658  1  0.23946876  0.62365214  0.09656029  1.0
  Ta  Ta659  1  0.23946876  0.95698548  0.09656029  1.0
  Ta  Ta660  1  0.57280210  0.29031881  0.09656029  1.0
  Ta  Ta661  1  0.57280210  0.62365214  0.09656029  1.0
  Ta  Ta662  1  0.57280210  0.95698548  0.09656029  1.0
  Ta  Ta663  1  0.90613543  0.29031881  0.09656029  1.0
  Ta  Ta664  1  0.90613543  0.62365214  0.09656029  1.0
  Ta  Ta665  1  0.90613543  0.95698548  0.09656029  1.0
  Ta  Ta666  1  0.16529314  0.06682405  0.11772543  1.0
  Ta  Ta667  1  0.16529314  0.40015738  0.11772543  1.0
  Ta  Ta668  1  0.16529314  0.73349071  0.11772543  1.0
  Ta  Ta669  1  0.49862648  0.06682405  0.11772543  1.0
  Ta  Ta670  1  0.49862648  0.40015738  0.11772543  1.0
  Ta  Ta671  1  0.49862648  0.73349071  0.11772543  1.0
  Ta  Ta672  1  0.83195981  0.06682405  0.11772543  1.0
  Ta  Ta673  1  0.83195981  0.40015738  0.11772543  1.0
  Ta  Ta674  1  0.83195981  0.73349071  0.11772543  1.0
  Ta  Ta675  1  0.14148362  0.28110976  0.04629686  1.0
  Ta  Ta676  1  0.14148362  0.61444310  0.04629686  1.0
  Ta  Ta677  1  0.14148362  0.94777643  0.04629686  1.0
  Ta  Ta678  1  0.47481695  0.28110976  0.04629686  1.0
  Ta  Ta679  1  0.47481695  0.61444310  0.04629686  1.0
  Ta  Ta680  1  0.47481695  0.94777643  0.04629686  1.0
  Ta  Ta681  1  0.80815029  0.28110976  0.04629686  1.0
  Ta  Ta682  1  0.80815029  0.61444310  0.04629686  1.0
  Ta  Ta683  1  0.80815029  0.94777643  0.04629686  1.0
  Ta  Ta684  1  0.07117512  0.21311593  0.08592636  1.0
  Ta  Ta685  1  0.07117512  0.54644926  0.08592636  1.0
  Ta  Ta686  1  0.07117512  0.87978260  0.08592636  1.0
  Ta  Ta687  1  0.40450845  0.21311593  0.08592636  1.0
  Ta  Ta688  1  0.40450845  0.54644926  0.08592636  1.0
  Ta  Ta689  1  0.40450845  0.87978260  0.08592636  1.0
  Ta  Ta690  1  0.73784179  0.21311593  0.08592636  1.0
  Ta  Ta691  1  0.73784179  0.54644926  0.08592636  1.0
  Ta  Ta692  1  0.73784179  0.87978260  0.08592636  1.0
  Ta  Ta693  1  0.04736560  0.09406831  0.01449779  1.0
  Ta  Ta694  1  0.04736560  0.42740164  0.01449779  1.0
  Ta  Ta695  1  0.04736560  0.76073498  0.01449779  1.0
  Ta  Ta696  1  0.38069893  0.09406831  0.01449779  1.0
  Ta  Ta697  1  0.38069893  0.42740164  0.01449779  1.0
  Ta  Ta698  1  0.38069893  0.76073498  0.01449779  1.0
  Ta  Ta699  1  0.71403226  0.09406831  0.01449779  1.0
  Ta  Ta700  1  0.71403226  0.42740164  0.01449779  1.0
  Ta  Ta701  1  0.71403226  0.76073498  0.01449779  1.0
  Ta  Ta702  1  0.30977726  0.02497931  0.05693079  1.0
  Ta  Ta703  1  0.30977726  0.35831264  0.05693079  1.0
  Ta  Ta704  1  0.30977726  0.69164598  0.05693079  1.0
  Ta  Ta705  1  0.64311060  0.02497931  0.05693079  1.0
  Ta  Ta706  1  0.64311060  0.35831264  0.05693079  1.0
  Ta  Ta707  1  0.64311060  0.69164598  0.05693079  1.0
  Ta  Ta708  1  0.97644393  0.02497931  0.05693079  1.0
  Ta  Ta709  1  0.97644393  0.35831264  0.05693079  1.0
  Ta  Ta710  1  0.97644393  0.69164598  0.05693079  1.0
  Ta  Ta711  1  0.00025345  0.14402693  0.12835936  1.0
  Ta  Ta712  1  0.00025345  0.47736026  0.12835936  1.0
  Ta  Ta713  1  0.00025345  0.81069360  0.12835936  1.0
  Ta  Ta714  1  0.33358679  0.14402693  0.12835936  1.0
  Ta  Ta715  1  0.33358679  0.47736026  0.12835936  1.0
  Ta  Ta716  1  0.33358679  0.81069360  0.12835936  1.0
  Ta  Ta717  1  0.66692012  0.14402693  0.12835936  1.0
  Ta  Ta718  1  0.66692012  0.47736026  0.12835936  1.0
  Ta  Ta719  1  0.66692012  0.81069360  0.12835936  1.0
  Ta  Ta720  1  0.26327829  0.07603310  0.16798886  1.0
  Ta  Ta721  1  0.26327829  0.40936643  0.16798886  1.0
  Ta  Ta722  1  0.26327829  0.74269976  0.16798886  1.0
  Ta  Ta723  1  0.59661162  0.07603310  0.16798886  1.0
  Ta  Ta724  1  0.59661162  0.40936643  0.16798886  1.0
  Ta  Ta725  1  0.59661162  0.74269976  0.16798886  1.0
  Ta  Ta726  1  0.92994495  0.07603310  0.16798886  1.0
  Ta  Ta727  1  0.92994495  0.40936643  0.16798886  1.0
  Ta  Ta728  1  0.92994495  0.74269976  0.16798886  1.0
  Ta  Ta729  1  0.28708781  0.19508071  0.23941743  1.0
  Ta  Ta730  1  0.28708781  0.52841405  0.23941743  1.0
  Ta  Ta731  1  0.28708781  0.86174738  0.23941743  1.0
  Ta  Ta732  1  0.62042114  0.19508071  0.23941743  1.0
  Ta  Ta733  1  0.62042114  0.52841405  0.23941743  1.0
  Ta  Ta734  1  0.62042114  0.86174738  0.23941743  1.0
  Ta  Ta735  1  0.95375448  0.19508071  0.23941743  1.0
  Ta  Ta736  1  0.95375448  0.52841405  0.23941743  1.0
  Ta  Ta737  1  0.95375448  0.86174738  0.23941743  1.0
  Ta  Ta738  1  0.21291219  0.30491929  0.26058257  1.0
  Ta  Ta739  1  0.21291219  0.63825262  0.26058257  1.0
  Ta  Ta740  1  0.21291219  0.97158595  0.26058257  1.0
  Ta  Ta741  1  0.54624552  0.30491929  0.26058257  1.0
  Ta  Ta742  1  0.54624552  0.63825262  0.26058257  1.0
  Ta  Ta743  1  0.54624552  0.97158595  0.26058257  1.0
  Ta  Ta744  1  0.87957886  0.30491929  0.26058257  1.0
  Ta  Ta745  1  0.87957886  0.63825262  0.26058257  1.0
  Ta  Ta746  1  0.87957886  0.97158595  0.26058257  1.0
  Ta  Ta747  1  0.18910267  0.18587167  0.18915400  1.0
  Ta  Ta748  1  0.18910267  0.51920500  0.18915400  1.0
  Ta  Ta749  1  0.18910267  0.85253833  0.18915400  1.0
  Ta  Ta750  1  0.52243600  0.18587167  0.18915400  1.0
  Ta  Ta751  1  0.52243600  0.51920500  0.18915400  1.0
  Ta  Ta752  1  0.52243600  0.85253833  0.18915400  1.0
  Ta  Ta753  1  0.85576933  0.18587167  0.18915400  1.0
  Ta  Ta754  1  0.85576933  0.51920500  0.18915400  1.0
  Ta  Ta755  1  0.85576933  0.85253833  0.18915400  1.0
  Ta  Ta756  1  0.11879417  0.11787783  0.22878350  1.0
  Ta  Ta757  1  0.11879417  0.45121117  0.22878350  1.0
  Ta  Ta758  1  0.11879417  0.78454450  0.22878350  1.0
  Ta  Ta759  1  0.45212750  0.11787783  0.22878350  1.0
  Ta  Ta760  1  0.45212750  0.45121117  0.22878350  1.0
  Ta  Ta761  1  0.45212750  0.78454450  0.22878350  1.0
  Ta  Ta762  1  0.78546083  0.11787783  0.22878350  1.0
  Ta  Ta763  1  0.78546083  0.45121117  0.22878350  1.0
  Ta  Ta764  1  0.78546083  0.78454450  0.22878350  1.0
  Ta  Ta765  1  0.09498464  0.33216355  0.15735493  1.0
  Ta  Ta766  1  0.09498464  0.66549688  0.15735493  1.0
  Ta  Ta767  1  0.09498464  0.99883021  0.15735493  1.0
  Ta  Ta768  1  0.42831798  0.33216355  0.15735493  1.0
  Ta  Ta769  1  0.42831798  0.66549688  0.15735493  1.0
  Ta  Ta770  1  0.42831798  0.99883021  0.15735493  1.0
  Ta  Ta771  1  0.76165131  0.33216355  0.15735493  1.0
  Ta  Ta772  1  0.76165131  0.66549688  0.15735493  1.0
  Ta  Ta773  1  0.76165131  0.99883021  0.15735493  1.0
  Ta  Ta774  1  0.02406298  0.26307455  0.19978793  1.0
  Ta  Ta775  1  0.02406298  0.59640788  0.19978793  1.0
  Ta  Ta776  1  0.02406298  0.92974121  0.19978793  1.0
  Ta  Ta777  1  0.35739631  0.26307455  0.19978793  1.0
  Ta  Ta778  1  0.35739631  0.59640788  0.19978793  1.0
  Ta  Ta779  1  0.35739631  0.92974121  0.19978793  1.0
  Ta  Ta780  1  0.69072964  0.26307455  0.19978793  1.0
  Ta  Ta781  1  0.69072964  0.59640788  0.19978793  1.0
  Ta  Ta782  1  0.69072964  0.92974121  0.19978793  1.0
  Ta  Ta783  1  0.04787250  0.04878883  0.27121650  1.0
  Ta  Ta784  1  0.04787250  0.38212217  0.27121650  1.0
  Ta  Ta785  1  0.04787250  0.71545550  0.27121650  1.0
  Ta  Ta786  1  0.38120583  0.04878883  0.27121650  1.0
  Ta  Ta787  1  0.38120583  0.38212217  0.27121650  1.0
  Ta  Ta788  1  0.38120583  0.71545550  0.27121650  1.0
  Ta  Ta789  1  0.71453917  0.04878883  0.27121650  1.0
  Ta  Ta790  1  0.71453917  0.38212217  0.27121650  1.0
  Ta  Ta791  1  0.71453917  0.71545550  0.27121650  1.0
  Ta  Ta792  1  0.31089733  0.31412833  0.31084600  1.0
  Ta  Ta793  1  0.31089733  0.64746167  0.31084600  1.0
  Ta  Ta794  1  0.31089733  0.98079500  0.31084600  1.0
  Ta  Ta795  1  0.64423067  0.31412833  0.31084600  1.0
  Ta  Ta796  1  0.64423067  0.64746167  0.31084600  1.0
  Ta  Ta797  1  0.64423067  0.98079500  0.31084600  1.0
  Ta  Ta798  1  0.97756400  0.31412833  0.31084600  1.0
  Ta  Ta799  1  0.97756400  0.64746167  0.31084600  1.0
  Ta  Ta800  1  0.97756400  0.98079500  0.31084600  1.0
  Ta  Ta801  1  0.00137352  0.09984262  0.38227457  1.0
  Ta  Ta802  1  0.00137352  0.43317595  0.38227457  1.0
  Ta  Ta803  1  0.00137352  0.76650929  0.38227457  1.0
  Ta  Ta804  1  0.33470686  0.09984262  0.38227457  1.0
  Ta  Ta805  1  0.33470686  0.43317595  0.38227457  1.0
  Ta  Ta806  1  0.33470686  0.76650929  0.38227457  1.0
  Ta  Ta807  1  0.66804019  0.09984262  0.38227457  1.0
  Ta  Ta808  1  0.66804019  0.43317595  0.38227457  1.0
  Ta  Ta809  1  0.66804019  0.76650929  0.38227457  1.0
  Ta  Ta810  1  0.26053124  0.20968119  0.40343971  1.0
  Ta  Ta811  1  0.26053124  0.54301452  0.40343971  1.0
  Ta  Ta812  1  0.26053124  0.87634786  0.40343971  1.0
  Ta  Ta813  1  0.59386457  0.20968119  0.40343971  1.0
  Ta  Ta814  1  0.59386457  0.54301452  0.40343971  1.0
  Ta  Ta815  1  0.59386457  0.87634786  0.40343971  1.0
  Ta  Ta816  1  0.92719790  0.20968119  0.40343971  1.0
  Ta  Ta817  1  0.92719790  0.54301452  0.40343971  1.0
  Ta  Ta818  1  0.92719790  0.87634786  0.40343971  1.0
  Ta  Ta819  1  0.23672171  0.09063357  0.33201114  1.0
  Ta  Ta820  1  0.23672171  0.42396690  0.33201114  1.0
  Ta  Ta821  1  0.23672171  0.75730024  0.33201114  1.0
  Ta  Ta822  1  0.57005505  0.09063357  0.33201114  1.0
  Ta  Ta823  1  0.57005505  0.42396690  0.33201114  1.0
  Ta  Ta824  1  0.57005505  0.75730024  0.33201114  1.0
  Ta  Ta825  1  0.90338838  0.09063357  0.33201114  1.0
  Ta  Ta826  1  0.90338838  0.42396690  0.33201114  1.0
  Ta  Ta827  1  0.90338838  0.75730024  0.33201114  1.0
  Ta  Ta828  1  0.16641321  0.02263974  0.37164064  1.0
  Ta  Ta829  1  0.16641321  0.35597307  0.37164064  1.0
  Ta  Ta830  1  0.16641321  0.68930640  0.37164064  1.0
  Ta  Ta831  1  0.49974655  0.02263974  0.37164064  1.0
  Ta  Ta832  1  0.49974655  0.35597307  0.37164064  1.0
  Ta  Ta833  1  0.49974655  0.68930640  0.37164064  1.0
  Ta  Ta834  1  0.83307988  0.02263974  0.37164064  1.0
  Ta  Ta835  1  0.83307988  0.35597307  0.37164064  1.0
  Ta  Ta836  1  0.83307988  0.68930640  0.37164064  1.0
  Ta  Ta837  1  0.14260369  0.23692545  0.30021207  1.0
  Ta  Ta838  1  0.14260369  0.57025879  0.30021207  1.0
  Ta  Ta839  1  0.14260369  0.90359212  0.30021207  1.0
  Ta  Ta840  1  0.47593702  0.23692545  0.30021207  1.0
  Ta  Ta841  1  0.47593702  0.57025879  0.30021207  1.0
  Ta  Ta842  1  0.47593702  0.90359212  0.30021207  1.0
  Ta  Ta843  1  0.80927036  0.23692545  0.30021207  1.0
  Ta  Ta844  1  0.80927036  0.57025879  0.30021207  1.0
  Ta  Ta845  1  0.80927036  0.90359212  0.30021207  1.0
  Ta  Ta846  1  0.07168202  0.16783645  0.34264507  1.0
  Ta  Ta847  1  0.07168202  0.50116979  0.34264507  1.0
  Ta  Ta848  1  0.07168202  0.83450312  0.34264507  1.0
  Ta  Ta849  1  0.40501536  0.16783645  0.34264507  1.0
  Ta  Ta850  1  0.40501536  0.50116979  0.34264507  1.0
  Ta  Ta851  1  0.40501536  0.83450312  0.34264507  1.0
  Ta  Ta852  1  0.73834869  0.16783645  0.34264507  1.0
  Ta  Ta853  1  0.73834869  0.50116979  0.34264507  1.0
  Ta  Ta854  1  0.73834869  0.83450312  0.34264507  1.0
  Ta  Ta855  1  0.09549155  0.28688407  0.41407364  1.0
  Ta  Ta856  1  0.09549155  0.62021740  0.41407364  1.0
  Ta  Ta857  1  0.09549155  0.95355074  0.41407364  1.0
  Ta  Ta858  1  0.42882488  0.28688407  0.41407364  1.0
  Ta  Ta859  1  0.42882488  0.62021740  0.41407364  1.0
  Ta  Ta860  1  0.42882488  0.95355074  0.41407364  1.0
  Ta  Ta861  1  0.76215821  0.28688407  0.41407364  1.0
  Ta  Ta862  1  0.76215821  0.62021740  0.41407364  1.0
  Ta  Ta863  1  0.76215821  0.95355074  0.41407364  1.0
