# generated using pymatgen
data_TaNi
_symmetry_space_group_name_H-M   'P 1'
_cell_length_a   53.89704558
_cell_length_b   160.35501934
_cell_length_c   161.69113674
_cell_angle_alpha   10.44202889
_cell_angle_beta   15.64132203
_cell_angle_gamma   13.83412017
_symmetry_Int_Tables_number   1
_chemical_formula_structural   TaNi
_chemical_formula_sum   'Ta936 Ni936'
_cell_volume   59504.72125945
_cell_formula_units_Z   936
loop_
 _symmetry_equiv_pos_site_id
 _symmetry_equiv_pos_as_xyz
  1  'x, y, z'
loop_
 _atom_site_type_symbol
 _atom_site_label
 _atom_site_symmetry_multiplicity
 _atom_site_fract_x
 _atom_site_fract_y
 _atom_site_fract_z
 _atom_site_occupancy
  Ta  Ta0  1  0.27577467  0.13788733  0.04366206  1.0
  Ta  Ta1  1  0.27577467  0.47122067  0.04366206  1.0
  Ta  Ta2  1  0.27577467  0.80455400  0.04366206  1.0
  Ta  Ta3  1  0.60910800  0.13788733  0.04366206  1.0
  Ta  Ta4  1  0.60910800  0.47122067  0.04366206  1.0
  Ta  Ta5  1  0.60910800  0.80455400  0.04366206  1.0
  Ta  Ta6  1  0.94244133  0.13788733  0.04366206  1.0
  Ta  Ta7  1  0.94244133  0.47122067  0.04366206  1.0
  Ta  Ta8  1  0.94244133  0.80455400  0.04366206  1.0
  Ta  Ta9  1  0.27577467  0.30455400  0.09921761  1.0
  Ta  Ta10  1  0.27577467  0.63788733  0.09921761  1.0
  Ta  Ta11  1  0.27577467  0.97122067  0.09921761  1.0
  Ta  Ta12  1  0.60910800  0.30455400  0.09921761  1.0
  Ta  Ta13  1  0.60910800  0.63788733  0.09921761  1.0
  Ta  Ta14  1  0.60910800  0.97122067  0.09921761  1.0
  Ta  Ta15  1  0.94244133  0.30455400  0.09921761  1.0
  Ta  Ta16  1  0.94244133  0.63788733  0.09921761  1.0
  Ta  Ta17  1  0.94244133  0.97122067  0.09921761  1.0
  Ta  Ta18  1  0.10916267  0.05458133  0.01589339  1.0
  Ta  Ta19  1  0.10916267  0.38791467  0.01589339  1.0
  Ta  Ta20  1  0.10916267  0.72124800  0.01589339  1.0
  Ta  Ta21  1  0.44249600  0.05458133  0.01589339  1.0
  Ta  Ta22  1  0.44249600  0.38791467  0.01589339  1.0
  Ta  Ta23  1  0.44249600  0.72124800  0.01589339  1.0
  Ta  Ta24  1  0.77582933  0.05458133  0.01589339  1.0
  Ta  Ta25  1  0.77582933  0.38791467  0.01589339  1.0
  Ta  Ta26  1  0.77582933  0.72124800  0.01589339  1.0
  Ta  Ta27  1  0.10916267  0.22124800  0.07144894  1.0
  Ta  Ta28  1  0.10916267  0.55458133  0.07144894  1.0
  Ta  Ta29  1  0.10916267  0.88791467  0.07144894  1.0
  Ta  Ta30  1  0.44249600  0.22124800  0.07144894  1.0
  Ta  Ta31  1  0.44249600  0.55458133  0.07144894  1.0
  Ta  Ta32  1  0.44249600  0.88791467  0.07144894  1.0
  Ta  Ta33  1  0.77582933  0.22124800  0.07144894  1.0
  Ta  Ta34  1  0.77582933  0.55458133  0.07144894  1.0
  Ta  Ta35  1  0.77582933  0.88791467  0.07144894  1.0
  Ta  Ta36  1  0.22417067  0.11208533  0.03506139  1.0
  Ta  Ta37  1  0.22417067  0.44541867  0.03506139  1.0
  Ta  Ta38  1  0.22417067  0.77875200  0.03506139  1.0
  Ta  Ta39  1  0.55750400  0.11208533  0.03506139  1.0
  Ta  Ta40  1  0.55750400  0.44541867  0.03506139  1.0
  Ta  Ta41  1  0.55750400  0.77875200  0.03506139  1.0
  Ta  Ta42  1  0.89083733  0.11208533  0.03506139  1.0
  Ta  Ta43  1  0.89083733  0.44541867  0.03506139  1.0
  Ta  Ta44  1  0.89083733  0.77875200  0.03506139  1.0
  Ta  Ta45  1  0.22417067  0.27875200  0.09061694  1.0
  Ta  Ta46  1  0.22417067  0.61208533  0.09061694  1.0
  Ta  Ta47  1  0.22417067  0.94541867  0.09061694  1.0
  Ta  Ta48  1  0.55750400  0.27875200  0.09061694  1.0
  Ta  Ta49  1  0.55750400  0.61208533  0.09061694  1.0
  Ta  Ta50  1  0.55750400  0.94541867  0.09061694  1.0
  Ta  Ta51  1  0.89083733  0.27875200  0.09061694  1.0
  Ta  Ta52  1  0.89083733  0.61208533  0.09061694  1.0
  Ta  Ta53  1  0.89083733  0.94541867  0.09061694  1.0
  Ta  Ta54  1  0.05755867  0.02877933  0.00729272  1.0
  Ta  Ta55  1  0.05755867  0.36211267  0.00729272  1.0
  Ta  Ta56  1  0.05755867  0.69544600  0.00729272  1.0
  Ta  Ta57  1  0.39089200  0.02877933  0.00729272  1.0
  Ta  Ta58  1  0.39089200  0.36211267  0.00729272  1.0
  Ta  Ta59  1  0.39089200  0.69544600  0.00729272  1.0
  Ta  Ta60  1  0.72422533  0.02877933  0.00729272  1.0
  Ta  Ta61  1  0.72422533  0.36211267  0.00729272  1.0
  Ta  Ta62  1  0.72422533  0.69544600  0.00729272  1.0
  Ta  Ta63  1  0.05755867  0.19544600  0.06284828  1.0
  Ta  Ta64  1  0.05755867  0.52877933  0.06284828  1.0
  Ta  Ta65  1  0.05755867  0.86211267  0.06284828  1.0
  Ta  Ta66  1  0.39089200  0.19544600  0.06284828  1.0
  Ta  Ta67  1  0.39089200  0.52877933  0.06284828  1.0
  Ta  Ta68  1  0.39089200  0.86211267  0.06284828  1.0
  Ta  Ta69  1  0.72422533  0.19544600  0.06284828  1.0
  Ta  Ta70  1  0.72422533  0.52877933  0.06284828  1.0
  Ta  Ta71  1  0.72422533  0.86211267  0.06284828  1.0
  Ta  Ta72  1  0.25809367  0.12904683  0.04071522  1.0
  Ta  Ta73  1  0.25809367  0.46238017  0.04071522  1.0
  Ta  Ta74  1  0.25809367  0.79571350  0.04071522  1.0
  Ta  Ta75  1  0.59142700  0.12904683  0.04071522  1.0
  Ta  Ta76  1  0.59142700  0.46238017  0.04071522  1.0
  Ta  Ta77  1  0.59142700  0.79571350  0.04071522  1.0
  Ta  Ta78  1  0.92476033  0.12904683  0.04071522  1.0
  Ta  Ta79  1  0.92476033  0.46238017  0.04071522  1.0
  Ta  Ta80  1  0.92476033  0.79571350  0.04071522  1.0
  Ta  Ta81  1  0.25809367  0.29571350  0.09627078  1.0
  Ta  Ta82  1  0.25809367  0.62904683  0.09627078  1.0
  Ta  Ta83  1  0.25809367  0.96238017  0.09627078  1.0
  Ta  Ta84  1  0.59142700  0.29571350  0.09627078  1.0
  Ta  Ta85  1  0.59142700  0.62904683  0.09627078  1.0
  Ta  Ta86  1  0.59142700  0.96238017  0.09627078  1.0
  Ta  Ta87  1  0.92476033  0.29571350  0.09627078  1.0
  Ta  Ta88  1  0.92476033  0.62904683  0.09627078  1.0
  Ta  Ta89  1  0.92476033  0.96238017  0.09627078  1.0
  Ta  Ta90  1  0.09159433  0.04579717  0.01296533  1.0
  Ta  Ta91  1  0.09159433  0.37913050  0.01296533  1.0
  Ta  Ta92  1  0.09159433  0.71246383  0.01296533  1.0
  Ta  Ta93  1  0.42492767  0.04579717  0.01296533  1.0
  Ta  Ta94  1  0.42492767  0.37913050  0.01296533  1.0
  Ta  Ta95  1  0.42492767  0.71246383  0.01296533  1.0
  Ta  Ta96  1  0.75826100  0.04579717  0.01296533  1.0
  Ta  Ta97  1  0.75826100  0.37913050  0.01296533  1.0
  Ta  Ta98  1  0.75826100  0.71246383  0.01296533  1.0
  Ta  Ta99  1  0.09159433  0.21246383  0.06852089  1.0
  Ta  Ta100  1  0.09159433  0.54579717  0.06852089  1.0
  Ta  Ta101  1  0.09159433  0.87913050  0.06852089  1.0
  Ta  Ta102  1  0.42492767  0.21246383  0.06852089  1.0
  Ta  Ta103  1  0.42492767  0.54579717  0.06852089  1.0
  Ta  Ta104  1  0.42492767  0.87913050  0.06852089  1.0
  Ta  Ta105  1  0.75826100  0.21246383  0.06852089  1.0
  Ta  Ta106  1  0.75826100  0.54579717  0.06852089  1.0
  Ta  Ta107  1  0.75826100  0.87913050  0.06852089  1.0
  Ta  Ta108  1  0.24173900  0.12086950  0.03798944  1.0
  Ta  Ta109  1  0.24173900  0.45420283  0.03798944  1.0
  Ta  Ta110  1  0.24173900  0.78753617  0.03798944  1.0
  Ta  Ta111  1  0.57507233  0.12086950  0.03798944  1.0
  Ta  Ta112  1  0.57507233  0.45420283  0.03798944  1.0
  Ta  Ta113  1  0.57507233  0.78753617  0.03798944  1.0
  Ta  Ta114  1  0.90840567  0.12086950  0.03798944  1.0
  Ta  Ta115  1  0.90840567  0.45420283  0.03798944  1.0
  Ta  Ta116  1  0.90840567  0.78753617  0.03798944  1.0
  Ta  Ta117  1  0.24173900  0.28753617  0.09354500  1.0
  Ta  Ta118  1  0.24173900  0.62086950  0.09354500  1.0
  Ta  Ta119  1  0.24173900  0.95420283  0.09354500  1.0
  Ta  Ta120  1  0.57507233  0.28753617  0.09354500  1.0
  Ta  Ta121  1  0.57507233  0.62086950  0.09354500  1.0
  Ta  Ta122  1  0.57507233  0.95420283  0.09354500  1.0
  Ta  Ta123  1  0.90840567  0.28753617  0.09354500  1.0
  Ta  Ta124  1  0.90840567  0.62086950  0.09354500  1.0
  Ta  Ta125  1  0.90840567  0.95420283  0.09354500  1.0
  Ta  Ta126  1  0.07523967  0.03761983  0.01023956  1.0
  Ta  Ta127  1  0.07523967  0.37095317  0.01023956  1.0
  Ta  Ta128  1  0.07523967  0.70428650  0.01023956  1.0
  Ta  Ta129  1  0.40857300  0.03761983  0.01023956  1.0
  Ta  Ta130  1  0.40857300  0.37095317  0.01023956  1.0
  Ta  Ta131  1  0.40857300  0.70428650  0.01023956  1.0
  Ta  Ta132  1  0.74190633  0.03761983  0.01023956  1.0
  Ta  Ta133  1  0.74190633  0.37095317  0.01023956  1.0
  Ta  Ta134  1  0.74190633  0.70428650  0.01023956  1.0
  Ta  Ta135  1  0.07523967  0.20428650  0.06579511  1.0
  Ta  Ta136  1  0.07523967  0.53761983  0.06579511  1.0
  Ta  Ta137  1  0.07523967  0.87095317  0.06579511  1.0
  Ta  Ta138  1  0.40857300  0.20428650  0.06579511  1.0
  Ta  Ta139  1  0.40857300  0.53761983  0.06579511  1.0
  Ta  Ta140  1  0.40857300  0.87095317  0.06579511  1.0
  Ta  Ta141  1  0.74190633  0.20428650  0.06579511  1.0
  Ta  Ta142  1  0.74190633  0.53761983  0.06579511  1.0
  Ta  Ta143  1  0.74190633  0.87095317  0.06579511  1.0
  Ta  Ta144  1  0.13871800  0.06935900  0.02081928  1.0
  Ta  Ta145  1  0.13871800  0.40269233  0.02081928  1.0
  Ta  Ta146  1  0.13871800  0.73602567  0.02081928  1.0
  Ta  Ta147  1  0.47205133  0.06935900  0.02081928  1.0
  Ta  Ta148  1  0.47205133  0.40269233  0.02081928  1.0
  Ta  Ta149  1  0.47205133  0.73602567  0.02081928  1.0
  Ta  Ta150  1  0.80538467  0.06935900  0.02081928  1.0
  Ta  Ta151  1  0.80538467  0.40269233  0.02081928  1.0
  Ta  Ta152  1  0.80538467  0.73602567  0.02081928  1.0
  Ta  Ta153  1  0.13871800  0.23602567  0.07637483  1.0
  Ta  Ta154  1  0.13871800  0.56935900  0.07637483  1.0
  Ta  Ta155  1  0.13871800  0.90269233  0.07637483  1.0
  Ta  Ta156  1  0.47205133  0.23602567  0.07637483  1.0
  Ta  Ta157  1  0.47205133  0.56935900  0.07637483  1.0
  Ta  Ta158  1  0.47205133  0.90269233  0.07637483  1.0
  Ta  Ta159  1  0.80538467  0.23602567  0.07637483  1.0
  Ta  Ta160  1  0.80538467  0.56935900  0.07637483  1.0
  Ta  Ta161  1  0.80538467  0.90269233  0.07637483  1.0
  Ta  Ta162  1  0.30572867  0.15286433  0.04865439  1.0
  Ta  Ta163  1  0.30572867  0.48619767  0.04865439  1.0
  Ta  Ta164  1  0.30572867  0.81953100  0.04865439  1.0
  Ta  Ta165  1  0.63906200  0.15286433  0.04865439  1.0
  Ta  Ta166  1  0.63906200  0.48619767  0.04865439  1.0
  Ta  Ta167  1  0.63906200  0.81953100  0.04865439  1.0
  Ta  Ta168  1  0.97239533  0.15286433  0.04865439  1.0
  Ta  Ta169  1  0.97239533  0.48619767  0.04865439  1.0
  Ta  Ta170  1  0.97239533  0.81953100  0.04865439  1.0
  Ta  Ta171  1  0.30572867  0.31953100  0.10420994  1.0
  Ta  Ta172  1  0.30572867  0.65286433  0.10420994  1.0
  Ta  Ta173  1  0.30572867  0.98619767  0.10420994  1.0
  Ta  Ta174  1  0.63906200  0.31953100  0.10420994  1.0
  Ta  Ta175  1  0.63906200  0.65286433  0.10420994  1.0
  Ta  Ta176  1  0.63906200  0.98619767  0.10420994  1.0
  Ta  Ta177  1  0.97239533  0.31953100  0.10420994  1.0
  Ta  Ta178  1  0.97239533  0.65286433  0.10420994  1.0
  Ta  Ta179  1  0.97239533  0.98619767  0.10420994  1.0
  Ta  Ta180  1  0.02760467  0.01380233  0.00230039  1.0
  Ta  Ta181  1  0.02760467  0.34713567  0.00230039  1.0
  Ta  Ta182  1  0.02760467  0.68046900  0.00230039  1.0
  Ta  Ta183  1  0.36093800  0.01380233  0.00230039  1.0
  Ta  Ta184  1  0.36093800  0.34713567  0.00230039  1.0
  Ta  Ta185  1  0.36093800  0.68046900  0.00230039  1.0
  Ta  Ta186  1  0.69427133  0.01380233  0.00230039  1.0
  Ta  Ta187  1  0.69427133  0.34713567  0.00230039  1.0
  Ta  Ta188  1  0.69427133  0.68046900  0.00230039  1.0
  Ta  Ta189  1  0.02760467  0.18046900  0.05785594  1.0
  Ta  Ta190  1  0.02760467  0.51380233  0.05785594  1.0
  Ta  Ta191  1  0.02760467  0.84713567  0.05785594  1.0
  Ta  Ta192  1  0.36093800  0.18046900  0.05785594  1.0
  Ta  Ta193  1  0.36093800  0.51380233  0.05785594  1.0
  Ta  Ta194  1  0.36093800  0.84713567  0.05785594  1.0
  Ta  Ta195  1  0.69427133  0.18046900  0.05785594  1.0
  Ta  Ta196  1  0.69427133  0.51380233  0.05785594  1.0
  Ta  Ta197  1  0.69427133  0.84713567  0.05785594  1.0
  Ta  Ta198  1  0.19461533  0.09730767  0.03013550  1.0
  Ta  Ta199  1  0.19461533  0.43064100  0.03013550  1.0
  Ta  Ta200  1  0.19461533  0.76397433  0.03013550  1.0
  Ta  Ta201  1  0.52794867  0.09730767  0.03013550  1.0
  Ta  Ta202  1  0.52794867  0.43064100  0.03013550  1.0
  Ta  Ta203  1  0.52794867  0.76397433  0.03013550  1.0
  Ta  Ta204  1  0.86128200  0.09730767  0.03013550  1.0
  Ta  Ta205  1  0.86128200  0.43064100  0.03013550  1.0
  Ta  Ta206  1  0.86128200  0.76397433  0.03013550  1.0
  Ta  Ta207  1  0.19461533  0.26397433  0.08569106  1.0
  Ta  Ta208  1  0.19461533  0.59730767  0.08569106  1.0
  Ta  Ta209  1  0.19461533  0.93064100  0.08569106  1.0
  Ta  Ta210  1  0.52794867  0.26397433  0.08569106  1.0
  Ta  Ta211  1  0.52794867  0.59730767  0.08569106  1.0
  Ta  Ta212  1  0.52794867  0.93064100  0.08569106  1.0
  Ta  Ta213  1  0.86128200  0.26397433  0.08569106  1.0
  Ta  Ta214  1  0.86128200  0.59730767  0.08569106  1.0
  Ta  Ta215  1  0.86128200  0.93064100  0.08569106  1.0
  Ta  Ta216  1  0.16666667  0.08333333  0.02547739  1.0
  Ta  Ta217  1  0.16666667  0.41666667  0.02547739  1.0
  Ta  Ta218  1  0.16666667  0.75000000  0.02547739  1.0
  Ta  Ta219  1  0.50000000  0.08333333  0.02547739  1.0
  Ta  Ta220  1  0.50000000  0.41666667  0.02547739  1.0
  Ta  Ta221  1  0.50000000  0.75000000  0.02547739  1.0
  Ta  Ta222  1  0.83333333  0.08333333  0.02547739  1.0
  Ta  Ta223  1  0.83333333  0.41666667  0.02547739  1.0
  Ta  Ta224  1  0.83333333  0.75000000  0.02547739  1.0
  Ta  Ta225  1  0.16666667  0.25000000  0.08103294  1.0
  Ta  Ta226  1  0.16666667  0.58333333  0.08103294  1.0
  Ta  Ta227  1  0.16666667  0.91666667  0.08103294  1.0
  Ta  Ta228  1  0.50000000  0.25000000  0.08103294  1.0
  Ta  Ta229  1  0.50000000  0.58333333  0.08103294  1.0
  Ta  Ta230  1  0.50000000  0.91666667  0.08103294  1.0
  Ta  Ta231  1  0.83333333  0.25000000  0.08103294  1.0
  Ta  Ta232  1  0.83333333  0.58333333  0.08103294  1.0
  Ta  Ta233  1  0.83333333  0.91666667  0.08103294  1.0
  Ni  Ni234  1  0.06827067  0.03413533  0.06458139  1.0
  Ni  Ni235  1  0.06827067  0.36746867  0.06458139  1.0
  Ni  Ni236  1  0.06827067  0.70080200  0.06458139  1.0
  Ni  Ni237  1  0.40160400  0.03413533  0.06458139  1.0
  Ni  Ni238  1  0.40160400  0.36746867  0.06458139  1.0
  Ni  Ni239  1  0.40160400  0.70080200  0.06458139  1.0
  Ni  Ni240  1  0.73493733  0.03413533  0.06458139  1.0
  Ni  Ni241  1  0.73493733  0.36746867  0.06458139  1.0
  Ni  Ni242  1  0.73493733  0.70080200  0.06458139  1.0
  Ni  Ni243  1  0.06827067  0.20080200  0.00902583  1.0
  Ni  Ni244  1  0.06827067  0.53413533  0.00902583  1.0
  Ni  Ni245  1  0.06827067  0.86746867  0.00902583  1.0
  Ni  Ni246  1  0.40160400  0.20080200  0.00902583  1.0
  Ni  Ni247  1  0.40160400  0.53413533  0.00902583  1.0
  Ni  Ni248  1  0.40160400  0.86746867  0.00902583  1.0
  Ni  Ni249  1  0.73493733  0.20080200  0.00902583  1.0
  Ni  Ni250  1  0.73493733  0.53413533  0.00902583  1.0
  Ni  Ni251  1  0.73493733  0.86746867  0.00902583  1.0
  Ni  Ni252  1  0.23622633  0.11811317  0.09164722  1.0
  Ni  Ni253  1  0.23622633  0.45144650  0.09164722  1.0
  Ni  Ni254  1  0.23622633  0.78477983  0.09164722  1.0
  Ni  Ni255  1  0.56955967  0.11811317  0.09164722  1.0
  Ni  Ni256  1  0.56955967  0.45144650  0.09164722  1.0
  Ni  Ni257  1  0.56955967  0.78477983  0.09164722  1.0
  Ni  Ni258  1  0.90289300  0.11811317  0.09164722  1.0
  Ni  Ni259  1  0.90289300  0.45144650  0.09164722  1.0
  Ni  Ni260  1  0.90289300  0.78477983  0.09164722  1.0
  Ni  Ni261  1  0.23622633  0.28477983  0.03609167  1.0
  Ni  Ni262  1  0.23622633  0.61811317  0.03609167  1.0
  Ni  Ni263  1  0.23622633  0.95144650  0.03609167  1.0
  Ni  Ni264  1  0.56955967  0.28477983  0.03609167  1.0
  Ni  Ni265  1  0.56955967  0.61811317  0.03609167  1.0
  Ni  Ni266  1  0.56955967  0.95144650  0.03609167  1.0
  Ni  Ni267  1  0.90289300  0.28477983  0.03609167  1.0
  Ni  Ni268  1  0.90289300  0.61811317  0.03609167  1.0
  Ni  Ni269  1  0.90289300  0.95144650  0.03609167  1.0
  Ni  Ni270  1  0.06827067  0.11739033  0.09243750  1.0
  Ni  Ni271  1  0.06827067  0.45072367  0.09243750  1.0
  Ni  Ni272  1  0.06827067  0.78405700  0.09243750  1.0
  Ni  Ni273  1  0.40160400  0.11739033  0.09243750  1.0
  Ni  Ni274  1  0.40160400  0.45072367  0.09243750  1.0
  Ni  Ni275  1  0.40160400  0.78405700  0.09243750  1.0
  Ni  Ni276  1  0.73493733  0.11739033  0.09243750  1.0
  Ni  Ni277  1  0.73493733  0.45072367  0.09243750  1.0
  Ni  Ni278  1  0.73493733  0.78405700  0.09243750  1.0
  Ni  Ni279  1  0.06827067  0.28405700  0.03688194  1.0
  Ni  Ni280  1  0.06827067  0.61739033  0.03688194  1.0
  Ni  Ni281  1  0.06827067  0.95072367  0.03688194  1.0
  Ni  Ni282  1  0.40160400  0.28405700  0.03688194  1.0
  Ni  Ni283  1  0.40160400  0.61739033  0.03688194  1.0
  Ni  Ni284  1  0.40160400  0.95072367  0.03688194  1.0
  Ni  Ni285  1  0.73493733  0.28405700  0.03688194  1.0
  Ni  Ni286  1  0.73493733  0.61739033  0.03688194  1.0
  Ni  Ni287  1  0.73493733  0.95072367  0.03688194  1.0
  Ni  Ni288  1  0.23622633  0.03331133  0.06533794  1.0
  Ni  Ni289  1  0.23622633  0.36664467  0.06533794  1.0
  Ni  Ni290  1  0.23622633  0.69997800  0.06533794  1.0
  Ni  Ni291  1  0.56955967  0.03331133  0.06533794  1.0
  Ni  Ni292  1  0.56955967  0.36664467  0.06533794  1.0
  Ni  Ni293  1  0.56955967  0.69997800  0.06533794  1.0
  Ni  Ni294  1  0.90289300  0.03331133  0.06533794  1.0
  Ni  Ni295  1  0.90289300  0.36664467  0.06533794  1.0
  Ni  Ni296  1  0.90289300  0.69997800  0.06533794  1.0
  Ni  Ni297  1  0.23622633  0.19997800  0.00978239  1.0
  Ni  Ni298  1  0.23622633  0.53331133  0.00978239  1.0
  Ni  Ni299  1  0.23622633  0.86664467  0.00978239  1.0
  Ni  Ni300  1  0.56955967  0.19997800  0.00978239  1.0
  Ni  Ni301  1  0.56955967  0.53331133  0.00978239  1.0
  Ni  Ni302  1  0.56955967  0.86664467  0.00978239  1.0
  Ni  Ni303  1  0.90289300  0.19997800  0.00978239  1.0
  Ni  Ni304  1  0.90289300  0.53331133  0.00978239  1.0
  Ni  Ni305  1  0.90289300  0.86664467  0.00978239  1.0
  Ni  Ni306  1  0.23478067  0.03413533  0.00907806  1.0
  Ni  Ni307  1  0.23478067  0.36746867  0.00907806  1.0
  Ni  Ni308  1  0.23478067  0.70080200  0.00907806  1.0
  Ni  Ni309  1  0.56811400  0.03413533  0.00907806  1.0
  Ni  Ni310  1  0.56811400  0.36746867  0.00907806  1.0
  Ni  Ni311  1  0.56811400  0.70080200  0.00907806  1.0
  Ni  Ni312  1  0.90144733  0.03413533  0.00907806  1.0
  Ni  Ni313  1  0.90144733  0.36746867  0.00907806  1.0
  Ni  Ni314  1  0.90144733  0.70080200  0.00907806  1.0
  Ni  Ni315  1  0.23478067  0.20080200  0.06463361  1.0
  Ni  Ni316  1  0.23478067  0.53413533  0.06463361  1.0
  Ni  Ni317  1  0.23478067  0.86746867  0.06463361  1.0
  Ni  Ni318  1  0.56811400  0.20080200  0.06463361  1.0
  Ni  Ni319  1  0.56811400  0.53413533  0.06463361  1.0
  Ni  Ni320  1  0.56811400  0.86746867  0.06463361  1.0
  Ni  Ni321  1  0.90144733  0.20080200  0.06463361  1.0
  Ni  Ni322  1  0.90144733  0.53413533  0.06463361  1.0
  Ni  Ni323  1  0.90144733  0.86746867  0.06463361  1.0
  Ni  Ni324  1  0.06662267  0.11811317  0.03707067  1.0
  Ni  Ni325  1  0.06662267  0.45144650  0.03707067  1.0
  Ni  Ni326  1  0.06662267  0.78477983  0.03707067  1.0
  Ni  Ni327  1  0.39995600  0.11811317  0.03707067  1.0
  Ni  Ni328  1  0.39995600  0.45144650  0.03707067  1.0
  Ni  Ni329  1  0.39995600  0.78477983  0.03707067  1.0
  Ni  Ni330  1  0.73328933  0.11811317  0.03707067  1.0
  Ni  Ni331  1  0.73328933  0.45144650  0.03707067  1.0
  Ni  Ni332  1  0.73328933  0.78477983  0.03707067  1.0
  Ni  Ni333  1  0.06662267  0.28477983  0.09262622  1.0
  Ni  Ni334  1  0.06662267  0.61811317  0.09262622  1.0
  Ni  Ni335  1  0.06662267  0.95144650  0.09262622  1.0
  Ni  Ni336  1  0.39995600  0.28477983  0.09262622  1.0
  Ni  Ni337  1  0.39995600  0.61811317  0.09262622  1.0
  Ni  Ni338  1  0.39995600  0.95144650  0.09262622  1.0
  Ni  Ni339  1  0.73328933  0.28477983  0.09262622  1.0
  Ni  Ni340  1  0.73328933  0.61811317  0.09262622  1.0
  Ni  Ni341  1  0.73328933  0.95144650  0.09262622  1.0
  Ni  Ni342  1  0.09710700  0.04855350  0.07041867  1.0
  Ni  Ni343  1  0.09710700  0.38188683  0.07041867  1.0
  Ni  Ni344  1  0.09710700  0.71522017  0.07041867  1.0
  Ni  Ni345  1  0.43044033  0.04855350  0.07041867  1.0
  Ni  Ni346  1  0.43044033  0.38188683  0.07041867  1.0
  Ni  Ni347  1  0.43044033  0.71522017  0.07041867  1.0
  Ni  Ni348  1  0.76377367  0.04855350  0.07041867  1.0
  Ni  Ni349  1  0.76377367  0.38188683  0.07041867  1.0
  Ni  Ni350  1  0.76377367  0.71522017  0.07041867  1.0
  Ni  Ni351  1  0.09710700  0.21522017  0.01486311  1.0
  Ni  Ni352  1  0.09710700  0.54855350  0.01486311  1.0
  Ni  Ni353  1  0.09710700  0.88188683  0.01486311  1.0
  Ni  Ni354  1  0.43044033  0.21522017  0.01486311  1.0
  Ni  Ni355  1  0.43044033  0.54855350  0.01486311  1.0
  Ni  Ni356  1  0.43044033  0.88188683  0.01486311  1.0
  Ni  Ni357  1  0.76377367  0.21522017  0.01486311  1.0
  Ni  Ni358  1  0.76377367  0.54855350  0.01486311  1.0
  Ni  Ni359  1  0.76377367  0.88188683  0.01486311  1.0
  Ni  Ni360  1  0.26506267  0.13253133  0.09748450  1.0
  Ni  Ni361  1  0.26506267  0.46586467  0.09748450  1.0
  Ni  Ni362  1  0.26506267  0.79919800  0.09748450  1.0
  Ni  Ni363  1  0.59839600  0.13253133  0.09748450  1.0
  Ni  Ni364  1  0.59839600  0.46586467  0.09748450  1.0
  Ni  Ni365  1  0.59839600  0.79919800  0.09748450  1.0
  Ni  Ni366  1  0.93172933  0.13253133  0.09748450  1.0
  Ni  Ni367  1  0.93172933  0.46586467  0.09748450  1.0
  Ni  Ni368  1  0.93172933  0.79919800  0.09748450  1.0
  Ni  Ni369  1  0.26506267  0.29919800  0.04192894  1.0
  Ni  Ni370  1  0.26506267  0.63253133  0.04192894  1.0
  Ni  Ni371  1  0.26506267  0.96586467  0.04192894  1.0
  Ni  Ni372  1  0.59839600  0.29919800  0.04192894  1.0
  Ni  Ni373  1  0.59839600  0.63253133  0.04192894  1.0
  Ni  Ni374  1  0.59839600  0.96586467  0.04192894  1.0
  Ni  Ni375  1  0.93172933  0.29919800  0.04192894  1.0
  Ni  Ni376  1  0.93172933  0.63253133  0.04192894  1.0
  Ni  Ni377  1  0.93172933  0.96586467  0.04192894  1.0
  Ni  Ni378  1  0.09710700  0.13335533  0.09672794  1.0
  Ni  Ni379  1  0.09710700  0.46668867  0.09672794  1.0
  Ni  Ni380  1  0.09710700  0.80002200  0.09672794  1.0
  Ni  Ni381  1  0.43044033  0.13335533  0.09672794  1.0
  Ni  Ni382  1  0.43044033  0.46668867  0.09672794  1.0
  Ni  Ni383  1  0.43044033  0.80002200  0.09672794  1.0
  Ni  Ni384  1  0.76377367  0.13335533  0.09672794  1.0
  Ni  Ni385  1  0.76377367  0.46668867  0.09672794  1.0
  Ni  Ni386  1  0.76377367  0.80002200  0.09672794  1.0
  Ni  Ni387  1  0.09710700  0.30002200  0.04117239  1.0
  Ni  Ni388  1  0.09710700  0.63335533  0.04117239  1.0
  Ni  Ni389  1  0.09710700  0.96668867  0.04117239  1.0
  Ni  Ni390  1  0.43044033  0.30002200  0.04117239  1.0
  Ni  Ni391  1  0.43044033  0.63335533  0.04117239  1.0
  Ni  Ni392  1  0.43044033  0.96668867  0.04117239  1.0
  Ni  Ni393  1  0.76377367  0.30002200  0.04117239  1.0
  Ni  Ni394  1  0.76377367  0.63335533  0.04117239  1.0
  Ni  Ni395  1  0.76377367  0.96668867  0.04117239  1.0
  Ni  Ni396  1  0.26506267  0.04927633  0.06962839  1.0
  Ni  Ni397  1  0.26506267  0.38260967  0.06962839  1.0
  Ni  Ni398  1  0.26506267  0.71594300  0.06962839  1.0
  Ni  Ni399  1  0.59839600  0.04927633  0.06962839  1.0
  Ni  Ni400  1  0.59839600  0.38260967  0.06962839  1.0
  Ni  Ni401  1  0.59839600  0.71594300  0.06962839  1.0
  Ni  Ni402  1  0.93172933  0.04927633  0.06962839  1.0
  Ni  Ni403  1  0.93172933  0.38260967  0.06962839  1.0
  Ni  Ni404  1  0.93172933  0.71594300  0.06962839  1.0
  Ni  Ni405  1  0.26506267  0.21594300  0.01407283  1.0
  Ni  Ni406  1  0.26506267  0.54927633  0.01407283  1.0
  Ni  Ni407  1  0.26506267  0.88260967  0.01407283  1.0
  Ni  Ni408  1  0.59839600  0.21594300  0.01407283  1.0
  Ni  Ni409  1  0.59839600  0.54927633  0.01407283  1.0
  Ni  Ni410  1  0.59839600  0.88260967  0.01407283  1.0
  Ni  Ni411  1  0.93172933  0.21594300  0.01407283  1.0
  Ni  Ni412  1  0.93172933  0.54927633  0.01407283  1.0
  Ni  Ni413  1  0.93172933  0.88260967  0.01407283  1.0
  Ni  Ni414  1  0.26671067  0.04855350  0.01388411  1.0
  Ni  Ni415  1  0.26671067  0.38188683  0.01388411  1.0
  Ni  Ni416  1  0.26671067  0.71522017  0.01388411  1.0
  Ni  Ni417  1  0.60004400  0.04855350  0.01388411  1.0
  Ni  Ni418  1  0.60004400  0.38188683  0.01388411  1.0
  Ni  Ni419  1  0.60004400  0.71522017  0.01388411  1.0
  Ni  Ni420  1  0.93337733  0.04855350  0.01388411  1.0
  Ni  Ni421  1  0.93337733  0.38188683  0.01388411  1.0
  Ni  Ni422  1  0.93337733  0.71522017  0.01388411  1.0
  Ni  Ni423  1  0.26671067  0.21522017  0.06943967  1.0
  Ni  Ni424  1  0.26671067  0.54855350  0.06943967  1.0
  Ni  Ni425  1  0.26671067  0.88188683  0.06943967  1.0
  Ni  Ni426  1  0.60004400  0.21522017  0.06943967  1.0
  Ni  Ni427  1  0.60004400  0.54855350  0.06943967  1.0
  Ni  Ni428  1  0.60004400  0.88188683  0.06943967  1.0
  Ni  Ni429  1  0.93337733  0.21522017  0.06943967  1.0
  Ni  Ni430  1  0.93337733  0.54855350  0.06943967  1.0
  Ni  Ni431  1  0.93337733  0.88188683  0.06943967  1.0
  Ni  Ni432  1  0.09855267  0.13253133  0.04187672  1.0
  Ni  Ni433  1  0.09855267  0.46586467  0.04187672  1.0
  Ni  Ni434  1  0.09855267  0.79919800  0.04187672  1.0
  Ni  Ni435  1  0.43188600  0.13253133  0.04187672  1.0
  Ni  Ni436  1  0.43188600  0.46586467  0.04187672  1.0
  Ni  Ni437  1  0.43188600  0.79919800  0.04187672  1.0
  Ni  Ni438  1  0.76521933  0.13253133  0.04187672  1.0
  Ni  Ni439  1  0.76521933  0.46586467  0.04187672  1.0
  Ni  Ni440  1  0.76521933  0.79919800  0.04187672  1.0
  Ni  Ni441  1  0.09855267  0.29919800  0.09743228  1.0
  Ni  Ni442  1  0.09855267  0.63253133  0.09743228  1.0
  Ni  Ni443  1  0.09855267  0.96586467  0.09743228  1.0
  Ni  Ni444  1  0.43188600  0.29919800  0.09743228  1.0
  Ni  Ni445  1  0.43188600  0.63253133  0.09743228  1.0
  Ni  Ni446  1  0.43188600  0.96586467  0.09743228  1.0
  Ni  Ni447  1  0.76521933  0.29919800  0.09743228  1.0
  Ni  Ni448  1  0.76521933  0.63253133  0.09743228  1.0
  Ni  Ni449  1  0.76521933  0.96586467  0.09743228  1.0
  Ni  Ni450  1  0.00000000  0.16666667  0.05325517  1.0
  Ni  Ni451  1  0.00000000  0.50000000  0.05325517  1.0
  Ni  Ni452  1  0.00000000  0.83333333  0.05325517  1.0
  Ni  Ni453  1  0.33333333  0.16666667  0.05325517  1.0
  Ni  Ni454  1  0.33333333  0.50000000  0.05325517  1.0
  Ni  Ni455  1  0.33333333  0.83333333  0.05325517  1.0
  Ni  Ni456  1  0.66666667  0.16666667  0.05325517  1.0
  Ni  Ni457  1  0.66666667  0.50000000  0.05325517  1.0
  Ni  Ni458  1  0.66666667  0.83333333  0.05325517  1.0
  Ni  Ni459  1  0.00000000  0.00000000  0.10881072  1.0
  Ni  Ni460  1  0.00000000  0.33333333  0.10881072  1.0
  Ni  Ni461  1  0.00000000  0.66666667  0.10881072  1.0
  Ni  Ni462  1  0.33333333  0.00000000  0.10881072  1.0
  Ni  Ni463  1  0.33333333  0.33333333  0.10881072  1.0
  Ni  Ni464  1  0.33333333  0.66666667  0.10881072  1.0
  Ni  Ni465  1  0.66666667  0.00000000  0.10881072  1.0
  Ni  Ni466  1  0.66666667  0.33333333  0.10881072  1.0
  Ni  Ni467  1  0.66666667  0.66666667  0.10881072  1.0
  Ta  Ta468  1  0.27577467  0.13788733  0.15477317  1.0
  Ta  Ta469  1  0.27577467  0.47122067  0.15477317  1.0
  Ta  Ta470  1  0.27577467  0.80455400  0.15477317  1.0
  Ta  Ta471  1  0.60910800  0.13788733  0.15477317  1.0
  Ta  Ta472  1  0.60910800  0.47122067  0.15477317  1.0
  Ta  Ta473  1  0.60910800  0.80455400  0.15477317  1.0
  Ta  Ta474  1  0.94244133  0.13788733  0.15477317  1.0
  Ta  Ta475  1  0.94244133  0.47122067  0.15477317  1.0
  Ta  Ta476  1  0.94244133  0.80455400  0.15477317  1.0
  Ta  Ta477  1  0.27577467  0.30455400  0.21032872  1.0
  Ta  Ta478  1  0.27577467  0.63788733  0.21032872  1.0
  Ta  Ta479  1  0.27577467  0.97122067  0.21032872  1.0
  Ta  Ta480  1  0.60910800  0.30455400  0.21032872  1.0
  Ta  Ta481  1  0.60910800  0.63788733  0.21032872  1.0
  Ta  Ta482  1  0.60910800  0.97122067  0.21032872  1.0
  Ta  Ta483  1  0.94244133  0.30455400  0.21032872  1.0
  Ta  Ta484  1  0.94244133  0.63788733  0.21032872  1.0
  Ta  Ta485  1  0.94244133  0.97122067  0.21032872  1.0
  Ta  Ta486  1  0.10916267  0.05458133  0.12700450  1.0
  Ta  Ta487  1  0.10916267  0.38791467  0.12700450  1.0
  Ta  Ta488  1  0.10916267  0.72124800  0.12700450  1.0
  Ta  Ta489  1  0.44249600  0.05458133  0.12700450  1.0
  Ta  Ta490  1  0.44249600  0.38791467  0.12700450  1.0
  Ta  Ta491  1  0.44249600  0.72124800  0.12700450  1.0
  Ta  Ta492  1  0.77582933  0.05458133  0.12700450  1.0
  Ta  Ta493  1  0.77582933  0.38791467  0.12700450  1.0
  Ta  Ta494  1  0.77582933  0.72124800  0.12700450  1.0
  Ta  Ta495  1  0.10916267  0.22124800  0.18256006  1.0
  Ta  Ta496  1  0.10916267  0.55458133  0.18256006  1.0
  Ta  Ta497  1  0.10916267  0.88791467  0.18256006  1.0
  Ta  Ta498  1  0.44249600  0.22124800  0.18256006  1.0
  Ta  Ta499  1  0.44249600  0.55458133  0.18256006  1.0
  Ta  Ta500  1  0.44249600  0.88791467  0.18256006  1.0
  Ta  Ta501  1  0.77582933  0.22124800  0.18256006  1.0
  Ta  Ta502  1  0.77582933  0.55458133  0.18256006  1.0
  Ta  Ta503  1  0.77582933  0.88791467  0.18256006  1.0
  Ta  Ta504  1  0.22417067  0.11208533  0.14617250  1.0
  Ta  Ta505  1  0.22417067  0.44541867  0.14617250  1.0
  Ta  Ta506  1  0.22417067  0.77875200  0.14617250  1.0
  Ta  Ta507  1  0.55750400  0.11208533  0.14617250  1.0
  Ta  Ta508  1  0.55750400  0.44541867  0.14617250  1.0
  Ta  Ta509  1  0.55750400  0.77875200  0.14617250  1.0
  Ta  Ta510  1  0.89083733  0.11208533  0.14617250  1.0
  Ta  Ta511  1  0.89083733  0.44541867  0.14617250  1.0
  Ta  Ta512  1  0.89083733  0.77875200  0.14617250  1.0
  Ta  Ta513  1  0.22417067  0.27875200  0.20172806  1.0
  Ta  Ta514  1  0.22417067  0.61208533  0.20172806  1.0
  Ta  Ta515  1  0.22417067  0.94541867  0.20172806  1.0
  Ta  Ta516  1  0.55750400  0.27875200  0.20172806  1.0
  Ta  Ta517  1  0.55750400  0.61208533  0.20172806  1.0
  Ta  Ta518  1  0.55750400  0.94541867  0.20172806  1.0
  Ta  Ta519  1  0.89083733  0.27875200  0.20172806  1.0
  Ta  Ta520  1  0.89083733  0.61208533  0.20172806  1.0
  Ta  Ta521  1  0.89083733  0.94541867  0.20172806  1.0
  Ta  Ta522  1  0.05755867  0.02877933  0.11840383  1.0
  Ta  Ta523  1  0.05755867  0.36211267  0.11840383  1.0
  Ta  Ta524  1  0.05755867  0.69544600  0.11840383  1.0
  Ta  Ta525  1  0.39089200  0.02877933  0.11840383  1.0
  Ta  Ta526  1  0.39089200  0.36211267  0.11840383  1.0
  Ta  Ta527  1  0.39089200  0.69544600  0.11840383  1.0
  Ta  Ta528  1  0.72422533  0.02877933  0.11840383  1.0
  Ta  Ta529  1  0.72422533  0.36211267  0.11840383  1.0
  Ta  Ta530  1  0.72422533  0.69544600  0.11840383  1.0
  Ta  Ta531  1  0.05755867  0.19544600  0.17395939  1.0
  Ta  Ta532  1  0.05755867  0.52877933  0.17395939  1.0
  Ta  Ta533  1  0.05755867  0.86211267  0.17395939  1.0
  Ta  Ta534  1  0.39089200  0.19544600  0.17395939  1.0
  Ta  Ta535  1  0.39089200  0.52877933  0.17395939  1.0
  Ta  Ta536  1  0.39089200  0.86211267  0.17395939  1.0
  Ta  Ta537  1  0.72422533  0.19544600  0.17395939  1.0
  Ta  Ta538  1  0.72422533  0.52877933  0.17395939  1.0
  Ta  Ta539  1  0.72422533  0.86211267  0.17395939  1.0
  Ta  Ta540  1  0.25809367  0.12904683  0.15182633  1.0
  Ta  Ta541  1  0.25809367  0.46238017  0.15182633  1.0
  Ta  Ta542  1  0.25809367  0.79571350  0.15182633  1.0
  Ta  Ta543  1  0.59142700  0.12904683  0.15182633  1.0
  Ta  Ta544  1  0.59142700  0.46238017  0.15182633  1.0
  Ta  Ta545  1  0.59142700  0.79571350  0.15182633  1.0
  Ta  Ta546  1  0.92476033  0.12904683  0.15182633  1.0
  Ta  Ta547  1  0.92476033  0.46238017  0.15182633  1.0
  Ta  Ta548  1  0.92476033  0.79571350  0.15182633  1.0
  Ta  Ta549  1  0.25809367  0.29571350  0.20738189  1.0
  Ta  Ta550  1  0.25809367  0.62904683  0.20738189  1.0
  Ta  Ta551  1  0.25809367  0.96238017  0.20738189  1.0
  Ta  Ta552  1  0.59142700  0.29571350  0.20738189  1.0
  Ta  Ta553  1  0.59142700  0.62904683  0.20738189  1.0
  Ta  Ta554  1  0.59142700  0.96238017  0.20738189  1.0
  Ta  Ta555  1  0.92476033  0.29571350  0.20738189  1.0
  Ta  Ta556  1  0.92476033  0.62904683  0.20738189  1.0
  Ta  Ta557  1  0.92476033  0.96238017  0.20738189  1.0
  Ta  Ta558  1  0.09159433  0.04579717  0.12407644  1.0
  Ta  Ta559  1  0.09159433  0.37913050  0.12407644  1.0
  Ta  Ta560  1  0.09159433  0.71246383  0.12407644  1.0
  Ta  Ta561  1  0.42492767  0.04579717  0.12407644  1.0
  Ta  Ta562  1  0.42492767  0.37913050  0.12407644  1.0
  Ta  Ta563  1  0.42492767  0.71246383  0.12407644  1.0
  Ta  Ta564  1  0.75826100  0.04579717  0.12407644  1.0
  Ta  Ta565  1  0.75826100  0.37913050  0.12407644  1.0
  Ta  Ta566  1  0.75826100  0.71246383  0.12407644  1.0
  Ta  Ta567  1  0.09159433  0.21246383  0.17963200  1.0
  Ta  Ta568  1  0.09159433  0.54579717  0.17963200  1.0
  Ta  Ta569  1  0.09159433  0.87913050  0.17963200  1.0
  Ta  Ta570  1  0.42492767  0.21246383  0.17963200  1.0
  Ta  Ta571  1  0.42492767  0.54579717  0.17963200  1.0
  Ta  Ta572  1  0.42492767  0.87913050  0.17963200  1.0
  Ta  Ta573  1  0.75826100  0.21246383  0.17963200  1.0
  Ta  Ta574  1  0.75826100  0.54579717  0.17963200  1.0
  Ta  Ta575  1  0.75826100  0.87913050  0.17963200  1.0
  Ta  Ta576  1  0.24173900  0.12086950  0.14910056  1.0
  Ta  Ta577  1  0.24173900  0.45420283  0.14910056  1.0
  Ta  Ta578  1  0.24173900  0.78753617  0.14910056  1.0
  Ta  Ta579  1  0.57507233  0.12086950  0.14910056  1.0
  Ta  Ta580  1  0.57507233  0.45420283  0.14910056  1.0
  Ta  Ta581  1  0.57507233  0.78753617  0.14910056  1.0
  Ta  Ta582  1  0.90840567  0.12086950  0.14910056  1.0
  Ta  Ta583  1  0.90840567  0.45420283  0.14910056  1.0
  Ta  Ta584  1  0.90840567  0.78753617  0.14910056  1.0
  Ta  Ta585  1  0.24173900  0.28753617  0.20465611  1.0
  Ta  Ta586  1  0.24173900  0.62086950  0.20465611  1.0
  Ta  Ta587  1  0.24173900  0.95420283  0.20465611  1.0
  Ta  Ta588  1  0.57507233  0.28753617  0.20465611  1.0
  Ta  Ta589  1  0.57507233  0.62086950  0.20465611  1.0
  Ta  Ta590  1  0.57507233  0.95420283  0.20465611  1.0
  Ta  Ta591  1  0.90840567  0.28753617  0.20465611  1.0
  Ta  Ta592  1  0.90840567  0.62086950  0.20465611  1.0
  Ta  Ta593  1  0.90840567  0.95420283  0.20465611  1.0
  Ta  Ta594  1  0.07523967  0.03761983  0.12135067  1.0
  Ta  Ta595  1  0.07523967  0.37095317  0.12135067  1.0
  Ta  Ta596  1  0.07523967  0.70428650  0.12135067  1.0
  Ta  Ta597  1  0.40857300  0.03761983  0.12135067  1.0
  Ta  Ta598  1  0.40857300  0.37095317  0.12135067  1.0
  Ta  Ta599  1  0.40857300  0.70428650  0.12135067  1.0
  Ta  Ta600  1  0.74190633  0.03761983  0.12135067  1.0
  Ta  Ta601  1  0.74190633  0.37095317  0.12135067  1.0
  Ta  Ta602  1  0.74190633  0.70428650  0.12135067  1.0
  Ta  Ta603  1  0.07523967  0.20428650  0.17690622  1.0
  Ta  Ta604  1  0.07523967  0.53761983  0.17690622  1.0
  Ta  Ta605  1  0.07523967  0.87095317  0.17690622  1.0
  Ta  Ta606  1  0.40857300  0.20428650  0.17690622  1.0
  Ta  Ta607  1  0.40857300  0.53761983  0.17690622  1.0
  Ta  Ta608  1  0.40857300  0.87095317  0.17690622  1.0
  Ta  Ta609  1  0.74190633  0.20428650  0.17690622  1.0
  Ta  Ta610  1  0.74190633  0.53761983  0.17690622  1.0
  Ta  Ta611  1  0.74190633  0.87095317  0.17690622  1.0
  Ta  Ta612  1  0.13871800  0.06935900  0.13193039  1.0
  Ta  Ta613  1  0.13871800  0.40269233  0.13193039  1.0
  Ta  Ta614  1  0.13871800  0.73602567  0.13193039  1.0
  Ta  Ta615  1  0.47205133  0.06935900  0.13193039  1.0
  Ta  Ta616  1  0.47205133  0.40269233  0.13193039  1.0
  Ta  Ta617  1  0.47205133  0.73602567  0.13193039  1.0
  Ta  Ta618  1  0.80538467  0.06935900  0.13193039  1.0
  Ta  Ta619  1  0.80538467  0.40269233  0.13193039  1.0
  Ta  Ta620  1  0.80538467  0.73602567  0.13193039  1.0
  Ta  Ta621  1  0.13871800  0.23602567  0.18748594  1.0
  Ta  Ta622  1  0.13871800  0.56935900  0.18748594  1.0
  Ta  Ta623  1  0.13871800  0.90269233  0.18748594  1.0
  Ta  Ta624  1  0.47205133  0.23602567  0.18748594  1.0
  Ta  Ta625  1  0.47205133  0.56935900  0.18748594  1.0
  Ta  Ta626  1  0.47205133  0.90269233  0.18748594  1.0
  Ta  Ta627  1  0.80538467  0.23602567  0.18748594  1.0
  Ta  Ta628  1  0.80538467  0.56935900  0.18748594  1.0
  Ta  Ta629  1  0.80538467  0.90269233  0.18748594  1.0
  Ta  Ta630  1  0.30572867  0.15286433  0.15976550  1.0
  Ta  Ta631  1  0.30572867  0.48619767  0.15976550  1.0
  Ta  Ta632  1  0.30572867  0.81953100  0.15976550  1.0
  Ta  Ta633  1  0.63906200  0.15286433  0.15976550  1.0
  Ta  Ta634  1  0.63906200  0.48619767  0.15976550  1.0
  Ta  Ta635  1  0.63906200  0.81953100  0.15976550  1.0
  Ta  Ta636  1  0.97239533  0.15286433  0.15976550  1.0
  Ta  Ta637  1  0.97239533  0.48619767  0.15976550  1.0
  Ta  Ta638  1  0.97239533  0.81953100  0.15976550  1.0
  Ta  Ta639  1  0.30572867  0.31953100  0.21532106  1.0
  Ta  Ta640  1  0.30572867  0.65286433  0.21532106  1.0
  Ta  Ta641  1  0.30572867  0.98619767  0.21532106  1.0
  Ta  Ta642  1  0.63906200  0.31953100  0.21532106  1.0
  Ta  Ta643  1  0.63906200  0.65286433  0.21532106  1.0
  Ta  Ta644  1  0.63906200  0.98619767  0.21532106  1.0
  Ta  Ta645  1  0.97239533  0.31953100  0.21532106  1.0
  Ta  Ta646  1  0.97239533  0.65286433  0.21532106  1.0
  Ta  Ta647  1  0.97239533  0.98619767  0.21532106  1.0
  Ta  Ta648  1  0.02760467  0.01380233  0.11341150  1.0
  Ta  Ta649  1  0.02760467  0.34713567  0.11341150  1.0
  Ta  Ta650  1  0.02760467  0.68046900  0.11341150  1.0
  Ta  Ta651  1  0.36093800  0.01380233  0.11341150  1.0
  Ta  Ta652  1  0.36093800  0.34713567  0.11341150  1.0
  Ta  Ta653  1  0.36093800  0.68046900  0.11341150  1.0
  Ta  Ta654  1  0.69427133  0.01380233  0.11341150  1.0
  Ta  Ta655  1  0.69427133  0.34713567  0.11341150  1.0
  Ta  Ta656  1  0.69427133  0.68046900  0.11341150  1.0
  Ta  Ta657  1  0.02760467  0.18046900  0.16896706  1.0
  Ta  Ta658  1  0.02760467  0.51380233  0.16896706  1.0
  Ta  Ta659  1  0.02760467  0.84713567  0.16896706  1.0
  Ta  Ta660  1  0.36093800  0.18046900  0.16896706  1.0
  Ta  Ta661  1  0.36093800  0.51380233  0.16896706  1.0
  Ta  Ta662  1  0.36093800  0.84713567  0.16896706  1.0
  Ta  Ta663  1  0.69427133  0.18046900  0.16896706  1.0
  Ta  Ta664  1  0.69427133  0.51380233  0.16896706  1.0
  Ta  Ta665  1  0.69427133  0.84713567  0.16896706  1.0
  Ta  Ta666  1  0.19461533  0.09730767  0.14124661  1.0
  Ta  Ta667  1  0.19461533  0.43064100  0.14124661  1.0
  Ta  Ta668  1  0.19461533  0.76397433  0.14124661  1.0
  Ta  Ta669  1  0.52794867  0.09730767  0.14124661  1.0
  Ta  Ta670  1  0.52794867  0.43064100  0.14124661  1.0
  Ta  Ta671  1  0.52794867  0.76397433  0.14124661  1.0
  Ta  Ta672  1  0.86128200  0.09730767  0.14124661  1.0
  Ta  Ta673  1  0.86128200  0.43064100  0.14124661  1.0
  Ta  Ta674  1  0.86128200  0.76397433  0.14124661  1.0
  Ta  Ta675  1  0.19461533  0.26397433  0.19680217  1.0
  Ta  Ta676  1  0.19461533  0.59730767  0.19680217  1.0
  Ta  Ta677  1  0.19461533  0.93064100  0.19680217  1.0
  Ta  Ta678  1  0.52794867  0.26397433  0.19680217  1.0
  Ta  Ta679  1  0.52794867  0.59730767  0.19680217  1.0
  Ta  Ta680  1  0.52794867  0.93064100  0.19680217  1.0
  Ta  Ta681  1  0.86128200  0.26397433  0.19680217  1.0
  Ta  Ta682  1  0.86128200  0.59730767  0.19680217  1.0
  Ta  Ta683  1  0.86128200  0.93064100  0.19680217  1.0
  Ta  Ta684  1  0.16666667  0.08333333  0.13658850  1.0
  Ta  Ta685  1  0.16666667  0.41666667  0.13658850  1.0
  Ta  Ta686  1  0.16666667  0.75000000  0.13658850  1.0
  Ta  Ta687  1  0.50000000  0.08333333  0.13658850  1.0
  Ta  Ta688  1  0.50000000  0.41666667  0.13658850  1.0
  Ta  Ta689  1  0.50000000  0.75000000  0.13658850  1.0
  Ta  Ta690  1  0.83333333  0.08333333  0.13658850  1.0
  Ta  Ta691  1  0.83333333  0.41666667  0.13658850  1.0
  Ta  Ta692  1  0.83333333  0.75000000  0.13658850  1.0
  Ta  Ta693  1  0.16666667  0.25000000  0.19214406  1.0
  Ta  Ta694  1  0.16666667  0.58333333  0.19214406  1.0
  Ta  Ta695  1  0.16666667  0.91666667  0.19214406  1.0
  Ta  Ta696  1  0.50000000  0.25000000  0.19214406  1.0
  Ta  Ta697  1  0.50000000  0.58333333  0.19214406  1.0
  Ta  Ta698  1  0.50000000  0.91666667  0.19214406  1.0
  Ta  Ta699  1  0.83333333  0.25000000  0.19214406  1.0
  Ta  Ta700  1  0.83333333  0.58333333  0.19214406  1.0
  Ta  Ta701  1  0.83333333  0.91666667  0.19214406  1.0
  Ni  Ni702  1  0.06827067  0.03413533  0.17569250  1.0
  Ni  Ni703  1  0.06827067  0.36746867  0.17569250  1.0
  Ni  Ni704  1  0.06827067  0.70080200  0.17569250  1.0
  Ni  Ni705  1  0.40160400  0.03413533  0.17569250  1.0
  Ni  Ni706  1  0.40160400  0.36746867  0.17569250  1.0
  Ni  Ni707  1  0.40160400  0.70080200  0.17569250  1.0
  Ni  Ni708  1  0.73493733  0.03413533  0.17569250  1.0
  Ni  Ni709  1  0.73493733  0.36746867  0.17569250  1.0
  Ni  Ni710  1  0.73493733  0.70080200  0.17569250  1.0
  Ni  Ni711  1  0.06827067  0.20080200  0.12013694  1.0
  Ni  Ni712  1  0.06827067  0.53413533  0.12013694  1.0
  Ni  Ni713  1  0.06827067  0.86746867  0.12013694  1.0
  Ni  Ni714  1  0.40160400  0.20080200  0.12013694  1.0
  Ni  Ni715  1  0.40160400  0.53413533  0.12013694  1.0
  Ni  Ni716  1  0.40160400  0.86746867  0.12013694  1.0
  Ni  Ni717  1  0.73493733  0.20080200  0.12013694  1.0
  Ni  Ni718  1  0.73493733  0.53413533  0.12013694  1.0
  Ni  Ni719  1  0.73493733  0.86746867  0.12013694  1.0
  Ni  Ni720  1  0.23622633  0.11811317  0.20275833  1.0
  Ni  Ni721  1  0.23622633  0.45144650  0.20275833  1.0
  Ni  Ni722  1  0.23622633  0.78477983  0.20275833  1.0
  Ni  Ni723  1  0.56955967  0.11811317  0.20275833  1.0
  Ni  Ni724  1  0.56955967  0.45144650  0.20275833  1.0
  Ni  Ni725  1  0.56955967  0.78477983  0.20275833  1.0
  Ni  Ni726  1  0.90289300  0.11811317  0.20275833  1.0
  Ni  Ni727  1  0.90289300  0.45144650  0.20275833  1.0
  Ni  Ni728  1  0.90289300  0.78477983  0.20275833  1.0
  Ni  Ni729  1  0.23622633  0.28477983  0.14720278  1.0
  Ni  Ni730  1  0.23622633  0.61811317  0.14720278  1.0
  Ni  Ni731  1  0.23622633  0.95144650  0.14720278  1.0
  Ni  Ni732  1  0.56955967  0.28477983  0.14720278  1.0
  Ni  Ni733  1  0.56955967  0.61811317  0.14720278  1.0
  Ni  Ni734  1  0.56955967  0.95144650  0.14720278  1.0
  Ni  Ni735  1  0.90289300  0.28477983  0.14720278  1.0
  Ni  Ni736  1  0.90289300  0.61811317  0.14720278  1.0
  Ni  Ni737  1  0.90289300  0.95144650  0.14720278  1.0
  Ni  Ni738  1  0.06827067  0.11739033  0.20354861  1.0
  Ni  Ni739  1  0.06827067  0.45072367  0.20354861  1.0
  Ni  Ni740  1  0.06827067  0.78405700  0.20354861  1.0
  Ni  Ni741  1  0.40160400  0.11739033  0.20354861  1.0
  Ni  Ni742  1  0.40160400  0.45072367  0.20354861  1.0
  Ni  Ni743  1  0.40160400  0.78405700  0.20354861  1.0
  Ni  Ni744  1  0.73493733  0.11739033  0.20354861  1.0
  Ni  Ni745  1  0.73493733  0.45072367  0.20354861  1.0
  Ni  Ni746  1  0.73493733  0.78405700  0.20354861  1.0
  Ni  Ni747  1  0.06827067  0.28405700  0.14799306  1.0
  Ni  Ni748  1  0.06827067  0.61739033  0.14799306  1.0
  Ni  Ni749  1  0.06827067  0.95072367  0.14799306  1.0
  Ni  Ni750  1  0.40160400  0.28405700  0.14799306  1.0
  Ni  Ni751  1  0.40160400  0.61739033  0.14799306  1.0
  Ni  Ni752  1  0.40160400  0.95072367  0.14799306  1.0
  Ni  Ni753  1  0.73493733  0.28405700  0.14799306  1.0
  Ni  Ni754  1  0.73493733  0.61739033  0.14799306  1.0
  Ni  Ni755  1  0.73493733  0.95072367  0.14799306  1.0
  Ni  Ni756  1  0.23622633  0.03331133  0.17644906  1.0
  Ni  Ni757  1  0.23622633  0.36664467  0.17644906  1.0
  Ni  Ni758  1  0.23622633  0.69997800  0.17644906  1.0
  Ni  Ni759  1  0.56955967  0.03331133  0.17644906  1.0
  Ni  Ni760  1  0.56955967  0.36664467  0.17644906  1.0
  Ni  Ni761  1  0.56955967  0.69997800  0.17644906  1.0
  Ni  Ni762  1  0.90289300  0.03331133  0.17644906  1.0
  Ni  Ni763  1  0.90289300  0.36664467  0.17644906  1.0
  Ni  Ni764  1  0.90289300  0.69997800  0.17644906  1.0
  Ni  Ni765  1  0.23622633  0.19997800  0.12089350  1.0
  Ni  Ni766  1  0.23622633  0.53331133  0.12089350  1.0
  Ni  Ni767  1  0.23622633  0.86664467  0.12089350  1.0
  Ni  Ni768  1  0.56955967  0.19997800  0.12089350  1.0
  Ni  Ni769  1  0.56955967  0.53331133  0.12089350  1.0
  Ni  Ni770  1  0.56955967  0.86664467  0.12089350  1.0
  Ni  Ni771  1  0.90289300  0.19997800  0.12089350  1.0
  Ni  Ni772  1  0.90289300  0.53331133  0.12089350  1.0
  Ni  Ni773  1  0.90289300  0.86664467  0.12089350  1.0
  Ni  Ni774  1  0.23478067  0.03413533  0.12018917  1.0
  Ni  Ni775  1  0.23478067  0.36746867  0.12018917  1.0
  Ni  Ni776  1  0.23478067  0.70080200  0.12018917  1.0
  Ni  Ni777  1  0.56811400  0.03413533  0.12018917  1.0
  Ni  Ni778  1  0.56811400  0.36746867  0.12018917  1.0
  Ni  Ni779  1  0.56811400  0.70080200  0.12018917  1.0
  Ni  Ni780  1  0.90144733  0.03413533  0.12018917  1.0
  Ni  Ni781  1  0.90144733  0.36746867  0.12018917  1.0
  Ni  Ni782  1  0.90144733  0.70080200  0.12018917  1.0
  Ni  Ni783  1  0.23478067  0.20080200  0.17574472  1.0
  Ni  Ni784  1  0.23478067  0.53413533  0.17574472  1.0
  Ni  Ni785  1  0.23478067  0.86746867  0.17574472  1.0
  Ni  Ni786  1  0.56811400  0.20080200  0.17574472  1.0
  Ni  Ni787  1  0.56811400  0.53413533  0.17574472  1.0
  Ni  Ni788  1  0.56811400  0.86746867  0.17574472  1.0
  Ni  Ni789  1  0.90144733  0.20080200  0.17574472  1.0
  Ni  Ni790  1  0.90144733  0.53413533  0.17574472  1.0
  Ni  Ni791  1  0.90144733  0.86746867  0.17574472  1.0
  Ni  Ni792  1  0.06662267  0.11811317  0.14818178  1.0
  Ni  Ni793  1  0.06662267  0.45144650  0.14818178  1.0
  Ni  Ni794  1  0.06662267  0.78477983  0.14818178  1.0
  Ni  Ni795  1  0.39995600  0.11811317  0.14818178  1.0
  Ni  Ni796  1  0.39995600  0.45144650  0.14818178  1.0
  Ni  Ni797  1  0.39995600  0.78477983  0.14818178  1.0
  Ni  Ni798  1  0.73328933  0.11811317  0.14818178  1.0
  Ni  Ni799  1  0.73328933  0.45144650  0.14818178  1.0
  Ni  Ni800  1  0.73328933  0.78477983  0.14818178  1.0
  Ni  Ni801  1  0.06662267  0.28477983  0.20373733  1.0
  Ni  Ni802  1  0.06662267  0.61811317  0.20373733  1.0
  Ni  Ni803  1  0.06662267  0.95144650  0.20373733  1.0
  Ni  Ni804  1  0.39995600  0.28477983  0.20373733  1.0
  Ni  Ni805  1  0.39995600  0.61811317  0.20373733  1.0
  Ni  Ni806  1  0.39995600  0.95144650  0.20373733  1.0
  Ni  Ni807  1  0.73328933  0.28477983  0.20373733  1.0
  Ni  Ni808  1  0.73328933  0.61811317  0.20373733  1.0
  Ni  Ni809  1  0.73328933  0.95144650  0.20373733  1.0
  Ni  Ni810  1  0.09710700  0.04855350  0.18152978  1.0
  Ni  Ni811  1  0.09710700  0.38188683  0.18152978  1.0
  Ni  Ni812  1  0.09710700  0.71522017  0.18152978  1.0
  Ni  Ni813  1  0.43044033  0.04855350  0.18152978  1.0
  Ni  Ni814  1  0.43044033  0.38188683  0.18152978  1.0
  Ni  Ni815  1  0.43044033  0.71522017  0.18152978  1.0
  Ni  Ni816  1  0.76377367  0.04855350  0.18152978  1.0
  Ni  Ni817  1  0.76377367  0.38188683  0.18152978  1.0
  Ni  Ni818  1  0.76377367  0.71522017  0.18152978  1.0
  Ni  Ni819  1  0.09710700  0.21522017  0.12597422  1.0
  Ni  Ni820  1  0.09710700  0.54855350  0.12597422  1.0
  Ni  Ni821  1  0.09710700  0.88188683  0.12597422  1.0
  Ni  Ni822  1  0.43044033  0.21522017  0.12597422  1.0
  Ni  Ni823  1  0.43044033  0.54855350  0.12597422  1.0
  Ni  Ni824  1  0.43044033  0.88188683  0.12597422  1.0
  Ni  Ni825  1  0.76377367  0.21522017  0.12597422  1.0
  Ni  Ni826  1  0.76377367  0.54855350  0.12597422  1.0
  Ni  Ni827  1  0.76377367  0.88188683  0.12597422  1.0
  Ni  Ni828  1  0.26506267  0.13253133  0.20859561  1.0
  Ni  Ni829  1  0.26506267  0.46586467  0.20859561  1.0
  Ni  Ni830  1  0.26506267  0.79919800  0.20859561  1.0
  Ni  Ni831  1  0.59839600  0.13253133  0.20859561  1.0
  Ni  Ni832  1  0.59839600  0.46586467  0.20859561  1.0
  Ni  Ni833  1  0.59839600  0.79919800  0.20859561  1.0
  Ni  Ni834  1  0.93172933  0.13253133  0.20859561  1.0
  Ni  Ni835  1  0.93172933  0.46586467  0.20859561  1.0
  Ni  Ni836  1  0.93172933  0.79919800  0.20859561  1.0
  Ni  Ni837  1  0.26506267  0.29919800  0.15304006  1.0
  Ni  Ni838  1  0.26506267  0.63253133  0.15304006  1.0
  Ni  Ni839  1  0.26506267  0.96586467  0.15304006  1.0
  Ni  Ni840  1  0.59839600  0.29919800  0.15304006  1.0
  Ni  Ni841  1  0.59839600  0.63253133  0.15304006  1.0
  Ni  Ni842  1  0.59839600  0.96586467  0.15304006  1.0
  Ni  Ni843  1  0.93172933  0.29919800  0.15304006  1.0
  Ni  Ni844  1  0.93172933  0.63253133  0.15304006  1.0
  Ni  Ni845  1  0.93172933  0.96586467  0.15304006  1.0
  Ni  Ni846  1  0.09710700  0.13335533  0.20783906  1.0
  Ni  Ni847  1  0.09710700  0.46668867  0.20783906  1.0
  Ni  Ni848  1  0.09710700  0.80002200  0.20783906  1.0
  Ni  Ni849  1  0.43044033  0.13335533  0.20783906  1.0
  Ni  Ni850  1  0.43044033  0.46668867  0.20783906  1.0
  Ni  Ni851  1  0.43044033  0.80002200  0.20783906  1.0
  Ni  Ni852  1  0.76377367  0.13335533  0.20783906  1.0
  Ni  Ni853  1  0.76377367  0.46668867  0.20783906  1.0
  Ni  Ni854  1  0.76377367  0.80002200  0.20783906  1.0
  Ni  Ni855  1  0.09710700  0.30002200  0.15228350  1.0
  Ni  Ni856  1  0.09710700  0.63335533  0.15228350  1.0
  Ni  Ni857  1  0.09710700  0.96668867  0.15228350  1.0
  Ni  Ni858  1  0.43044033  0.30002200  0.15228350  1.0
  Ni  Ni859  1  0.43044033  0.63335533  0.15228350  1.0
  Ni  Ni860  1  0.43044033  0.96668867  0.15228350  1.0
  Ni  Ni861  1  0.76377367  0.30002200  0.15228350  1.0
  Ni  Ni862  1  0.76377367  0.63335533  0.15228350  1.0
  Ni  Ni863  1  0.76377367  0.96668867  0.15228350  1.0
  Ni  Ni864  1  0.26506267  0.04927633  0.18073950  1.0
  Ni  Ni865  1  0.26506267  0.38260967  0.18073950  1.0
  Ni  Ni866  1  0.26506267  0.71594300  0.18073950  1.0
  Ni  Ni867  1  0.59839600  0.04927633  0.18073950  1.0
  Ni  Ni868  1  0.59839600  0.38260967  0.18073950  1.0
  Ni  Ni869  1  0.59839600  0.71594300  0.18073950  1.0
  Ni  Ni870  1  0.93172933  0.04927633  0.18073950  1.0
  Ni  Ni871  1  0.93172933  0.38260967  0.18073950  1.0
  Ni  Ni872  1  0.93172933  0.71594300  0.18073950  1.0
  Ni  Ni873  1  0.26506267  0.21594300  0.12518394  1.0
  Ni  Ni874  1  0.26506267  0.54927633  0.12518394  1.0
  Ni  Ni875  1  0.26506267  0.88260967  0.12518394  1.0
  Ni  Ni876  1  0.59839600  0.21594300  0.12518394  1.0
  Ni  Ni877  1  0.59839600  0.54927633  0.12518394  1.0
  Ni  Ni878  1  0.59839600  0.88260967  0.12518394  1.0
  Ni  Ni879  1  0.93172933  0.21594300  0.12518394  1.0
  Ni  Ni880  1  0.93172933  0.54927633  0.12518394  1.0
  Ni  Ni881  1  0.93172933  0.88260967  0.12518394  1.0
  Ni  Ni882  1  0.26671067  0.04855350  0.12499522  1.0
  Ni  Ni883  1  0.26671067  0.38188683  0.12499522  1.0
  Ni  Ni884  1  0.26671067  0.71522017  0.12499522  1.0
  Ni  Ni885  1  0.60004400  0.04855350  0.12499522  1.0
  Ni  Ni886  1  0.60004400  0.38188683  0.12499522  1.0
  Ni  Ni887  1  0.60004400  0.71522017  0.12499522  1.0
  Ni  Ni888  1  0.93337733  0.04855350  0.12499522  1.0
  Ni  Ni889  1  0.93337733  0.38188683  0.12499522  1.0
  Ni  Ni890  1  0.93337733  0.71522017  0.12499522  1.0
  Ni  Ni891  1  0.26671067  0.21522017  0.18055078  1.0
  Ni  Ni892  1  0.26671067  0.54855350  0.18055078  1.0
  Ni  Ni893  1  0.26671067  0.88188683  0.18055078  1.0
  Ni  Ni894  1  0.60004400  0.21522017  0.18055078  1.0
  Ni  Ni895  1  0.60004400  0.54855350  0.18055078  1.0
  Ni  Ni896  1  0.60004400  0.88188683  0.18055078  1.0
  Ni  Ni897  1  0.93337733  0.21522017  0.18055078  1.0
  Ni  Ni898  1  0.93337733  0.54855350  0.18055078  1.0
  Ni  Ni899  1  0.93337733  0.88188683  0.18055078  1.0
  Ni  Ni900  1  0.09855267  0.13253133  0.15298783  1.0
  Ni  Ni901  1  0.09855267  0.46586467  0.15298783  1.0
  Ni  Ni902  1  0.09855267  0.79919800  0.15298783  1.0
  Ni  Ni903  1  0.43188600  0.13253133  0.15298783  1.0
  Ni  Ni904  1  0.43188600  0.46586467  0.15298783  1.0
  Ni  Ni905  1  0.43188600  0.79919800  0.15298783  1.0
  Ni  Ni906  1  0.76521933  0.13253133  0.15298783  1.0
  Ni  Ni907  1  0.76521933  0.46586467  0.15298783  1.0
  Ni  Ni908  1  0.76521933  0.79919800  0.15298783  1.0
  Ni  Ni909  1  0.09855267  0.29919800  0.20854339  1.0
  Ni  Ni910  1  0.09855267  0.63253133  0.20854339  1.0
  Ni  Ni911  1  0.09855267  0.96586467  0.20854339  1.0
  Ni  Ni912  1  0.43188600  0.29919800  0.20854339  1.0
  Ni  Ni913  1  0.43188600  0.63253133  0.20854339  1.0
  Ni  Ni914  1  0.43188600  0.96586467  0.20854339  1.0
  Ni  Ni915  1  0.76521933  0.29919800  0.20854339  1.0
  Ni  Ni916  1  0.76521933  0.63253133  0.20854339  1.0
  Ni  Ni917  1  0.76521933  0.96586467  0.20854339  1.0
  Ni  Ni918  1  0.00000000  0.16666667  0.16436628  1.0
  Ni  Ni919  1  0.00000000  0.50000000  0.16436628  1.0
  Ni  Ni920  1  0.00000000  0.83333333  0.16436628  1.0
  Ni  Ni921  1  0.33333333  0.16666667  0.16436628  1.0
  Ni  Ni922  1  0.33333333  0.50000000  0.16436628  1.0
  Ni  Ni923  1  0.33333333  0.83333333  0.16436628  1.0
  Ni  Ni924  1  0.66666667  0.16666667  0.16436628  1.0
  Ni  Ni925  1  0.66666667  0.50000000  0.16436628  1.0
  Ni  Ni926  1  0.66666667  0.83333333  0.16436628  1.0
  Ni  Ni927  1  0.00000000  0.00000000  0.21992183  1.0
  Ni  Ni928  1  0.00000000  0.33333333  0.21992183  1.0
  Ni  Ni929  1  0.00000000  0.66666667  0.21992183  1.0
  Ni  Ni930  1  0.33333333  0.00000000  0.21992183  1.0
  Ni  Ni931  1  0.33333333  0.33333333  0.21992183  1.0
  Ni  Ni932  1  0.33333333  0.66666667  0.21992183  1.0
  Ni  Ni933  1  0.66666667  0.00000000  0.21992183  1.0
  Ni  Ni934  1  0.66666667  0.33333333  0.21992183  1.0
  Ni  Ni935  1  0.66666667  0.66666667  0.21992183  1.0
  Ta  Ta936  1  0.27577467  0.13788733  0.26588428  1.0
  Ta  Ta937  1  0.27577467  0.47122067  0.26588428  1.0
  Ta  Ta938  1  0.27577467  0.80455400  0.26588428  1.0
  Ta  Ta939  1  0.60910800  0.13788733  0.26588428  1.0
  Ta  Ta940  1  0.60910800  0.47122067  0.26588428  1.0
  Ta  Ta941  1  0.60910800  0.80455400  0.26588428  1.0
  Ta  Ta942  1  0.94244133  0.13788733  0.26588428  1.0
  Ta  Ta943  1  0.94244133  0.47122067  0.26588428  1.0
  Ta  Ta944  1  0.94244133  0.80455400  0.26588428  1.0
  Ta  Ta945  1  0.27577467  0.30455400  0.32143983  1.0
  Ta  Ta946  1  0.27577467  0.63788733  0.32143983  1.0
  Ta  Ta947  1  0.27577467  0.97122067  0.32143983  1.0
  Ta  Ta948  1  0.60910800  0.30455400  0.32143983  1.0
  Ta  Ta949  1  0.60910800  0.63788733  0.32143983  1.0
  Ta  Ta950  1  0.60910800  0.97122067  0.32143983  1.0
  Ta  Ta951  1  0.94244133  0.30455400  0.32143983  1.0
  Ta  Ta952  1  0.94244133  0.63788733  0.32143983  1.0
  Ta  Ta953  1  0.94244133  0.97122067  0.32143983  1.0
  Ta  Ta954  1  0.10916267  0.05458133  0.23811561  1.0
  Ta  Ta955  1  0.10916267  0.38791467  0.23811561  1.0
  Ta  Ta956  1  0.10916267  0.72124800  0.23811561  1.0
  Ta  Ta957  1  0.44249600  0.05458133  0.23811561  1.0
  Ta  Ta958  1  0.44249600  0.38791467  0.23811561  1.0
  Ta  Ta959  1  0.44249600  0.72124800  0.23811561  1.0
  Ta  Ta960  1  0.77582933  0.05458133  0.23811561  1.0
  Ta  Ta961  1  0.77582933  0.38791467  0.23811561  1.0
  Ta  Ta962  1  0.77582933  0.72124800  0.23811561  1.0
  Ta  Ta963  1  0.10916267  0.22124800  0.29367117  1.0
  Ta  Ta964  1  0.10916267  0.55458133  0.29367117  1.0
  Ta  Ta965  1  0.10916267  0.88791467  0.29367117  1.0
  Ta  Ta966  1  0.44249600  0.22124800  0.29367117  1.0
  Ta  Ta967  1  0.44249600  0.55458133  0.29367117  1.0
  Ta  Ta968  1  0.44249600  0.88791467  0.29367117  1.0
  Ta  Ta969  1  0.77582933  0.22124800  0.29367117  1.0
  Ta  Ta970  1  0.77582933  0.55458133  0.29367117  1.0
  Ta  Ta971  1  0.77582933  0.88791467  0.29367117  1.0
  Ta  Ta972  1  0.22417067  0.11208533  0.25728361  1.0
  Ta  Ta973  1  0.22417067  0.44541867  0.25728361  1.0
  Ta  Ta974  1  0.22417067  0.77875200  0.25728361  1.0
  Ta  Ta975  1  0.55750400  0.11208533  0.25728361  1.0
  Ta  Ta976  1  0.55750400  0.44541867  0.25728361  1.0
  Ta  Ta977  1  0.55750400  0.77875200  0.25728361  1.0
  Ta  Ta978  1  0.89083733  0.11208533  0.25728361  1.0
  Ta  Ta979  1  0.89083733  0.44541867  0.25728361  1.0
  Ta  Ta980  1  0.89083733  0.77875200  0.25728361  1.0
  Ta  Ta981  1  0.22417067  0.27875200  0.31283917  1.0
  Ta  Ta982  1  0.22417067  0.61208533  0.31283917  1.0
  Ta  Ta983  1  0.22417067  0.94541867  0.31283917  1.0
  Ta  Ta984  1  0.55750400  0.27875200  0.31283917  1.0
  Ta  Ta985  1  0.55750400  0.61208533  0.31283917  1.0
  Ta  Ta986  1  0.55750400  0.94541867  0.31283917  1.0
  Ta  Ta987  1  0.89083733  0.27875200  0.31283917  1.0
  Ta  Ta988  1  0.89083733  0.61208533  0.31283917  1.0
  Ta  Ta989  1  0.89083733  0.94541867  0.31283917  1.0
  Ta  Ta990  1  0.05755867  0.02877933  0.22951494  1.0
  Ta  Ta991  1  0.05755867  0.36211267  0.22951494  1.0
  Ta  Ta992  1  0.05755867  0.69544600  0.22951494  1.0
  Ta  Ta993  1  0.39089200  0.02877933  0.22951494  1.0
  Ta  Ta994  1  0.39089200  0.36211267  0.22951494  1.0
  Ta  Ta995  1  0.39089200  0.69544600  0.22951494  1.0
  Ta  Ta996  1  0.72422533  0.02877933  0.22951494  1.0
  Ta  Ta997  1  0.72422533  0.36211267  0.22951494  1.0
  Ta  Ta998  1  0.72422533  0.69544600  0.22951494  1.0
  Ta  Ta999  1  0.05755867  0.19544600  0.28507050  1.0
  Ta  Ta1000  1  0.05755867  0.52877933  0.28507050  1.0
  Ta  Ta1001  1  0.05755867  0.86211267  0.28507050  1.0
  Ta  Ta1002  1  0.39089200  0.19544600  0.28507050  1.0
  Ta  Ta1003  1  0.39089200  0.52877933  0.28507050  1.0
  Ta  Ta1004  1  0.39089200  0.86211267  0.28507050  1.0
  Ta  Ta1005  1  0.72422533  0.19544600  0.28507050  1.0
  Ta  Ta1006  1  0.72422533  0.52877933  0.28507050  1.0
  Ta  Ta1007  1  0.72422533  0.86211267  0.28507050  1.0
  Ta  Ta1008  1  0.25809367  0.12904683  0.26293744  1.0
  Ta  Ta1009  1  0.25809367  0.46238017  0.26293744  1.0
  Ta  Ta1010  1  0.25809367  0.79571350  0.26293744  1.0
  Ta  Ta1011  1  0.59142700  0.12904683  0.26293744  1.0
  Ta  Ta1012  1  0.59142700  0.46238017  0.26293744  1.0
  Ta  Ta1013  1  0.59142700  0.79571350  0.26293744  1.0
  Ta  Ta1014  1  0.92476033  0.12904683  0.26293744  1.0
  Ta  Ta1015  1  0.92476033  0.46238017  0.26293744  1.0
  Ta  Ta1016  1  0.92476033  0.79571350  0.26293744  1.0
  Ta  Ta1017  1  0.25809367  0.29571350  0.31849300  1.0
  Ta  Ta1018  1  0.25809367  0.62904683  0.31849300  1.0
  Ta  Ta1019  1  0.25809367  0.96238017  0.31849300  1.0
  Ta  Ta1020  1  0.59142700  0.29571350  0.31849300  1.0
  Ta  Ta1021  1  0.59142700  0.62904683  0.31849300  1.0
  Ta  Ta1022  1  0.59142700  0.96238017  0.31849300  1.0
  Ta  Ta1023  1  0.92476033  0.29571350  0.31849300  1.0
  Ta  Ta1024  1  0.92476033  0.62904683  0.31849300  1.0
  Ta  Ta1025  1  0.92476033  0.96238017  0.31849300  1.0
  Ta  Ta1026  1  0.09159433  0.04579717  0.23518756  1.0
  Ta  Ta1027  1  0.09159433  0.37913050  0.23518756  1.0
  Ta  Ta1028  1  0.09159433  0.71246383  0.23518756  1.0
  Ta  Ta1029  1  0.42492767  0.04579717  0.23518756  1.0
  Ta  Ta1030  1  0.42492767  0.37913050  0.23518756  1.0
  Ta  Ta1031  1  0.42492767  0.71246383  0.23518756  1.0
  Ta  Ta1032  1  0.75826100  0.04579717  0.23518756  1.0
  Ta  Ta1033  1  0.75826100  0.37913050  0.23518756  1.0
  Ta  Ta1034  1  0.75826100  0.71246383  0.23518756  1.0
  Ta  Ta1035  1  0.09159433  0.21246383  0.29074311  1.0
  Ta  Ta1036  1  0.09159433  0.54579717  0.29074311  1.0
  Ta  Ta1037  1  0.09159433  0.87913050  0.29074311  1.0
  Ta  Ta1038  1  0.42492767  0.21246383  0.29074311  1.0
  Ta  Ta1039  1  0.42492767  0.54579717  0.29074311  1.0
  Ta  Ta1040  1  0.42492767  0.87913050  0.29074311  1.0
  Ta  Ta1041  1  0.75826100  0.21246383  0.29074311  1.0
  Ta  Ta1042  1  0.75826100  0.54579717  0.29074311  1.0
  Ta  Ta1043  1  0.75826100  0.87913050  0.29074311  1.0
  Ta  Ta1044  1  0.24173900  0.12086950  0.26021167  1.0
  Ta  Ta1045  1  0.24173900  0.45420283  0.26021167  1.0
  Ta  Ta1046  1  0.24173900  0.78753617  0.26021167  1.0
  Ta  Ta1047  1  0.57507233  0.12086950  0.26021167  1.0
  Ta  Ta1048  1  0.57507233  0.45420283  0.26021167  1.0
  Ta  Ta1049  1  0.57507233  0.78753617  0.26021167  1.0
  Ta  Ta1050  1  0.90840567  0.12086950  0.26021167  1.0
  Ta  Ta1051  1  0.90840567  0.45420283  0.26021167  1.0
  Ta  Ta1052  1  0.90840567  0.78753617  0.26021167  1.0
  Ta  Ta1053  1  0.24173900  0.28753617  0.31576722  1.0
  Ta  Ta1054  1  0.24173900  0.62086950  0.31576722  1.0
  Ta  Ta1055  1  0.24173900  0.95420283  0.31576722  1.0
  Ta  Ta1056  1  0.57507233  0.28753617  0.31576722  1.0
  Ta  Ta1057  1  0.57507233  0.62086950  0.31576722  1.0
  Ta  Ta1058  1  0.57507233  0.95420283  0.31576722  1.0
  Ta  Ta1059  1  0.90840567  0.28753617  0.31576722  1.0
  Ta  Ta1060  1  0.90840567  0.62086950  0.31576722  1.0
  Ta  Ta1061  1  0.90840567  0.95420283  0.31576722  1.0
  Ta  Ta1062  1  0.07523967  0.03761983  0.23246178  1.0
  Ta  Ta1063  1  0.07523967  0.37095317  0.23246178  1.0
  Ta  Ta1064  1  0.07523967  0.70428650  0.23246178  1.0
  Ta  Ta1065  1  0.40857300  0.03761983  0.23246178  1.0
  Ta  Ta1066  1  0.40857300  0.37095317  0.23246178  1.0
  Ta  Ta1067  1  0.40857300  0.70428650  0.23246178  1.0
  Ta  Ta1068  1  0.74190633  0.03761983  0.23246178  1.0
  Ta  Ta1069  1  0.74190633  0.37095317  0.23246178  1.0
  Ta  Ta1070  1  0.74190633  0.70428650  0.23246178  1.0
  Ta  Ta1071  1  0.07523967  0.20428650  0.28801733  1.0
  Ta  Ta1072  1  0.07523967  0.53761983  0.28801733  1.0
  Ta  Ta1073  1  0.07523967  0.87095317  0.28801733  1.0
  Ta  Ta1074  1  0.40857300  0.20428650  0.28801733  1.0
  Ta  Ta1075  1  0.40857300  0.53761983  0.28801733  1.0
  Ta  Ta1076  1  0.40857300  0.87095317  0.28801733  1.0
  Ta  Ta1077  1  0.74190633  0.20428650  0.28801733  1.0
  Ta  Ta1078  1  0.74190633  0.53761983  0.28801733  1.0
  Ta  Ta1079  1  0.74190633  0.87095317  0.28801733  1.0
  Ta  Ta1080  1  0.13871800  0.06935900  0.24304150  1.0
  Ta  Ta1081  1  0.13871800  0.40269233  0.24304150  1.0
  Ta  Ta1082  1  0.13871800  0.73602567  0.24304150  1.0
  Ta  Ta1083  1  0.47205133  0.06935900  0.24304150  1.0
  Ta  Ta1084  1  0.47205133  0.40269233  0.24304150  1.0
  Ta  Ta1085  1  0.47205133  0.73602567  0.24304150  1.0
  Ta  Ta1086  1  0.80538467  0.06935900  0.24304150  1.0
  Ta  Ta1087  1  0.80538467  0.40269233  0.24304150  1.0
  Ta  Ta1088  1  0.80538467  0.73602567  0.24304150  1.0
  Ta  Ta1089  1  0.13871800  0.23602567  0.29859706  1.0
  Ta  Ta1090  1  0.13871800  0.56935900  0.29859706  1.0
  Ta  Ta1091  1  0.13871800  0.90269233  0.29859706  1.0
  Ta  Ta1092  1  0.47205133  0.23602567  0.29859706  1.0
  Ta  Ta1093  1  0.47205133  0.56935900  0.29859706  1.0
  Ta  Ta1094  1  0.47205133  0.90269233  0.29859706  1.0
  Ta  Ta1095  1  0.80538467  0.23602567  0.29859706  1.0
  Ta  Ta1096  1  0.80538467  0.56935900  0.29859706  1.0
  Ta  Ta1097  1  0.80538467  0.90269233  0.29859706  1.0
  Ta  Ta1098  1  0.30572867  0.15286433  0.27087661  1.0
  Ta  Ta1099  1  0.30572867  0.48619767  0.27087661  1.0
  Ta  Ta1100  1  0.30572867  0.81953100  0.27087661  1.0
  Ta  Ta1101  1  0.63906200  0.15286433  0.27087661  1.0
  Ta  Ta1102  1  0.63906200  0.48619767  0.27087661  1.0
  Ta  Ta1103  1  0.63906200  0.81953100  0.27087661  1.0
  Ta  Ta1104  1  0.97239533  0.15286433  0.27087661  1.0
  Ta  Ta1105  1  0.97239533  0.48619767  0.27087661  1.0
  Ta  Ta1106  1  0.97239533  0.81953100  0.27087661  1.0
  Ta  Ta1107  1  0.30572867  0.31953100  0.32643217  1.0
  Ta  Ta1108  1  0.30572867  0.65286433  0.32643217  1.0
  Ta  Ta1109  1  0.30572867  0.98619767  0.32643217  1.0
  Ta  Ta1110  1  0.63906200  0.31953100  0.32643217  1.0
  Ta  Ta1111  1  0.63906200  0.65286433  0.32643217  1.0
  Ta  Ta1112  1  0.63906200  0.98619767  0.32643217  1.0
  Ta  Ta1113  1  0.97239533  0.31953100  0.32643217  1.0
  Ta  Ta1114  1  0.97239533  0.65286433  0.32643217  1.0
  Ta  Ta1115  1  0.97239533  0.98619767  0.32643217  1.0
  Ta  Ta1116  1  0.02760467  0.01380233  0.22452261  1.0
  Ta  Ta1117  1  0.02760467  0.34713567  0.22452261  1.0
  Ta  Ta1118  1  0.02760467  0.68046900  0.22452261  1.0
  Ta  Ta1119  1  0.36093800  0.01380233  0.22452261  1.0
  Ta  Ta1120  1  0.36093800  0.34713567  0.22452261  1.0
  Ta  Ta1121  1  0.36093800  0.68046900  0.22452261  1.0
  Ta  Ta1122  1  0.69427133  0.01380233  0.22452261  1.0
  Ta  Ta1123  1  0.69427133  0.34713567  0.22452261  1.0
  Ta  Ta1124  1  0.69427133  0.68046900  0.22452261  1.0
  Ta  Ta1125  1  0.02760467  0.18046900  0.28007817  1.0
  Ta  Ta1126  1  0.02760467  0.51380233  0.28007817  1.0
  Ta  Ta1127  1  0.02760467  0.84713567  0.28007817  1.0
  Ta  Ta1128  1  0.36093800  0.18046900  0.28007817  1.0
  Ta  Ta1129  1  0.36093800  0.51380233  0.28007817  1.0
  Ta  Ta1130  1  0.36093800  0.84713567  0.28007817  1.0
  Ta  Ta1131  1  0.69427133  0.18046900  0.28007817  1.0
  Ta  Ta1132  1  0.69427133  0.51380233  0.28007817  1.0
  Ta  Ta1133  1  0.69427133  0.84713567  0.28007817  1.0
  Ta  Ta1134  1  0.19461533  0.09730767  0.25235772  1.0
  Ta  Ta1135  1  0.19461533  0.43064100  0.25235772  1.0
  Ta  Ta1136  1  0.19461533  0.76397433  0.25235772  1.0
  Ta  Ta1137  1  0.52794867  0.09730767  0.25235772  1.0
  Ta  Ta1138  1  0.52794867  0.43064100  0.25235772  1.0
  Ta  Ta1139  1  0.52794867  0.76397433  0.25235772  1.0
  Ta  Ta1140  1  0.86128200  0.09730767  0.25235772  1.0
  Ta  Ta1141  1  0.86128200  0.43064100  0.25235772  1.0
  Ta  Ta1142  1  0.86128200  0.76397433  0.25235772  1.0
  Ta  Ta1143  1  0.19461533  0.26397433  0.30791328  1.0
  Ta  Ta1144  1  0.19461533  0.59730767  0.30791328  1.0
  Ta  Ta1145  1  0.19461533  0.93064100  0.30791328  1.0
  Ta  Ta1146  1  0.52794867  0.26397433  0.30791328  1.0
  Ta  Ta1147  1  0.52794867  0.59730767  0.30791328  1.0
  Ta  Ta1148  1  0.52794867  0.93064100  0.30791328  1.0
  Ta  Ta1149  1  0.86128200  0.26397433  0.30791328  1.0
  Ta  Ta1150  1  0.86128200  0.59730767  0.30791328  1.0
  Ta  Ta1151  1  0.86128200  0.93064100  0.30791328  1.0
  Ta  Ta1152  1  0.16666667  0.08333333  0.24769961  1.0
  Ta  Ta1153  1  0.16666667  0.41666667  0.24769961  1.0
  Ta  Ta1154  1  0.16666667  0.75000000  0.24769961  1.0
  Ta  Ta1155  1  0.50000000  0.08333333  0.24769961  1.0
  Ta  Ta1156  1  0.50000000  0.41666667  0.24769961  1.0
  Ta  Ta1157  1  0.50000000  0.75000000  0.24769961  1.0
  Ta  Ta1158  1  0.83333333  0.08333333  0.24769961  1.0
  Ta  Ta1159  1  0.83333333  0.41666667  0.24769961  1.0
  Ta  Ta1160  1  0.83333333  0.75000000  0.24769961  1.0
  Ta  Ta1161  1  0.16666667  0.25000000  0.30325517  1.0
  Ta  Ta1162  1  0.16666667  0.58333333  0.30325517  1.0
  Ta  Ta1163  1  0.16666667  0.91666667  0.30325517  1.0
  Ta  Ta1164  1  0.50000000  0.25000000  0.30325517  1.0
  Ta  Ta1165  1  0.50000000  0.58333333  0.30325517  1.0
  Ta  Ta1166  1  0.50000000  0.91666667  0.30325517  1.0
  Ta  Ta1167  1  0.83333333  0.25000000  0.30325517  1.0
  Ta  Ta1168  1  0.83333333  0.58333333  0.30325517  1.0
  Ta  Ta1169  1  0.83333333  0.91666667  0.30325517  1.0
  Ni  Ni1170  1  0.06827067  0.03413533  0.28680361  1.0
  Ni  Ni1171  1  0.06827067  0.36746867  0.28680361  1.0
  Ni  Ni1172  1  0.06827067  0.70080200  0.28680361  1.0
  Ni  Ni1173  1  0.40160400  0.03413533  0.28680361  1.0
  Ni  Ni1174  1  0.40160400  0.36746867  0.28680361  1.0
  Ni  Ni1175  1  0.40160400  0.70080200  0.28680361  1.0
  Ni  Ni1176  1  0.73493733  0.03413533  0.28680361  1.0
  Ni  Ni1177  1  0.73493733  0.36746867  0.28680361  1.0
  Ni  Ni1178  1  0.73493733  0.70080200  0.28680361  1.0
  Ni  Ni1179  1  0.06827067  0.20080200  0.23124806  1.0
  Ni  Ni1180  1  0.06827067  0.53413533  0.23124806  1.0
  Ni  Ni1181  1  0.06827067  0.86746867  0.23124806  1.0
  Ni  Ni1182  1  0.40160400  0.20080200  0.23124806  1.0
  Ni  Ni1183  1  0.40160400  0.53413533  0.23124806  1.0
  Ni  Ni1184  1  0.40160400  0.86746867  0.23124806  1.0
  Ni  Ni1185  1  0.73493733  0.20080200  0.23124806  1.0
  Ni  Ni1186  1  0.73493733  0.53413533  0.23124806  1.0
  Ni  Ni1187  1  0.73493733  0.86746867  0.23124806  1.0
  Ni  Ni1188  1  0.23622633  0.11811317  0.31386944  1.0
  Ni  Ni1189  1  0.23622633  0.45144650  0.31386944  1.0
  Ni  Ni1190  1  0.23622633  0.78477983  0.31386944  1.0
  Ni  Ni1191  1  0.56955967  0.11811317  0.31386944  1.0
  Ni  Ni1192  1  0.56955967  0.45144650  0.31386944  1.0
  Ni  Ni1193  1  0.56955967  0.78477983  0.31386944  1.0
  Ni  Ni1194  1  0.90289300  0.11811317  0.31386944  1.0
  Ni  Ni1195  1  0.90289300  0.45144650  0.31386944  1.0
  Ni  Ni1196  1  0.90289300  0.78477983  0.31386944  1.0
  Ni  Ni1197  1  0.23622633  0.28477983  0.25831389  1.0
  Ni  Ni1198  1  0.23622633  0.61811317  0.25831389  1.0
  Ni  Ni1199  1  0.23622633  0.95144650  0.25831389  1.0
  Ni  Ni1200  1  0.56955967  0.28477983  0.25831389  1.0
  Ni  Ni1201  1  0.56955967  0.61811317  0.25831389  1.0
  Ni  Ni1202  1  0.56955967  0.95144650  0.25831389  1.0
  Ni  Ni1203  1  0.90289300  0.28477983  0.25831389  1.0
  Ni  Ni1204  1  0.90289300  0.61811317  0.25831389  1.0
  Ni  Ni1205  1  0.90289300  0.95144650  0.25831389  1.0
  Ni  Ni1206  1  0.06827067  0.11739033  0.31465972  1.0
  Ni  Ni1207  1  0.06827067  0.45072367  0.31465972  1.0
  Ni  Ni1208  1  0.06827067  0.78405700  0.31465972  1.0
  Ni  Ni1209  1  0.40160400  0.11739033  0.31465972  1.0
  Ni  Ni1210  1  0.40160400  0.45072367  0.31465972  1.0
  Ni  Ni1211  1  0.40160400  0.78405700  0.31465972  1.0
  Ni  Ni1212  1  0.73493733  0.11739033  0.31465972  1.0
  Ni  Ni1213  1  0.73493733  0.45072367  0.31465972  1.0
  Ni  Ni1214  1  0.73493733  0.78405700  0.31465972  1.0
  Ni  Ni1215  1  0.06827067  0.28405700  0.25910417  1.0
  Ni  Ni1216  1  0.06827067  0.61739033  0.25910417  1.0
  Ni  Ni1217  1  0.06827067  0.95072367  0.25910417  1.0
  Ni  Ni1218  1  0.40160400  0.28405700  0.25910417  1.0
  Ni  Ni1219  1  0.40160400  0.61739033  0.25910417  1.0
  Ni  Ni1220  1  0.40160400  0.95072367  0.25910417  1.0
  Ni  Ni1221  1  0.73493733  0.28405700  0.25910417  1.0
  Ni  Ni1222  1  0.73493733  0.61739033  0.25910417  1.0
  Ni  Ni1223  1  0.73493733  0.95072367  0.25910417  1.0
  Ni  Ni1224  1  0.23622633  0.03331133  0.28756017  1.0
  Ni  Ni1225  1  0.23622633  0.36664467  0.28756017  1.0
  Ni  Ni1226  1  0.23622633  0.69997800  0.28756017  1.0
  Ni  Ni1227  1  0.56955967  0.03331133  0.28756017  1.0
  Ni  Ni1228  1  0.56955967  0.36664467  0.28756017  1.0
  Ni  Ni1229  1  0.56955967  0.69997800  0.28756017  1.0
  Ni  Ni1230  1  0.90289300  0.03331133  0.28756017  1.0
  Ni  Ni1231  1  0.90289300  0.36664467  0.28756017  1.0
  Ni  Ni1232  1  0.90289300  0.69997800  0.28756017  1.0
  Ni  Ni1233  1  0.23622633  0.19997800  0.23200461  1.0
  Ni  Ni1234  1  0.23622633  0.53331133  0.23200461  1.0
  Ni  Ni1235  1  0.23622633  0.86664467  0.23200461  1.0
  Ni  Ni1236  1  0.56955967  0.19997800  0.23200461  1.0
  Ni  Ni1237  1  0.56955967  0.53331133  0.23200461  1.0
  Ni  Ni1238  1  0.56955967  0.86664467  0.23200461  1.0
  Ni  Ni1239  1  0.90289300  0.19997800  0.23200461  1.0
  Ni  Ni1240  1  0.90289300  0.53331133  0.23200461  1.0
  Ni  Ni1241  1  0.90289300  0.86664467  0.23200461  1.0
  Ni  Ni1242  1  0.23478067  0.03413533  0.23130028  1.0
  Ni  Ni1243  1  0.23478067  0.36746867  0.23130028  1.0
  Ni  Ni1244  1  0.23478067  0.70080200  0.23130028  1.0
  Ni  Ni1245  1  0.56811400  0.03413533  0.23130028  1.0
  Ni  Ni1246  1  0.56811400  0.36746867  0.23130028  1.0
  Ni  Ni1247  1  0.56811400  0.70080200  0.23130028  1.0
  Ni  Ni1248  1  0.90144733  0.03413533  0.23130028  1.0
  Ni  Ni1249  1  0.90144733  0.36746867  0.23130028  1.0
  Ni  Ni1250  1  0.90144733  0.70080200  0.23130028  1.0
  Ni  Ni1251  1  0.23478067  0.20080200  0.28685583  1.0
  Ni  Ni1252  1  0.23478067  0.53413533  0.28685583  1.0
  Ni  Ni1253  1  0.23478067  0.86746867  0.28685583  1.0
  Ni  Ni1254  1  0.56811400  0.20080200  0.28685583  1.0
  Ni  Ni1255  1  0.56811400  0.53413533  0.28685583  1.0
  Ni  Ni1256  1  0.56811400  0.86746867  0.28685583  1.0
  Ni  Ni1257  1  0.90144733  0.20080200  0.28685583  1.0
  Ni  Ni1258  1  0.90144733  0.53413533  0.28685583  1.0
  Ni  Ni1259  1  0.90144733  0.86746867  0.28685583  1.0
  Ni  Ni1260  1  0.06662267  0.11811317  0.25929289  1.0
  Ni  Ni1261  1  0.06662267  0.45144650  0.25929289  1.0
  Ni  Ni1262  1  0.06662267  0.78477983  0.25929289  1.0
  Ni  Ni1263  1  0.39995600  0.11811317  0.25929289  1.0
  Ni  Ni1264  1  0.39995600  0.45144650  0.25929289  1.0
  Ni  Ni1265  1  0.39995600  0.78477983  0.25929289  1.0
  Ni  Ni1266  1  0.73328933  0.11811317  0.25929289  1.0
  Ni  Ni1267  1  0.73328933  0.45144650  0.25929289  1.0
  Ni  Ni1268  1  0.73328933  0.78477983  0.25929289  1.0
  Ni  Ni1269  1  0.06662267  0.28477983  0.31484844  1.0
  Ni  Ni1270  1  0.06662267  0.61811317  0.31484844  1.0
  Ni  Ni1271  1  0.06662267  0.95144650  0.31484844  1.0
  Ni  Ni1272  1  0.39995600  0.28477983  0.31484844  1.0
  Ni  Ni1273  1  0.39995600  0.61811317  0.31484844  1.0
  Ni  Ni1274  1  0.39995600  0.95144650  0.31484844  1.0
  Ni  Ni1275  1  0.73328933  0.28477983  0.31484844  1.0
  Ni  Ni1276  1  0.73328933  0.61811317  0.31484844  1.0
  Ni  Ni1277  1  0.73328933  0.95144650  0.31484844  1.0
  Ni  Ni1278  1  0.09710700  0.04855350  0.29264089  1.0
  Ni  Ni1279  1  0.09710700  0.38188683  0.29264089  1.0
  Ni  Ni1280  1  0.09710700  0.71522017  0.29264089  1.0
  Ni  Ni1281  1  0.43044033  0.04855350  0.29264089  1.0
  Ni  Ni1282  1  0.43044033  0.38188683  0.29264089  1.0
  Ni  Ni1283  1  0.43044033  0.71522017  0.29264089  1.0
  Ni  Ni1284  1  0.76377367  0.04855350  0.29264089  1.0
  Ni  Ni1285  1  0.76377367  0.38188683  0.29264089  1.0
  Ni  Ni1286  1  0.76377367  0.71522017  0.29264089  1.0
  Ni  Ni1287  1  0.09710700  0.21522017  0.23708533  1.0
  Ni  Ni1288  1  0.09710700  0.54855350  0.23708533  1.0
  Ni  Ni1289  1  0.09710700  0.88188683  0.23708533  1.0
  Ni  Ni1290  1  0.43044033  0.21522017  0.23708533  1.0
  Ni  Ni1291  1  0.43044033  0.54855350  0.23708533  1.0
  Ni  Ni1292  1  0.43044033  0.88188683  0.23708533  1.0
  Ni  Ni1293  1  0.76377367  0.21522017  0.23708533  1.0
  Ni  Ni1294  1  0.76377367  0.54855350  0.23708533  1.0
  Ni  Ni1295  1  0.76377367  0.88188683  0.23708533  1.0
  Ni  Ni1296  1  0.26506267  0.13253133  0.31970672  1.0
  Ni  Ni1297  1  0.26506267  0.46586467  0.31970672  1.0
  Ni  Ni1298  1  0.26506267  0.79919800  0.31970672  1.0
  Ni  Ni1299  1  0.59839600  0.13253133  0.31970672  1.0
  Ni  Ni1300  1  0.59839600  0.46586467  0.31970672  1.0
  Ni  Ni1301  1  0.59839600  0.79919800  0.31970672  1.0
  Ni  Ni1302  1  0.93172933  0.13253133  0.31970672  1.0
  Ni  Ni1303  1  0.93172933  0.46586467  0.31970672  1.0
  Ni  Ni1304  1  0.93172933  0.79919800  0.31970672  1.0
  Ni  Ni1305  1  0.26506267  0.29919800  0.26415117  1.0
  Ni  Ni1306  1  0.26506267  0.63253133  0.26415117  1.0
  Ni  Ni1307  1  0.26506267  0.96586467  0.26415117  1.0
  Ni  Ni1308  1  0.59839600  0.29919800  0.26415117  1.0
  Ni  Ni1309  1  0.59839600  0.63253133  0.26415117  1.0
  Ni  Ni1310  1  0.59839600  0.96586467  0.26415117  1.0
  Ni  Ni1311  1  0.93172933  0.29919800  0.26415117  1.0
  Ni  Ni1312  1  0.93172933  0.63253133  0.26415117  1.0
  Ni  Ni1313  1  0.93172933  0.96586467  0.26415117  1.0
  Ni  Ni1314  1  0.09710700  0.13335533  0.31895017  1.0
  Ni  Ni1315  1  0.09710700  0.46668867  0.31895017  1.0
  Ni  Ni1316  1  0.09710700  0.80002200  0.31895017  1.0
  Ni  Ni1317  1  0.43044033  0.13335533  0.31895017  1.0
  Ni  Ni1318  1  0.43044033  0.46668867  0.31895017  1.0
  Ni  Ni1319  1  0.43044033  0.80002200  0.31895017  1.0
  Ni  Ni1320  1  0.76377367  0.13335533  0.31895017  1.0
  Ni  Ni1321  1  0.76377367  0.46668867  0.31895017  1.0
  Ni  Ni1322  1  0.76377367  0.80002200  0.31895017  1.0
  Ni  Ni1323  1  0.09710700  0.30002200  0.26339461  1.0
  Ni  Ni1324  1  0.09710700  0.63335533  0.26339461  1.0
  Ni  Ni1325  1  0.09710700  0.96668867  0.26339461  1.0
  Ni  Ni1326  1  0.43044033  0.30002200  0.26339461  1.0
  Ni  Ni1327  1  0.43044033  0.63335533  0.26339461  1.0
  Ni  Ni1328  1  0.43044033  0.96668867  0.26339461  1.0
  Ni  Ni1329  1  0.76377367  0.30002200  0.26339461  1.0
  Ni  Ni1330  1  0.76377367  0.63335533  0.26339461  1.0
  Ni  Ni1331  1  0.76377367  0.96668867  0.26339461  1.0
  Ni  Ni1332  1  0.26506267  0.04927633  0.29185061  1.0
  Ni  Ni1333  1  0.26506267  0.38260967  0.29185061  1.0
  Ni  Ni1334  1  0.26506267  0.71594300  0.29185061  1.0
  Ni  Ni1335  1  0.59839600  0.04927633  0.29185061  1.0
  Ni  Ni1336  1  0.59839600  0.38260967  0.29185061  1.0
  Ni  Ni1337  1  0.59839600  0.71594300  0.29185061  1.0
  Ni  Ni1338  1  0.93172933  0.04927633  0.29185061  1.0
  Ni  Ni1339  1  0.93172933  0.38260967  0.29185061  1.0
  Ni  Ni1340  1  0.93172933  0.71594300  0.29185061  1.0
  Ni  Ni1341  1  0.26506267  0.21594300  0.23629506  1.0
  Ni  Ni1342  1  0.26506267  0.54927633  0.23629506  1.0
  Ni  Ni1343  1  0.26506267  0.88260967  0.23629506  1.0
  Ni  Ni1344  1  0.59839600  0.21594300  0.23629506  1.0
  Ni  Ni1345  1  0.59839600  0.54927633  0.23629506  1.0
  Ni  Ni1346  1  0.59839600  0.88260967  0.23629506  1.0
  Ni  Ni1347  1  0.93172933  0.21594300  0.23629506  1.0
  Ni  Ni1348  1  0.93172933  0.54927633  0.23629506  1.0
  Ni  Ni1349  1  0.93172933  0.88260967  0.23629506  1.0
  Ni  Ni1350  1  0.26671067  0.04855350  0.23610633  1.0
  Ni  Ni1351  1  0.26671067  0.38188683  0.23610633  1.0
  Ni  Ni1352  1  0.26671067  0.71522017  0.23610633  1.0
  Ni  Ni1353  1  0.60004400  0.04855350  0.23610633  1.0
  Ni  Ni1354  1  0.60004400  0.38188683  0.23610633  1.0
  Ni  Ni1355  1  0.60004400  0.71522017  0.23610633  1.0
  Ni  Ni1356  1  0.93337733  0.04855350  0.23610633  1.0
  Ni  Ni1357  1  0.93337733  0.38188683  0.23610633  1.0
  Ni  Ni1358  1  0.93337733  0.71522017  0.23610633  1.0
  Ni  Ni1359  1  0.26671067  0.21522017  0.29166189  1.0
  Ni  Ni1360  1  0.26671067  0.54855350  0.29166189  1.0
  Ni  Ni1361  1  0.26671067  0.88188683  0.29166189  1.0
  Ni  Ni1362  1  0.60004400  0.21522017  0.29166189  1.0
  Ni  Ni1363  1  0.60004400  0.54855350  0.29166189  1.0
  Ni  Ni1364  1  0.60004400  0.88188683  0.29166189  1.0
  Ni  Ni1365  1  0.93337733  0.21522017  0.29166189  1.0
  Ni  Ni1366  1  0.93337733  0.54855350  0.29166189  1.0
  Ni  Ni1367  1  0.93337733  0.88188683  0.29166189  1.0
  Ni  Ni1368  1  0.09855267  0.13253133  0.26409894  1.0
  Ni  Ni1369  1  0.09855267  0.46586467  0.26409894  1.0
  Ni  Ni1370  1  0.09855267  0.79919800  0.26409894  1.0
  Ni  Ni1371  1  0.43188600  0.13253133  0.26409894  1.0
  Ni  Ni1372  1  0.43188600  0.46586467  0.26409894  1.0
  Ni  Ni1373  1  0.43188600  0.79919800  0.26409894  1.0
  Ni  Ni1374  1  0.76521933  0.13253133  0.26409894  1.0
  Ni  Ni1375  1  0.76521933  0.46586467  0.26409894  1.0
  Ni  Ni1376  1  0.76521933  0.79919800  0.26409894  1.0
  Ni  Ni1377  1  0.09855267  0.29919800  0.31965450  1.0
  Ni  Ni1378  1  0.09855267  0.63253133  0.31965450  1.0
  Ni  Ni1379  1  0.09855267  0.96586467  0.31965450  1.0
  Ni  Ni1380  1  0.43188600  0.29919800  0.31965450  1.0
  Ni  Ni1381  1  0.43188600  0.63253133  0.31965450  1.0
  Ni  Ni1382  1  0.43188600  0.96586467  0.31965450  1.0
  Ni  Ni1383  1  0.76521933  0.29919800  0.31965450  1.0
  Ni  Ni1384  1  0.76521933  0.63253133  0.31965450  1.0
  Ni  Ni1385  1  0.76521933  0.96586467  0.31965450  1.0
  Ni  Ni1386  1  0.00000000  0.16666667  0.27547739  1.0
  Ni  Ni1387  1  0.00000000  0.50000000  0.27547739  1.0
  Ni  Ni1388  1  0.00000000  0.83333333  0.27547739  1.0
  Ni  Ni1389  1  0.33333333  0.16666667  0.27547739  1.0
  Ni  Ni1390  1  0.33333333  0.50000000  0.27547739  1.0
  Ni  Ni1391  1  0.33333333  0.83333333  0.27547739  1.0
  Ni  Ni1392  1  0.66666667  0.16666667  0.27547739  1.0
  Ni  Ni1393  1  0.66666667  0.50000000  0.27547739  1.0
  Ni  Ni1394  1  0.66666667  0.83333333  0.27547739  1.0
  Ni  Ni1395  1  0.00000000  0.00000000  0.33103294  1.0
  Ni  Ni1396  1  0.00000000  0.33333333  0.33103294  1.0
  Ni  Ni1397  1  0.00000000  0.66666667  0.33103294  1.0
  Ni  Ni1398  1  0.33333333  0.00000000  0.33103294  1.0
  Ni  Ni1399  1  0.33333333  0.33333333  0.33103294  1.0
  Ni  Ni1400  1  0.33333333  0.66666667  0.33103294  1.0
  Ni  Ni1401  1  0.66666667  0.00000000  0.33103294  1.0
  Ni  Ni1402  1  0.66666667  0.33333333  0.33103294  1.0
  Ni  Ni1403  1  0.66666667  0.66666667  0.33103294  1.0
  Ta  Ta1404  1  0.27577467  0.13788733  0.37699539  1.0
  Ta  Ta1405  1  0.27577467  0.47122067  0.37699539  1.0
  Ta  Ta1406  1  0.27577467  0.80455400  0.37699539  1.0
  Ta  Ta1407  1  0.60910800  0.13788733  0.37699539  1.0
  Ta  Ta1408  1  0.60910800  0.47122067  0.37699539  1.0
  Ta  Ta1409  1  0.60910800  0.80455400  0.37699539  1.0
  Ta  Ta1410  1  0.94244133  0.13788733  0.37699539  1.0
  Ta  Ta1411  1  0.94244133  0.47122067  0.37699539  1.0
  Ta  Ta1412  1  0.94244133  0.80455400  0.37699539  1.0
  Ta  Ta1413  1  0.27577467  0.30455400  0.43255094  1.0
  Ta  Ta1414  1  0.27577467  0.63788733  0.43255094  1.0
  Ta  Ta1415  1  0.27577467  0.97122067  0.43255094  1.0
  Ta  Ta1416  1  0.60910800  0.30455400  0.43255094  1.0
  Ta  Ta1417  1  0.60910800  0.63788733  0.43255094  1.0
  Ta  Ta1418  1  0.60910800  0.97122067  0.43255094  1.0
  Ta  Ta1419  1  0.94244133  0.30455400  0.43255094  1.0
  Ta  Ta1420  1  0.94244133  0.63788733  0.43255094  1.0
  Ta  Ta1421  1  0.94244133  0.97122067  0.43255094  1.0
  Ta  Ta1422  1  0.10916267  0.05458133  0.34922672  1.0
  Ta  Ta1423  1  0.10916267  0.38791467  0.34922672  1.0
  Ta  Ta1424  1  0.10916267  0.72124800  0.34922672  1.0
  Ta  Ta1425  1  0.44249600  0.05458133  0.34922672  1.0
  Ta  Ta1426  1  0.44249600  0.38791467  0.34922672  1.0
  Ta  Ta1427  1  0.44249600  0.72124800  0.34922672  1.0
  Ta  Ta1428  1  0.77582933  0.05458133  0.34922672  1.0
  Ta  Ta1429  1  0.77582933  0.38791467  0.34922672  1.0
  Ta  Ta1430  1  0.77582933  0.72124800  0.34922672  1.0
  Ta  Ta1431  1  0.10916267  0.22124800  0.40478228  1.0
  Ta  Ta1432  1  0.10916267  0.55458133  0.40478228  1.0
  Ta  Ta1433  1  0.10916267  0.88791467  0.40478228  1.0
  Ta  Ta1434  1  0.44249600  0.22124800  0.40478228  1.0
  Ta  Ta1435  1  0.44249600  0.55458133  0.40478228  1.0
  Ta  Ta1436  1  0.44249600  0.88791467  0.40478228  1.0
  Ta  Ta1437  1  0.77582933  0.22124800  0.40478228  1.0
  Ta  Ta1438  1  0.77582933  0.55458133  0.40478228  1.0
  Ta  Ta1439  1  0.77582933  0.88791467  0.40478228  1.0
  Ta  Ta1440  1  0.22417067  0.11208533  0.36839472  1.0
  Ta  Ta1441  1  0.22417067  0.44541867  0.36839472  1.0
  Ta  Ta1442  1  0.22417067  0.77875200  0.36839472  1.0
  Ta  Ta1443  1  0.55750400  0.11208533  0.36839472  1.0
  Ta  Ta1444  1  0.55750400  0.44541867  0.36839472  1.0
  Ta  Ta1445  1  0.55750400  0.77875200  0.36839472  1.0
  Ta  Ta1446  1  0.89083733  0.11208533  0.36839472  1.0
  Ta  Ta1447  1  0.89083733  0.44541867  0.36839472  1.0
  Ta  Ta1448  1  0.89083733  0.77875200  0.36839472  1.0
  Ta  Ta1449  1  0.22417067  0.27875200  0.42395028  1.0
  Ta  Ta1450  1  0.22417067  0.61208533  0.42395028  1.0
  Ta  Ta1451  1  0.22417067  0.94541867  0.42395028  1.0
  Ta  Ta1452  1  0.55750400  0.27875200  0.42395028  1.0
  Ta  Ta1453  1  0.55750400  0.61208533  0.42395028  1.0
  Ta  Ta1454  1  0.55750400  0.94541867  0.42395028  1.0
  Ta  Ta1455  1  0.89083733  0.27875200  0.42395028  1.0
  Ta  Ta1456  1  0.89083733  0.61208533  0.42395028  1.0
  Ta  Ta1457  1  0.89083733  0.94541867  0.42395028  1.0
  Ta  Ta1458  1  0.05755867  0.02877933  0.34062606  1.0
  Ta  Ta1459  1  0.05755867  0.36211267  0.34062606  1.0
  Ta  Ta1460  1  0.05755867  0.69544600  0.34062606  1.0
  Ta  Ta1461  1  0.39089200  0.02877933  0.34062606  1.0
  Ta  Ta1462  1  0.39089200  0.36211267  0.34062606  1.0
  Ta  Ta1463  1  0.39089200  0.69544600  0.34062606  1.0
  Ta  Ta1464  1  0.72422533  0.02877933  0.34062606  1.0
  Ta  Ta1465  1  0.72422533  0.36211267  0.34062606  1.0
  Ta  Ta1466  1  0.72422533  0.69544600  0.34062606  1.0
  Ta  Ta1467  1  0.05755867  0.19544600  0.39618161  1.0
  Ta  Ta1468  1  0.05755867  0.52877933  0.39618161  1.0
  Ta  Ta1469  1  0.05755867  0.86211267  0.39618161  1.0
  Ta  Ta1470  1  0.39089200  0.19544600  0.39618161  1.0
  Ta  Ta1471  1  0.39089200  0.52877933  0.39618161  1.0
  Ta  Ta1472  1  0.39089200  0.86211267  0.39618161  1.0
  Ta  Ta1473  1  0.72422533  0.19544600  0.39618161  1.0
  Ta  Ta1474  1  0.72422533  0.52877933  0.39618161  1.0
  Ta  Ta1475  1  0.72422533  0.86211267  0.39618161  1.0
  Ta  Ta1476  1  0.25809367  0.12904683  0.37404856  1.0
  Ta  Ta1477  1  0.25809367  0.46238017  0.37404856  1.0
  Ta  Ta1478  1  0.25809367  0.79571350  0.37404856  1.0
  Ta  Ta1479  1  0.59142700  0.12904683  0.37404856  1.0
  Ta  Ta1480  1  0.59142700  0.46238017  0.37404856  1.0
  Ta  Ta1481  1  0.59142700  0.79571350  0.37404856  1.0
  Ta  Ta1482  1  0.92476033  0.12904683  0.37404856  1.0
  Ta  Ta1483  1  0.92476033  0.46238017  0.37404856  1.0
  Ta  Ta1484  1  0.92476033  0.79571350  0.37404856  1.0
  Ta  Ta1485  1  0.25809367  0.29571350  0.42960411  1.0
  Ta  Ta1486  1  0.25809367  0.62904683  0.42960411  1.0
  Ta  Ta1487  1  0.25809367  0.96238017  0.42960411  1.0
  Ta  Ta1488  1  0.59142700  0.29571350  0.42960411  1.0
  Ta  Ta1489  1  0.59142700  0.62904683  0.42960411  1.0
  Ta  Ta1490  1  0.59142700  0.96238017  0.42960411  1.0
  Ta  Ta1491  1  0.92476033  0.29571350  0.42960411  1.0
  Ta  Ta1492  1  0.92476033  0.62904683  0.42960411  1.0
  Ta  Ta1493  1  0.92476033  0.96238017  0.42960411  1.0
  Ta  Ta1494  1  0.09159433  0.04579717  0.34629867  1.0
  Ta  Ta1495  1  0.09159433  0.37913050  0.34629867  1.0
  Ta  Ta1496  1  0.09159433  0.71246383  0.34629867  1.0
  Ta  Ta1497  1  0.42492767  0.04579717  0.34629867  1.0
  Ta  Ta1498  1  0.42492767  0.37913050  0.34629867  1.0
  Ta  Ta1499  1  0.42492767  0.71246383  0.34629867  1.0
  Ta  Ta1500  1  0.75826100  0.04579717  0.34629867  1.0
  Ta  Ta1501  1  0.75826100  0.37913050  0.34629867  1.0
  Ta  Ta1502  1  0.75826100  0.71246383  0.34629867  1.0
  Ta  Ta1503  1  0.09159433  0.21246383  0.40185422  1.0
  Ta  Ta1504  1  0.09159433  0.54579717  0.40185422  1.0
  Ta  Ta1505  1  0.09159433  0.87913050  0.40185422  1.0
  Ta  Ta1506  1  0.42492767  0.21246383  0.40185422  1.0
  Ta  Ta1507  1  0.42492767  0.54579717  0.40185422  1.0
  Ta  Ta1508  1  0.42492767  0.87913050  0.40185422  1.0
  Ta  Ta1509  1  0.75826100  0.21246383  0.40185422  1.0
  Ta  Ta1510  1  0.75826100  0.54579717  0.40185422  1.0
  Ta  Ta1511  1  0.75826100  0.87913050  0.40185422  1.0
  Ta  Ta1512  1  0.24173900  0.12086950  0.37132278  1.0
  Ta  Ta1513  1  0.24173900  0.45420283  0.37132278  1.0
  Ta  Ta1514  1  0.24173900  0.78753617  0.37132278  1.0
  Ta  Ta1515  1  0.57507233  0.12086950  0.37132278  1.0
  Ta  Ta1516  1  0.57507233  0.45420283  0.37132278  1.0
  Ta  Ta1517  1  0.57507233  0.78753617  0.37132278  1.0
  Ta  Ta1518  1  0.90840567  0.12086950  0.37132278  1.0
  Ta  Ta1519  1  0.90840567  0.45420283  0.37132278  1.0
  Ta  Ta1520  1  0.90840567  0.78753617  0.37132278  1.0
  Ta  Ta1521  1  0.24173900  0.28753617  0.42687833  1.0
  Ta  Ta1522  1  0.24173900  0.62086950  0.42687833  1.0
  Ta  Ta1523  1  0.24173900  0.95420283  0.42687833  1.0
  Ta  Ta1524  1  0.57507233  0.28753617  0.42687833  1.0
  Ta  Ta1525  1  0.57507233  0.62086950  0.42687833  1.0
  Ta  Ta1526  1  0.57507233  0.95420283  0.42687833  1.0
  Ta  Ta1527  1  0.90840567  0.28753617  0.42687833  1.0
  Ta  Ta1528  1  0.90840567  0.62086950  0.42687833  1.0
  Ta  Ta1529  1  0.90840567  0.95420283  0.42687833  1.0
  Ta  Ta1530  1  0.07523967  0.03761983  0.34357289  1.0
  Ta  Ta1531  1  0.07523967  0.37095317  0.34357289  1.0
  Ta  Ta1532  1  0.07523967  0.70428650  0.34357289  1.0
  Ta  Ta1533  1  0.40857300  0.03761983  0.34357289  1.0
  Ta  Ta1534  1  0.40857300  0.37095317  0.34357289  1.0
  Ta  Ta1535  1  0.40857300  0.70428650  0.34357289  1.0
  Ta  Ta1536  1  0.74190633  0.03761983  0.34357289  1.0
  Ta  Ta1537  1  0.74190633  0.37095317  0.34357289  1.0
  Ta  Ta1538  1  0.74190633  0.70428650  0.34357289  1.0
  Ta  Ta1539  1  0.07523967  0.20428650  0.39912844  1.0
  Ta  Ta1540  1  0.07523967  0.53761983  0.39912844  1.0
  Ta  Ta1541  1  0.07523967  0.87095317  0.39912844  1.0
  Ta  Ta1542  1  0.40857300  0.20428650  0.39912844  1.0
  Ta  Ta1543  1  0.40857300  0.53761983  0.39912844  1.0
  Ta  Ta1544  1  0.40857300  0.87095317  0.39912844  1.0
  Ta  Ta1545  1  0.74190633  0.20428650  0.39912844  1.0
  Ta  Ta1546  1  0.74190633  0.53761983  0.39912844  1.0
  Ta  Ta1547  1  0.74190633  0.87095317  0.39912844  1.0
  Ta  Ta1548  1  0.13871800  0.06935900  0.35415261  1.0
  Ta  Ta1549  1  0.13871800  0.40269233  0.35415261  1.0
  Ta  Ta1550  1  0.13871800  0.73602567  0.35415261  1.0
  Ta  Ta1551  1  0.47205133  0.06935900  0.35415261  1.0
  Ta  Ta1552  1  0.47205133  0.40269233  0.35415261  1.0
  Ta  Ta1553  1  0.47205133  0.73602567  0.35415261  1.0
  Ta  Ta1554  1  0.80538467  0.06935900  0.35415261  1.0
  Ta  Ta1555  1  0.80538467  0.40269233  0.35415261  1.0
  Ta  Ta1556  1  0.80538467  0.73602567  0.35415261  1.0
  Ta  Ta1557  1  0.13871800  0.23602567  0.40970817  1.0
  Ta  Ta1558  1  0.13871800  0.56935900  0.40970817  1.0
  Ta  Ta1559  1  0.13871800  0.90269233  0.40970817  1.0
  Ta  Ta1560  1  0.47205133  0.23602567  0.40970817  1.0
  Ta  Ta1561  1  0.47205133  0.56935900  0.40970817  1.0
  Ta  Ta1562  1  0.47205133  0.90269233  0.40970817  1.0
  Ta  Ta1563  1  0.80538467  0.23602567  0.40970817  1.0
  Ta  Ta1564  1  0.80538467  0.56935900  0.40970817  1.0
  Ta  Ta1565  1  0.80538467  0.90269233  0.40970817  1.0
  Ta  Ta1566  1  0.30572867  0.15286433  0.38198772  1.0
  Ta  Ta1567  1  0.30572867  0.48619767  0.38198772  1.0
  Ta  Ta1568  1  0.30572867  0.81953100  0.38198772  1.0
  Ta  Ta1569  1  0.63906200  0.15286433  0.38198772  1.0
  Ta  Ta1570  1  0.63906200  0.48619767  0.38198772  1.0
  Ta  Ta1571  1  0.63906200  0.81953100  0.38198772  1.0
  Ta  Ta1572  1  0.97239533  0.15286433  0.38198772  1.0
  Ta  Ta1573  1  0.97239533  0.48619767  0.38198772  1.0
  Ta  Ta1574  1  0.97239533  0.81953100  0.38198772  1.0
  Ta  Ta1575  1  0.30572867  0.31953100  0.43754328  1.0
  Ta  Ta1576  1  0.30572867  0.65286433  0.43754328  1.0
  Ta  Ta1577  1  0.30572867  0.98619767  0.43754328  1.0
  Ta  Ta1578  1  0.63906200  0.31953100  0.43754328  1.0
  Ta  Ta1579  1  0.63906200  0.65286433  0.43754328  1.0
  Ta  Ta1580  1  0.63906200  0.98619767  0.43754328  1.0
  Ta  Ta1581  1  0.97239533  0.31953100  0.43754328  1.0
  Ta  Ta1582  1  0.97239533  0.65286433  0.43754328  1.0
  Ta  Ta1583  1  0.97239533  0.98619767  0.43754328  1.0
  Ta  Ta1584  1  0.02760467  0.01380233  0.33563372  1.0
  Ta  Ta1585  1  0.02760467  0.34713567  0.33563372  1.0
  Ta  Ta1586  1  0.02760467  0.68046900  0.33563372  1.0
  Ta  Ta1587  1  0.36093800  0.01380233  0.33563372  1.0
  Ta  Ta1588  1  0.36093800  0.34713567  0.33563372  1.0
  Ta  Ta1589  1  0.36093800  0.68046900  0.33563372  1.0
  Ta  Ta1590  1  0.69427133  0.01380233  0.33563372  1.0
  Ta  Ta1591  1  0.69427133  0.34713567  0.33563372  1.0
  Ta  Ta1592  1  0.69427133  0.68046900  0.33563372  1.0
  Ta  Ta1593  1  0.02760467  0.18046900  0.39118928  1.0
  Ta  Ta1594  1  0.02760467  0.51380233  0.39118928  1.0
  Ta  Ta1595  1  0.02760467  0.84713567  0.39118928  1.0
  Ta  Ta1596  1  0.36093800  0.18046900  0.39118928  1.0
  Ta  Ta1597  1  0.36093800  0.51380233  0.39118928  1.0
  Ta  Ta1598  1  0.36093800  0.84713567  0.39118928  1.0
  Ta  Ta1599  1  0.69427133  0.18046900  0.39118928  1.0
  Ta  Ta1600  1  0.69427133  0.51380233  0.39118928  1.0
  Ta  Ta1601  1  0.69427133  0.84713567  0.39118928  1.0
  Ta  Ta1602  1  0.19461533  0.09730767  0.36346883  1.0
  Ta  Ta1603  1  0.19461533  0.43064100  0.36346883  1.0
  Ta  Ta1604  1  0.19461533  0.76397433  0.36346883  1.0
  Ta  Ta1605  1  0.52794867  0.09730767  0.36346883  1.0
  Ta  Ta1606  1  0.52794867  0.43064100  0.36346883  1.0
  Ta  Ta1607  1  0.52794867  0.76397433  0.36346883  1.0
  Ta  Ta1608  1  0.86128200  0.09730767  0.36346883  1.0
  Ta  Ta1609  1  0.86128200  0.43064100  0.36346883  1.0
  Ta  Ta1610  1  0.86128200  0.76397433  0.36346883  1.0
  Ta  Ta1611  1  0.19461533  0.26397433  0.41902439  1.0
  Ta  Ta1612  1  0.19461533  0.59730767  0.41902439  1.0
  Ta  Ta1613  1  0.19461533  0.93064100  0.41902439  1.0
  Ta  Ta1614  1  0.52794867  0.26397433  0.41902439  1.0
  Ta  Ta1615  1  0.52794867  0.59730767  0.41902439  1.0
  Ta  Ta1616  1  0.52794867  0.93064100  0.41902439  1.0
  Ta  Ta1617  1  0.86128200  0.26397433  0.41902439  1.0
  Ta  Ta1618  1  0.86128200  0.59730767  0.41902439  1.0
  Ta  Ta1619  1  0.86128200  0.93064100  0.41902439  1.0
  Ta  Ta1620  1  0.16666667  0.08333333  0.35881072  1.0
  Ta  Ta1621  1  0.16666667  0.41666667  0.35881072  1.0
  Ta  Ta1622  1  0.16666667  0.75000000  0.35881072  1.0
  Ta  Ta1623  1  0.50000000  0.08333333  0.35881072  1.0
  Ta  Ta1624  1  0.50000000  0.41666667  0.35881072  1.0
  Ta  Ta1625  1  0.50000000  0.75000000  0.35881072  1.0
  Ta  Ta1626  1  0.83333333  0.08333333  0.35881072  1.0
  Ta  Ta1627  1  0.83333333  0.41666667  0.35881072  1.0
  Ta  Ta1628  1  0.83333333  0.75000000  0.35881072  1.0
  Ta  Ta1629  1  0.16666667  0.25000000  0.41436628  1.0
  Ta  Ta1630  1  0.16666667  0.58333333  0.41436628  1.0
  Ta  Ta1631  1  0.16666667  0.91666667  0.41436628  1.0
  Ta  Ta1632  1  0.50000000  0.25000000  0.41436628  1.0
  Ta  Ta1633  1  0.50000000  0.58333333  0.41436628  1.0
  Ta  Ta1634  1  0.50000000  0.91666667  0.41436628  1.0
  Ta  Ta1635  1  0.83333333  0.25000000  0.41436628  1.0
  Ta  Ta1636  1  0.83333333  0.58333333  0.41436628  1.0
  Ta  Ta1637  1  0.83333333  0.91666667  0.41436628  1.0
  Ni  Ni1638  1  0.06827067  0.03413533  0.39791472  1.0
  Ni  Ni1639  1  0.06827067  0.36746867  0.39791472  1.0
  Ni  Ni1640  1  0.06827067  0.70080200  0.39791472  1.0
  Ni  Ni1641  1  0.40160400  0.03413533  0.39791472  1.0
  Ni  Ni1642  1  0.40160400  0.36746867  0.39791472  1.0
  Ni  Ni1643  1  0.40160400  0.70080200  0.39791472  1.0
  Ni  Ni1644  1  0.73493733  0.03413533  0.39791472  1.0
  Ni  Ni1645  1  0.73493733  0.36746867  0.39791472  1.0
  Ni  Ni1646  1  0.73493733  0.70080200  0.39791472  1.0
  Ni  Ni1647  1  0.06827067  0.20080200  0.34235917  1.0
  Ni  Ni1648  1  0.06827067  0.53413533  0.34235917  1.0
  Ni  Ni1649  1  0.06827067  0.86746867  0.34235917  1.0
  Ni  Ni1650  1  0.40160400  0.20080200  0.34235917  1.0
  Ni  Ni1651  1  0.40160400  0.53413533  0.34235917  1.0
  Ni  Ni1652  1  0.40160400  0.86746867  0.34235917  1.0
  Ni  Ni1653  1  0.73493733  0.20080200  0.34235917  1.0
  Ni  Ni1654  1  0.73493733  0.53413533  0.34235917  1.0
  Ni  Ni1655  1  0.73493733  0.86746867  0.34235917  1.0
  Ni  Ni1656  1  0.23622633  0.11811317  0.42498056  1.0
  Ni  Ni1657  1  0.23622633  0.45144650  0.42498056  1.0
  Ni  Ni1658  1  0.23622633  0.78477983  0.42498056  1.0
  Ni  Ni1659  1  0.56955967  0.11811317  0.42498056  1.0
  Ni  Ni1660  1  0.56955967  0.45144650  0.42498056  1.0
  Ni  Ni1661  1  0.56955967  0.78477983  0.42498056  1.0
  Ni  Ni1662  1  0.90289300  0.11811317  0.42498056  1.0
  Ni  Ni1663  1  0.90289300  0.45144650  0.42498056  1.0
  Ni  Ni1664  1  0.90289300  0.78477983  0.42498056  1.0
  Ni  Ni1665  1  0.23622633  0.28477983  0.36942500  1.0
  Ni  Ni1666  1  0.23622633  0.61811317  0.36942500  1.0
  Ni  Ni1667  1  0.23622633  0.95144650  0.36942500  1.0
  Ni  Ni1668  1  0.56955967  0.28477983  0.36942500  1.0
  Ni  Ni1669  1  0.56955967  0.61811317  0.36942500  1.0
  Ni  Ni1670  1  0.56955967  0.95144650  0.36942500  1.0
  Ni  Ni1671  1  0.90289300  0.28477983  0.36942500  1.0
  Ni  Ni1672  1  0.90289300  0.61811317  0.36942500  1.0
  Ni  Ni1673  1  0.90289300  0.95144650  0.36942500  1.0
  Ni  Ni1674  1  0.06827067  0.11739033  0.42577083  1.0
  Ni  Ni1675  1  0.06827067  0.45072367  0.42577083  1.0
  Ni  Ni1676  1  0.06827067  0.78405700  0.42577083  1.0
  Ni  Ni1677  1  0.40160400  0.11739033  0.42577083  1.0
  Ni  Ni1678  1  0.40160400  0.45072367  0.42577083  1.0
  Ni  Ni1679  1  0.40160400  0.78405700  0.42577083  1.0
  Ni  Ni1680  1  0.73493733  0.11739033  0.42577083  1.0
  Ni  Ni1681  1  0.73493733  0.45072367  0.42577083  1.0
  Ni  Ni1682  1  0.73493733  0.78405700  0.42577083  1.0
  Ni  Ni1683  1  0.06827067  0.28405700  0.37021528  1.0
  Ni  Ni1684  1  0.06827067  0.61739033  0.37021528  1.0
  Ni  Ni1685  1  0.06827067  0.95072367  0.37021528  1.0
  Ni  Ni1686  1  0.40160400  0.28405700  0.37021528  1.0
  Ni  Ni1687  1  0.40160400  0.61739033  0.37021528  1.0
  Ni  Ni1688  1  0.40160400  0.95072367  0.37021528  1.0
  Ni  Ni1689  1  0.73493733  0.28405700  0.37021528  1.0
  Ni  Ni1690  1  0.73493733  0.61739033  0.37021528  1.0
  Ni  Ni1691  1  0.73493733  0.95072367  0.37021528  1.0
  Ni  Ni1692  1  0.23622633  0.03331133  0.39867128  1.0
  Ni  Ni1693  1  0.23622633  0.36664467  0.39867128  1.0
  Ni  Ni1694  1  0.23622633  0.69997800  0.39867128  1.0
  Ni  Ni1695  1  0.56955967  0.03331133  0.39867128  1.0
  Ni  Ni1696  1  0.56955967  0.36664467  0.39867128  1.0
  Ni  Ni1697  1  0.56955967  0.69997800  0.39867128  1.0
  Ni  Ni1698  1  0.90289300  0.03331133  0.39867128  1.0
  Ni  Ni1699  1  0.90289300  0.36664467  0.39867128  1.0
  Ni  Ni1700  1  0.90289300  0.69997800  0.39867128  1.0
  Ni  Ni1701  1  0.23622633  0.19997800  0.34311572  1.0
  Ni  Ni1702  1  0.23622633  0.53331133  0.34311572  1.0
  Ni  Ni1703  1  0.23622633  0.86664467  0.34311572  1.0
  Ni  Ni1704  1  0.56955967  0.19997800  0.34311572  1.0
  Ni  Ni1705  1  0.56955967  0.53331133  0.34311572  1.0
  Ni  Ni1706  1  0.56955967  0.86664467  0.34311572  1.0
  Ni  Ni1707  1  0.90289300  0.19997800  0.34311572  1.0
  Ni  Ni1708  1  0.90289300  0.53331133  0.34311572  1.0
  Ni  Ni1709  1  0.90289300  0.86664467  0.34311572  1.0
  Ni  Ni1710  1  0.23478067  0.03413533  0.34241139  1.0
  Ni  Ni1711  1  0.23478067  0.36746867  0.34241139  1.0
  Ni  Ni1712  1  0.23478067  0.70080200  0.34241139  1.0
  Ni  Ni1713  1  0.56811400  0.03413533  0.34241139  1.0
  Ni  Ni1714  1  0.56811400  0.36746867  0.34241139  1.0
  Ni  Ni1715  1  0.56811400  0.70080200  0.34241139  1.0
  Ni  Ni1716  1  0.90144733  0.03413533  0.34241139  1.0
  Ni  Ni1717  1  0.90144733  0.36746867  0.34241139  1.0
  Ni  Ni1718  1  0.90144733  0.70080200  0.34241139  1.0
  Ni  Ni1719  1  0.23478067  0.20080200  0.39796694  1.0
  Ni  Ni1720  1  0.23478067  0.53413533  0.39796694  1.0
  Ni  Ni1721  1  0.23478067  0.86746867  0.39796694  1.0
  Ni  Ni1722  1  0.56811400  0.20080200  0.39796694  1.0
  Ni  Ni1723  1  0.56811400  0.53413533  0.39796694  1.0
  Ni  Ni1724  1  0.56811400  0.86746867  0.39796694  1.0
  Ni  Ni1725  1  0.90144733  0.20080200  0.39796694  1.0
  Ni  Ni1726  1  0.90144733  0.53413533  0.39796694  1.0
  Ni  Ni1727  1  0.90144733  0.86746867  0.39796694  1.0
  Ni  Ni1728  1  0.06662267  0.11811317  0.37040400  1.0
  Ni  Ni1729  1  0.06662267  0.45144650  0.37040400  1.0
  Ni  Ni1730  1  0.06662267  0.78477983  0.37040400  1.0
  Ni  Ni1731  1  0.39995600  0.11811317  0.37040400  1.0
  Ni  Ni1732  1  0.39995600  0.45144650  0.37040400  1.0
  Ni  Ni1733  1  0.39995600  0.78477983  0.37040400  1.0
  Ni  Ni1734  1  0.73328933  0.11811317  0.37040400  1.0
  Ni  Ni1735  1  0.73328933  0.45144650  0.37040400  1.0
  Ni  Ni1736  1  0.73328933  0.78477983  0.37040400  1.0
  Ni  Ni1737  1  0.06662267  0.28477983  0.42595956  1.0
  Ni  Ni1738  1  0.06662267  0.61811317  0.42595956  1.0
  Ni  Ni1739  1  0.06662267  0.95144650  0.42595956  1.0
  Ni  Ni1740  1  0.39995600  0.28477983  0.42595956  1.0
  Ni  Ni1741  1  0.39995600  0.61811317  0.42595956  1.0
  Ni  Ni1742  1  0.39995600  0.95144650  0.42595956  1.0
  Ni  Ni1743  1  0.73328933  0.28477983  0.42595956  1.0
  Ni  Ni1744  1  0.73328933  0.61811317  0.42595956  1.0
  Ni  Ni1745  1  0.73328933  0.95144650  0.42595956  1.0
  Ni  Ni1746  1  0.09710700  0.04855350  0.40375200  1.0
  Ni  Ni1747  1  0.09710700  0.38188683  0.40375200  1.0
  Ni  Ni1748  1  0.09710700  0.71522017  0.40375200  1.0
  Ni  Ni1749  1  0.43044033  0.04855350  0.40375200  1.0
  Ni  Ni1750  1  0.43044033  0.38188683  0.40375200  1.0
  Ni  Ni1751  1  0.43044033  0.71522017  0.40375200  1.0
  Ni  Ni1752  1  0.76377367  0.04855350  0.40375200  1.0
  Ni  Ni1753  1  0.76377367  0.38188683  0.40375200  1.0
  Ni  Ni1754  1  0.76377367  0.71522017  0.40375200  1.0
  Ni  Ni1755  1  0.09710700  0.21522017  0.34819644  1.0
  Ni  Ni1756  1  0.09710700  0.54855350  0.34819644  1.0
  Ni  Ni1757  1  0.09710700  0.88188683  0.34819644  1.0
  Ni  Ni1758  1  0.43044033  0.21522017  0.34819644  1.0
  Ni  Ni1759  1  0.43044033  0.54855350  0.34819644  1.0
  Ni  Ni1760  1  0.43044033  0.88188683  0.34819644  1.0
  Ni  Ni1761  1  0.76377367  0.21522017  0.34819644  1.0
  Ni  Ni1762  1  0.76377367  0.54855350  0.34819644  1.0
  Ni  Ni1763  1  0.76377367  0.88188683  0.34819644  1.0
  Ni  Ni1764  1  0.26506267  0.13253133  0.43081783  1.0
  Ni  Ni1765  1  0.26506267  0.46586467  0.43081783  1.0
  Ni  Ni1766  1  0.26506267  0.79919800  0.43081783  1.0
  Ni  Ni1767  1  0.59839600  0.13253133  0.43081783  1.0
  Ni  Ni1768  1  0.59839600  0.46586467  0.43081783  1.0
  Ni  Ni1769  1  0.59839600  0.79919800  0.43081783  1.0
  Ni  Ni1770  1  0.93172933  0.13253133  0.43081783  1.0
  Ni  Ni1771  1  0.93172933  0.46586467  0.43081783  1.0
  Ni  Ni1772  1  0.93172933  0.79919800  0.43081783  1.0
  Ni  Ni1773  1  0.26506267  0.29919800  0.37526228  1.0
  Ni  Ni1774  1  0.26506267  0.63253133  0.37526228  1.0
  Ni  Ni1775  1  0.26506267  0.96586467  0.37526228  1.0
  Ni  Ni1776  1  0.59839600  0.29919800  0.37526228  1.0
  Ni  Ni1777  1  0.59839600  0.63253133  0.37526228  1.0
  Ni  Ni1778  1  0.59839600  0.96586467  0.37526228  1.0
  Ni  Ni1779  1  0.93172933  0.29919800  0.37526228  1.0
  Ni  Ni1780  1  0.93172933  0.63253133  0.37526228  1.0
  Ni  Ni1781  1  0.93172933  0.96586467  0.37526228  1.0
  Ni  Ni1782  1  0.09710700  0.13335533  0.43006128  1.0
  Ni  Ni1783  1  0.09710700  0.46668867  0.43006128  1.0
  Ni  Ni1784  1  0.09710700  0.80002200  0.43006128  1.0
  Ni  Ni1785  1  0.43044033  0.13335533  0.43006128  1.0
  Ni  Ni1786  1  0.43044033  0.46668867  0.43006128  1.0
  Ni  Ni1787  1  0.43044033  0.80002200  0.43006128  1.0
  Ni  Ni1788  1  0.76377367  0.13335533  0.43006128  1.0
  Ni  Ni1789  1  0.76377367  0.46668867  0.43006128  1.0
  Ni  Ni1790  1  0.76377367  0.80002200  0.43006128  1.0
  Ni  Ni1791  1  0.09710700  0.30002200  0.37450572  1.0
  Ni  Ni1792  1  0.09710700  0.63335533  0.37450572  1.0
  Ni  Ni1793  1  0.09710700  0.96668867  0.37450572  1.0
  Ni  Ni1794  1  0.43044033  0.30002200  0.37450572  1.0
  Ni  Ni1795  1  0.43044033  0.63335533  0.37450572  1.0
  Ni  Ni1796  1  0.43044033  0.96668867  0.37450572  1.0
  Ni  Ni1797  1  0.76377367  0.30002200  0.37450572  1.0
  Ni  Ni1798  1  0.76377367  0.63335533  0.37450572  1.0
  Ni  Ni1799  1  0.76377367  0.96668867  0.37450572  1.0
  Ni  Ni1800  1  0.26506267  0.04927633  0.40296172  1.0
  Ni  Ni1801  1  0.26506267  0.38260967  0.40296172  1.0
  Ni  Ni1802  1  0.26506267  0.71594300  0.40296172  1.0
  Ni  Ni1803  1  0.59839600  0.04927633  0.40296172  1.0
  Ni  Ni1804  1  0.59839600  0.38260967  0.40296172  1.0
  Ni  Ni1805  1  0.59839600  0.71594300  0.40296172  1.0
  Ni  Ni1806  1  0.93172933  0.04927633  0.40296172  1.0
  Ni  Ni1807  1  0.93172933  0.38260967  0.40296172  1.0
  Ni  Ni1808  1  0.93172933  0.71594300  0.40296172  1.0
  Ni  Ni1809  1  0.26506267  0.21594300  0.34740617  1.0
  Ni  Ni1810  1  0.26506267  0.54927633  0.34740617  1.0
  Ni  Ni1811  1  0.26506267  0.88260967  0.34740617  1.0
  Ni  Ni1812  1  0.59839600  0.21594300  0.34740617  1.0
  Ni  Ni1813  1  0.59839600  0.54927633  0.34740617  1.0
  Ni  Ni1814  1  0.59839600  0.88260967  0.34740617  1.0
  Ni  Ni1815  1  0.93172933  0.21594300  0.34740617  1.0
  Ni  Ni1816  1  0.93172933  0.54927633  0.34740617  1.0
  Ni  Ni1817  1  0.93172933  0.88260967  0.34740617  1.0
  Ni  Ni1818  1  0.26671067  0.04855350  0.34721744  1.0
  Ni  Ni1819  1  0.26671067  0.38188683  0.34721744  1.0
  Ni  Ni1820  1  0.26671067  0.71522017  0.34721744  1.0
  Ni  Ni1821  1  0.60004400  0.04855350  0.34721744  1.0
  Ni  Ni1822  1  0.60004400  0.38188683  0.34721744  1.0
  Ni  Ni1823  1  0.60004400  0.71522017  0.34721744  1.0
  Ni  Ni1824  1  0.93337733  0.04855350  0.34721744  1.0
  Ni  Ni1825  1  0.93337733  0.38188683  0.34721744  1.0
  Ni  Ni1826  1  0.93337733  0.71522017  0.34721744  1.0
  Ni  Ni1827  1  0.26671067  0.21522017  0.40277300  1.0
  Ni  Ni1828  1  0.26671067  0.54855350  0.40277300  1.0
  Ni  Ni1829  1  0.26671067  0.88188683  0.40277300  1.0
  Ni  Ni1830  1  0.60004400  0.21522017  0.40277300  1.0
  Ni  Ni1831  1  0.60004400  0.54855350  0.40277300  1.0
  Ni  Ni1832  1  0.60004400  0.88188683  0.40277300  1.0
  Ni  Ni1833  1  0.93337733  0.21522017  0.40277300  1.0
  Ni  Ni1834  1  0.93337733  0.54855350  0.40277300  1.0
  Ni  Ni1835  1  0.93337733  0.88188683  0.40277300  1.0
  Ni  Ni1836  1  0.09855267  0.13253133  0.37521006  1.0
  Ni  Ni1837  1  0.09855267  0.46586467  0.37521006  1.0
  Ni  Ni1838  1  0.09855267  0.79919800  0.37521006  1.0
  Ni  Ni1839  1  0.43188600  0.13253133  0.37521006  1.0
  Ni  Ni1840  1  0.43188600  0.46586467  0.37521006  1.0
  Ni  Ni1841  1  0.43188600  0.79919800  0.37521006  1.0
  Ni  Ni1842  1  0.76521933  0.13253133  0.37521006  1.0
  Ni  Ni1843  1  0.76521933  0.46586467  0.37521006  1.0
  Ni  Ni1844  1  0.76521933  0.79919800  0.37521006  1.0
  Ni  Ni1845  1  0.09855267  0.29919800  0.43076561  1.0
  Ni  Ni1846  1  0.09855267  0.63253133  0.43076561  1.0
  Ni  Ni1847  1  0.09855267  0.96586467  0.43076561  1.0
  Ni  Ni1848  1  0.43188600  0.29919800  0.43076561  1.0
  Ni  Ni1849  1  0.43188600  0.63253133  0.43076561  1.0
  Ni  Ni1850  1  0.43188600  0.96586467  0.43076561  1.0
  Ni  Ni1851  1  0.76521933  0.29919800  0.43076561  1.0
  Ni  Ni1852  1  0.76521933  0.63253133  0.43076561  1.0
  Ni  Ni1853  1  0.76521933  0.96586467  0.43076561  1.0
  Ni  Ni1854  1  0.00000000  0.16666667  0.38658850  1.0
  Ni  Ni1855  1  0.00000000  0.50000000  0.38658850  1.0
  Ni  Ni1856  1  0.00000000  0.83333333  0.38658850  1.0
  Ni  Ni1857  1  0.33333333  0.16666667  0.38658850  1.0
  Ni  Ni1858  1  0.33333333  0.50000000  0.38658850  1.0
  Ni  Ni1859  1  0.33333333  0.83333333  0.38658850  1.0
  Ni  Ni1860  1  0.66666667  0.16666667  0.38658850  1.0
  Ni  Ni1861  1  0.66666667  0.50000000  0.38658850  1.0
  Ni  Ni1862  1  0.66666667  0.83333333  0.38658850  1.0
  Ni  Ni1863  1  0.00000000  0.00000000  0.44214406  1.0
  Ni  Ni1864  1  0.00000000  0.33333333  0.44214406  1.0
  Ni  Ni1865  1  0.00000000  0.66666667  0.44214406  1.0
  Ni  Ni1866  1  0.33333333  0.00000000  0.44214406  1.0
  Ni  Ni1867  1  0.33333333  0.33333333  0.44214406  1.0
  Ni  Ni1868  1  0.33333333  0.66666667  0.44214406  1.0
  Ni  Ni1869  1  0.66666667  0.00000000  0.44214406  1.0
  Ni  Ni1870  1  0.66666667  0.33333333  0.44214406  1.0
  Ni  Ni1871  1  0.66666667  0.66666667  0.44214406  1.0
