# generated using pymatgen
data_Ti2Ni
_symmetry_space_group_name_H-M   'P 1'
_cell_length_a   23.91783597
_cell_length_b   41.42690711
_cell_length_c   39.86305995
_cell_angle_alpha   73.22134512
_cell_angle_beta   60.00000000
_cell_angle_gamma   73.22134512
_symmetry_Int_Tables_number   1
_chemical_formula_structural   Ti2Ni
_chemical_formula_sum   'Ti576 Ni288'
_cell_volume   32249.97608169
_cell_formula_units_Z   288
loop_
 _symmetry_equiv_pos_site_id
 _symmetry_equiv_pos_as_xyz
  1  'x, y, z'
loop_
 _atom_site_type_symbol
 _atom_site_label
 _atom_site_symmetry_multiplicity
 _atom_site_fract_x
 _atom_site_fract_y
 _atom_site_fract_z
 _atom_site_occupancy
  Ti  Ti0  1  0.27083333  0.18750000  0.06016535  1.0
  Ti  Ti1  1  0.27083333  0.52083333  0.06016535  1.0
  Ti  Ti2  1  0.27083333  0.85416667  0.06016535  1.0
  Ti  Ti3  1  0.60416667  0.18750000  0.06016535  1.0
  Ti  Ti4  1  0.60416667  0.52083333  0.06016535  1.0
  Ti  Ti5  1  0.60416667  0.85416667  0.06016535  1.0
  Ti  Ti6  1  0.93750000  0.18750000  0.06016535  1.0
  Ti  Ti7  1  0.93750000  0.52083333  0.06016535  1.0
  Ti  Ti8  1  0.93750000  0.85416667  0.06016535  1.0
  Ti  Ti9  1  0.10416667  0.02083333  0.16016535  1.0
  Ti  Ti10  1  0.10416667  0.35416667  0.16016535  1.0
  Ti  Ti11  1  0.10416667  0.68750000  0.16016535  1.0
  Ti  Ti12  1  0.43750000  0.02083333  0.16016535  1.0
  Ti  Ti13  1  0.43750000  0.35416667  0.16016535  1.0
  Ti  Ti14  1  0.43750000  0.68750000  0.16016535  1.0
  Ti  Ti15  1  0.77083333  0.02083333  0.16016535  1.0
  Ti  Ti16  1  0.77083333  0.35416667  0.16016535  1.0
  Ti  Ti17  1  0.77083333  0.68750000  0.16016535  1.0
  Ti  Ti18  1  0.10416667  0.18750000  0.06016535  1.0
  Ti  Ti19  1  0.10416667  0.52083333  0.06016535  1.0
  Ti  Ti20  1  0.10416667  0.85416667  0.06016535  1.0
  Ti  Ti21  1  0.43750000  0.18750000  0.06016535  1.0
  Ti  Ti22  1  0.43750000  0.52083333  0.06016535  1.0
  Ti  Ti23  1  0.43750000  0.85416667  0.06016535  1.0
  Ti  Ti24  1  0.77083333  0.18750000  0.06016535  1.0
  Ti  Ti25  1  0.77083333  0.52083333  0.06016535  1.0
  Ti  Ti26  1  0.77083333  0.85416667  0.06016535  1.0
  Ti  Ti27  1  0.27083333  0.02083333  0.16016535  1.0
  Ti  Ti28  1  0.27083333  0.35416667  0.16016535  1.0
  Ti  Ti29  1  0.27083333  0.68750000  0.16016535  1.0
  Ti  Ti30  1  0.60416667  0.02083333  0.16016535  1.0
  Ti  Ti31  1  0.60416667  0.35416667  0.16016535  1.0
  Ti  Ti32  1  0.60416667  0.68750000  0.16016535  1.0
  Ti  Ti33  1  0.93750000  0.02083333  0.16016535  1.0
  Ti  Ti34  1  0.93750000  0.35416667  0.16016535  1.0
  Ti  Ti35  1  0.93750000  0.68750000  0.16016535  1.0
  Ti  Ti36  1  0.02083333  0.27083333  0.01016535  1.0
  Ti  Ti37  1  0.02083333  0.60416667  0.01016535  1.0
  Ti  Ti38  1  0.02083333  0.93750000  0.01016535  1.0
  Ti  Ti39  1  0.35416667  0.27083333  0.01016535  1.0
  Ti  Ti40  1  0.35416667  0.60416667  0.01016535  1.0
  Ti  Ti41  1  0.35416667  0.93750000  0.01016535  1.0
  Ti  Ti42  1  0.68750000  0.27083333  0.01016535  1.0
  Ti  Ti43  1  0.68750000  0.60416667  0.01016535  1.0
  Ti  Ti44  1  0.68750000  0.93750000  0.01016535  1.0
  Ti  Ti45  1  0.18750000  0.10416667  0.11016535  1.0
  Ti  Ti46  1  0.18750000  0.43750000  0.11016535  1.0
  Ti  Ti47  1  0.18750000  0.77083333  0.11016535  1.0
  Ti  Ti48  1  0.52083333  0.10416667  0.11016535  1.0
  Ti  Ti49  1  0.52083333  0.43750000  0.11016535  1.0
  Ti  Ti50  1  0.52083333  0.77083333  0.11016535  1.0
  Ti  Ti51  1  0.85416667  0.10416667  0.11016535  1.0
  Ti  Ti52  1  0.85416667  0.43750000  0.11016535  1.0
  Ti  Ti53  1  0.85416667  0.77083333  0.11016535  1.0
  Ti  Ti54  1  0.10416667  0.18750000  0.16016535  1.0
  Ti  Ti55  1  0.10416667  0.52083333  0.16016535  1.0
  Ti  Ti56  1  0.10416667  0.85416667  0.16016535  1.0
  Ti  Ti57  1  0.43750000  0.18750000  0.16016535  1.0
  Ti  Ti58  1  0.43750000  0.52083333  0.16016535  1.0
  Ti  Ti59  1  0.43750000  0.85416667  0.16016535  1.0
  Ti  Ti60  1  0.77083333  0.18750000  0.16016535  1.0
  Ti  Ti61  1  0.77083333  0.52083333  0.16016535  1.0
  Ti  Ti62  1  0.77083333  0.85416667  0.16016535  1.0
  Ti  Ti63  1  0.27083333  0.02083333  0.06016535  1.0
  Ti  Ti64  1  0.27083333  0.35416667  0.06016535  1.0
  Ti  Ti65  1  0.27083333  0.68750000  0.06016535  1.0
  Ti  Ti66  1  0.60416667  0.02083333  0.06016535  1.0
  Ti  Ti67  1  0.60416667  0.35416667  0.06016535  1.0
  Ti  Ti68  1  0.60416667  0.68750000  0.06016535  1.0
  Ti  Ti69  1  0.93750000  0.02083333  0.06016535  1.0
  Ti  Ti70  1  0.93750000  0.35416667  0.06016535  1.0
  Ti  Ti71  1  0.93750000  0.68750000  0.06016535  1.0
  Ti  Ti72  1  0.28122983  0.28122983  0.09145165  1.0
  Ti  Ti73  1  0.28122983  0.61456317  0.09145165  1.0
  Ti  Ti74  1  0.28122983  0.94789650  0.09145165  1.0
  Ti  Ti75  1  0.61456317  0.28122983  0.09145165  1.0
  Ti  Ti76  1  0.61456317  0.61456317  0.09145165  1.0
  Ti  Ti77  1  0.61456317  0.94789650  0.09145165  1.0
  Ti  Ti78  1  0.94789650  0.28122983  0.09145165  1.0
  Ti  Ti79  1  0.94789650  0.61456317  0.09145165  1.0
  Ti  Ti80  1  0.94789650  0.94789650  0.09145165  1.0
  Ti  Ti81  1  0.11456317  0.11456317  0.19145165  1.0
  Ti  Ti82  1  0.11456317  0.44789650  0.19145165  1.0
  Ti  Ti83  1  0.11456317  0.78122983  0.19145165  1.0
  Ti  Ti84  1  0.44789650  0.11456317  0.19145165  1.0
  Ti  Ti85  1  0.44789650  0.44789650  0.19145165  1.0
  Ti  Ti86  1  0.44789650  0.78122983  0.19145165  1.0
  Ti  Ti87  1  0.78122983  0.11456317  0.19145165  1.0
  Ti  Ti88  1  0.78122983  0.44789650  0.19145165  1.0
  Ti  Ti89  1  0.78122983  0.78122983  0.19145165  1.0
  Ti  Ti90  1  0.21877017  0.21877017  0.00387905  1.0
  Ti  Ti91  1  0.21877017  0.55210350  0.00387905  1.0
  Ti  Ti92  1  0.21877017  0.88543683  0.00387905  1.0
  Ti  Ti93  1  0.55210350  0.21877017  0.00387905  1.0
  Ti  Ti94  1  0.55210350  0.55210350  0.00387905  1.0
  Ti  Ti95  1  0.55210350  0.88543683  0.00387905  1.0
  Ti  Ti96  1  0.88543683  0.21877017  0.00387905  1.0
  Ti  Ti97  1  0.88543683  0.55210350  0.00387905  1.0
  Ti  Ti98  1  0.88543683  0.88543683  0.00387905  1.0
  Ti  Ti99  1  0.05210350  0.05210350  0.10387905  1.0
  Ti  Ti100  1  0.05210350  0.38543683  0.10387905  1.0
  Ti  Ti101  1  0.05210350  0.71877017  0.10387905  1.0
  Ti  Ti102  1  0.38543683  0.05210350  0.10387905  1.0
  Ti  Ti103  1  0.38543683  0.38543683  0.10387905  1.0
  Ti  Ti104  1  0.38543683  0.71877017  0.10387905  1.0
  Ti  Ti105  1  0.71877017  0.05210350  0.10387905  1.0
  Ti  Ti106  1  0.71877017  0.38543683  0.10387905  1.0
  Ti  Ti107  1  0.71877017  0.71877017  0.10387905  1.0
  Ti  Ti108  1  0.01035617  0.21877017  0.12892745  1.0
  Ti  Ti109  1  0.01035617  0.55210350  0.12892745  1.0
  Ti  Ti110  1  0.01035617  0.88543683  0.12892745  1.0
  Ti  Ti111  1  0.34368950  0.21877017  0.12892745  1.0
  Ti  Ti112  1  0.34368950  0.55210350  0.12892745  1.0
  Ti  Ti113  1  0.34368950  0.88543683  0.12892745  1.0
  Ti  Ti114  1  0.67702283  0.21877017  0.12892745  1.0
  Ti  Ti115  1  0.67702283  0.55210350  0.12892745  1.0
  Ti  Ti116  1  0.67702283  0.88543683  0.12892745  1.0
  Ti  Ti117  1  0.17702283  0.05210350  0.02892745  1.0
  Ti  Ti118  1  0.17702283  0.38543683  0.02892745  1.0
  Ti  Ti119  1  0.17702283  0.71877017  0.02892745  1.0
  Ti  Ti120  1  0.51035617  0.05210350  0.02892745  1.0
  Ti  Ti121  1  0.51035617  0.38543683  0.02892745  1.0
  Ti  Ti122  1  0.51035617  0.71877017  0.02892745  1.0
  Ti  Ti123  1  0.84368950  0.05210350  0.02892745  1.0
  Ti  Ti124  1  0.84368950  0.38543683  0.02892745  1.0
  Ti  Ti125  1  0.84368950  0.71877017  0.02892745  1.0
  Ti  Ti126  1  0.15631050  0.28122983  0.16640325  1.0
  Ti  Ti127  1  0.15631050  0.61456317  0.16640325  1.0
  Ti  Ti128  1  0.15631050  0.94789650  0.16640325  1.0
  Ti  Ti129  1  0.48964383  0.28122983  0.16640325  1.0
  Ti  Ti130  1  0.48964383  0.61456317  0.16640325  1.0
  Ti  Ti131  1  0.48964383  0.94789650  0.16640325  1.0
  Ti  Ti132  1  0.82297717  0.28122983  0.16640325  1.0
  Ti  Ti133  1  0.82297717  0.61456317  0.16640325  1.0
  Ti  Ti134  1  0.82297717  0.94789650  0.16640325  1.0
  Ti  Ti135  1  0.32297717  0.11456317  0.06640325  1.0
  Ti  Ti136  1  0.32297717  0.44789650  0.06640325  1.0
  Ti  Ti137  1  0.32297717  0.78122983  0.06640325  1.0
  Ti  Ti138  1  0.65631050  0.11456317  0.06640325  1.0
  Ti  Ti139  1  0.65631050  0.44789650  0.06640325  1.0
  Ti  Ti140  1  0.65631050  0.78122983  0.06640325  1.0
  Ti  Ti141  1  0.98964383  0.11456317  0.06640325  1.0
  Ti  Ti142  1  0.98964383  0.44789650  0.06640325  1.0
  Ti  Ti143  1  0.98964383  0.78122983  0.06640325  1.0
  Ti  Ti144  1  0.21877017  0.21877017  0.12892745  1.0
  Ti  Ti145  1  0.21877017  0.55210350  0.12892745  1.0
  Ti  Ti146  1  0.21877017  0.88543683  0.12892745  1.0
  Ti  Ti147  1  0.55210350  0.21877017  0.12892745  1.0
  Ti  Ti148  1  0.55210350  0.55210350  0.12892745  1.0
  Ti  Ti149  1  0.55210350  0.88543683  0.12892745  1.0
  Ti  Ti150  1  0.88543683  0.21877017  0.12892745  1.0
  Ti  Ti151  1  0.88543683  0.55210350  0.12892745  1.0
  Ti  Ti152  1  0.88543683  0.88543683  0.12892745  1.0
  Ti  Ti153  1  0.05210350  0.05210350  0.02892745  1.0
  Ti  Ti154  1  0.05210350  0.38543683  0.02892745  1.0
  Ti  Ti155  1  0.05210350  0.71877017  0.02892745  1.0
  Ti  Ti156  1  0.38543683  0.05210350  0.02892745  1.0
  Ti  Ti157  1  0.38543683  0.38543683  0.02892745  1.0
  Ti  Ti158  1  0.38543683  0.71877017  0.02892745  1.0
  Ti  Ti159  1  0.71877017  0.05210350  0.02892745  1.0
  Ti  Ti160  1  0.71877017  0.38543683  0.02892745  1.0
  Ti  Ti161  1  0.71877017  0.71877017  0.02892745  1.0
  Ti  Ti162  1  0.28122983  0.28122983  0.16640325  1.0
  Ti  Ti163  1  0.28122983  0.61456317  0.16640325  1.0
  Ti  Ti164  1  0.28122983  0.94789650  0.16640325  1.0
  Ti  Ti165  1  0.61456317  0.28122983  0.16640325  1.0
  Ti  Ti166  1  0.61456317  0.61456317  0.16640325  1.0
  Ti  Ti167  1  0.61456317  0.94789650  0.16640325  1.0
  Ti  Ti168  1  0.94789650  0.28122983  0.16640325  1.0
  Ti  Ti169  1  0.94789650  0.61456317  0.16640325  1.0
  Ti  Ti170  1  0.94789650  0.94789650  0.16640325  1.0
  Ti  Ti171  1  0.11456317  0.11456317  0.06640325  1.0
  Ti  Ti172  1  0.11456317  0.44789650  0.06640325  1.0
  Ti  Ti173  1  0.11456317  0.78122983  0.06640325  1.0
  Ti  Ti174  1  0.44789650  0.11456317  0.06640325  1.0
  Ti  Ti175  1  0.44789650  0.44789650  0.06640325  1.0
  Ti  Ti176  1  0.44789650  0.78122983  0.06640325  1.0
  Ti  Ti177  1  0.78122983  0.11456317  0.06640325  1.0
  Ti  Ti178  1  0.78122983  0.44789650  0.06640325  1.0
  Ti  Ti179  1  0.78122983  0.78122983  0.06640325  1.0
  Ti  Ti180  1  0.09377017  0.26043683  0.12887905  1.0
  Ti  Ti181  1  0.09377017  0.59377017  0.12887905  1.0
  Ti  Ti182  1  0.09377017  0.92710350  0.12887905  1.0
  Ti  Ti183  1  0.42710350  0.26043683  0.12887905  1.0
  Ti  Ti184  1  0.42710350  0.59377017  0.12887905  1.0
  Ti  Ti185  1  0.42710350  0.92710350  0.12887905  1.0
  Ti  Ti186  1  0.76043683  0.26043683  0.12887905  1.0
  Ti  Ti187  1  0.76043683  0.59377017  0.12887905  1.0
  Ti  Ti188  1  0.76043683  0.92710350  0.12887905  1.0
  Ti  Ti189  1  0.26043683  0.09377017  0.02887905  1.0
  Ti  Ti190  1  0.26043683  0.42710350  0.02887905  1.0
  Ti  Ti191  1  0.26043683  0.76043683  0.02887905  1.0
  Ti  Ti192  1  0.59377017  0.09377017  0.02887905  1.0
  Ti  Ti193  1  0.59377017  0.42710350  0.02887905  1.0
  Ti  Ti194  1  0.59377017  0.76043683  0.02887905  1.0
  Ti  Ti195  1  0.92710350  0.09377017  0.02887905  1.0
  Ti  Ti196  1  0.92710350  0.42710350  0.02887905  1.0
  Ti  Ti197  1  0.92710350  0.76043683  0.02887905  1.0
  Ti  Ti198  1  0.15622983  0.32289650  0.01645165  1.0
  Ti  Ti199  1  0.15622983  0.65622983  0.01645165  1.0
  Ti  Ti200  1  0.15622983  0.98956317  0.01645165  1.0
  Ti  Ti201  1  0.48956317  0.32289650  0.01645165  1.0
  Ti  Ti202  1  0.48956317  0.65622983  0.01645165  1.0
  Ti  Ti203  1  0.48956317  0.98956317  0.01645165  1.0
  Ti  Ti204  1  0.82289650  0.32289650  0.01645165  1.0
  Ti  Ti205  1  0.82289650  0.65622983  0.01645165  1.0
  Ti  Ti206  1  0.82289650  0.98956317  0.01645165  1.0
  Ti  Ti207  1  0.32289650  0.15622983  0.11645165  1.0
  Ti  Ti208  1  0.32289650  0.48956317  0.11645165  1.0
  Ti  Ti209  1  0.32289650  0.82289650  0.11645165  1.0
  Ti  Ti210  1  0.65622983  0.15622983  0.11645165  1.0
  Ti  Ti211  1  0.65622983  0.48956317  0.11645165  1.0
  Ti  Ti212  1  0.65622983  0.82289650  0.11645165  1.0
  Ti  Ti213  1  0.98956317  0.15622983  0.11645165  1.0
  Ti  Ti214  1  0.98956317  0.48956317  0.11645165  1.0
  Ti  Ti215  1  0.98956317  0.82289650  0.11645165  1.0
  Ti  Ti216  1  0.03131050  0.32289650  0.09140325  1.0
  Ti  Ti217  1  0.03131050  0.65622983  0.09140325  1.0
  Ti  Ti218  1  0.03131050  0.98956317  0.09140325  1.0
  Ti  Ti219  1  0.36464383  0.32289650  0.09140325  1.0
  Ti  Ti220  1  0.36464383  0.65622983  0.09140325  1.0
  Ti  Ti221  1  0.36464383  0.98956317  0.09140325  1.0
  Ti  Ti222  1  0.69797717  0.32289650  0.09140325  1.0
  Ti  Ti223  1  0.69797717  0.65622983  0.09140325  1.0
  Ti  Ti224  1  0.69797717  0.98956317  0.09140325  1.0
  Ti  Ti225  1  0.19797717  0.15622983  0.19140325  1.0
  Ti  Ti226  1  0.19797717  0.48956317  0.19140325  1.0
  Ti  Ti227  1  0.19797717  0.82289650  0.19140325  1.0
  Ti  Ti228  1  0.53131050  0.15622983  0.19140325  1.0
  Ti  Ti229  1  0.53131050  0.48956317  0.19140325  1.0
  Ti  Ti230  1  0.53131050  0.82289650  0.19140325  1.0
  Ti  Ti231  1  0.86464383  0.15622983  0.19140325  1.0
  Ti  Ti232  1  0.86464383  0.48956317  0.19140325  1.0
  Ti  Ti233  1  0.86464383  0.82289650  0.19140325  1.0
  Ti  Ti234  1  0.21868950  0.26043683  0.05392745  1.0
  Ti  Ti235  1  0.21868950  0.59377017  0.05392745  1.0
  Ti  Ti236  1  0.21868950  0.92710350  0.05392745  1.0
  Ti  Ti237  1  0.55202283  0.26043683  0.05392745  1.0
  Ti  Ti238  1  0.55202283  0.59377017  0.05392745  1.0
  Ti  Ti239  1  0.55202283  0.92710350  0.05392745  1.0
  Ti  Ti240  1  0.88535617  0.26043683  0.05392745  1.0
  Ti  Ti241  1  0.88535617  0.59377017  0.05392745  1.0
  Ti  Ti242  1  0.88535617  0.92710350  0.05392745  1.0
  Ti  Ti243  1  0.05202283  0.09377017  0.15392745  1.0
  Ti  Ti244  1  0.05202283  0.42710350  0.15392745  1.0
  Ti  Ti245  1  0.05202283  0.76043683  0.15392745  1.0
  Ti  Ti246  1  0.38535617  0.09377017  0.15392745  1.0
  Ti  Ti247  1  0.38535617  0.42710350  0.15392745  1.0
  Ti  Ti248  1  0.38535617  0.76043683  0.15392745  1.0
  Ti  Ti249  1  0.71868950  0.09377017  0.15392745  1.0
  Ti  Ti250  1  0.71868950  0.42710350  0.15392745  1.0
  Ti  Ti251  1  0.71868950  0.76043683  0.15392745  1.0
  Ti  Ti252  1  0.15622983  0.32289650  0.09140325  1.0
  Ti  Ti253  1  0.15622983  0.65622983  0.09140325  1.0
  Ti  Ti254  1  0.15622983  0.98956317  0.09140325  1.0
  Ti  Ti255  1  0.48956317  0.32289650  0.09140325  1.0
  Ti  Ti256  1  0.48956317  0.65622983  0.09140325  1.0
  Ti  Ti257  1  0.48956317  0.98956317  0.09140325  1.0
  Ti  Ti258  1  0.82289650  0.32289650  0.09140325  1.0
  Ti  Ti259  1  0.82289650  0.65622983  0.09140325  1.0
  Ti  Ti260  1  0.82289650  0.98956317  0.09140325  1.0
  Ti  Ti261  1  0.32289650  0.15622983  0.19140325  1.0
  Ti  Ti262  1  0.32289650  0.48956317  0.19140325  1.0
  Ti  Ti263  1  0.32289650  0.82289650  0.19140325  1.0
  Ti  Ti264  1  0.65622983  0.15622983  0.19140325  1.0
  Ti  Ti265  1  0.65622983  0.48956317  0.19140325  1.0
  Ti  Ti266  1  0.65622983  0.82289650  0.19140325  1.0
  Ti  Ti267  1  0.98956317  0.15622983  0.19140325  1.0
  Ti  Ti268  1  0.98956317  0.48956317  0.19140325  1.0
  Ti  Ti269  1  0.98956317  0.82289650  0.19140325  1.0
  Ti  Ti270  1  0.09377017  0.26043683  0.05392745  1.0
  Ti  Ti271  1  0.09377017  0.59377017  0.05392745  1.0
  Ti  Ti272  1  0.09377017  0.92710350  0.05392745  1.0
  Ti  Ti273  1  0.42710350  0.26043683  0.05392745  1.0
  Ti  Ti274  1  0.42710350  0.59377017  0.05392745  1.0
  Ti  Ti275  1  0.42710350  0.92710350  0.05392745  1.0
  Ti  Ti276  1  0.76043683  0.26043683  0.05392745  1.0
  Ti  Ti277  1  0.76043683  0.59377017  0.05392745  1.0
  Ti  Ti278  1  0.76043683  0.92710350  0.05392745  1.0
  Ti  Ti279  1  0.26043683  0.09377017  0.15392745  1.0
  Ti  Ti280  1  0.26043683  0.42710350  0.15392745  1.0
  Ti  Ti281  1  0.26043683  0.76043683  0.15392745  1.0
  Ti  Ti282  1  0.59377017  0.09377017  0.15392745  1.0
  Ti  Ti283  1  0.59377017  0.42710350  0.15392745  1.0
  Ti  Ti284  1  0.59377017  0.76043683  0.15392745  1.0
  Ti  Ti285  1  0.92710350  0.09377017  0.15392745  1.0
  Ti  Ti286  1  0.92710350  0.42710350  0.15392745  1.0
  Ti  Ti287  1  0.92710350  0.76043683  0.15392745  1.0
  Ni  Ni288  1  0.25959889  0.31858644  0.02420975  1.0
  Ni  Ni289  1  0.25959889  0.65191978  0.02420975  1.0
  Ni  Ni290  1  0.25959889  0.98525311  0.02420975  1.0
  Ni  Ni291  1  0.59293222  0.31858644  0.02420975  1.0
  Ni  Ni292  1  0.59293222  0.65191978  0.02420975  1.0
  Ni  Ni293  1  0.59293222  0.98525311  0.02420975  1.0
  Ni  Ni294  1  0.92626555  0.31858644  0.02420975  1.0
  Ni  Ni295  1  0.92626555  0.65191978  0.02420975  1.0
  Ni  Ni296  1  0.92626556  0.98525311  0.02420975  1.0
  Ni  Ni297  1  0.09293222  0.15191978  0.12420975  1.0
  Ni  Ni298  1  0.09293222  0.48525311  0.12420975  1.0
  Ni  Ni299  1  0.09293222  0.81858644  0.12420975  1.0
  Ni  Ni300  1  0.42626556  0.15191978  0.12420975  1.0
  Ni  Ni301  1  0.42626556  0.48525311  0.12420975  1.0
  Ni  Ni302  1  0.42626556  0.81858644  0.12420975  1.0
  Ni  Ni303  1  0.75959889  0.15191978  0.12420975  1.0
  Ni  Ni304  1  0.75959889  0.48525311  0.12420975  1.0
  Ni  Ni305  1  0.75959889  0.81858644  0.12420975  1.0
  Ni  Ni306  1  0.04424066  0.31858644  0.02420975  1.0
  Ni  Ni307  1  0.04424066  0.65191978  0.02420975  1.0
  Ni  Ni308  1  0.04424067  0.98525311  0.02420975  1.0
  Ni  Ni309  1  0.37757400  0.31858644  0.02420975  1.0
  Ni  Ni310  1  0.37757400  0.65191978  0.02420975  1.0
  Ni  Ni311  1  0.37757400  0.98525311  0.02420975  1.0
  Ni  Ni312  1  0.71090733  0.31858644  0.02420975  1.0
  Ni  Ni313  1  0.71090733  0.65191978  0.02420975  1.0
  Ni  Ni314  1  0.71090733  0.98525311  0.02420975  1.0
  Ni  Ni315  1  0.21090733  0.15191978  0.12420975  1.0
  Ni  Ni316  1  0.21090733  0.48525311  0.12420975  1.0
  Ni  Ni317  1  0.21090733  0.81858644  0.12420975  1.0
  Ni  Ni318  1  0.54424067  0.15191978  0.12420975  1.0
  Ni  Ni319  1  0.54424067  0.48525311  0.12420975  1.0
  Ni  Ni320  1  0.54424067  0.81858644  0.12420975  1.0
  Ni  Ni321  1  0.87757400  0.15191978  0.12420975  1.0
  Ni  Ni322  1  0.87757400  0.48525311  0.12420975  1.0
  Ni  Ni323  1  0.87757400  0.81858644  0.12420975  1.0
  Ni  Ni324  1  0.15191978  0.21090733  0.08881722  1.0
  Ni  Ni325  1  0.15191978  0.54424067  0.08881722  1.0
  Ni  Ni326  1  0.15191978  0.87757400  0.08881722  1.0
  Ni  Ni327  1  0.48525311  0.21090733  0.08881722  1.0
  Ni  Ni328  1  0.48525311  0.54424067  0.08881722  1.0
  Ni  Ni329  1  0.48525311  0.87757400  0.08881722  1.0
  Ni  Ni330  1  0.81858644  0.21090733  0.08881722  1.0
  Ni  Ni331  1  0.81858644  0.54424067  0.08881722  1.0
  Ni  Ni332  1  0.81858644  0.87757400  0.08881722  1.0
  Ni  Ni333  1  0.31858644  0.04424067  0.18881722  1.0
  Ni  Ni334  1  0.31858644  0.37757400  0.18881722  1.0
  Ni  Ni335  1  0.31858644  0.71090733  0.18881722  1.0
  Ni  Ni336  1  0.65191978  0.04424067  0.18881722  1.0
  Ni  Ni337  1  0.65191978  0.37757400  0.18881722  1.0
  Ni  Ni338  1  0.65191978  0.71090733  0.18881722  1.0
  Ni  Ni339  1  0.98525311  0.04424067  0.18881722  1.0
  Ni  Ni340  1  0.98525311  0.37757400  0.18881722  1.0
  Ni  Ni341  1  0.98525311  0.71090733  0.18881722  1.0
  Ni  Ni342  1  0.04424067  0.31858644  0.15342469  1.0
  Ni  Ni343  1  0.04424067  0.65191978  0.15342469  1.0
  Ni  Ni344  1  0.04424067  0.98525311  0.15342469  1.0
  Ni  Ni345  1  0.37757400  0.31858644  0.15342469  1.0
  Ni  Ni346  1  0.37757400  0.65191978  0.15342469  1.0
  Ni  Ni347  1  0.37757400  0.98525311  0.15342469  1.0
  Ni  Ni348  1  0.71090733  0.31858644  0.15342469  1.0
  Ni  Ni349  1  0.71090733  0.65191978  0.15342469  1.0
  Ni  Ni350  1  0.71090733  0.98525311  0.15342469  1.0
  Ni  Ni351  1  0.21090733  0.15191978  0.05342469  1.0
  Ni  Ni352  1  0.21090733  0.48525311  0.05342469  1.0
  Ni  Ni353  1  0.21090733  0.81858644  0.05342469  1.0
  Ni  Ni354  1  0.54424067  0.15191978  0.05342469  1.0
  Ni  Ni355  1  0.54424067  0.48525311  0.05342469  1.0
  Ni  Ni356  1  0.54424067  0.81858644  0.05342469  1.0
  Ni  Ni357  1  0.87757400  0.15191978  0.05342469  1.0
  Ni  Ni358  1  0.87757400  0.48525311  0.05342469  1.0
  Ni  Ni359  1  0.87757400  0.81858644  0.05342469  1.0
  Ni  Ni360  1  0.11540111  0.22308022  0.19612095  1.0
  Ni  Ni361  1  0.11540111  0.55641355  0.19612095  1.0
  Ni  Ni362  1  0.11540111  0.88974689  0.19612095  1.0
  Ni  Ni363  1  0.44873445  0.22308022  0.19612095  1.0
  Ni  Ni364  1  0.44873445  0.55641355  0.19612095  1.0
  Ni  Ni365  1  0.44873445  0.88974689  0.19612095  1.0
  Ni  Ni366  1  0.78206778  0.22308022  0.19612095  1.0
  Ni  Ni367  1  0.78206778  0.55641355  0.19612095  1.0
  Ni  Ni368  1  0.78206778  0.88974689  0.19612095  1.0
  Ni  Ni369  1  0.28206778  0.05641355  0.09612095  1.0
  Ni  Ni370  1  0.28206778  0.38974689  0.09612095  1.0
  Ni  Ni371  1  0.28206778  0.72308022  0.09612095  1.0
  Ni  Ni372  1  0.61540111  0.05641355  0.09612095  1.0
  Ni  Ni373  1  0.61540111  0.38974689  0.09612095  1.0
  Ni  Ni374  1  0.61540111  0.72308022  0.09612095  1.0
  Ni  Ni375  1  0.94873445  0.05641355  0.09612095  1.0
  Ni  Ni376  1  0.94873444  0.38974689  0.09612095  1.0
  Ni  Ni377  1  0.94873444  0.72308022  0.09612095  1.0
  Ni  Ni378  1  0.33075934  0.22308022  0.19612095  1.0
  Ni  Ni379  1  0.33075934  0.55641355  0.19612095  1.0
  Ni  Ni380  1  0.33075934  0.88974689  0.19612095  1.0
  Ni  Ni381  1  0.66409267  0.22308022  0.19612095  1.0
  Ni  Ni382  1  0.66409267  0.55641355  0.19612095  1.0
  Ni  Ni383  1  0.66409267  0.88974689  0.19612095  1.0
  Ni  Ni384  1  0.99742600  0.22308022  0.19612095  1.0
  Ni  Ni385  1  0.99742600  0.55641355  0.19612095  1.0
  Ni  Ni386  1  0.99742600  0.88974689  0.19612095  1.0
  Ni  Ni387  1  0.16409267  0.05641355  0.09612095  1.0
  Ni  Ni388  1  0.16409267  0.38974689  0.09612095  1.0
  Ni  Ni389  1  0.16409267  0.72308022  0.09612095  1.0
  Ni  Ni390  1  0.49742600  0.05641355  0.09612095  1.0
  Ni  Ni391  1  0.49742600  0.38974689  0.09612095  1.0
  Ni  Ni392  1  0.49742600  0.72308022  0.09612095  1.0
  Ni  Ni393  1  0.83075933  0.05641355  0.09612095  1.0
  Ni  Ni394  1  0.83075934  0.38974689  0.09612095  1.0
  Ni  Ni395  1  0.83075934  0.72308022  0.09612095  1.0
  Ni  Ni396  1  0.22308022  0.33075933  0.13151348  1.0
  Ni  Ni397  1  0.22308022  0.66409267  0.13151348  1.0
  Ni  Ni398  1  0.22308022  0.99742600  0.13151348  1.0
  Ni  Ni399  1  0.55641356  0.33075933  0.13151348  1.0
  Ni  Ni400  1  0.55641356  0.66409267  0.13151348  1.0
  Ni  Ni401  1  0.55641356  0.99742600  0.13151348  1.0
  Ni  Ni402  1  0.88974689  0.33075933  0.13151348  1.0
  Ni  Ni403  1  0.88974689  0.66409267  0.13151348  1.0
  Ni  Ni404  1  0.88974689  0.99742600  0.13151348  1.0
  Ni  Ni405  1  0.05641356  0.16409267  0.03151348  1.0
  Ni  Ni406  1  0.05641356  0.49742600  0.03151348  1.0
  Ni  Ni407  1  0.05641356  0.83075933  0.03151348  1.0
  Ni  Ni408  1  0.38974689  0.16409267  0.03151348  1.0
  Ni  Ni409  1  0.38974689  0.49742600  0.03151348  1.0
  Ni  Ni410  1  0.38974689  0.83075933  0.03151348  1.0
  Ni  Ni411  1  0.72308022  0.16409267  0.03151348  1.0
  Ni  Ni412  1  0.72308022  0.49742600  0.03151348  1.0
  Ni  Ni413  1  0.72308022  0.83075933  0.03151348  1.0
  Ni  Ni414  1  0.33075933  0.22308022  0.06690602  1.0
  Ni  Ni415  1  0.33075934  0.55641355  0.06690602  1.0
  Ni  Ni416  1  0.33075933  0.88974689  0.06690602  1.0
  Ni  Ni417  1  0.66409267  0.22308022  0.06690602  1.0
  Ni  Ni418  1  0.66409267  0.55641355  0.06690602  1.0
  Ni  Ni419  1  0.66409267  0.88974689  0.06690602  1.0
  Ni  Ni420  1  0.99742600  0.22308022  0.06690602  1.0
  Ni  Ni421  1  0.99742600  0.55641355  0.06690602  1.0
  Ni  Ni422  1  0.99742600  0.88974689  0.06690602  1.0
  Ni  Ni423  1  0.16409267  0.05641355  0.16690602  1.0
  Ni  Ni424  1  0.16409267  0.38974689  0.16690602  1.0
  Ni  Ni425  1  0.16409267  0.72308022  0.16690602  1.0
  Ni  Ni426  1  0.49742600  0.05641355  0.16690602  1.0
  Ni  Ni427  1  0.49742600  0.38974689  0.16690602  1.0
  Ni  Ni428  1  0.49742600  0.72308022  0.16690602  1.0
  Ni  Ni429  1  0.83075933  0.05641355  0.16690602  1.0
  Ni  Ni430  1  0.83075933  0.38974689  0.16690602  1.0
  Ni  Ni431  1  0.83075934  0.72308022  0.16690602  1.0
  Ti  Ti432  1  0.27083333  0.18750000  0.26016535  1.0
  Ti  Ti433  1  0.27083333  0.52083333  0.26016535  1.0
  Ti  Ti434  1  0.27083333  0.85416667  0.26016535  1.0
  Ti  Ti435  1  0.60416667  0.18750000  0.26016535  1.0
  Ti  Ti436  1  0.60416667  0.52083333  0.26016535  1.0
  Ti  Ti437  1  0.60416667  0.85416667  0.26016535  1.0
  Ti  Ti438  1  0.93750000  0.18750000  0.26016535  1.0
  Ti  Ti439  1  0.93750000  0.52083333  0.26016535  1.0
  Ti  Ti440  1  0.93750000  0.85416667  0.26016535  1.0
  Ti  Ti441  1  0.10416667  0.02083333  0.36016535  1.0
  Ti  Ti442  1  0.10416667  0.35416667  0.36016535  1.0
  Ti  Ti443  1  0.10416667  0.68750000  0.36016535  1.0
  Ti  Ti444  1  0.43750000  0.02083333  0.36016535  1.0
  Ti  Ti445  1  0.43750000  0.35416667  0.36016535  1.0
  Ti  Ti446  1  0.43750000  0.68750000  0.36016535  1.0
  Ti  Ti447  1  0.77083333  0.02083333  0.36016535  1.0
  Ti  Ti448  1  0.77083333  0.35416667  0.36016535  1.0
  Ti  Ti449  1  0.77083333  0.68750000  0.36016535  1.0
  Ti  Ti450  1  0.10416667  0.18750000  0.26016535  1.0
  Ti  Ti451  1  0.10416667  0.52083333  0.26016535  1.0
  Ti  Ti452  1  0.10416667  0.85416667  0.26016535  1.0
  Ti  Ti453  1  0.43750000  0.18750000  0.26016535  1.0
  Ti  Ti454  1  0.43750000  0.52083333  0.26016535  1.0
  Ti  Ti455  1  0.43750000  0.85416667  0.26016535  1.0
  Ti  Ti456  1  0.77083333  0.18750000  0.26016535  1.0
  Ti  Ti457  1  0.77083333  0.52083333  0.26016535  1.0
  Ti  Ti458  1  0.77083333  0.85416667  0.26016535  1.0
  Ti  Ti459  1  0.27083333  0.02083333  0.36016535  1.0
  Ti  Ti460  1  0.27083333  0.35416667  0.36016535  1.0
  Ti  Ti461  1  0.27083333  0.68750000  0.36016535  1.0
  Ti  Ti462  1  0.60416667  0.02083333  0.36016535  1.0
  Ti  Ti463  1  0.60416667  0.35416667  0.36016535  1.0
  Ti  Ti464  1  0.60416667  0.68750000  0.36016535  1.0
  Ti  Ti465  1  0.93750000  0.02083333  0.36016535  1.0
  Ti  Ti466  1  0.93750000  0.35416667  0.36016535  1.0
  Ti  Ti467  1  0.93750000  0.68750000  0.36016535  1.0
  Ti  Ti468  1  0.02083333  0.27083333  0.21016535  1.0
  Ti  Ti469  1  0.02083333  0.60416667  0.21016535  1.0
  Ti  Ti470  1  0.02083333  0.93750000  0.21016535  1.0
  Ti  Ti471  1  0.35416667  0.27083333  0.21016535  1.0
  Ti  Ti472  1  0.35416667  0.60416667  0.21016535  1.0
  Ti  Ti473  1  0.35416667  0.93750000  0.21016535  1.0
  Ti  Ti474  1  0.68750000  0.27083333  0.21016535  1.0
  Ti  Ti475  1  0.68750000  0.60416667  0.21016535  1.0
  Ti  Ti476  1  0.68750000  0.93750000  0.21016535  1.0
  Ti  Ti477  1  0.18750000  0.10416667  0.31016535  1.0
  Ti  Ti478  1  0.18750000  0.43750000  0.31016535  1.0
  Ti  Ti479  1  0.18750000  0.77083333  0.31016535  1.0
  Ti  Ti480  1  0.52083333  0.10416667  0.31016535  1.0
  Ti  Ti481  1  0.52083333  0.43750000  0.31016535  1.0
  Ti  Ti482  1  0.52083333  0.77083333  0.31016535  1.0
  Ti  Ti483  1  0.85416667  0.10416667  0.31016535  1.0
  Ti  Ti484  1  0.85416667  0.43750000  0.31016535  1.0
  Ti  Ti485  1  0.85416667  0.77083333  0.31016535  1.0
  Ti  Ti486  1  0.10416667  0.18750000  0.36016535  1.0
  Ti  Ti487  1  0.10416667  0.52083333  0.36016535  1.0
  Ti  Ti488  1  0.10416667  0.85416667  0.36016535  1.0
  Ti  Ti489  1  0.43750000  0.18750000  0.36016535  1.0
  Ti  Ti490  1  0.43750000  0.52083333  0.36016535  1.0
  Ti  Ti491  1  0.43750000  0.85416667  0.36016535  1.0
  Ti  Ti492  1  0.77083333  0.18750000  0.36016535  1.0
  Ti  Ti493  1  0.77083333  0.52083333  0.36016535  1.0
  Ti  Ti494  1  0.77083333  0.85416667  0.36016535  1.0
  Ti  Ti495  1  0.27083333  0.02083333  0.26016535  1.0
  Ti  Ti496  1  0.27083333  0.35416667  0.26016535  1.0
  Ti  Ti497  1  0.27083333  0.68750000  0.26016535  1.0
  Ti  Ti498  1  0.60416667  0.02083333  0.26016535  1.0
  Ti  Ti499  1  0.60416667  0.35416667  0.26016535  1.0
  Ti  Ti500  1  0.60416667  0.68750000  0.26016535  1.0
  Ti  Ti501  1  0.93750000  0.02083333  0.26016535  1.0
  Ti  Ti502  1  0.93750000  0.35416667  0.26016535  1.0
  Ti  Ti503  1  0.93750000  0.68750000  0.26016535  1.0
  Ti  Ti504  1  0.28122983  0.28122983  0.29145165  1.0
  Ti  Ti505  1  0.28122983  0.61456317  0.29145165  1.0
  Ti  Ti506  1  0.28122983  0.94789650  0.29145165  1.0
  Ti  Ti507  1  0.61456317  0.28122983  0.29145165  1.0
  Ti  Ti508  1  0.61456317  0.61456317  0.29145165  1.0
  Ti  Ti509  1  0.61456317  0.94789650  0.29145165  1.0
  Ti  Ti510  1  0.94789650  0.28122983  0.29145165  1.0
  Ti  Ti511  1  0.94789650  0.61456317  0.29145165  1.0
  Ti  Ti512  1  0.94789650  0.94789650  0.29145165  1.0
  Ti  Ti513  1  0.11456317  0.11456317  0.39145165  1.0
  Ti  Ti514  1  0.11456317  0.44789650  0.39145165  1.0
  Ti  Ti515  1  0.11456317  0.78122983  0.39145165  1.0
  Ti  Ti516  1  0.44789650  0.11456317  0.39145165  1.0
  Ti  Ti517  1  0.44789650  0.44789650  0.39145165  1.0
  Ti  Ti518  1  0.44789650  0.78122983  0.39145165  1.0
  Ti  Ti519  1  0.78122983  0.11456317  0.39145165  1.0
  Ti  Ti520  1  0.78122983  0.44789650  0.39145165  1.0
  Ti  Ti521  1  0.78122983  0.78122983  0.39145165  1.0
  Ti  Ti522  1  0.21877017  0.21877017  0.20387905  1.0
  Ti  Ti523  1  0.21877017  0.55210350  0.20387905  1.0
  Ti  Ti524  1  0.21877017  0.88543683  0.20387905  1.0
  Ti  Ti525  1  0.55210350  0.21877017  0.20387905  1.0
  Ti  Ti526  1  0.55210350  0.55210350  0.20387905  1.0
  Ti  Ti527  1  0.55210350  0.88543683  0.20387905  1.0
  Ti  Ti528  1  0.88543683  0.21877017  0.20387905  1.0
  Ti  Ti529  1  0.88543683  0.55210350  0.20387905  1.0
  Ti  Ti530  1  0.88543683  0.88543683  0.20387905  1.0
  Ti  Ti531  1  0.05210350  0.05210350  0.30387905  1.0
  Ti  Ti532  1  0.05210350  0.38543683  0.30387905  1.0
  Ti  Ti533  1  0.05210350  0.71877017  0.30387905  1.0
  Ti  Ti534  1  0.38543683  0.05210350  0.30387905  1.0
  Ti  Ti535  1  0.38543683  0.38543683  0.30387905  1.0
  Ti  Ti536  1  0.38543683  0.71877017  0.30387905  1.0
  Ti  Ti537  1  0.71877017  0.05210350  0.30387905  1.0
  Ti  Ti538  1  0.71877017  0.38543683  0.30387905  1.0
  Ti  Ti539  1  0.71877017  0.71877017  0.30387905  1.0
  Ti  Ti540  1  0.01035617  0.21877017  0.32892745  1.0
  Ti  Ti541  1  0.01035617  0.55210350  0.32892745  1.0
  Ti  Ti542  1  0.01035617  0.88543683  0.32892745  1.0
  Ti  Ti543  1  0.34368950  0.21877017  0.32892745  1.0
  Ti  Ti544  1  0.34368950  0.55210350  0.32892745  1.0
  Ti  Ti545  1  0.34368950  0.88543683  0.32892745  1.0
  Ti  Ti546  1  0.67702283  0.21877017  0.32892745  1.0
  Ti  Ti547  1  0.67702283  0.55210350  0.32892745  1.0
  Ti  Ti548  1  0.67702283  0.88543683  0.32892745  1.0
  Ti  Ti549  1  0.17702283  0.05210350  0.22892745  1.0
  Ti  Ti550  1  0.17702283  0.38543683  0.22892745  1.0
  Ti  Ti551  1  0.17702283  0.71877017  0.22892745  1.0
  Ti  Ti552  1  0.51035617  0.05210350  0.22892745  1.0
  Ti  Ti553  1  0.51035617  0.38543683  0.22892745  1.0
  Ti  Ti554  1  0.51035617  0.71877017  0.22892745  1.0
  Ti  Ti555  1  0.84368950  0.05210350  0.22892745  1.0
  Ti  Ti556  1  0.84368950  0.38543683  0.22892745  1.0
  Ti  Ti557  1  0.84368950  0.71877017  0.22892745  1.0
  Ti  Ti558  1  0.15631050  0.28122983  0.36640325  1.0
  Ti  Ti559  1  0.15631050  0.61456317  0.36640325  1.0
  Ti  Ti560  1  0.15631050  0.94789650  0.36640325  1.0
  Ti  Ti561  1  0.48964383  0.28122983  0.36640325  1.0
  Ti  Ti562  1  0.48964383  0.61456317  0.36640325  1.0
  Ti  Ti563  1  0.48964383  0.94789650  0.36640325  1.0
  Ti  Ti564  1  0.82297717  0.28122983  0.36640325  1.0
  Ti  Ti565  1  0.82297717  0.61456317  0.36640325  1.0
  Ti  Ti566  1  0.82297717  0.94789650  0.36640325  1.0
  Ti  Ti567  1  0.32297717  0.11456317  0.26640325  1.0
  Ti  Ti568  1  0.32297717  0.44789650  0.26640325  1.0
  Ti  Ti569  1  0.32297717  0.78122983  0.26640325  1.0
  Ti  Ti570  1  0.65631050  0.11456317  0.26640325  1.0
  Ti  Ti571  1  0.65631050  0.44789650  0.26640325  1.0
  Ti  Ti572  1  0.65631050  0.78122983  0.26640325  1.0
  Ti  Ti573  1  0.98964383  0.11456317  0.26640325  1.0
  Ti  Ti574  1  0.98964383  0.44789650  0.26640325  1.0
  Ti  Ti575  1  0.98964383  0.78122983  0.26640325  1.0
  Ti  Ti576  1  0.21877017  0.21877017  0.32892745  1.0
  Ti  Ti577  1  0.21877017  0.55210350  0.32892745  1.0
  Ti  Ti578  1  0.21877017  0.88543683  0.32892745  1.0
  Ti  Ti579  1  0.55210350  0.21877017  0.32892745  1.0
  Ti  Ti580  1  0.55210350  0.55210350  0.32892745  1.0
  Ti  Ti581  1  0.55210350  0.88543683  0.32892745  1.0
  Ti  Ti582  1  0.88543683  0.21877017  0.32892745  1.0
  Ti  Ti583  1  0.88543683  0.55210350  0.32892745  1.0
  Ti  Ti584  1  0.88543683  0.88543683  0.32892745  1.0
  Ti  Ti585  1  0.05210350  0.05210350  0.22892745  1.0
  Ti  Ti586  1  0.05210350  0.38543683  0.22892745  1.0
  Ti  Ti587  1  0.05210350  0.71877017  0.22892745  1.0
  Ti  Ti588  1  0.38543683  0.05210350  0.22892745  1.0
  Ti  Ti589  1  0.38543683  0.38543683  0.22892745  1.0
  Ti  Ti590  1  0.38543683  0.71877017  0.22892745  1.0
  Ti  Ti591  1  0.71877017  0.05210350  0.22892745  1.0
  Ti  Ti592  1  0.71877017  0.38543683  0.22892745  1.0
  Ti  Ti593  1  0.71877017  0.71877017  0.22892745  1.0
  Ti  Ti594  1  0.28122983  0.28122983  0.36640325  1.0
  Ti  Ti595  1  0.28122983  0.61456317  0.36640325  1.0
  Ti  Ti596  1  0.28122983  0.94789650  0.36640325  1.0
  Ti  Ti597  1  0.61456317  0.28122983  0.36640325  1.0
  Ti  Ti598  1  0.61456317  0.61456317  0.36640325  1.0
  Ti  Ti599  1  0.61456317  0.94789650  0.36640325  1.0
  Ti  Ti600  1  0.94789650  0.28122983  0.36640325  1.0
  Ti  Ti601  1  0.94789650  0.61456317  0.36640325  1.0
  Ti  Ti602  1  0.94789650  0.94789650  0.36640325  1.0
  Ti  Ti603  1  0.11456317  0.11456317  0.26640325  1.0
  Ti  Ti604  1  0.11456317  0.44789650  0.26640325  1.0
  Ti  Ti605  1  0.11456317  0.78122983  0.26640325  1.0
  Ti  Ti606  1  0.44789650  0.11456317  0.26640325  1.0
  Ti  Ti607  1  0.44789650  0.44789650  0.26640325  1.0
  Ti  Ti608  1  0.44789650  0.78122983  0.26640325  1.0
  Ti  Ti609  1  0.78122983  0.11456317  0.26640325  1.0
  Ti  Ti610  1  0.78122983  0.44789650  0.26640325  1.0
  Ti  Ti611  1  0.78122983  0.78122983  0.26640325  1.0
  Ti  Ti612  1  0.09377017  0.26043683  0.32887905  1.0
  Ti  Ti613  1  0.09377017  0.59377017  0.32887905  1.0
  Ti  Ti614  1  0.09377017  0.92710350  0.32887905  1.0
  Ti  Ti615  1  0.42710350  0.26043683  0.32887905  1.0
  Ti  Ti616  1  0.42710350  0.59377017  0.32887905  1.0
  Ti  Ti617  1  0.42710350  0.92710350  0.32887905  1.0
  Ti  Ti618  1  0.76043683  0.26043683  0.32887905  1.0
  Ti  Ti619  1  0.76043683  0.59377017  0.32887905  1.0
  Ti  Ti620  1  0.76043683  0.92710350  0.32887905  1.0
  Ti  Ti621  1  0.26043683  0.09377017  0.22887905  1.0
  Ti  Ti622  1  0.26043683  0.42710350  0.22887905  1.0
  Ti  Ti623  1  0.26043683  0.76043683  0.22887905  1.0
  Ti  Ti624  1  0.59377017  0.09377017  0.22887905  1.0
  Ti  Ti625  1  0.59377017  0.42710350  0.22887905  1.0
  Ti  Ti626  1  0.59377017  0.76043683  0.22887905  1.0
  Ti  Ti627  1  0.92710350  0.09377017  0.22887905  1.0
  Ti  Ti628  1  0.92710350  0.42710350  0.22887905  1.0
  Ti  Ti629  1  0.92710350  0.76043683  0.22887905  1.0
  Ti  Ti630  1  0.15622983  0.32289650  0.21645165  1.0
  Ti  Ti631  1  0.15622983  0.65622983  0.21645165  1.0
  Ti  Ti632  1  0.15622983  0.98956317  0.21645165  1.0
  Ti  Ti633  1  0.48956317  0.32289650  0.21645165  1.0
  Ti  Ti634  1  0.48956317  0.65622983  0.21645165  1.0
  Ti  Ti635  1  0.48956317  0.98956317  0.21645165  1.0
  Ti  Ti636  1  0.82289650  0.32289650  0.21645165  1.0
  Ti  Ti637  1  0.82289650  0.65622983  0.21645165  1.0
  Ti  Ti638  1  0.82289650  0.98956317  0.21645165  1.0
  Ti  Ti639  1  0.32289650  0.15622983  0.31645165  1.0
  Ti  Ti640  1  0.32289650  0.48956317  0.31645165  1.0
  Ti  Ti641  1  0.32289650  0.82289650  0.31645165  1.0
  Ti  Ti642  1  0.65622983  0.15622983  0.31645165  1.0
  Ti  Ti643  1  0.65622983  0.48956317  0.31645165  1.0
  Ti  Ti644  1  0.65622983  0.82289650  0.31645165  1.0
  Ti  Ti645  1  0.98956317  0.15622983  0.31645165  1.0
  Ti  Ti646  1  0.98956317  0.48956317  0.31645165  1.0
  Ti  Ti647  1  0.98956317  0.82289650  0.31645165  1.0
  Ti  Ti648  1  0.03131050  0.32289650  0.29140325  1.0
  Ti  Ti649  1  0.03131050  0.65622983  0.29140325  1.0
  Ti  Ti650  1  0.03131050  0.98956317  0.29140325  1.0
  Ti  Ti651  1  0.36464383  0.32289650  0.29140325  1.0
  Ti  Ti652  1  0.36464383  0.65622983  0.29140325  1.0
  Ti  Ti653  1  0.36464383  0.98956317  0.29140325  1.0
  Ti  Ti654  1  0.69797717  0.32289650  0.29140325  1.0
  Ti  Ti655  1  0.69797717  0.65622983  0.29140325  1.0
  Ti  Ti656  1  0.69797717  0.98956317  0.29140325  1.0
  Ti  Ti657  1  0.19797717  0.15622983  0.39140325  1.0
  Ti  Ti658  1  0.19797717  0.48956317  0.39140325  1.0
  Ti  Ti659  1  0.19797717  0.82289650  0.39140325  1.0
  Ti  Ti660  1  0.53131050  0.15622983  0.39140325  1.0
  Ti  Ti661  1  0.53131050  0.48956317  0.39140325  1.0
  Ti  Ti662  1  0.53131050  0.82289650  0.39140325  1.0
  Ti  Ti663  1  0.86464383  0.15622983  0.39140325  1.0
  Ti  Ti664  1  0.86464383  0.48956317  0.39140325  1.0
  Ti  Ti665  1  0.86464383  0.82289650  0.39140325  1.0
  Ti  Ti666  1  0.21868950  0.26043683  0.25392745  1.0
  Ti  Ti667  1  0.21868950  0.59377017  0.25392745  1.0
  Ti  Ti668  1  0.21868950  0.92710350  0.25392745  1.0
  Ti  Ti669  1  0.55202283  0.26043683  0.25392745  1.0
  Ti  Ti670  1  0.55202283  0.59377017  0.25392745  1.0
  Ti  Ti671  1  0.55202283  0.92710350  0.25392745  1.0
  Ti  Ti672  1  0.88535617  0.26043683  0.25392745  1.0
  Ti  Ti673  1  0.88535617  0.59377017  0.25392745  1.0
  Ti  Ti674  1  0.88535617  0.92710350  0.25392745  1.0
  Ti  Ti675  1  0.05202283  0.09377017  0.35392745  1.0
  Ti  Ti676  1  0.05202283  0.42710350  0.35392745  1.0
  Ti  Ti677  1  0.05202283  0.76043683  0.35392745  1.0
  Ti  Ti678  1  0.38535617  0.09377017  0.35392745  1.0
  Ti  Ti679  1  0.38535617  0.42710350  0.35392745  1.0
  Ti  Ti680  1  0.38535617  0.76043683  0.35392745  1.0
  Ti  Ti681  1  0.71868950  0.09377017  0.35392745  1.0
  Ti  Ti682  1  0.71868950  0.42710350  0.35392745  1.0
  Ti  Ti683  1  0.71868950  0.76043683  0.35392745  1.0
  Ti  Ti684  1  0.15622983  0.32289650  0.29140325  1.0
  Ti  Ti685  1  0.15622983  0.65622983  0.29140325  1.0
  Ti  Ti686  1  0.15622983  0.98956317  0.29140325  1.0
  Ti  Ti687  1  0.48956317  0.32289650  0.29140325  1.0
  Ti  Ti688  1  0.48956317  0.65622983  0.29140325  1.0
  Ti  Ti689  1  0.48956317  0.98956317  0.29140325  1.0
  Ti  Ti690  1  0.82289650  0.32289650  0.29140325  1.0
  Ti  Ti691  1  0.82289650  0.65622983  0.29140325  1.0
  Ti  Ti692  1  0.82289650  0.98956317  0.29140325  1.0
  Ti  Ti693  1  0.32289650  0.15622983  0.39140325  1.0
  Ti  Ti694  1  0.32289650  0.48956317  0.39140325  1.0
  Ti  Ti695  1  0.32289650  0.82289650  0.39140325  1.0
  Ti  Ti696  1  0.65622983  0.15622983  0.39140325  1.0
  Ti  Ti697  1  0.65622983  0.48956317  0.39140325  1.0
  Ti  Ti698  1  0.65622983  0.82289650  0.39140325  1.0
  Ti  Ti699  1  0.98956317  0.15622983  0.39140325  1.0
  Ti  Ti700  1  0.98956317  0.48956317  0.39140325  1.0
  Ti  Ti701  1  0.98956317  0.82289650  0.39140325  1.0
  Ti  Ti702  1  0.09377017  0.26043683  0.25392745  1.0
  Ti  Ti703  1  0.09377017  0.59377017  0.25392745  1.0
  Ti  Ti704  1  0.09377017  0.92710350  0.25392745  1.0
  Ti  Ti705  1  0.42710350  0.26043683  0.25392745  1.0
  Ti  Ti706  1  0.42710350  0.59377017  0.25392745  1.0
  Ti  Ti707  1  0.42710350  0.92710350  0.25392745  1.0
  Ti  Ti708  1  0.76043683  0.26043683  0.25392745  1.0
  Ti  Ti709  1  0.76043683  0.59377017  0.25392745  1.0
  Ti  Ti710  1  0.76043683  0.92710350  0.25392745  1.0
  Ti  Ti711  1  0.26043683  0.09377017  0.35392745  1.0
  Ti  Ti712  1  0.26043683  0.42710350  0.35392745  1.0
  Ti  Ti713  1  0.26043683  0.76043683  0.35392745  1.0
  Ti  Ti714  1  0.59377017  0.09377017  0.35392745  1.0
  Ti  Ti715  1  0.59377017  0.42710350  0.35392745  1.0
  Ti  Ti716  1  0.59377017  0.76043683  0.35392745  1.0
  Ti  Ti717  1  0.92710350  0.09377017  0.35392745  1.0
  Ti  Ti718  1  0.92710350  0.42710350  0.35392745  1.0
  Ti  Ti719  1  0.92710350  0.76043683  0.35392745  1.0
  Ni  Ni720  1  0.25959889  0.31858644  0.22420975  1.0
  Ni  Ni721  1  0.25959889  0.65191978  0.22420975  1.0
  Ni  Ni722  1  0.25959889  0.98525311  0.22420975  1.0
  Ni  Ni723  1  0.59293222  0.31858644  0.22420975  1.0
  Ni  Ni724  1  0.59293222  0.65191978  0.22420975  1.0
  Ni  Ni725  1  0.59293222  0.98525311  0.22420975  1.0
  Ni  Ni726  1  0.92626555  0.31858644  0.22420975  1.0
  Ni  Ni727  1  0.92626555  0.65191978  0.22420975  1.0
  Ni  Ni728  1  0.92626556  0.98525311  0.22420975  1.0
  Ni  Ni729  1  0.09293222  0.15191978  0.32420975  1.0
  Ni  Ni730  1  0.09293222  0.48525311  0.32420975  1.0
  Ni  Ni731  1  0.09293222  0.81858644  0.32420975  1.0
  Ni  Ni732  1  0.42626556  0.15191978  0.32420975  1.0
  Ni  Ni733  1  0.42626556  0.48525311  0.32420975  1.0
  Ni  Ni734  1  0.42626556  0.81858644  0.32420975  1.0
  Ni  Ni735  1  0.75959889  0.15191978  0.32420975  1.0
  Ni  Ni736  1  0.75959889  0.48525311  0.32420975  1.0
  Ni  Ni737  1  0.75959889  0.81858644  0.32420975  1.0
  Ni  Ni738  1  0.04424066  0.31858644  0.22420975  1.0
  Ni  Ni739  1  0.04424066  0.65191978  0.22420975  1.0
  Ni  Ni740  1  0.04424067  0.98525311  0.22420975  1.0
  Ni  Ni741  1  0.37757400  0.31858644  0.22420975  1.0
  Ni  Ni742  1  0.37757400  0.65191978  0.22420975  1.0
  Ni  Ni743  1  0.37757400  0.98525311  0.22420975  1.0
  Ni  Ni744  1  0.71090733  0.31858644  0.22420975  1.0
  Ni  Ni745  1  0.71090733  0.65191978  0.22420975  1.0
  Ni  Ni746  1  0.71090733  0.98525311  0.22420975  1.0
  Ni  Ni747  1  0.21090733  0.15191978  0.32420975  1.0
  Ni  Ni748  1  0.21090733  0.48525311  0.32420975  1.0
  Ni  Ni749  1  0.21090733  0.81858644  0.32420975  1.0
  Ni  Ni750  1  0.54424067  0.15191978  0.32420975  1.0
  Ni  Ni751  1  0.54424067  0.48525311  0.32420975  1.0
  Ni  Ni752  1  0.54424067  0.81858644  0.32420975  1.0
  Ni  Ni753  1  0.87757400  0.15191978  0.32420975  1.0
  Ni  Ni754  1  0.87757400  0.48525311  0.32420975  1.0
  Ni  Ni755  1  0.87757400  0.81858644  0.32420975  1.0
  Ni  Ni756  1  0.15191978  0.21090733  0.28881722  1.0
  Ni  Ni757  1  0.15191978  0.54424067  0.28881722  1.0
  Ni  Ni758  1  0.15191978  0.87757400  0.28881722  1.0
  Ni  Ni759  1  0.48525311  0.21090733  0.28881722  1.0
  Ni  Ni760  1  0.48525311  0.54424067  0.28881722  1.0
  Ni  Ni761  1  0.48525311  0.87757400  0.28881722  1.0
  Ni  Ni762  1  0.81858644  0.21090733  0.28881722  1.0
  Ni  Ni763  1  0.81858644  0.54424067  0.28881722  1.0
  Ni  Ni764  1  0.81858644  0.87757400  0.28881722  1.0
  Ni  Ni765  1  0.31858644  0.04424067  0.38881722  1.0
  Ni  Ni766  1  0.31858644  0.37757400  0.38881722  1.0
  Ni  Ni767  1  0.31858644  0.71090733  0.38881722  1.0
  Ni  Ni768  1  0.65191978  0.04424067  0.38881722  1.0
  Ni  Ni769  1  0.65191978  0.37757400  0.38881722  1.0
  Ni  Ni770  1  0.65191978  0.71090733  0.38881722  1.0
  Ni  Ni771  1  0.98525311  0.04424067  0.38881722  1.0
  Ni  Ni772  1  0.98525311  0.37757400  0.38881722  1.0
  Ni  Ni773  1  0.98525311  0.71090733  0.38881722  1.0
  Ni  Ni774  1  0.04424067  0.31858644  0.35342469  1.0
  Ni  Ni775  1  0.04424067  0.65191978  0.35342469  1.0
  Ni  Ni776  1  0.04424067  0.98525311  0.35342469  1.0
  Ni  Ni777  1  0.37757400  0.31858644  0.35342469  1.0
  Ni  Ni778  1  0.37757400  0.65191978  0.35342469  1.0
  Ni  Ni779  1  0.37757400  0.98525311  0.35342469  1.0
  Ni  Ni780  1  0.71090733  0.31858644  0.35342469  1.0
  Ni  Ni781  1  0.71090733  0.65191978  0.35342469  1.0
  Ni  Ni782  1  0.71090733  0.98525311  0.35342469  1.0
  Ni  Ni783  1  0.21090733  0.15191978  0.25342469  1.0
  Ni  Ni784  1  0.21090733  0.48525311  0.25342469  1.0
  Ni  Ni785  1  0.21090733  0.81858644  0.25342469  1.0
  Ni  Ni786  1  0.54424067  0.15191978  0.25342469  1.0
  Ni  Ni787  1  0.54424067  0.48525311  0.25342469  1.0
  Ni  Ni788  1  0.54424067  0.81858644  0.25342469  1.0
  Ni  Ni789  1  0.87757400  0.15191978  0.25342469  1.0
  Ni  Ni790  1  0.87757400  0.48525311  0.25342469  1.0
  Ni  Ni791  1  0.87757400  0.81858644  0.25342469  1.0
  Ni  Ni792  1  0.11540111  0.22308022  0.39612095  1.0
  Ni  Ni793  1  0.11540111  0.55641355  0.39612095  1.0
  Ni  Ni794  1  0.11540111  0.88974689  0.39612095  1.0
  Ni  Ni795  1  0.44873445  0.22308022  0.39612095  1.0
  Ni  Ni796  1  0.44873445  0.55641355  0.39612095  1.0
  Ni  Ni797  1  0.44873445  0.88974689  0.39612095  1.0
  Ni  Ni798  1  0.78206778  0.22308022  0.39612095  1.0
  Ni  Ni799  1  0.78206778  0.55641355  0.39612095  1.0
  Ni  Ni800  1  0.78206778  0.88974689  0.39612095  1.0
  Ni  Ni801  1  0.28206778  0.05641355  0.29612095  1.0
  Ni  Ni802  1  0.28206778  0.38974689  0.29612095  1.0
  Ni  Ni803  1  0.28206778  0.72308022  0.29612095  1.0
  Ni  Ni804  1  0.61540111  0.05641355  0.29612095  1.0
  Ni  Ni805  1  0.61540111  0.38974689  0.29612095  1.0
  Ni  Ni806  1  0.61540111  0.72308022  0.29612095  1.0
  Ni  Ni807  1  0.94873445  0.05641355  0.29612095  1.0
  Ni  Ni808  1  0.94873444  0.38974689  0.29612095  1.0
  Ni  Ni809  1  0.94873444  0.72308022  0.29612095  1.0
  Ni  Ni810  1  0.33075934  0.22308022  0.39612095  1.0
  Ni  Ni811  1  0.33075934  0.55641355  0.39612095  1.0
  Ni  Ni812  1  0.33075934  0.88974689  0.39612095  1.0
  Ni  Ni813  1  0.66409267  0.22308022  0.39612095  1.0
  Ni  Ni814  1  0.66409267  0.55641355  0.39612095  1.0
  Ni  Ni815  1  0.66409267  0.88974689  0.39612095  1.0
  Ni  Ni816  1  0.99742600  0.22308022  0.39612095  1.0
  Ni  Ni817  1  0.99742600  0.55641355  0.39612095  1.0
  Ni  Ni818  1  0.99742600  0.88974689  0.39612095  1.0
  Ni  Ni819  1  0.16409267  0.05641355  0.29612095  1.0
  Ni  Ni820  1  0.16409267  0.38974689  0.29612095  1.0
  Ni  Ni821  1  0.16409267  0.72308022  0.29612095  1.0
  Ni  Ni822  1  0.49742600  0.05641355  0.29612095  1.0
  Ni  Ni823  1  0.49742600  0.38974689  0.29612095  1.0
  Ni  Ni824  1  0.49742600  0.72308022  0.29612095  1.0
  Ni  Ni825  1  0.83075933  0.05641355  0.29612095  1.0
  Ni  Ni826  1  0.83075934  0.38974689  0.29612095  1.0
  Ni  Ni827  1  0.83075934  0.72308022  0.29612095  1.0
  Ni  Ni828  1  0.22308022  0.33075933  0.33151348  1.0
  Ni  Ni829  1  0.22308022  0.66409267  0.33151348  1.0
  Ni  Ni830  1  0.22308022  0.99742600  0.33151348  1.0
  Ni  Ni831  1  0.55641356  0.33075933  0.33151348  1.0
  Ni  Ni832  1  0.55641356  0.66409267  0.33151348  1.0
  Ni  Ni833  1  0.55641356  0.99742600  0.33151348  1.0
  Ni  Ni834  1  0.88974689  0.33075933  0.33151348  1.0
  Ni  Ni835  1  0.88974689  0.66409267  0.33151348  1.0
  Ni  Ni836  1  0.88974689  0.99742600  0.33151348  1.0
  Ni  Ni837  1  0.05641356  0.16409267  0.23151348  1.0
  Ni  Ni838  1  0.05641356  0.49742600  0.23151348  1.0
  Ni  Ni839  1  0.05641356  0.83075933  0.23151348  1.0
  Ni  Ni840  1  0.38974689  0.16409267  0.23151348  1.0
  Ni  Ni841  1  0.38974689  0.49742600  0.23151348  1.0
  Ni  Ni842  1  0.38974689  0.83075933  0.23151348  1.0
  Ni  Ni843  1  0.72308022  0.16409267  0.23151348  1.0
  Ni  Ni844  1  0.72308022  0.49742600  0.23151348  1.0
  Ni  Ni845  1  0.72308022  0.83075933  0.23151348  1.0
  Ni  Ni846  1  0.33075933  0.22308022  0.26690602  1.0
  Ni  Ni847  1  0.33075934  0.55641355  0.26690602  1.0
  Ni  Ni848  1  0.33075933  0.88974689  0.26690602  1.0
  Ni  Ni849  1  0.66409267  0.22308022  0.26690602  1.0
  Ni  Ni850  1  0.66409267  0.55641355  0.26690602  1.0
  Ni  Ni851  1  0.66409267  0.88974689  0.26690602  1.0
  Ni  Ni852  1  0.99742600  0.22308022  0.26690602  1.0
  Ni  Ni853  1  0.99742600  0.55641355  0.26690602  1.0
  Ni  Ni854  1  0.99742600  0.88974689  0.26690602  1.0
  Ni  Ni855  1  0.16409267  0.05641355  0.36690602  1.0
  Ni  Ni856  1  0.16409267  0.38974689  0.36690602  1.0
  Ni  Ni857  1  0.16409267  0.72308022  0.36690602  1.0
  Ni  Ni858  1  0.49742600  0.05641355  0.36690602  1.0
  Ni  Ni859  1  0.49742600  0.38974689  0.36690602  1.0
  Ni  Ni860  1  0.49742600  0.72308022  0.36690602  1.0
  Ni  Ni861  1  0.83075933  0.05641355  0.36690602  1.0
  Ni  Ni862  1  0.83075933  0.38974689  0.36690602  1.0
  Ni  Ni863  1  0.83075934  0.72308022  0.36690602  1.0
