# generated using pymatgen
data_Ti2Ni
_symmetry_space_group_name_H-M   'P 1'
_cell_length_a   41.42690711
_cell_length_b   41.42690711
_cell_length_c   55.80828393
_cell_angle_alpha   30.00000000
_cell_angle_beta   90.00000000
_cell_angle_gamma   99.59406823
_symmetry_Int_Tables_number   1
_chemical_formula_structural   Ti2Ni
_chemical_formula_sum   'Ti864 Ni432'
_cell_volume   45149.96651437
_cell_formula_units_Z   432
loop_
 _symmetry_equiv_pos_site_id
 _symmetry_equiv_pos_as_xyz
  1  'x, y, z'
loop_
 _atom_site_type_symbol
 _atom_site_label
 _atom_site_symmetry_multiplicity
 _atom_site_fract_x
 _atom_site_fract_y
 _atom_site_fract_z
 _atom_site_occupancy
  Ti  Ti0  1  0.18750000  0.29166667  0.12670218  1.0
  Ti  Ti1  1  0.18750000  0.62500000  0.12670218  1.0
  Ti  Ti2  1  0.18750000  0.95833333  0.12670218  1.0
  Ti  Ti3  1  0.52083333  0.29166667  0.12670218  1.0
  Ti  Ti4  1  0.52083333  0.62500000  0.12670218  1.0
  Ti  Ti5  1  0.52083333  0.95833333  0.12670218  1.0
  Ti  Ti6  1  0.85416667  0.29166667  0.12670218  1.0
  Ti  Ti7  1  0.85416667  0.62500000  0.12670218  1.0
  Ti  Ti8  1  0.85416667  0.95833333  0.12670218  1.0
  Ti  Ti9  1  0.02083333  0.29166667  0.05527361  1.0
  Ti  Ti10  1  0.02083333  0.62500000  0.05527361  1.0
  Ti  Ti11  1  0.02083333  0.95833333  0.05527361  1.0
  Ti  Ti12  1  0.35416667  0.29166667  0.05527361  1.0
  Ti  Ti13  1  0.35416667  0.62500000  0.05527361  1.0
  Ti  Ti14  1  0.35416667  0.95833333  0.05527361  1.0
  Ti  Ti15  1  0.68750000  0.29166667  0.05527361  1.0
  Ti  Ti16  1  0.68750000  0.62500000  0.05527361  1.0
  Ti  Ti17  1  0.68750000  0.95833333  0.05527361  1.0
  Ti  Ti18  1  0.27083333  0.29166667  0.01955932  1.0
  Ti  Ti19  1  0.27083333  0.62500000  0.01955932  1.0
  Ti  Ti20  1  0.27083333  0.95833333  0.01955932  1.0
  Ti  Ti21  1  0.60416667  0.29166667  0.01955932  1.0
  Ti  Ti22  1  0.60416667  0.62500000  0.01955932  1.0
  Ti  Ti23  1  0.60416667  0.95833333  0.01955932  1.0
  Ti  Ti24  1  0.93750000  0.29166667  0.01955932  1.0
  Ti  Ti25  1  0.93750000  0.62500000  0.01955932  1.0
  Ti  Ti26  1  0.93750000  0.95833333  0.01955932  1.0
  Ti  Ti27  1  0.10416667  0.29166667  0.09098789  1.0
  Ti  Ti28  1  0.10416667  0.62500000  0.09098789  1.0
  Ti  Ti29  1  0.10416667  0.95833333  0.09098789  1.0
  Ti  Ti30  1  0.43750000  0.29166667  0.09098789  1.0
  Ti  Ti31  1  0.43750000  0.62500000  0.09098789  1.0
  Ti  Ti32  1  0.43750000  0.95833333  0.09098789  1.0
  Ti  Ti33  1  0.77083333  0.29166667  0.09098789  1.0
  Ti  Ti34  1  0.77083333  0.62500000  0.09098789  1.0
  Ti  Ti35  1  0.77083333  0.95833333  0.09098789  1.0
  Ti  Ti36  1  0.18750000  0.12500000  0.12670218  1.0
  Ti  Ti37  1  0.18750000  0.45833333  0.12670218  1.0
  Ti  Ti38  1  0.18750000  0.79166667  0.12670218  1.0
  Ti  Ti39  1  0.52083333  0.12500000  0.12670218  1.0
  Ti  Ti40  1  0.52083333  0.45833333  0.12670218  1.0
  Ti  Ti41  1  0.52083333  0.79166667  0.12670218  1.0
  Ti  Ti42  1  0.85416667  0.12500000  0.12670218  1.0
  Ti  Ti43  1  0.85416667  0.45833333  0.12670218  1.0
  Ti  Ti44  1  0.85416667  0.79166667  0.12670218  1.0
  Ti  Ti45  1  0.02083333  0.12500000  0.05527361  1.0
  Ti  Ti46  1  0.02083333  0.45833333  0.05527361  1.0
  Ti  Ti47  1  0.02083333  0.79166667  0.05527361  1.0
  Ti  Ti48  1  0.35416667  0.12500000  0.05527361  1.0
  Ti  Ti49  1  0.35416667  0.45833333  0.05527361  1.0
  Ti  Ti50  1  0.35416667  0.79166667  0.05527361  1.0
  Ti  Ti51  1  0.68750000  0.12500000  0.05527361  1.0
  Ti  Ti52  1  0.68750000  0.45833333  0.05527361  1.0
  Ti  Ti53  1  0.68750000  0.79166667  0.05527361  1.0
  Ti  Ti54  1  0.18750000  0.29166667  0.05527361  1.0
  Ti  Ti55  1  0.18750000  0.62500000  0.05527361  1.0
  Ti  Ti56  1  0.18750000  0.95833333  0.05527361  1.0
  Ti  Ti57  1  0.52083333  0.29166667  0.05527361  1.0
  Ti  Ti58  1  0.52083333  0.62500000  0.05527361  1.0
  Ti  Ti59  1  0.52083333  0.95833333  0.05527361  1.0
  Ti  Ti60  1  0.85416667  0.29166667  0.05527361  1.0
  Ti  Ti61  1  0.85416667  0.62500000  0.05527361  1.0
  Ti  Ti62  1  0.85416667  0.95833333  0.05527361  1.0
  Ti  Ti63  1  0.02083333  0.29166667  0.12670218  1.0
  Ti  Ti64  1  0.02083333  0.62500000  0.12670218  1.0
  Ti  Ti65  1  0.02083333  0.95833333  0.12670218  1.0
  Ti  Ti66  1  0.35416667  0.29166667  0.12670218  1.0
  Ti  Ti67  1  0.35416667  0.62500000  0.12670218  1.0
  Ti  Ti68  1  0.35416667  0.95833333  0.12670218  1.0
  Ti  Ti69  1  0.68750000  0.29166667  0.12670218  1.0
  Ti  Ti70  1  0.68750000  0.62500000  0.12670218  1.0
  Ti  Ti71  1  0.68750000  0.95833333  0.12670218  1.0
  Ti  Ti72  1  0.21877017  0.10420700  0.09540896  1.0
  Ti  Ti73  1  0.21877017  0.43754033  0.09540896  1.0
  Ti  Ti74  1  0.21877017  0.77087367  0.09540896  1.0
  Ti  Ti75  1  0.55210350  0.10420700  0.09540896  1.0
  Ti  Ti76  1  0.55210350  0.43754033  0.09540896  1.0
  Ti  Ti77  1  0.55210350  0.77087367  0.09540896  1.0
  Ti  Ti78  1  0.88543683  0.10420700  0.09540896  1.0
  Ti  Ti79  1  0.88543683  0.43754033  0.09540896  1.0
  Ti  Ti80  1  0.88543683  0.77087367  0.09540896  1.0
  Ti  Ti81  1  0.05210350  0.10420700  0.02398039  1.0
  Ti  Ti82  1  0.05210350  0.43754033  0.02398039  1.0
  Ti  Ti83  1  0.05210350  0.77087367  0.02398039  1.0
  Ti  Ti84  1  0.38543683  0.10420700  0.02398039  1.0
  Ti  Ti85  1  0.38543683  0.43754033  0.02398039  1.0
  Ti  Ti86  1  0.38543683  0.77087367  0.02398039  1.0
  Ti  Ti87  1  0.71877017  0.10420700  0.02398039  1.0
  Ti  Ti88  1  0.71877017  0.43754033  0.02398039  1.0
  Ti  Ti89  1  0.71877017  0.77087367  0.02398039  1.0
  Ti  Ti90  1  0.28122983  0.22912633  0.10442396  1.0
  Ti  Ti91  1  0.28122983  0.56245967  0.10442396  1.0
  Ti  Ti92  1  0.28122983  0.89579300  0.10442396  1.0
  Ti  Ti93  1  0.61456317  0.22912633  0.10442396  1.0
  Ti  Ti94  1  0.61456317  0.56245967  0.10442396  1.0
  Ti  Ti95  1  0.61456317  0.89579300  0.10442396  1.0
  Ti  Ti96  1  0.94789650  0.22912633  0.10442396  1.0
  Ti  Ti97  1  0.94789650  0.56245967  0.10442396  1.0
  Ti  Ti98  1  0.94789650  0.89579300  0.10442396  1.0
  Ti  Ti99  1  0.11456317  0.22912633  0.03299539  1.0
  Ti  Ti100  1  0.11456317  0.56245967  0.03299539  1.0
  Ti  Ti101  1  0.11456317  0.89579300  0.03299539  1.0
  Ti  Ti102  1  0.44789650  0.22912633  0.03299539  1.0
  Ti  Ti103  1  0.44789650  0.56245967  0.03299539  1.0
  Ti  Ti104  1  0.44789650  0.89579300  0.03299539  1.0
  Ti  Ti105  1  0.78122983  0.22912633  0.03299539  1.0
  Ti  Ti106  1  0.78122983  0.56245967  0.03299539  1.0
  Ti  Ti107  1  0.78122983  0.89579300  0.03299539  1.0
  Ti  Ti108  1  0.28122983  0.22912633  0.01510368  1.0
  Ti  Ti109  1  0.28122983  0.56245967  0.01510368  1.0
  Ti  Ti110  1  0.28122983  0.89579300  0.01510368  1.0
  Ti  Ti111  1  0.61456317  0.22912633  0.01510368  1.0
  Ti  Ti112  1  0.61456317  0.56245967  0.01510368  1.0
  Ti  Ti113  1  0.61456317  0.89579300  0.01510368  1.0
  Ti  Ti114  1  0.94789650  0.22912633  0.01510368  1.0
  Ti  Ti115  1  0.94789650  0.56245967  0.01510368  1.0
  Ti  Ti116  1  0.94789650  0.89579300  0.01510368  1.0
  Ti  Ti117  1  0.11456317  0.22912633  0.08653225  1.0
  Ti  Ti118  1  0.11456317  0.56245967  0.08653225  1.0
  Ti  Ti119  1  0.11456317  0.89579300  0.08653225  1.0
  Ti  Ti120  1  0.44789650  0.22912633  0.08653225  1.0
  Ti  Ti121  1  0.44789650  0.56245967  0.08653225  1.0
  Ti  Ti122  1  0.44789650  0.89579300  0.08653225  1.0
  Ti  Ti123  1  0.78122983  0.22912633  0.08653225  1.0
  Ti  Ti124  1  0.78122983  0.56245967  0.08653225  1.0
  Ti  Ti125  1  0.78122983  0.89579300  0.08653225  1.0
  Ti  Ti126  1  0.21877017  0.10420700  0.04187211  1.0
  Ti  Ti127  1  0.21877017  0.43754033  0.04187211  1.0
  Ti  Ti128  1  0.21877017  0.77087367  0.04187211  1.0
  Ti  Ti129  1  0.55210350  0.10420700  0.04187211  1.0
  Ti  Ti130  1  0.55210350  0.43754033  0.04187211  1.0
  Ti  Ti131  1  0.55210350  0.77087367  0.04187211  1.0
  Ti  Ti132  1  0.88543683  0.10420700  0.04187211  1.0
  Ti  Ti133  1  0.88543683  0.43754033  0.04187211  1.0
  Ti  Ti134  1  0.88543683  0.77087367  0.04187211  1.0
  Ti  Ti135  1  0.05210350  0.10420700  0.11330068  1.0
  Ti  Ti136  1  0.05210350  0.43754033  0.11330068  1.0
  Ti  Ti137  1  0.05210350  0.77087367  0.11330068  1.0
  Ti  Ti138  1  0.38543683  0.10420700  0.11330068  1.0
  Ti  Ti139  1  0.38543683  0.43754033  0.11330068  1.0
  Ti  Ti140  1  0.38543683  0.77087367  0.11330068  1.0
  Ti  Ti141  1  0.71877017  0.10420700  0.11330068  1.0
  Ti  Ti142  1  0.71877017  0.43754033  0.11330068  1.0
  Ti  Ti143  1  0.71877017  0.77087367  0.11330068  1.0
  Ti  Ti144  1  0.21877017  0.22912633  0.13119239  1.0
  Ti  Ti145  1  0.21877017  0.56245967  0.13119239  1.0
  Ti  Ti146  1  0.21877017  0.89579300  0.13119239  1.0
  Ti  Ti147  1  0.55210350  0.22912633  0.13119239  1.0
  Ti  Ti148  1  0.55210350  0.56245967  0.13119239  1.0
  Ti  Ti149  1  0.55210350  0.89579300  0.13119239  1.0
  Ti  Ti150  1  0.88543683  0.22912633  0.13119239  1.0
  Ti  Ti151  1  0.88543683  0.56245967  0.13119239  1.0
  Ti  Ti152  1  0.88543683  0.89579300  0.13119239  1.0
  Ti  Ti153  1  0.05210350  0.22912633  0.05976382  1.0
  Ti  Ti154  1  0.05210350  0.56245967  0.05976382  1.0
  Ti  Ti155  1  0.05210350  0.89579300  0.05976382  1.0
  Ti  Ti156  1  0.38543683  0.22912633  0.05976382  1.0
  Ti  Ti157  1  0.38543683  0.56245967  0.05976382  1.0
  Ti  Ti158  1  0.38543683  0.89579300  0.05976382  1.0
  Ti  Ti159  1  0.71877017  0.22912633  0.05976382  1.0
  Ti  Ti160  1  0.71877017  0.56245967  0.05976382  1.0
  Ti  Ti161  1  0.71877017  0.89579300  0.05976382  1.0
  Ti  Ti162  1  0.28122983  0.10420700  0.06864054  1.0
  Ti  Ti163  1  0.28122983  0.43754033  0.06864054  1.0
  Ti  Ti164  1  0.28122983  0.77087367  0.06864054  1.0
  Ti  Ti165  1  0.61456317  0.10420700  0.06864054  1.0
  Ti  Ti166  1  0.61456317  0.43754033  0.06864054  1.0
  Ti  Ti167  1  0.61456317  0.77087367  0.06864054  1.0
  Ti  Ti168  1  0.94789650  0.10420700  0.06864054  1.0
  Ti  Ti169  1  0.94789650  0.43754033  0.06864054  1.0
  Ti  Ti170  1  0.94789650  0.77087367  0.06864054  1.0
  Ti  Ti171  1  0.11456317  0.10420700  0.14006911  1.0
  Ti  Ti172  1  0.11456317  0.43754033  0.14006911  1.0
  Ti  Ti173  1  0.11456317  0.77087367  0.14006911  1.0
  Ti  Ti174  1  0.44789650  0.10420700  0.14006911  1.0
  Ti  Ti175  1  0.44789650  0.43754033  0.14006911  1.0
  Ti  Ti176  1  0.44789650  0.77087367  0.14006911  1.0
  Ti  Ti177  1  0.78122983  0.10420700  0.14006911  1.0
  Ti  Ti178  1  0.78122983  0.43754033  0.14006911  1.0
  Ti  Ti179  1  0.78122983  0.77087367  0.14006911  1.0
  Ti  Ti180  1  0.32289650  0.14579300  0.08656682  1.0
  Ti  Ti181  1  0.32289650  0.47912633  0.08656682  1.0
  Ti  Ti182  1  0.32289650  0.81245967  0.08656682  1.0
  Ti  Ti183  1  0.65622983  0.14579300  0.08656682  1.0
  Ti  Ti184  1  0.65622983  0.47912633  0.08656682  1.0
  Ti  Ti185  1  0.65622983  0.81245967  0.08656682  1.0
  Ti  Ti186  1  0.98956317  0.14579300  0.08656682  1.0
  Ti  Ti187  1  0.98956317  0.47912633  0.08656682  1.0
  Ti  Ti188  1  0.98956317  0.81245967  0.08656682  1.0
  Ti  Ti189  1  0.15622983  0.14579300  0.01513825  1.0
  Ti  Ti190  1  0.15622983  0.47912633  0.01513825  1.0
  Ti  Ti191  1  0.15622983  0.81245967  0.01513825  1.0
  Ti  Ti192  1  0.48956317  0.14579300  0.01513825  1.0
  Ti  Ti193  1  0.48956317  0.47912633  0.01513825  1.0
  Ti  Ti194  1  0.48956317  0.81245967  0.01513825  1.0
  Ti  Ti195  1  0.82289650  0.14579300  0.01513825  1.0
  Ti  Ti196  1  0.82289650  0.47912633  0.01513825  1.0
  Ti  Ti197  1  0.82289650  0.81245967  0.01513825  1.0
  Ti  Ti198  1  0.26043683  0.02087367  0.07755182  1.0
  Ti  Ti199  1  0.26043683  0.35420700  0.07755182  1.0
  Ti  Ti200  1  0.26043683  0.68754033  0.07755182  1.0
  Ti  Ti201  1  0.59377017  0.02087367  0.07755182  1.0
  Ti  Ti202  1  0.59377017  0.35420700  0.07755182  1.0
  Ti  Ti203  1  0.59377017  0.68754033  0.07755182  1.0
  Ti  Ti204  1  0.92710350  0.02087367  0.07755182  1.0
  Ti  Ti205  1  0.92710350  0.35420700  0.07755182  1.0
  Ti  Ti206  1  0.92710350  0.68754033  0.07755182  1.0
  Ti  Ti207  1  0.09377017  0.02087367  0.00612325  1.0
  Ti  Ti208  1  0.09377017  0.35420700  0.00612325  1.0
  Ti  Ti209  1  0.09377017  0.68754033  0.00612325  1.0
  Ti  Ti210  1  0.42710350  0.02087367  0.00612325  1.0
  Ti  Ti211  1  0.42710350  0.35420700  0.00612325  1.0
  Ti  Ti212  1  0.42710350  0.68754033  0.00612325  1.0
  Ti  Ti213  1  0.76043683  0.02087367  0.00612325  1.0
  Ti  Ti214  1  0.76043683  0.35420700  0.00612325  1.0
  Ti  Ti215  1  0.76043683  0.68754033  0.00612325  1.0
  Ti  Ti216  1  0.26043683  0.02087367  0.02401496  1.0
  Ti  Ti217  1  0.26043683  0.35420700  0.02401496  1.0
  Ti  Ti218  1  0.26043683  0.68754033  0.02401496  1.0
  Ti  Ti219  1  0.59377017  0.02087367  0.02401496  1.0
  Ti  Ti220  1  0.59377017  0.35420700  0.02401496  1.0
  Ti  Ti221  1  0.59377017  0.68754033  0.02401496  1.0
  Ti  Ti222  1  0.92710350  0.02087367  0.02401496  1.0
  Ti  Ti223  1  0.92710350  0.35420700  0.02401496  1.0
  Ti  Ti224  1  0.92710350  0.68754033  0.02401496  1.0
  Ti  Ti225  1  0.09377017  0.02087367  0.09544354  1.0
  Ti  Ti226  1  0.09377017  0.35420700  0.09544354  1.0
  Ti  Ti227  1  0.09377017  0.68754033  0.09544354  1.0
  Ti  Ti228  1  0.42710350  0.02087367  0.09544354  1.0
  Ti  Ti229  1  0.42710350  0.35420700  0.09544354  1.0
  Ti  Ti230  1  0.42710350  0.68754033  0.09544354  1.0
  Ti  Ti231  1  0.76043683  0.02087367  0.09544354  1.0
  Ti  Ti232  1  0.76043683  0.35420700  0.09544354  1.0
  Ti  Ti233  1  0.76043683  0.68754033  0.09544354  1.0
  Ti  Ti234  1  0.32289650  0.14579300  0.14010368  1.0
  Ti  Ti235  1  0.32289650  0.47912633  0.14010368  1.0
  Ti  Ti236  1  0.32289650  0.81245967  0.14010368  1.0
  Ti  Ti237  1  0.65622983  0.14579300  0.14010368  1.0
  Ti  Ti238  1  0.65622983  0.47912633  0.14010368  1.0
  Ti  Ti239  1  0.65622983  0.81245967  0.14010368  1.0
  Ti  Ti240  1  0.98956317  0.14579300  0.14010368  1.0
  Ti  Ti241  1  0.98956317  0.47912633  0.14010368  1.0
  Ti  Ti242  1  0.98956317  0.81245967  0.14010368  1.0
  Ti  Ti243  1  0.15622983  0.14579300  0.06867511  1.0
  Ti  Ti244  1  0.15622983  0.47912633  0.06867511  1.0
  Ti  Ti245  1  0.15622983  0.81245967  0.06867511  1.0
  Ti  Ti246  1  0.48956317  0.14579300  0.06867511  1.0
  Ti  Ti247  1  0.48956317  0.47912633  0.06867511  1.0
  Ti  Ti248  1  0.48956317  0.81245967  0.06867511  1.0
  Ti  Ti249  1  0.82289650  0.14579300  0.06867511  1.0
  Ti  Ti250  1  0.82289650  0.47912633  0.06867511  1.0
  Ti  Ti251  1  0.82289650  0.81245967  0.06867511  1.0
  Ti  Ti252  1  0.32289650  0.02087367  0.05078339  1.0
  Ti  Ti253  1  0.32289650  0.35420700  0.05078339  1.0
  Ti  Ti254  1  0.32289650  0.68754033  0.05078339  1.0
  Ti  Ti255  1  0.65622983  0.02087367  0.05078339  1.0
  Ti  Ti256  1  0.65622983  0.35420700  0.05078339  1.0
  Ti  Ti257  1  0.65622983  0.68754033  0.05078339  1.0
  Ti  Ti258  1  0.98956317  0.02087367  0.05078339  1.0
  Ti  Ti259  1  0.98956317  0.35420700  0.05078339  1.0
  Ti  Ti260  1  0.98956317  0.68754033  0.05078339  1.0
  Ti  Ti261  1  0.15622983  0.02087367  0.12221196  1.0
  Ti  Ti262  1  0.15622983  0.35420700  0.12221196  1.0
  Ti  Ti263  1  0.15622983  0.68754033  0.12221196  1.0
  Ti  Ti264  1  0.48956317  0.02087367  0.12221196  1.0
  Ti  Ti265  1  0.48956317  0.35420700  0.12221196  1.0
  Ti  Ti266  1  0.48956317  0.68754033  0.12221196  1.0
  Ti  Ti267  1  0.82289650  0.02087367  0.12221196  1.0
  Ti  Ti268  1  0.82289650  0.35420700  0.12221196  1.0
  Ti  Ti269  1  0.82289650  0.68754033  0.12221196  1.0
  Ti  Ti270  1  0.26043683  0.14579300  0.11333525  1.0
  Ti  Ti271  1  0.26043683  0.47912633  0.11333525  1.0
  Ti  Ti272  1  0.26043683  0.81245967  0.11333525  1.0
  Ti  Ti273  1  0.59377017  0.14579300  0.11333525  1.0
  Ti  Ti274  1  0.59377017  0.47912633  0.11333525  1.0
  Ti  Ti275  1  0.59377017  0.81245967  0.11333525  1.0
  Ti  Ti276  1  0.92710350  0.14579300  0.11333525  1.0
  Ti  Ti277  1  0.92710350  0.47912633  0.11333525  1.0
  Ti  Ti278  1  0.92710350  0.81245967  0.11333525  1.0
  Ti  Ti279  1  0.09377017  0.14579300  0.04190668  1.0
  Ti  Ti280  1  0.09377017  0.47912633  0.04190668  1.0
  Ti  Ti281  1  0.09377017  0.81245967  0.04190668  1.0
  Ti  Ti282  1  0.42710350  0.14579300  0.04190668  1.0
  Ti  Ti283  1  0.42710350  0.47912633  0.04190668  1.0
  Ti  Ti284  1  0.42710350  0.81245967  0.04190668  1.0
  Ti  Ti285  1  0.76043683  0.14579300  0.04190668  1.0
  Ti  Ti286  1  0.76043683  0.47912633  0.04190668  1.0
  Ti  Ti287  1  0.76043683  0.81245967  0.04190668  1.0
  Ni  Ni288  1  0.31858645  0.02949378  0.09139008  1.0
  Ni  Ni289  1  0.31858644  0.36282711  0.09139008  1.0
  Ni  Ni290  1  0.31858644  0.69616044  0.09139008  1.0
  Ni  Ni291  1  0.65191978  0.02949378  0.09139008  1.0
  Ni  Ni292  1  0.65191978  0.36282711  0.09139008  1.0
  Ni  Ni293  1  0.65191978  0.69616044  0.09139008  1.0
  Ni  Ni294  1  0.98525311  0.02949378  0.09139008  1.0
  Ni  Ni295  1  0.98525311  0.36282711  0.09139008  1.0
  Ni  Ni296  1  0.98525311  0.69616044  0.09139008  1.0
  Ni  Ni297  1  0.15191978  0.02949378  0.01996151  1.0
  Ni  Ni298  1  0.15191978  0.36282711  0.01996151  1.0
  Ni  Ni299  1  0.15191978  0.69616044  0.01996151  1.0
  Ni  Ni300  1  0.48525311  0.02949378  0.01996151  1.0
  Ni  Ni301  1  0.48525311  0.36282711  0.01996151  1.0
  Ni  Ni302  1  0.48525311  0.69616044  0.01996151  1.0
  Ni  Ni303  1  0.81858645  0.02949378  0.01996151  1.0
  Ni  Ni304  1  0.81858644  0.36282711  0.01996151  1.0
  Ni  Ni305  1  0.81858644  0.69616044  0.01996151  1.0
  Ni  Ni306  1  0.21090733  0.02949378  0.04524189  1.0
  Ni  Ni307  1  0.21090733  0.36282711  0.04524189  1.0
  Ni  Ni308  1  0.21090733  0.69616044  0.04524189  1.0
  Ni  Ni309  1  0.54424067  0.02949378  0.04524189  1.0
  Ni  Ni310  1  0.54424067  0.36282711  0.04524189  1.0
  Ni  Ni311  1  0.54424067  0.69616044  0.04524189  1.0
  Ni  Ni312  1  0.87757400  0.02949378  0.04524189  1.0
  Ni  Ni313  1  0.87757400  0.36282711  0.04524189  1.0
  Ni  Ni314  1  0.87757400  0.69616044  0.04524189  1.0
  Ni  Ni315  1  0.04424067  0.02949378  0.11667046  1.0
  Ni  Ni316  1  0.04424067  0.36282711  0.11667046  1.0
  Ni  Ni317  1  0.04424067  0.69616044  0.11667046  1.0
  Ni  Ni318  1  0.37757400  0.02949378  0.11667046  1.0
  Ni  Ni319  1  0.37757400  0.36282711  0.11667046  1.0
  Ni  Ni320  1  0.37757400  0.69616044  0.11667046  1.0
  Ni  Ni321  1  0.71090733  0.02949378  0.11667046  1.0
  Ni  Ni322  1  0.71090733  0.36282711  0.11667046  1.0
  Ni  Ni323  1  0.71090733  0.69616044  0.11667046  1.0
  Ni  Ni324  1  0.31858644  0.24485200  0.04965446  1.0
  Ni  Ni325  1  0.31858644  0.57818533  0.04965446  1.0
  Ni  Ni326  1  0.31858644  0.91151867  0.04965446  1.0
  Ni  Ni327  1  0.65191978  0.24485200  0.04965446  1.0
  Ni  Ni328  1  0.65191978  0.57818533  0.04965446  1.0
  Ni  Ni329  1  0.65191978  0.91151867  0.04965446  1.0
  Ni  Ni330  1  0.98525311  0.24485200  0.04965446  1.0
  Ni  Ni331  1  0.98525311  0.57818533  0.04965446  1.0
  Ni  Ni332  1  0.98525311  0.91151867  0.04965446  1.0
  Ni  Ni333  1  0.15191978  0.24485200  0.12108304  1.0
  Ni  Ni334  1  0.15191978  0.57818533  0.12108304  1.0
  Ni  Ni335  1  0.15191978  0.91151867  0.12108303  1.0
  Ni  Ni336  1  0.48525311  0.24485200  0.12108304  1.0
  Ni  Ni337  1  0.48525311  0.57818533  0.12108304  1.0
  Ni  Ni338  1  0.48525311  0.91151867  0.12108303  1.0
  Ni  Ni339  1  0.81858644  0.24485200  0.12108303  1.0
  Ni  Ni340  1  0.81858645  0.57818533  0.12108303  1.0
  Ni  Ni341  1  0.81858644  0.91151867  0.12108304  1.0
  Ni  Ni342  1  0.31858645  0.02949378  0.14195084  1.0
  Ni  Ni343  1  0.31858645  0.36282711  0.14195085  1.0
  Ni  Ni344  1  0.31858645  0.69616044  0.14195084  1.0
  Ni  Ni345  1  0.65191978  0.02949378  0.14195084  1.0
  Ni  Ni346  1  0.65191978  0.36282711  0.14195084  1.0
  Ni  Ni347  1  0.65191978  0.69616044  0.14195085  1.0
  Ni  Ni348  1  0.98525311  0.02949378  0.14195084  1.0
  Ni  Ni349  1  0.98525311  0.36282711  0.14195084  1.0
  Ni  Ni350  1  0.98525311  0.69616044  0.14195085  1.0
  Ni  Ni351  1  0.15191978  0.02949378  0.07052227  1.0
  Ni  Ni352  1  0.15191978  0.36282711  0.07052227  1.0
  Ni  Ni353  1  0.15191978  0.69616044  0.07052227  1.0
  Ni  Ni354  1  0.48525311  0.02949378  0.07052227  1.0
  Ni  Ni355  1  0.48525311  0.36282711  0.07052227  1.0
  Ni  Ni356  1  0.48525311  0.69616044  0.07052227  1.0
  Ni  Ni357  1  0.81858645  0.02949378  0.07052227  1.0
  Ni  Ni358  1  0.81858644  0.36282711  0.07052227  1.0
  Ni  Ni359  1  0.81858644  0.69616044  0.07052227  1.0
  Ni  Ni360  1  0.22308022  0.22050622  0.09058570  1.0
  Ni  Ni361  1  0.22308022  0.55383956  0.09058570  1.0
  Ni  Ni362  1  0.22308022  0.88717289  0.09058570  1.0
  Ni  Ni363  1  0.55641356  0.22050622  0.09058570  1.0
  Ni  Ni364  1  0.55641356  0.55383956  0.09058570  1.0
  Ni  Ni365  1  0.55641356  0.88717289  0.09058570  1.0
  Ni  Ni366  1  0.88974689  0.22050622  0.09058570  1.0
  Ni  Ni367  1  0.88974689  0.55383956  0.09058570  1.0
  Ni  Ni368  1  0.88974689  0.88717289  0.09058570  1.0
  Ni  Ni369  1  0.05641356  0.22050622  0.01915713  1.0
  Ni  Ni370  1  0.05641355  0.55383956  0.01915713  1.0
  Ni  Ni371  1  0.05641355  0.88717289  0.01915713  1.0
  Ni  Ni372  1  0.38974689  0.22050622  0.01915713  1.0
  Ni  Ni373  1  0.38974689  0.55383956  0.01915713  1.0
  Ni  Ni374  1  0.38974689  0.88717289  0.01915713  1.0
  Ni  Ni375  1  0.72308022  0.22050622  0.01915713  1.0
  Ni  Ni376  1  0.72308022  0.55383956  0.01915713  1.0
  Ni  Ni377  1  0.72308022  0.88717289  0.01915713  1.0
  Ni  Ni378  1  0.33075933  0.22050622  0.13673389  1.0
  Ni  Ni379  1  0.33075933  0.55383956  0.13673389  1.0
  Ni  Ni380  1  0.33075933  0.88717289  0.13673389  1.0
  Ni  Ni381  1  0.66409267  0.22050622  0.13673389  1.0
  Ni  Ni382  1  0.66409267  0.55383956  0.13673389  1.0
  Ni  Ni383  1  0.66409267  0.88717289  0.13673389  1.0
  Ni  Ni384  1  0.99742600  0.22050622  0.13673389  1.0
  Ni  Ni385  1  0.99742600  0.55383956  0.13673389  1.0
  Ni  Ni386  1  0.99742600  0.88717289  0.13673389  1.0
  Ni  Ni387  1  0.16409267  0.22050622  0.06530532  1.0
  Ni  Ni388  1  0.16409267  0.55383956  0.06530532  1.0
  Ni  Ni389  1  0.16409267  0.88717289  0.06530532  1.0
  Ni  Ni390  1  0.49742600  0.22050622  0.06530532  1.0
  Ni  Ni391  1  0.49742600  0.55383956  0.06530532  1.0
  Ni  Ni392  1  0.49742600  0.88717289  0.06530532  1.0
  Ni  Ni393  1  0.83075933  0.22050622  0.06530532  1.0
  Ni  Ni394  1  0.83075933  0.55383956  0.06530532  1.0
  Ni  Ni395  1  0.83075933  0.88717289  0.06530532  1.0
  Ni  Ni396  1  0.22308022  0.00514800  0.13232132  1.0
  Ni  Ni397  1  0.22308022  0.33848133  0.13232132  1.0
  Ni  Ni398  1  0.22308022  0.67181467  0.13232132  1.0
  Ni  Ni399  1  0.55641356  0.00514800  0.13232132  1.0
  Ni  Ni400  1  0.55641356  0.33848133  0.13232132  1.0
  Ni  Ni401  1  0.55641356  0.67181467  0.13232132  1.0
  Ni  Ni402  1  0.88974689  0.00514800  0.13232132  1.0
  Ni  Ni403  1  0.88974689  0.33848133  0.13232132  1.0
  Ni  Ni404  1  0.88974689  0.67181467  0.13232132  1.0
  Ni  Ni405  1  0.05641355  0.00514800  0.06089275  1.0
  Ni  Ni406  1  0.05641355  0.33848133  0.06089275  1.0
  Ni  Ni407  1  0.05641355  0.67181467  0.06089275  1.0
  Ni  Ni408  1  0.38974689  0.00514800  0.06089275  1.0
  Ni  Ni409  1  0.38974689  0.33848133  0.06089275  1.0
  Ni  Ni410  1  0.38974689  0.67181467  0.06089275  1.0
  Ni  Ni411  1  0.72308022  0.00514800  0.06089275  1.0
  Ni  Ni412  1  0.72308022  0.33848133  0.06089275  1.0
  Ni  Ni413  1  0.72308022  0.67181467  0.06089275  1.0
  Ni  Ni414  1  0.22308022  0.22050622  0.04002494  1.0
  Ni  Ni415  1  0.22308022  0.55383956  0.04002494  1.0
  Ni  Ni416  1  0.22308022  0.88717289  0.04002494  1.0
  Ni  Ni417  1  0.55641356  0.22050622  0.04002494  1.0
  Ni  Ni418  1  0.55641356  0.55383956  0.04002494  1.0
  Ni  Ni419  1  0.55641356  0.88717289  0.04002494  1.0
  Ni  Ni420  1  0.88974689  0.22050622  0.04002494  1.0
  Ni  Ni421  1  0.88974689  0.55383956  0.04002494  1.0
  Ni  Ni422  1  0.88974689  0.88717289  0.04002494  1.0
  Ni  Ni423  1  0.05641356  0.22050622  0.11145351  1.0
  Ni  Ni424  1  0.05641355  0.55383956  0.11145351  1.0
  Ni  Ni425  1  0.05641356  0.88717289  0.11145351  1.0
  Ni  Ni426  1  0.38974689  0.22050622  0.11145351  1.0
  Ni  Ni427  1  0.38974689  0.55383956  0.11145351  1.0
  Ni  Ni428  1  0.38974689  0.88717289  0.11145351  1.0
  Ni  Ni429  1  0.72308022  0.22050622  0.11145351  1.0
  Ni  Ni430  1  0.72308022  0.55383956  0.11145351  1.0
  Ni  Ni431  1  0.72308022  0.88717289  0.11145351  1.0
  Ti  Ti432  1  0.18750000  0.29166667  0.26955932  1.0
  Ti  Ti433  1  0.18750000  0.62500000  0.26955932  1.0
  Ti  Ti434  1  0.18750000  0.95833333  0.26955932  1.0
  Ti  Ti435  1  0.52083333  0.29166667  0.26955932  1.0
  Ti  Ti436  1  0.52083333  0.62500000  0.26955932  1.0
  Ti  Ti437  1  0.52083333  0.95833333  0.26955932  1.0
  Ti  Ti438  1  0.85416667  0.29166667  0.26955932  1.0
  Ti  Ti439  1  0.85416667  0.62500000  0.26955932  1.0
  Ti  Ti440  1  0.85416667  0.95833333  0.26955932  1.0
  Ti  Ti441  1  0.02083333  0.29166667  0.19813075  1.0
  Ti  Ti442  1  0.02083333  0.62500000  0.19813075  1.0
  Ti  Ti443  1  0.02083333  0.95833333  0.19813075  1.0
  Ti  Ti444  1  0.35416667  0.29166667  0.19813075  1.0
  Ti  Ti445  1  0.35416667  0.62500000  0.19813075  1.0
  Ti  Ti446  1  0.35416667  0.95833333  0.19813075  1.0
  Ti  Ti447  1  0.68750000  0.29166667  0.19813075  1.0
  Ti  Ti448  1  0.68750000  0.62500000  0.19813075  1.0
  Ti  Ti449  1  0.68750000  0.95833333  0.19813075  1.0
  Ti  Ti450  1  0.27083333  0.29166667  0.16241646  1.0
  Ti  Ti451  1  0.27083333  0.62500000  0.16241646  1.0
  Ti  Ti452  1  0.27083333  0.95833333  0.16241646  1.0
  Ti  Ti453  1  0.60416667  0.29166667  0.16241646  1.0
  Ti  Ti454  1  0.60416667  0.62500000  0.16241646  1.0
  Ti  Ti455  1  0.60416667  0.95833333  0.16241646  1.0
  Ti  Ti456  1  0.93750000  0.29166667  0.16241646  1.0
  Ti  Ti457  1  0.93750000  0.62500000  0.16241646  1.0
  Ti  Ti458  1  0.93750000  0.95833333  0.16241646  1.0
  Ti  Ti459  1  0.10416667  0.29166667  0.23384504  1.0
  Ti  Ti460  1  0.10416667  0.62500000  0.23384504  1.0
  Ti  Ti461  1  0.10416667  0.95833333  0.23384504  1.0
  Ti  Ti462  1  0.43750000  0.29166667  0.23384504  1.0
  Ti  Ti463  1  0.43750000  0.62500000  0.23384504  1.0
  Ti  Ti464  1  0.43750000  0.95833333  0.23384504  1.0
  Ti  Ti465  1  0.77083333  0.29166667  0.23384504  1.0
  Ti  Ti466  1  0.77083333  0.62500000  0.23384504  1.0
  Ti  Ti467  1  0.77083333  0.95833333  0.23384504  1.0
  Ti  Ti468  1  0.18750000  0.12500000  0.26955932  1.0
  Ti  Ti469  1  0.18750000  0.45833333  0.26955932  1.0
  Ti  Ti470  1  0.18750000  0.79166667  0.26955932  1.0
  Ti  Ti471  1  0.52083333  0.12500000  0.26955932  1.0
  Ti  Ti472  1  0.52083333  0.45833333  0.26955932  1.0
  Ti  Ti473  1  0.52083333  0.79166667  0.26955932  1.0
  Ti  Ti474  1  0.85416667  0.12500000  0.26955932  1.0
  Ti  Ti475  1  0.85416667  0.45833333  0.26955932  1.0
  Ti  Ti476  1  0.85416667  0.79166667  0.26955932  1.0
  Ti  Ti477  1  0.02083333  0.12500000  0.19813075  1.0
  Ti  Ti478  1  0.02083333  0.45833333  0.19813075  1.0
  Ti  Ti479  1  0.02083333  0.79166667  0.19813075  1.0
  Ti  Ti480  1  0.35416667  0.12500000  0.19813075  1.0
  Ti  Ti481  1  0.35416667  0.45833333  0.19813075  1.0
  Ti  Ti482  1  0.35416667  0.79166667  0.19813075  1.0
  Ti  Ti483  1  0.68750000  0.12500000  0.19813075  1.0
  Ti  Ti484  1  0.68750000  0.45833333  0.19813075  1.0
  Ti  Ti485  1  0.68750000  0.79166667  0.19813075  1.0
  Ti  Ti486  1  0.18750000  0.29166667  0.19813075  1.0
  Ti  Ti487  1  0.18750000  0.62500000  0.19813075  1.0
  Ti  Ti488  1  0.18750000  0.95833333  0.19813075  1.0
  Ti  Ti489  1  0.52083333  0.29166667  0.19813075  1.0
  Ti  Ti490  1  0.52083333  0.62500000  0.19813075  1.0
  Ti  Ti491  1  0.52083333  0.95833333  0.19813075  1.0
  Ti  Ti492  1  0.85416667  0.29166667  0.19813075  1.0
  Ti  Ti493  1  0.85416667  0.62500000  0.19813075  1.0
  Ti  Ti494  1  0.85416667  0.95833333  0.19813075  1.0
  Ti  Ti495  1  0.02083333  0.29166667  0.26955932  1.0
  Ti  Ti496  1  0.02083333  0.62500000  0.26955932  1.0
  Ti  Ti497  1  0.02083333  0.95833333  0.26955932  1.0
  Ti  Ti498  1  0.35416667  0.29166667  0.26955932  1.0
  Ti  Ti499  1  0.35416667  0.62500000  0.26955932  1.0
  Ti  Ti500  1  0.35416667  0.95833333  0.26955932  1.0
  Ti  Ti501  1  0.68750000  0.29166667  0.26955932  1.0
  Ti  Ti502  1  0.68750000  0.62500000  0.26955932  1.0
  Ti  Ti503  1  0.68750000  0.95833333  0.26955932  1.0
  Ti  Ti504  1  0.21877017  0.10420700  0.23826611  1.0
  Ti  Ti505  1  0.21877017  0.43754033  0.23826611  1.0
  Ti  Ti506  1  0.21877017  0.77087367  0.23826611  1.0
  Ti  Ti507  1  0.55210350  0.10420700  0.23826611  1.0
  Ti  Ti508  1  0.55210350  0.43754033  0.23826611  1.0
  Ti  Ti509  1  0.55210350  0.77087367  0.23826611  1.0
  Ti  Ti510  1  0.88543683  0.10420700  0.23826611  1.0
  Ti  Ti511  1  0.88543683  0.43754033  0.23826611  1.0
  Ti  Ti512  1  0.88543683  0.77087367  0.23826611  1.0
  Ti  Ti513  1  0.05210350  0.10420700  0.16683754  1.0
  Ti  Ti514  1  0.05210350  0.43754033  0.16683754  1.0
  Ti  Ti515  1  0.05210350  0.77087367  0.16683754  1.0
  Ti  Ti516  1  0.38543683  0.10420700  0.16683754  1.0
  Ti  Ti517  1  0.38543683  0.43754033  0.16683754  1.0
  Ti  Ti518  1  0.38543683  0.77087367  0.16683754  1.0
  Ti  Ti519  1  0.71877017  0.10420700  0.16683754  1.0
  Ti  Ti520  1  0.71877017  0.43754033  0.16683754  1.0
  Ti  Ti521  1  0.71877017  0.77087367  0.16683754  1.0
  Ti  Ti522  1  0.28122983  0.22912633  0.24728111  1.0
  Ti  Ti523  1  0.28122983  0.56245967  0.24728111  1.0
  Ti  Ti524  1  0.28122983  0.89579300  0.24728111  1.0
  Ti  Ti525  1  0.61456317  0.22912633  0.24728111  1.0
  Ti  Ti526  1  0.61456317  0.56245967  0.24728111  1.0
  Ti  Ti527  1  0.61456317  0.89579300  0.24728111  1.0
  Ti  Ti528  1  0.94789650  0.22912633  0.24728111  1.0
  Ti  Ti529  1  0.94789650  0.56245967  0.24728111  1.0
  Ti  Ti530  1  0.94789650  0.89579300  0.24728111  1.0
  Ti  Ti531  1  0.11456317  0.22912633  0.17585254  1.0
  Ti  Ti532  1  0.11456317  0.56245967  0.17585254  1.0
  Ti  Ti533  1  0.11456317  0.89579300  0.17585254  1.0
  Ti  Ti534  1  0.44789650  0.22912633  0.17585254  1.0
  Ti  Ti535  1  0.44789650  0.56245967  0.17585254  1.0
  Ti  Ti536  1  0.44789650  0.89579300  0.17585254  1.0
  Ti  Ti537  1  0.78122983  0.22912633  0.17585254  1.0
  Ti  Ti538  1  0.78122983  0.56245967  0.17585254  1.0
  Ti  Ti539  1  0.78122983  0.89579300  0.17585254  1.0
  Ti  Ti540  1  0.28122983  0.22912633  0.15796082  1.0
  Ti  Ti541  1  0.28122983  0.56245967  0.15796082  1.0
  Ti  Ti542  1  0.28122983  0.89579300  0.15796082  1.0
  Ti  Ti543  1  0.61456317  0.22912633  0.15796082  1.0
  Ti  Ti544  1  0.61456317  0.56245967  0.15796082  1.0
  Ti  Ti545  1  0.61456317  0.89579300  0.15796082  1.0
  Ti  Ti546  1  0.94789650  0.22912633  0.15796082  1.0
  Ti  Ti547  1  0.94789650  0.56245967  0.15796082  1.0
  Ti  Ti548  1  0.94789650  0.89579300  0.15796082  1.0
  Ti  Ti549  1  0.11456317  0.22912633  0.22938939  1.0
  Ti  Ti550  1  0.11456317  0.56245967  0.22938939  1.0
  Ti  Ti551  1  0.11456317  0.89579300  0.22938939  1.0
  Ti  Ti552  1  0.44789650  0.22912633  0.22938939  1.0
  Ti  Ti553  1  0.44789650  0.56245967  0.22938939  1.0
  Ti  Ti554  1  0.44789650  0.89579300  0.22938939  1.0
  Ti  Ti555  1  0.78122983  0.22912633  0.22938939  1.0
  Ti  Ti556  1  0.78122983  0.56245967  0.22938939  1.0
  Ti  Ti557  1  0.78122983  0.89579300  0.22938939  1.0
  Ti  Ti558  1  0.21877017  0.10420700  0.18472925  1.0
  Ti  Ti559  1  0.21877017  0.43754033  0.18472925  1.0
  Ti  Ti560  1  0.21877017  0.77087367  0.18472925  1.0
  Ti  Ti561  1  0.55210350  0.10420700  0.18472925  1.0
  Ti  Ti562  1  0.55210350  0.43754033  0.18472925  1.0
  Ti  Ti563  1  0.55210350  0.77087367  0.18472925  1.0
  Ti  Ti564  1  0.88543683  0.10420700  0.18472925  1.0
  Ti  Ti565  1  0.88543683  0.43754033  0.18472925  1.0
  Ti  Ti566  1  0.88543683  0.77087367  0.18472925  1.0
  Ti  Ti567  1  0.05210350  0.10420700  0.25615782  1.0
  Ti  Ti568  1  0.05210350  0.43754033  0.25615782  1.0
  Ti  Ti569  1  0.05210350  0.77087367  0.25615782  1.0
  Ti  Ti570  1  0.38543683  0.10420700  0.25615782  1.0
  Ti  Ti571  1  0.38543683  0.43754033  0.25615782  1.0
  Ti  Ti572  1  0.38543683  0.77087367  0.25615782  1.0
  Ti  Ti573  1  0.71877017  0.10420700  0.25615782  1.0
  Ti  Ti574  1  0.71877017  0.43754033  0.25615782  1.0
  Ti  Ti575  1  0.71877017  0.77087367  0.25615782  1.0
  Ti  Ti576  1  0.21877017  0.22912633  0.27404954  1.0
  Ti  Ti577  1  0.21877017  0.56245967  0.27404954  1.0
  Ti  Ti578  1  0.21877017  0.89579300  0.27404954  1.0
  Ti  Ti579  1  0.55210350  0.22912633  0.27404954  1.0
  Ti  Ti580  1  0.55210350  0.56245967  0.27404954  1.0
  Ti  Ti581  1  0.55210350  0.89579300  0.27404954  1.0
  Ti  Ti582  1  0.88543683  0.22912633  0.27404954  1.0
  Ti  Ti583  1  0.88543683  0.56245967  0.27404954  1.0
  Ti  Ti584  1  0.88543683  0.89579300  0.27404954  1.0
  Ti  Ti585  1  0.05210350  0.22912633  0.20262096  1.0
  Ti  Ti586  1  0.05210350  0.56245967  0.20262096  1.0
  Ti  Ti587  1  0.05210350  0.89579300  0.20262096  1.0
  Ti  Ti588  1  0.38543683  0.22912633  0.20262096  1.0
  Ti  Ti589  1  0.38543683  0.56245967  0.20262096  1.0
  Ti  Ti590  1  0.38543683  0.89579300  0.20262096  1.0
  Ti  Ti591  1  0.71877017  0.22912633  0.20262096  1.0
  Ti  Ti592  1  0.71877017  0.56245967  0.20262096  1.0
  Ti  Ti593  1  0.71877017  0.89579300  0.20262096  1.0
  Ti  Ti594  1  0.28122983  0.10420700  0.21149768  1.0
  Ti  Ti595  1  0.28122983  0.43754033  0.21149768  1.0
  Ti  Ti596  1  0.28122983  0.77087367  0.21149768  1.0
  Ti  Ti597  1  0.61456317  0.10420700  0.21149768  1.0
  Ti  Ti598  1  0.61456317  0.43754033  0.21149768  1.0
  Ti  Ti599  1  0.61456317  0.77087367  0.21149768  1.0
  Ti  Ti600  1  0.94789650  0.10420700  0.21149768  1.0
  Ti  Ti601  1  0.94789650  0.43754033  0.21149768  1.0
  Ti  Ti602  1  0.94789650  0.77087367  0.21149768  1.0
  Ti  Ti603  1  0.11456317  0.10420700  0.28292625  1.0
  Ti  Ti604  1  0.11456317  0.43754033  0.28292625  1.0
  Ti  Ti605  1  0.11456317  0.77087367  0.28292625  1.0
  Ti  Ti606  1  0.44789650  0.10420700  0.28292625  1.0
  Ti  Ti607  1  0.44789650  0.43754033  0.28292625  1.0
  Ti  Ti608  1  0.44789650  0.77087367  0.28292625  1.0
  Ti  Ti609  1  0.78122983  0.10420700  0.28292625  1.0
  Ti  Ti610  1  0.78122983  0.43754033  0.28292625  1.0
  Ti  Ti611  1  0.78122983  0.77087367  0.28292625  1.0
  Ti  Ti612  1  0.32289650  0.14579300  0.22942396  1.0
  Ti  Ti613  1  0.32289650  0.47912633  0.22942396  1.0
  Ti  Ti614  1  0.32289650  0.81245967  0.22942396  1.0
  Ti  Ti615  1  0.65622983  0.14579300  0.22942396  1.0
  Ti  Ti616  1  0.65622983  0.47912633  0.22942396  1.0
  Ti  Ti617  1  0.65622983  0.81245967  0.22942396  1.0
  Ti  Ti618  1  0.98956317  0.14579300  0.22942396  1.0
  Ti  Ti619  1  0.98956317  0.47912633  0.22942396  1.0
  Ti  Ti620  1  0.98956317  0.81245967  0.22942396  1.0
  Ti  Ti621  1  0.15622983  0.14579300  0.15799539  1.0
  Ti  Ti622  1  0.15622983  0.47912633  0.15799539  1.0
  Ti  Ti623  1  0.15622983  0.81245967  0.15799539  1.0
  Ti  Ti624  1  0.48956317  0.14579300  0.15799539  1.0
  Ti  Ti625  1  0.48956317  0.47912633  0.15799539  1.0
  Ti  Ti626  1  0.48956317  0.81245967  0.15799539  1.0
  Ti  Ti627  1  0.82289650  0.14579300  0.15799539  1.0
  Ti  Ti628  1  0.82289650  0.47912633  0.15799539  1.0
  Ti  Ti629  1  0.82289650  0.81245967  0.15799539  1.0
  Ti  Ti630  1  0.26043683  0.02087367  0.22040896  1.0
  Ti  Ti631  1  0.26043683  0.35420700  0.22040896  1.0
  Ti  Ti632  1  0.26043683  0.68754033  0.22040896  1.0
  Ti  Ti633  1  0.59377017  0.02087367  0.22040896  1.0
  Ti  Ti634  1  0.59377017  0.35420700  0.22040896  1.0
  Ti  Ti635  1  0.59377017  0.68754033  0.22040896  1.0
  Ti  Ti636  1  0.92710350  0.02087367  0.22040896  1.0
  Ti  Ti637  1  0.92710350  0.35420700  0.22040896  1.0
  Ti  Ti638  1  0.92710350  0.68754033  0.22040896  1.0
  Ti  Ti639  1  0.09377017  0.02087367  0.14898039  1.0
  Ti  Ti640  1  0.09377017  0.35420700  0.14898039  1.0
  Ti  Ti641  1  0.09377017  0.68754033  0.14898039  1.0
  Ti  Ti642  1  0.42710350  0.02087367  0.14898039  1.0
  Ti  Ti643  1  0.42710350  0.35420700  0.14898039  1.0
  Ti  Ti644  1  0.42710350  0.68754033  0.14898039  1.0
  Ti  Ti645  1  0.76043683  0.02087367  0.14898039  1.0
  Ti  Ti646  1  0.76043683  0.35420700  0.14898039  1.0
  Ti  Ti647  1  0.76043683  0.68754033  0.14898039  1.0
  Ti  Ti648  1  0.26043683  0.02087367  0.16687211  1.0
  Ti  Ti649  1  0.26043683  0.35420700  0.16687211  1.0
  Ti  Ti650  1  0.26043683  0.68754033  0.16687211  1.0
  Ti  Ti651  1  0.59377017  0.02087367  0.16687211  1.0
  Ti  Ti652  1  0.59377017  0.35420700  0.16687211  1.0
  Ti  Ti653  1  0.59377017  0.68754033  0.16687211  1.0
  Ti  Ti654  1  0.92710350  0.02087367  0.16687211  1.0
  Ti  Ti655  1  0.92710350  0.35420700  0.16687211  1.0
  Ti  Ti656  1  0.92710350  0.68754033  0.16687211  1.0
  Ti  Ti657  1  0.09377017  0.02087367  0.23830068  1.0
  Ti  Ti658  1  0.09377017  0.35420700  0.23830068  1.0
  Ti  Ti659  1  0.09377017  0.68754033  0.23830068  1.0
  Ti  Ti660  1  0.42710350  0.02087367  0.23830068  1.0
  Ti  Ti661  1  0.42710350  0.35420700  0.23830068  1.0
  Ti  Ti662  1  0.42710350  0.68754033  0.23830068  1.0
  Ti  Ti663  1  0.76043683  0.02087367  0.23830068  1.0
  Ti  Ti664  1  0.76043683  0.35420700  0.23830068  1.0
  Ti  Ti665  1  0.76043683  0.68754033  0.23830068  1.0
  Ti  Ti666  1  0.32289650  0.14579300  0.28296082  1.0
  Ti  Ti667  1  0.32289650  0.47912633  0.28296082  1.0
  Ti  Ti668  1  0.32289650  0.81245967  0.28296082  1.0
  Ti  Ti669  1  0.65622983  0.14579300  0.28296082  1.0
  Ti  Ti670  1  0.65622983  0.47912633  0.28296082  1.0
  Ti  Ti671  1  0.65622983  0.81245967  0.28296082  1.0
  Ti  Ti672  1  0.98956317  0.14579300  0.28296082  1.0
  Ti  Ti673  1  0.98956317  0.47912633  0.28296082  1.0
  Ti  Ti674  1  0.98956317  0.81245967  0.28296082  1.0
  Ti  Ti675  1  0.15622983  0.14579300  0.21153225  1.0
  Ti  Ti676  1  0.15622983  0.47912633  0.21153225  1.0
  Ti  Ti677  1  0.15622983  0.81245967  0.21153225  1.0
  Ti  Ti678  1  0.48956317  0.14579300  0.21153225  1.0
  Ti  Ti679  1  0.48956317  0.47912633  0.21153225  1.0
  Ti  Ti680  1  0.48956317  0.81245967  0.21153225  1.0
  Ti  Ti681  1  0.82289650  0.14579300  0.21153225  1.0
  Ti  Ti682  1  0.82289650  0.47912633  0.21153225  1.0
  Ti  Ti683  1  0.82289650  0.81245967  0.21153225  1.0
  Ti  Ti684  1  0.32289650  0.02087367  0.19364054  1.0
  Ti  Ti685  1  0.32289650  0.35420700  0.19364054  1.0
  Ti  Ti686  1  0.32289650  0.68754033  0.19364054  1.0
  Ti  Ti687  1  0.65622983  0.02087367  0.19364054  1.0
  Ti  Ti688  1  0.65622983  0.35420700  0.19364054  1.0
  Ti  Ti689  1  0.65622983  0.68754033  0.19364054  1.0
  Ti  Ti690  1  0.98956317  0.02087367  0.19364054  1.0
  Ti  Ti691  1  0.98956317  0.35420700  0.19364054  1.0
  Ti  Ti692  1  0.98956317  0.68754033  0.19364054  1.0
  Ti  Ti693  1  0.15622983  0.02087367  0.26506911  1.0
  Ti  Ti694  1  0.15622983  0.35420700  0.26506911  1.0
  Ti  Ti695  1  0.15622983  0.68754033  0.26506911  1.0
  Ti  Ti696  1  0.48956317  0.02087367  0.26506911  1.0
  Ti  Ti697  1  0.48956317  0.35420700  0.26506911  1.0
  Ti  Ti698  1  0.48956317  0.68754033  0.26506911  1.0
  Ti  Ti699  1  0.82289650  0.02087367  0.26506911  1.0
  Ti  Ti700  1  0.82289650  0.35420700  0.26506911  1.0
  Ti  Ti701  1  0.82289650  0.68754033  0.26506911  1.0
  Ti  Ti702  1  0.26043683  0.14579300  0.25619239  1.0
  Ti  Ti703  1  0.26043683  0.47912633  0.25619239  1.0
  Ti  Ti704  1  0.26043683  0.81245967  0.25619239  1.0
  Ti  Ti705  1  0.59377017  0.14579300  0.25619239  1.0
  Ti  Ti706  1  0.59377017  0.47912633  0.25619239  1.0
  Ti  Ti707  1  0.59377017  0.81245967  0.25619239  1.0
  Ti  Ti708  1  0.92710350  0.14579300  0.25619239  1.0
  Ti  Ti709  1  0.92710350  0.47912633  0.25619239  1.0
  Ti  Ti710  1  0.92710350  0.81245967  0.25619239  1.0
  Ti  Ti711  1  0.09377017  0.14579300  0.18476382  1.0
  Ti  Ti712  1  0.09377017  0.47912633  0.18476382  1.0
  Ti  Ti713  1  0.09377017  0.81245967  0.18476382  1.0
  Ti  Ti714  1  0.42710350  0.14579300  0.18476382  1.0
  Ti  Ti715  1  0.42710350  0.47912633  0.18476382  1.0
  Ti  Ti716  1  0.42710350  0.81245967  0.18476382  1.0
  Ti  Ti717  1  0.76043683  0.14579300  0.18476382  1.0
  Ti  Ti718  1  0.76043683  0.47912633  0.18476382  1.0
  Ti  Ti719  1  0.76043683  0.81245967  0.18476382  1.0
  Ni  Ni720  1  0.31858645  0.02949378  0.23424723  1.0
  Ni  Ni721  1  0.31858644  0.36282711  0.23424723  1.0
  Ni  Ni722  1  0.31858644  0.69616044  0.23424723  1.0
  Ni  Ni723  1  0.65191978  0.02949378  0.23424723  1.0
  Ni  Ni724  1  0.65191978  0.36282711  0.23424723  1.0
  Ni  Ni725  1  0.65191978  0.69616044  0.23424723  1.0
  Ni  Ni726  1  0.98525311  0.02949378  0.23424723  1.0
  Ni  Ni727  1  0.98525311  0.36282711  0.23424723  1.0
  Ni  Ni728  1  0.98525311  0.69616044  0.23424723  1.0
  Ni  Ni729  1  0.15191978  0.02949378  0.16281865  1.0
  Ni  Ni730  1  0.15191978  0.36282711  0.16281865  1.0
  Ni  Ni731  1  0.15191978  0.69616044  0.16281865  1.0
  Ni  Ni732  1  0.48525311  0.02949378  0.16281865  1.0
  Ni  Ni733  1  0.48525311  0.36282711  0.16281866  1.0
  Ni  Ni734  1  0.48525311  0.69616044  0.16281865  1.0
  Ni  Ni735  1  0.81858645  0.02949378  0.16281865  1.0
  Ni  Ni736  1  0.81858644  0.36282711  0.16281865  1.0
  Ni  Ni737  1  0.81858644  0.69616044  0.16281866  1.0
  Ni  Ni738  1  0.21090733  0.02949378  0.18809904  1.0
  Ni  Ni739  1  0.21090733  0.36282711  0.18809904  1.0
  Ni  Ni740  1  0.21090733  0.69616044  0.18809904  1.0
  Ni  Ni741  1  0.54424067  0.02949378  0.18809904  1.0
  Ni  Ni742  1  0.54424067  0.36282711  0.18809904  1.0
  Ni  Ni743  1  0.54424067  0.69616044  0.18809904  1.0
  Ni  Ni744  1  0.87757400  0.02949378  0.18809904  1.0
  Ni  Ni745  1  0.87757400  0.36282711  0.18809904  1.0
  Ni  Ni746  1  0.87757400  0.69616044  0.18809904  1.0
  Ni  Ni747  1  0.04424067  0.02949378  0.25952761  1.0
  Ni  Ni748  1  0.04424067  0.36282711  0.25952761  1.0
  Ni  Ni749  1  0.04424067  0.69616044  0.25952761  1.0
  Ni  Ni750  1  0.37757400  0.02949378  0.25952761  1.0
  Ni  Ni751  1  0.37757400  0.36282711  0.25952761  1.0
  Ni  Ni752  1  0.37757400  0.69616044  0.25952761  1.0
  Ni  Ni753  1  0.71090733  0.02949378  0.25952761  1.0
  Ni  Ni754  1  0.71090733  0.36282711  0.25952761  1.0
  Ni  Ni755  1  0.71090733  0.69616044  0.25952761  1.0
  Ni  Ni756  1  0.31858644  0.24485200  0.19251161  1.0
  Ni  Ni757  1  0.31858644  0.57818533  0.19251161  1.0
  Ni  Ni758  1  0.31858644  0.91151867  0.19251161  1.0
  Ni  Ni759  1  0.65191978  0.24485200  0.19251161  1.0
  Ni  Ni760  1  0.65191978  0.57818533  0.19251161  1.0
  Ni  Ni761  1  0.65191978  0.91151867  0.19251161  1.0
  Ni  Ni762  1  0.98525311  0.24485200  0.19251161  1.0
  Ni  Ni763  1  0.98525311  0.57818533  0.19251161  1.0
  Ni  Ni764  1  0.98525311  0.91151867  0.19251161  1.0
  Ni  Ni765  1  0.15191978  0.24485200  0.26394018  1.0
  Ni  Ni766  1  0.15191978  0.57818533  0.26394018  1.0
  Ni  Ni767  1  0.15191978  0.91151867  0.26394018  1.0
  Ni  Ni768  1  0.48525311  0.24485200  0.26394018  1.0
  Ni  Ni769  1  0.48525311  0.57818533  0.26394018  1.0
  Ni  Ni770  1  0.48525311  0.91151867  0.26394018  1.0
  Ni  Ni771  1  0.81858644  0.24485200  0.26394018  1.0
  Ni  Ni772  1  0.81858645  0.57818533  0.26394018  1.0
  Ni  Ni773  1  0.81858644  0.91151867  0.26394018  1.0
  Ni  Ni774  1  0.31858645  0.02949378  0.28480799  1.0
  Ni  Ni775  1  0.31858645  0.36282711  0.28480799  1.0
  Ni  Ni776  1  0.31858645  0.69616044  0.28480799  1.0
  Ni  Ni777  1  0.65191978  0.02949378  0.28480799  1.0
  Ni  Ni778  1  0.65191978  0.36282711  0.28480799  1.0
  Ni  Ni779  1  0.65191978  0.69616044  0.28480799  1.0
  Ni  Ni780  1  0.98525311  0.02949378  0.28480799  1.0
  Ni  Ni781  1  0.98525311  0.36282711  0.28480799  1.0
  Ni  Ni782  1  0.98525311  0.69616044  0.28480799  1.0
  Ni  Ni783  1  0.15191978  0.02949378  0.21337942  1.0
  Ni  Ni784  1  0.15191978  0.36282711  0.21337942  1.0
  Ni  Ni785  1  0.15191978  0.69616044  0.21337942  1.0
  Ni  Ni786  1  0.48525311  0.02949378  0.21337942  1.0
  Ni  Ni787  1  0.48525311  0.36282711  0.21337942  1.0
  Ni  Ni788  1  0.48525311  0.69616044  0.21337942  1.0
  Ni  Ni789  1  0.81858645  0.02949378  0.21337942  1.0
  Ni  Ni790  1  0.81858644  0.36282711  0.21337942  1.0
  Ni  Ni791  1  0.81858644  0.69616044  0.21337942  1.0
  Ni  Ni792  1  0.22308022  0.22050622  0.23344285  1.0
  Ni  Ni793  1  0.22308022  0.55383956  0.23344284  1.0
  Ni  Ni794  1  0.22308022  0.88717289  0.23344284  1.0
  Ni  Ni795  1  0.55641356  0.22050622  0.23344285  1.0
  Ni  Ni796  1  0.55641356  0.55383956  0.23344285  1.0
  Ni  Ni797  1  0.55641356  0.88717289  0.23344284  1.0
  Ni  Ni798  1  0.88974689  0.22050622  0.23344285  1.0
  Ni  Ni799  1  0.88974689  0.55383956  0.23344285  1.0
  Ni  Ni800  1  0.88974689  0.88717289  0.23344285  1.0
  Ni  Ni801  1  0.05641356  0.22050622  0.16201427  1.0
  Ni  Ni802  1  0.05641355  0.55383956  0.16201427  1.0
  Ni  Ni803  1  0.05641355  0.88717289  0.16201427  1.0
  Ni  Ni804  1  0.38974689  0.22050622  0.16201427  1.0
  Ni  Ni805  1  0.38974689  0.55383956  0.16201427  1.0
  Ni  Ni806  1  0.38974689  0.88717289  0.16201427  1.0
  Ni  Ni807  1  0.72308022  0.22050622  0.16201427  1.0
  Ni  Ni808  1  0.72308022  0.55383956  0.16201427  1.0
  Ni  Ni809  1  0.72308022  0.88717289  0.16201427  1.0
  Ni  Ni810  1  0.33075933  0.22050622  0.27959104  1.0
  Ni  Ni811  1  0.33075933  0.55383956  0.27959104  1.0
  Ni  Ni812  1  0.33075933  0.88717289  0.27959104  1.0
  Ni  Ni813  1  0.66409267  0.22050622  0.27959104  1.0
  Ni  Ni814  1  0.66409267  0.55383956  0.27959104  1.0
  Ni  Ni815  1  0.66409267  0.88717289  0.27959104  1.0
  Ni  Ni816  1  0.99742600  0.22050622  0.27959104  1.0
  Ni  Ni817  1  0.99742600  0.55383956  0.27959104  1.0
  Ni  Ni818  1  0.99742600  0.88717289  0.27959104  1.0
  Ni  Ni819  1  0.16409267  0.22050622  0.20816246  1.0
  Ni  Ni820  1  0.16409267  0.55383956  0.20816246  1.0
  Ni  Ni821  1  0.16409267  0.88717289  0.20816246  1.0
  Ni  Ni822  1  0.49742600  0.22050622  0.20816246  1.0
  Ni  Ni823  1  0.49742600  0.55383956  0.20816246  1.0
  Ni  Ni824  1  0.49742600  0.88717289  0.20816246  1.0
  Ni  Ni825  1  0.83075933  0.22050622  0.20816246  1.0
  Ni  Ni826  1  0.83075933  0.55383956  0.20816246  1.0
  Ni  Ni827  1  0.83075933  0.88717289  0.20816246  1.0
  Ni  Ni828  1  0.22308022  0.00514800  0.27517846  1.0
  Ni  Ni829  1  0.22308022  0.33848133  0.27517846  1.0
  Ni  Ni830  1  0.22308022  0.67181467  0.27517846  1.0
  Ni  Ni831  1  0.55641356  0.00514800  0.27517846  1.0
  Ni  Ni832  1  0.55641356  0.33848133  0.27517846  1.0
  Ni  Ni833  1  0.55641356  0.67181467  0.27517846  1.0
  Ni  Ni834  1  0.88974689  0.00514800  0.27517846  1.0
  Ni  Ni835  1  0.88974689  0.33848133  0.27517846  1.0
  Ni  Ni836  1  0.88974689  0.67181467  0.27517847  1.0
  Ni  Ni837  1  0.05641355  0.00514800  0.20374989  1.0
  Ni  Ni838  1  0.05641355  0.33848133  0.20374989  1.0
  Ni  Ni839  1  0.05641355  0.67181467  0.20374989  1.0
  Ni  Ni840  1  0.38974689  0.00514800  0.20374989  1.0
  Ni  Ni841  1  0.38974689  0.33848133  0.20374989  1.0
  Ni  Ni842  1  0.38974689  0.67181467  0.20374989  1.0
  Ni  Ni843  1  0.72308022  0.00514800  0.20374989  1.0
  Ni  Ni844  1  0.72308022  0.33848133  0.20374989  1.0
  Ni  Ni845  1  0.72308022  0.67181467  0.20374989  1.0
  Ni  Ni846  1  0.22308022  0.22050622  0.18288208  1.0
  Ni  Ni847  1  0.22308022  0.55383956  0.18288208  1.0
  Ni  Ni848  1  0.22308022  0.88717289  0.18288208  1.0
  Ni  Ni849  1  0.55641356  0.22050622  0.18288208  1.0
  Ni  Ni850  1  0.55641356  0.55383956  0.18288208  1.0
  Ni  Ni851  1  0.55641356  0.88717289  0.18288208  1.0
  Ni  Ni852  1  0.88974689  0.22050622  0.18288208  1.0
  Ni  Ni853  1  0.88974689  0.55383956  0.18288208  1.0
  Ni  Ni854  1  0.88974689  0.88717289  0.18288208  1.0
  Ni  Ni855  1  0.05641356  0.22050622  0.25431065  1.0
  Ni  Ni856  1  0.05641355  0.55383956  0.25431065  1.0
  Ni  Ni857  1  0.05641356  0.88717289  0.25431065  1.0
  Ni  Ni858  1  0.38974689  0.22050622  0.25431065  1.0
  Ni  Ni859  1  0.38974689  0.55383956  0.25431065  1.0
  Ni  Ni860  1  0.38974689  0.88717289  0.25431065  1.0
  Ni  Ni861  1  0.72308022  0.22050622  0.25431065  1.0
  Ni  Ni862  1  0.72308022  0.55383956  0.25431065  1.0
  Ni  Ni863  1  0.72308022  0.88717289  0.25431065  1.0
  Ti  Ti864  1  0.18750000  0.29166667  0.41241646  1.0
  Ti  Ti865  1  0.18750000  0.62500000  0.41241646  1.0
  Ti  Ti866  1  0.18750000  0.95833333  0.41241646  1.0
  Ti  Ti867  1  0.52083333  0.29166667  0.41241646  1.0
  Ti  Ti868  1  0.52083333  0.62500000  0.41241646  1.0
  Ti  Ti869  1  0.52083333  0.95833333  0.41241646  1.0
  Ti  Ti870  1  0.85416667  0.29166667  0.41241646  1.0
  Ti  Ti871  1  0.85416667  0.62500000  0.41241646  1.0
  Ti  Ti872  1  0.85416667  0.95833333  0.41241646  1.0
  Ti  Ti873  1  0.02083333  0.29166667  0.34098789  1.0
  Ti  Ti874  1  0.02083333  0.62500000  0.34098789  1.0
  Ti  Ti875  1  0.02083333  0.95833333  0.34098789  1.0
  Ti  Ti876  1  0.35416667  0.29166667  0.34098789  1.0
  Ti  Ti877  1  0.35416667  0.62500000  0.34098789  1.0
  Ti  Ti878  1  0.35416667  0.95833333  0.34098789  1.0
  Ti  Ti879  1  0.68750000  0.29166667  0.34098789  1.0
  Ti  Ti880  1  0.68750000  0.62500000  0.34098789  1.0
  Ti  Ti881  1  0.68750000  0.95833333  0.34098789  1.0
  Ti  Ti882  1  0.27083333  0.29166667  0.30527361  1.0
  Ti  Ti883  1  0.27083333  0.62500000  0.30527361  1.0
  Ti  Ti884  1  0.27083333  0.95833333  0.30527361  1.0
  Ti  Ti885  1  0.60416667  0.29166667  0.30527361  1.0
  Ti  Ti886  1  0.60416667  0.62500000  0.30527361  1.0
  Ti  Ti887  1  0.60416667  0.95833333  0.30527361  1.0
  Ti  Ti888  1  0.93750000  0.29166667  0.30527361  1.0
  Ti  Ti889  1  0.93750000  0.62500000  0.30527361  1.0
  Ti  Ti890  1  0.93750000  0.95833333  0.30527361  1.0
  Ti  Ti891  1  0.10416667  0.29166667  0.37670218  1.0
  Ti  Ti892  1  0.10416667  0.62500000  0.37670218  1.0
  Ti  Ti893  1  0.10416667  0.95833333  0.37670218  1.0
  Ti  Ti894  1  0.43750000  0.29166667  0.37670218  1.0
  Ti  Ti895  1  0.43750000  0.62500000  0.37670218  1.0
  Ti  Ti896  1  0.43750000  0.95833333  0.37670218  1.0
  Ti  Ti897  1  0.77083333  0.29166667  0.37670218  1.0
  Ti  Ti898  1  0.77083333  0.62500000  0.37670218  1.0
  Ti  Ti899  1  0.77083333  0.95833333  0.37670218  1.0
  Ti  Ti900  1  0.18750000  0.12500000  0.41241646  1.0
  Ti  Ti901  1  0.18750000  0.45833333  0.41241646  1.0
  Ti  Ti902  1  0.18750000  0.79166667  0.41241646  1.0
  Ti  Ti903  1  0.52083333  0.12500000  0.41241646  1.0
  Ti  Ti904  1  0.52083333  0.45833333  0.41241646  1.0
  Ti  Ti905  1  0.52083333  0.79166667  0.41241646  1.0
  Ti  Ti906  1  0.85416667  0.12500000  0.41241646  1.0
  Ti  Ti907  1  0.85416667  0.45833333  0.41241646  1.0
  Ti  Ti908  1  0.85416667  0.79166667  0.41241646  1.0
  Ti  Ti909  1  0.02083333  0.12500000  0.34098789  1.0
  Ti  Ti910  1  0.02083333  0.45833333  0.34098789  1.0
  Ti  Ti911  1  0.02083333  0.79166667  0.34098789  1.0
  Ti  Ti912  1  0.35416667  0.12500000  0.34098789  1.0
  Ti  Ti913  1  0.35416667  0.45833333  0.34098789  1.0
  Ti  Ti914  1  0.35416667  0.79166667  0.34098789  1.0
  Ti  Ti915  1  0.68750000  0.12500000  0.34098789  1.0
  Ti  Ti916  1  0.68750000  0.45833333  0.34098789  1.0
  Ti  Ti917  1  0.68750000  0.79166667  0.34098789  1.0
  Ti  Ti918  1  0.18750000  0.29166667  0.34098789  1.0
  Ti  Ti919  1  0.18750000  0.62500000  0.34098789  1.0
  Ti  Ti920  1  0.18750000  0.95833333  0.34098789  1.0
  Ti  Ti921  1  0.52083333  0.29166667  0.34098789  1.0
  Ti  Ti922  1  0.52083333  0.62500000  0.34098789  1.0
  Ti  Ti923  1  0.52083333  0.95833333  0.34098789  1.0
  Ti  Ti924  1  0.85416667  0.29166667  0.34098789  1.0
  Ti  Ti925  1  0.85416667  0.62500000  0.34098789  1.0
  Ti  Ti926  1  0.85416667  0.95833333  0.34098789  1.0
  Ti  Ti927  1  0.02083333  0.29166667  0.41241646  1.0
  Ti  Ti928  1  0.02083333  0.62500000  0.41241646  1.0
  Ti  Ti929  1  0.02083333  0.95833333  0.41241646  1.0
  Ti  Ti930  1  0.35416667  0.29166667  0.41241646  1.0
  Ti  Ti931  1  0.35416667  0.62500000  0.41241646  1.0
  Ti  Ti932  1  0.35416667  0.95833333  0.41241646  1.0
  Ti  Ti933  1  0.68750000  0.29166667  0.41241646  1.0
  Ti  Ti934  1  0.68750000  0.62500000  0.41241646  1.0
  Ti  Ti935  1  0.68750000  0.95833333  0.41241646  1.0
  Ti  Ti936  1  0.21877017  0.10420700  0.38112325  1.0
  Ti  Ti937  1  0.21877017  0.43754033  0.38112325  1.0
  Ti  Ti938  1  0.21877017  0.77087367  0.38112325  1.0
  Ti  Ti939  1  0.55210350  0.10420700  0.38112325  1.0
  Ti  Ti940  1  0.55210350  0.43754033  0.38112325  1.0
  Ti  Ti941  1  0.55210350  0.77087367  0.38112325  1.0
  Ti  Ti942  1  0.88543683  0.10420700  0.38112325  1.0
  Ti  Ti943  1  0.88543683  0.43754033  0.38112325  1.0
  Ti  Ti944  1  0.88543683  0.77087367  0.38112325  1.0
  Ti  Ti945  1  0.05210350  0.10420700  0.30969468  1.0
  Ti  Ti946  1  0.05210350  0.43754033  0.30969468  1.0
  Ti  Ti947  1  0.05210350  0.77087367  0.30969468  1.0
  Ti  Ti948  1  0.38543683  0.10420700  0.30969468  1.0
  Ti  Ti949  1  0.38543683  0.43754033  0.30969468  1.0
  Ti  Ti950  1  0.38543683  0.77087367  0.30969468  1.0
  Ti  Ti951  1  0.71877017  0.10420700  0.30969468  1.0
  Ti  Ti952  1  0.71877017  0.43754033  0.30969468  1.0
  Ti  Ti953  1  0.71877017  0.77087367  0.30969468  1.0
  Ti  Ti954  1  0.28122983  0.22912633  0.39013825  1.0
  Ti  Ti955  1  0.28122983  0.56245967  0.39013825  1.0
  Ti  Ti956  1  0.28122983  0.89579300  0.39013825  1.0
  Ti  Ti957  1  0.61456317  0.22912633  0.39013825  1.0
  Ti  Ti958  1  0.61456317  0.56245967  0.39013825  1.0
  Ti  Ti959  1  0.61456317  0.89579300  0.39013825  1.0
  Ti  Ti960  1  0.94789650  0.22912633  0.39013825  1.0
  Ti  Ti961  1  0.94789650  0.56245967  0.39013825  1.0
  Ti  Ti962  1  0.94789650  0.89579300  0.39013825  1.0
  Ti  Ti963  1  0.11456317  0.22912633  0.31870968  1.0
  Ti  Ti964  1  0.11456317  0.56245967  0.31870968  1.0
  Ti  Ti965  1  0.11456317  0.89579300  0.31870968  1.0
  Ti  Ti966  1  0.44789650  0.22912633  0.31870968  1.0
  Ti  Ti967  1  0.44789650  0.56245967  0.31870968  1.0
  Ti  Ti968  1  0.44789650  0.89579300  0.31870968  1.0
  Ti  Ti969  1  0.78122983  0.22912633  0.31870968  1.0
  Ti  Ti970  1  0.78122983  0.56245967  0.31870968  1.0
  Ti  Ti971  1  0.78122983  0.89579300  0.31870968  1.0
  Ti  Ti972  1  0.28122983  0.22912633  0.30081796  1.0
  Ti  Ti973  1  0.28122983  0.56245967  0.30081796  1.0
  Ti  Ti974  1  0.28122983  0.89579300  0.30081796  1.0
  Ti  Ti975  1  0.61456317  0.22912633  0.30081796  1.0
  Ti  Ti976  1  0.61456317  0.56245967  0.30081796  1.0
  Ti  Ti977  1  0.61456317  0.89579300  0.30081796  1.0
  Ti  Ti978  1  0.94789650  0.22912633  0.30081796  1.0
  Ti  Ti979  1  0.94789650  0.56245967  0.30081796  1.0
  Ti  Ti980  1  0.94789650  0.89579300  0.30081796  1.0
  Ti  Ti981  1  0.11456317  0.22912633  0.37224654  1.0
  Ti  Ti982  1  0.11456317  0.56245967  0.37224654  1.0
  Ti  Ti983  1  0.11456317  0.89579300  0.37224654  1.0
  Ti  Ti984  1  0.44789650  0.22912633  0.37224654  1.0
  Ti  Ti985  1  0.44789650  0.56245967  0.37224654  1.0
  Ti  Ti986  1  0.44789650  0.89579300  0.37224654  1.0
  Ti  Ti987  1  0.78122983  0.22912633  0.37224654  1.0
  Ti  Ti988  1  0.78122983  0.56245967  0.37224654  1.0
  Ti  Ti989  1  0.78122983  0.89579300  0.37224654  1.0
  Ti  Ti990  1  0.21877017  0.10420700  0.32758639  1.0
  Ti  Ti991  1  0.21877017  0.43754033  0.32758639  1.0
  Ti  Ti992  1  0.21877017  0.77087367  0.32758639  1.0
  Ti  Ti993  1  0.55210350  0.10420700  0.32758639  1.0
  Ti  Ti994  1  0.55210350  0.43754033  0.32758639  1.0
  Ti  Ti995  1  0.55210350  0.77087367  0.32758639  1.0
  Ti  Ti996  1  0.88543683  0.10420700  0.32758639  1.0
  Ti  Ti997  1  0.88543683  0.43754033  0.32758639  1.0
  Ti  Ti998  1  0.88543683  0.77087367  0.32758639  1.0
  Ti  Ti999  1  0.05210350  0.10420700  0.39901496  1.0
  Ti  Ti1000  1  0.05210350  0.43754033  0.39901496  1.0
  Ti  Ti1001  1  0.05210350  0.77087367  0.39901496  1.0
  Ti  Ti1002  1  0.38543683  0.10420700  0.39901496  1.0
  Ti  Ti1003  1  0.38543683  0.43754033  0.39901496  1.0
  Ti  Ti1004  1  0.38543683  0.77087367  0.39901496  1.0
  Ti  Ti1005  1  0.71877017  0.10420700  0.39901496  1.0
  Ti  Ti1006  1  0.71877017  0.43754033  0.39901496  1.0
  Ti  Ti1007  1  0.71877017  0.77087367  0.39901496  1.0
  Ti  Ti1008  1  0.21877017  0.22912633  0.41690668  1.0
  Ti  Ti1009  1  0.21877017  0.56245967  0.41690668  1.0
  Ti  Ti1010  1  0.21877017  0.89579300  0.41690668  1.0
  Ti  Ti1011  1  0.55210350  0.22912633  0.41690668  1.0
  Ti  Ti1012  1  0.55210350  0.56245967  0.41690668  1.0
  Ti  Ti1013  1  0.55210350  0.89579300  0.41690668  1.0
  Ti  Ti1014  1  0.88543683  0.22912633  0.41690668  1.0
  Ti  Ti1015  1  0.88543683  0.56245967  0.41690668  1.0
  Ti  Ti1016  1  0.88543683  0.89579300  0.41690668  1.0
  Ti  Ti1017  1  0.05210350  0.22912633  0.34547811  1.0
  Ti  Ti1018  1  0.05210350  0.56245967  0.34547811  1.0
  Ti  Ti1019  1  0.05210350  0.89579300  0.34547811  1.0
  Ti  Ti1020  1  0.38543683  0.22912633  0.34547811  1.0
  Ti  Ti1021  1  0.38543683  0.56245967  0.34547811  1.0
  Ti  Ti1022  1  0.38543683  0.89579300  0.34547811  1.0
  Ti  Ti1023  1  0.71877017  0.22912633  0.34547811  1.0
  Ti  Ti1024  1  0.71877017  0.56245967  0.34547811  1.0
  Ti  Ti1025  1  0.71877017  0.89579300  0.34547811  1.0
  Ti  Ti1026  1  0.28122983  0.10420700  0.35435482  1.0
  Ti  Ti1027  1  0.28122983  0.43754033  0.35435482  1.0
  Ti  Ti1028  1  0.28122983  0.77087367  0.35435482  1.0
  Ti  Ti1029  1  0.61456317  0.10420700  0.35435482  1.0
  Ti  Ti1030  1  0.61456317  0.43754033  0.35435482  1.0
  Ti  Ti1031  1  0.61456317  0.77087367  0.35435482  1.0
  Ti  Ti1032  1  0.94789650  0.10420700  0.35435482  1.0
  Ti  Ti1033  1  0.94789650  0.43754033  0.35435482  1.0
  Ti  Ti1034  1  0.94789650  0.77087367  0.35435482  1.0
  Ti  Ti1035  1  0.11456317  0.10420700  0.42578339  1.0
  Ti  Ti1036  1  0.11456317  0.43754033  0.42578339  1.0
  Ti  Ti1037  1  0.11456317  0.77087367  0.42578339  1.0
  Ti  Ti1038  1  0.44789650  0.10420700  0.42578339  1.0
  Ti  Ti1039  1  0.44789650  0.43754033  0.42578339  1.0
  Ti  Ti1040  1  0.44789650  0.77087367  0.42578339  1.0
  Ti  Ti1041  1  0.78122983  0.10420700  0.42578339  1.0
  Ti  Ti1042  1  0.78122983  0.43754033  0.42578339  1.0
  Ti  Ti1043  1  0.78122983  0.77087367  0.42578339  1.0
  Ti  Ti1044  1  0.32289650  0.14579300  0.37228111  1.0
  Ti  Ti1045  1  0.32289650  0.47912633  0.37228111  1.0
  Ti  Ti1046  1  0.32289650  0.81245967  0.37228111  1.0
  Ti  Ti1047  1  0.65622983  0.14579300  0.37228111  1.0
  Ti  Ti1048  1  0.65622983  0.47912633  0.37228111  1.0
  Ti  Ti1049  1  0.65622983  0.81245967  0.37228111  1.0
  Ti  Ti1050  1  0.98956317  0.14579300  0.37228111  1.0
  Ti  Ti1051  1  0.98956317  0.47912633  0.37228111  1.0
  Ti  Ti1052  1  0.98956317  0.81245967  0.37228111  1.0
  Ti  Ti1053  1  0.15622983  0.14579300  0.30085254  1.0
  Ti  Ti1054  1  0.15622983  0.47912633  0.30085254  1.0
  Ti  Ti1055  1  0.15622983  0.81245967  0.30085254  1.0
  Ti  Ti1056  1  0.48956317  0.14579300  0.30085254  1.0
  Ti  Ti1057  1  0.48956317  0.47912633  0.30085254  1.0
  Ti  Ti1058  1  0.48956317  0.81245967  0.30085254  1.0
  Ti  Ti1059  1  0.82289650  0.14579300  0.30085254  1.0
  Ti  Ti1060  1  0.82289650  0.47912633  0.30085254  1.0
  Ti  Ti1061  1  0.82289650  0.81245967  0.30085254  1.0
  Ti  Ti1062  1  0.26043683  0.02087367  0.36326611  1.0
  Ti  Ti1063  1  0.26043683  0.35420700  0.36326611  1.0
  Ti  Ti1064  1  0.26043683  0.68754033  0.36326611  1.0
  Ti  Ti1065  1  0.59377017  0.02087367  0.36326611  1.0
  Ti  Ti1066  1  0.59377017  0.35420700  0.36326611  1.0
  Ti  Ti1067  1  0.59377017  0.68754033  0.36326611  1.0
  Ti  Ti1068  1  0.92710350  0.02087367  0.36326611  1.0
  Ti  Ti1069  1  0.92710350  0.35420700  0.36326611  1.0
  Ti  Ti1070  1  0.92710350  0.68754033  0.36326611  1.0
  Ti  Ti1071  1  0.09377017  0.02087367  0.29183754  1.0
  Ti  Ti1072  1  0.09377017  0.35420700  0.29183754  1.0
  Ti  Ti1073  1  0.09377017  0.68754033  0.29183754  1.0
  Ti  Ti1074  1  0.42710350  0.02087367  0.29183754  1.0
  Ti  Ti1075  1  0.42710350  0.35420700  0.29183754  1.0
  Ti  Ti1076  1  0.42710350  0.68754033  0.29183754  1.0
  Ti  Ti1077  1  0.76043683  0.02087367  0.29183754  1.0
  Ti  Ti1078  1  0.76043683  0.35420700  0.29183754  1.0
  Ti  Ti1079  1  0.76043683  0.68754033  0.29183754  1.0
  Ti  Ti1080  1  0.26043683  0.02087367  0.30972925  1.0
  Ti  Ti1081  1  0.26043683  0.35420700  0.30972925  1.0
  Ti  Ti1082  1  0.26043683  0.68754033  0.30972925  1.0
  Ti  Ti1083  1  0.59377017  0.02087367  0.30972925  1.0
  Ti  Ti1084  1  0.59377017  0.35420700  0.30972925  1.0
  Ti  Ti1085  1  0.59377017  0.68754033  0.30972925  1.0
  Ti  Ti1086  1  0.92710350  0.02087367  0.30972925  1.0
  Ti  Ti1087  1  0.92710350  0.35420700  0.30972925  1.0
  Ti  Ti1088  1  0.92710350  0.68754033  0.30972925  1.0
  Ti  Ti1089  1  0.09377017  0.02087367  0.38115782  1.0
  Ti  Ti1090  1  0.09377017  0.35420700  0.38115782  1.0
  Ti  Ti1091  1  0.09377017  0.68754033  0.38115782  1.0
  Ti  Ti1092  1  0.42710350  0.02087367  0.38115782  1.0
  Ti  Ti1093  1  0.42710350  0.35420700  0.38115782  1.0
  Ti  Ti1094  1  0.42710350  0.68754033  0.38115782  1.0
  Ti  Ti1095  1  0.76043683  0.02087367  0.38115782  1.0
  Ti  Ti1096  1  0.76043683  0.35420700  0.38115782  1.0
  Ti  Ti1097  1  0.76043683  0.68754033  0.38115782  1.0
  Ti  Ti1098  1  0.32289650  0.14579300  0.42581796  1.0
  Ti  Ti1099  1  0.32289650  0.47912633  0.42581796  1.0
  Ti  Ti1100  1  0.32289650  0.81245967  0.42581796  1.0
  Ti  Ti1101  1  0.65622983  0.14579300  0.42581796  1.0
  Ti  Ti1102  1  0.65622983  0.47912633  0.42581796  1.0
  Ti  Ti1103  1  0.65622983  0.81245967  0.42581796  1.0
  Ti  Ti1104  1  0.98956317  0.14579300  0.42581796  1.0
  Ti  Ti1105  1  0.98956317  0.47912633  0.42581796  1.0
  Ti  Ti1106  1  0.98956317  0.81245967  0.42581796  1.0
  Ti  Ti1107  1  0.15622983  0.14579300  0.35438939  1.0
  Ti  Ti1108  1  0.15622983  0.47912633  0.35438939  1.0
  Ti  Ti1109  1  0.15622983  0.81245967  0.35438939  1.0
  Ti  Ti1110  1  0.48956317  0.14579300  0.35438939  1.0
  Ti  Ti1111  1  0.48956317  0.47912633  0.35438939  1.0
  Ti  Ti1112  1  0.48956317  0.81245967  0.35438939  1.0
  Ti  Ti1113  1  0.82289650  0.14579300  0.35438939  1.0
  Ti  Ti1114  1  0.82289650  0.47912633  0.35438939  1.0
  Ti  Ti1115  1  0.82289650  0.81245967  0.35438939  1.0
  Ti  Ti1116  1  0.32289650  0.02087367  0.33649768  1.0
  Ti  Ti1117  1  0.32289650  0.35420700  0.33649768  1.0
  Ti  Ti1118  1  0.32289650  0.68754033  0.33649768  1.0
  Ti  Ti1119  1  0.65622983  0.02087367  0.33649768  1.0
  Ti  Ti1120  1  0.65622983  0.35420700  0.33649768  1.0
  Ti  Ti1121  1  0.65622983  0.68754033  0.33649768  1.0
  Ti  Ti1122  1  0.98956317  0.02087367  0.33649768  1.0
  Ti  Ti1123  1  0.98956317  0.35420700  0.33649768  1.0
  Ti  Ti1124  1  0.98956317  0.68754033  0.33649768  1.0
  Ti  Ti1125  1  0.15622983  0.02087367  0.40792625  1.0
  Ti  Ti1126  1  0.15622983  0.35420700  0.40792625  1.0
  Ti  Ti1127  1  0.15622983  0.68754033  0.40792625  1.0
  Ti  Ti1128  1  0.48956317  0.02087367  0.40792625  1.0
  Ti  Ti1129  1  0.48956317  0.35420700  0.40792625  1.0
  Ti  Ti1130  1  0.48956317  0.68754033  0.40792625  1.0
  Ti  Ti1131  1  0.82289650  0.02087367  0.40792625  1.0
  Ti  Ti1132  1  0.82289650  0.35420700  0.40792625  1.0
  Ti  Ti1133  1  0.82289650  0.68754033  0.40792625  1.0
  Ti  Ti1134  1  0.26043683  0.14579300  0.39904954  1.0
  Ti  Ti1135  1  0.26043683  0.47912633  0.39904954  1.0
  Ti  Ti1136  1  0.26043683  0.81245967  0.39904954  1.0
  Ti  Ti1137  1  0.59377017  0.14579300  0.39904954  1.0
  Ti  Ti1138  1  0.59377017  0.47912633  0.39904954  1.0
  Ti  Ti1139  1  0.59377017  0.81245967  0.39904954  1.0
  Ti  Ti1140  1  0.92710350  0.14579300  0.39904954  1.0
  Ti  Ti1141  1  0.92710350  0.47912633  0.39904954  1.0
  Ti  Ti1142  1  0.92710350  0.81245967  0.39904954  1.0
  Ti  Ti1143  1  0.09377017  0.14579300  0.32762096  1.0
  Ti  Ti1144  1  0.09377017  0.47912633  0.32762096  1.0
  Ti  Ti1145  1  0.09377017  0.81245967  0.32762096  1.0
  Ti  Ti1146  1  0.42710350  0.14579300  0.32762096  1.0
  Ti  Ti1147  1  0.42710350  0.47912633  0.32762096  1.0
  Ti  Ti1148  1  0.42710350  0.81245967  0.32762096  1.0
  Ti  Ti1149  1  0.76043683  0.14579300  0.32762096  1.0
  Ti  Ti1150  1  0.76043683  0.47912633  0.32762096  1.0
  Ti  Ti1151  1  0.76043683  0.81245967  0.32762096  1.0
  Ni  Ni1152  1  0.31858645  0.02949378  0.37710437  1.0
  Ni  Ni1153  1  0.31858644  0.36282711  0.37710437  1.0
  Ni  Ni1154  1  0.31858644  0.69616044  0.37710437  1.0
  Ni  Ni1155  1  0.65191978  0.02949378  0.37710437  1.0
  Ni  Ni1156  1  0.65191978  0.36282711  0.37710437  1.0
  Ni  Ni1157  1  0.65191978  0.69616044  0.37710437  1.0
  Ni  Ni1158  1  0.98525311  0.02949378  0.37710437  1.0
  Ni  Ni1159  1  0.98525311  0.36282711  0.37710437  1.0
  Ni  Ni1160  1  0.98525311  0.69616044  0.37710437  1.0
  Ni  Ni1161  1  0.15191978  0.02949378  0.30567580  1.0
  Ni  Ni1162  1  0.15191978  0.36282711  0.30567580  1.0
  Ni  Ni1163  1  0.15191978  0.69616044  0.30567580  1.0
  Ni  Ni1164  1  0.48525311  0.02949378  0.30567580  1.0
  Ni  Ni1165  1  0.48525311  0.36282711  0.30567580  1.0
  Ni  Ni1166  1  0.48525311  0.69616044  0.30567580  1.0
  Ni  Ni1167  1  0.81858645  0.02949378  0.30567580  1.0
  Ni  Ni1168  1  0.81858644  0.36282711  0.30567580  1.0
  Ni  Ni1169  1  0.81858644  0.69616044  0.30567580  1.0
  Ni  Ni1170  1  0.21090733  0.02949378  0.33095618  1.0
  Ni  Ni1171  1  0.21090733  0.36282711  0.33095618  1.0
  Ni  Ni1172  1  0.21090733  0.69616044  0.33095618  1.0
  Ni  Ni1173  1  0.54424067  0.02949378  0.33095618  1.0
  Ni  Ni1174  1  0.54424067  0.36282711  0.33095618  1.0
  Ni  Ni1175  1  0.54424067  0.69616044  0.33095618  1.0
  Ni  Ni1176  1  0.87757400  0.02949378  0.33095618  1.0
  Ni  Ni1177  1  0.87757400  0.36282711  0.33095618  1.0
  Ni  Ni1178  1  0.87757400  0.69616044  0.33095618  1.0
  Ni  Ni1179  1  0.04424067  0.02949378  0.40238475  1.0
  Ni  Ni1180  1  0.04424067  0.36282711  0.40238475  1.0
  Ni  Ni1181  1  0.04424067  0.69616044  0.40238475  1.0
  Ni  Ni1182  1  0.37757400  0.02949378  0.40238475  1.0
  Ni  Ni1183  1  0.37757400  0.36282711  0.40238475  1.0
  Ni  Ni1184  1  0.37757400  0.69616044  0.40238475  1.0
  Ni  Ni1185  1  0.71090733  0.02949378  0.40238475  1.0
  Ni  Ni1186  1  0.71090733  0.36282711  0.40238475  1.0
  Ni  Ni1187  1  0.71090733  0.69616044  0.40238475  1.0
  Ni  Ni1188  1  0.31858644  0.24485200  0.33536875  1.0
  Ni  Ni1189  1  0.31858644  0.57818533  0.33536875  1.0
  Ni  Ni1190  1  0.31858644  0.91151867  0.33536875  1.0
  Ni  Ni1191  1  0.65191978  0.24485200  0.33536875  1.0
  Ni  Ni1192  1  0.65191978  0.57818533  0.33536875  1.0
  Ni  Ni1193  1  0.65191978  0.91151867  0.33536875  1.0
  Ni  Ni1194  1  0.98525311  0.24485200  0.33536875  1.0
  Ni  Ni1195  1  0.98525311  0.57818533  0.33536875  1.0
  Ni  Ni1196  1  0.98525311  0.91151867  0.33536875  1.0
  Ni  Ni1197  1  0.15191978  0.24485200  0.40679732  1.0
  Ni  Ni1198  1  0.15191978  0.57818533  0.40679732  1.0
  Ni  Ni1199  1  0.15191978  0.91151867  0.40679732  1.0
  Ni  Ni1200  1  0.48525311  0.24485200  0.40679732  1.0
  Ni  Ni1201  1  0.48525311  0.57818533  0.40679732  1.0
  Ni  Ni1202  1  0.48525311  0.91151867  0.40679732  1.0
  Ni  Ni1203  1  0.81858644  0.24485200  0.40679732  1.0
  Ni  Ni1204  1  0.81858645  0.57818533  0.40679732  1.0
  Ni  Ni1205  1  0.81858644  0.91151867  0.40679732  1.0
  Ni  Ni1206  1  0.31858645  0.02949378  0.42766513  1.0
  Ni  Ni1207  1  0.31858645  0.36282711  0.42766513  1.0
  Ni  Ni1208  1  0.31858645  0.69616044  0.42766513  1.0
  Ni  Ni1209  1  0.65191978  0.02949378  0.42766513  1.0
  Ni  Ni1210  1  0.65191978  0.36282711  0.42766513  1.0
  Ni  Ni1211  1  0.65191978  0.69616044  0.42766513  1.0
  Ni  Ni1212  1  0.98525311  0.02949378  0.42766513  1.0
  Ni  Ni1213  1  0.98525311  0.36282711  0.42766513  1.0
  Ni  Ni1214  1  0.98525311  0.69616044  0.42766513  1.0
  Ni  Ni1215  1  0.15191978  0.02949378  0.35623656  1.0
  Ni  Ni1216  1  0.15191978  0.36282711  0.35623656  1.0
  Ni  Ni1217  1  0.15191978  0.69616044  0.35623656  1.0
  Ni  Ni1218  1  0.48525311  0.02949378  0.35623656  1.0
  Ni  Ni1219  1  0.48525311  0.36282711  0.35623656  1.0
  Ni  Ni1220  1  0.48525311  0.69616044  0.35623656  1.0
  Ni  Ni1221  1  0.81858645  0.02949378  0.35623656  1.0
  Ni  Ni1222  1  0.81858644  0.36282711  0.35623656  1.0
  Ni  Ni1223  1  0.81858644  0.69616044  0.35623656  1.0
  Ni  Ni1224  1  0.22308022  0.22050622  0.37629999  1.0
  Ni  Ni1225  1  0.22308022  0.55383956  0.37629999  1.0
  Ni  Ni1226  1  0.22308022  0.88717289  0.37629999  1.0
  Ni  Ni1227  1  0.55641356  0.22050622  0.37629999  1.0
  Ni  Ni1228  1  0.55641356  0.55383956  0.37629999  1.0
  Ni  Ni1229  1  0.55641356  0.88717289  0.37629999  1.0
  Ni  Ni1230  1  0.88974689  0.22050622  0.37629999  1.0
  Ni  Ni1231  1  0.88974689  0.55383956  0.37629999  1.0
  Ni  Ni1232  1  0.88974689  0.88717289  0.37629999  1.0
  Ni  Ni1233  1  0.05641356  0.22050622  0.30487142  1.0
  Ni  Ni1234  1  0.05641355  0.55383956  0.30487142  1.0
  Ni  Ni1235  1  0.05641355  0.88717289  0.30487142  1.0
  Ni  Ni1236  1  0.38974689  0.22050622  0.30487142  1.0
  Ni  Ni1237  1  0.38974689  0.55383956  0.30487142  1.0
  Ni  Ni1238  1  0.38974689  0.88717289  0.30487142  1.0
  Ni  Ni1239  1  0.72308022  0.22050622  0.30487142  1.0
  Ni  Ni1240  1  0.72308022  0.55383956  0.30487142  1.0
  Ni  Ni1241  1  0.72308022  0.88717289  0.30487142  1.0
  Ni  Ni1242  1  0.33075933  0.22050622  0.42244818  1.0
  Ni  Ni1243  1  0.33075933  0.55383956  0.42244818  1.0
  Ni  Ni1244  1  0.33075933  0.88717289  0.42244818  1.0
  Ni  Ni1245  1  0.66409267  0.22050622  0.42244818  1.0
  Ni  Ni1246  1  0.66409267  0.55383956  0.42244818  1.0
  Ni  Ni1247  1  0.66409267  0.88717289  0.42244818  1.0
  Ni  Ni1248  1  0.99742600  0.22050622  0.42244818  1.0
  Ni  Ni1249  1  0.99742600  0.55383956  0.42244818  1.0
  Ni  Ni1250  1  0.99742600  0.88717289  0.42244818  1.0
  Ni  Ni1251  1  0.16409267  0.22050622  0.35101961  1.0
  Ni  Ni1252  1  0.16409267  0.55383956  0.35101961  1.0
  Ni  Ni1253  1  0.16409267  0.88717289  0.35101961  1.0
  Ni  Ni1254  1  0.49742600  0.22050622  0.35101961  1.0
  Ni  Ni1255  1  0.49742600  0.55383956  0.35101961  1.0
  Ni  Ni1256  1  0.49742600  0.88717289  0.35101961  1.0
  Ni  Ni1257  1  0.83075933  0.22050622  0.35101961  1.0
  Ni  Ni1258  1  0.83075933  0.55383956  0.35101961  1.0
  Ni  Ni1259  1  0.83075933  0.88717289  0.35101961  1.0
  Ni  Ni1260  1  0.22308022  0.00514800  0.41803561  1.0
  Ni  Ni1261  1  0.22308022  0.33848133  0.41803561  1.0
  Ni  Ni1262  1  0.22308022  0.67181467  0.41803561  1.0
  Ni  Ni1263  1  0.55641356  0.00514800  0.41803561  1.0
  Ni  Ni1264  1  0.55641356  0.33848133  0.41803561  1.0
  Ni  Ni1265  1  0.55641356  0.67181467  0.41803561  1.0
  Ni  Ni1266  1  0.88974689  0.00514800  0.41803561  1.0
  Ni  Ni1267  1  0.88974689  0.33848133  0.41803561  1.0
  Ni  Ni1268  1  0.88974689  0.67181467  0.41803561  1.0
  Ni  Ni1269  1  0.05641355  0.00514800  0.34660704  1.0
  Ni  Ni1270  1  0.05641355  0.33848133  0.34660704  1.0
  Ni  Ni1271  1  0.05641355  0.67181467  0.34660704  1.0
  Ni  Ni1272  1  0.38974689  0.00514800  0.34660704  1.0
  Ni  Ni1273  1  0.38974689  0.33848133  0.34660704  1.0
  Ni  Ni1274  1  0.38974689  0.67181467  0.34660704  1.0
  Ni  Ni1275  1  0.72308022  0.00514800  0.34660704  1.0
  Ni  Ni1276  1  0.72308022  0.33848133  0.34660704  1.0
  Ni  Ni1277  1  0.72308022  0.67181467  0.34660704  1.0
  Ni  Ni1278  1  0.22308022  0.22050622  0.32573923  1.0
  Ni  Ni1279  1  0.22308022  0.55383956  0.32573923  1.0
  Ni  Ni1280  1  0.22308022  0.88717289  0.32573923  1.0
  Ni  Ni1281  1  0.55641356  0.22050622  0.32573923  1.0
  Ni  Ni1282  1  0.55641356  0.55383956  0.32573923  1.0
  Ni  Ni1283  1  0.55641356  0.88717289  0.32573923  1.0
  Ni  Ni1284  1  0.88974689  0.22050622  0.32573923  1.0
  Ni  Ni1285  1  0.88974689  0.55383956  0.32573923  1.0
  Ni  Ni1286  1  0.88974689  0.88717289  0.32573923  1.0
  Ni  Ni1287  1  0.05641356  0.22050622  0.39716780  1.0
  Ni  Ni1288  1  0.05641355  0.55383956  0.39716780  1.0
  Ni  Ni1289  1  0.05641356  0.88717289  0.39716780  1.0
  Ni  Ni1290  1  0.38974689  0.22050622  0.39716780  1.0
  Ni  Ni1291  1  0.38974689  0.55383956  0.39716780  1.0
  Ni  Ni1292  1  0.38974689  0.88717289  0.39716780  1.0
  Ni  Ni1293  1  0.72308022  0.22050622  0.39716780  1.0
  Ni  Ni1294  1  0.72308022  0.55383956  0.39716780  1.0
  Ni  Ni1295  1  0.72308022  0.88717289  0.39716780  1.0
