# generated using pymatgen
data_Ti2Ni
_symmetry_space_group_name_H-M   'P 1'
_cell_length_a   23.91783597
_cell_length_b   33.82492801
_cell_length_c   31.89044796
_cell_angle_alpha   90.00000000
_cell_angle_beta   90.00000000
_cell_angle_gamma   90.00000000
_symmetry_Int_Tables_number   1
_chemical_formula_structural   Ti2Ni
_chemical_formula_sum   'Ti576 Ni288'
_cell_volume   25799.98086535
_cell_formula_units_Z   288
loop_
 _symmetry_equiv_pos_site_id
 _symmetry_equiv_pos_as_xyz
  1  'x, y, z'
loop_
 _atom_site_type_symbol
 _atom_site_label
 _atom_site_symmetry_multiplicity
 _atom_site_fract_x
 _atom_site_fract_y
 _atom_site_fract_z
 _atom_site_occupancy
  Ni  Ni0  1  0.33333333  0.30383956  0.97787966  1.0
  Ni  Ni1  1  0.33333333  0.63717289  0.97787966  1.0
  Ni  Ni2  1  0.33333333  0.97050622  0.97787966  1.0
  Ni  Ni3  1  0.66666667  0.30383956  0.97787966  1.0
  Ni  Ni4  1  0.66666667  0.63717289  0.97787966  1.0
  Ni  Ni5  1  0.66666667  0.97050622  0.97787966  1.0
  Ni  Ni6  1  1.00000000  0.30383956  0.97787966  1.0
  Ni  Ni7  1  1.00000000  0.63717289  0.97787966  1.0
  Ni  Ni8  1  1.00000000  0.97050622  0.97787966  1.0
  Ni  Ni9  1  0.16666667  0.13717289  0.85287966  1.0
  Ni  Ni10  1  0.16666667  0.47050622  0.85287966  1.0
  Ni  Ni11  1  0.16666667  0.80383956  0.85287966  1.0
  Ni  Ni12  1  0.50000000  0.13717289  0.85287966  1.0
  Ni  Ni13  1  0.50000000  0.47050622  0.85287966  1.0
  Ni  Ni14  1  0.50000000  0.80383956  0.85287966  1.0
  Ni  Ni15  1  0.83333333  0.13717289  0.85287966  1.0
  Ni  Ni16  1  0.83333333  0.47050622  0.85287966  1.0
  Ni  Ni17  1  0.83333333  0.80383956  0.85287966  1.0
  Ni  Ni18  1  0.10767911  0.19616044  0.89712033  1.0
  Ni  Ni19  1  0.10767911  0.52949378  0.89712033  1.0
  Ni  Ni20  1  0.10767911  0.86282711  0.89712033  1.0
  Ni  Ni21  1  0.44101244  0.19616044  0.89712033  1.0
  Ni  Ni22  1  0.44101244  0.52949378  0.89712033  1.0
  Ni  Ni23  1  0.44101244  0.86282711  0.89712033  1.0
  Ni  Ni24  1  0.77434578  0.19616044  0.89712033  1.0
  Ni  Ni25  1  0.77434578  0.52949378  0.89712033  1.0
  Ni  Ni26  1  0.77434578  0.86282711  0.89712033  1.0
  Ni  Ni27  1  0.27434578  0.02949378  0.77212033  1.0
  Ni  Ni28  1  0.27434578  0.36282711  0.77212033  1.0
  Ni  Ni29  1  0.27434578  0.69616044  0.77212033  1.0
  Ni  Ni30  1  0.60767911  0.02949378  0.77212033  1.0
  Ni  Ni31  1  0.60767911  0.36282711  0.77212033  1.0
  Ni  Ni32  1  0.60767911  0.69616044  0.77212033  1.0
  Ni  Ni33  1  0.94101244  0.02949378  0.77212033  1.0
  Ni  Ni34  1  0.94101244  0.36282711  0.77212033  1.0
  Ni  Ni35  1  0.94101245  0.69616044  0.77212033  1.0
  Ni  Ni36  1  0.22565422  0.19616045  0.89712033  1.0
  Ni  Ni37  1  0.22565422  0.52949378  0.89712033  1.0
  Ni  Ni38  1  0.22565422  0.86282711  0.89712033  1.0
  Ni  Ni39  1  0.55898755  0.19616045  0.89712033  1.0
  Ni  Ni40  1  0.55898755  0.52949378  0.89712033  1.0
  Ni  Ni41  1  0.55898755  0.86282711  0.89712033  1.0
  Ni  Ni42  1  0.89232089  0.19616045  0.89712033  1.0
  Ni  Ni43  1  0.89232089  0.52949378  0.89712033  1.0
  Ni  Ni44  1  0.89232089  0.86282711  0.89712033  1.0
  Ni  Ni45  1  0.05898755  0.02949378  0.77212033  1.0
  Ni  Ni46  1  0.05898755  0.36282711  0.77212033  1.0
  Ni  Ni47  1  0.05898755  0.69616044  0.77212033  1.0
  Ni  Ni48  1  0.39232089  0.02949378  0.77212033  1.0
  Ni  Ni49  1  0.39232089  0.36282711  0.77212033  1.0
  Ni  Ni50  1  0.39232089  0.69616044  0.77212033  1.0
  Ni  Ni51  1  0.72565422  0.02949378  0.77212033  1.0
  Ni  Ni52  1  0.72565422  0.36282711  0.77212033  1.0
  Ni  Ni53  1  0.72565422  0.69616044  0.77212033  1.0
  Ni  Ni54  1  0.33333333  0.30383956  0.81636100  1.0
  Ni  Ni55  1  0.33333333  0.63717289  0.81636100  1.0
  Ni  Ni56  1  0.33333333  0.97050622  0.81636100  1.0
  Ni  Ni57  1  0.66666667  0.30383956  0.81636100  1.0
  Ni  Ni58  1  0.66666667  0.63717289  0.81636100  1.0
  Ni  Ni59  1  0.66666667  0.97050622  0.81636100  1.0
  Ni  Ni60  1  1.00000000  0.30383956  0.81636100  1.0
  Ni  Ni61  1  1.00000000  0.63717289  0.81636100  1.0
  Ni  Ni62  1  1.00000000  0.97050622  0.81636100  1.0
  Ni  Ni63  1  0.16666667  0.13717289  0.94136100  1.0
  Ni  Ni64  1  0.16666667  0.47050622  0.94136100  1.0
  Ni  Ni65  1  0.16666667  0.80383956  0.94136100  1.0
  Ni  Ni66  1  0.50000000  0.13717289  0.94136100  1.0
  Ni  Ni67  1  0.50000000  0.47050622  0.94136100  1.0
  Ni  Ni68  1  0.50000000  0.80383956  0.94136100  1.0
  Ni  Ni69  1  0.83333333  0.13717289  0.94136100  1.0
  Ni  Ni70  1  0.83333333  0.47050622  0.94136100  1.0
  Ni  Ni71  1  0.83333333  0.80383956  0.94136100  1.0
  Ni  Ni72  1  0.33333333  0.11282711  0.94136100  1.0
  Ni  Ni73  1  0.33333333  0.44616044  0.94136100  1.0
  Ni  Ni74  1  0.33333333  0.77949378  0.94136100  1.0
  Ni  Ni75  1  0.66666667  0.11282711  0.94136100  1.0
  Ni  Ni76  1  0.66666667  0.44616044  0.94136100  1.0
  Ni  Ni77  1  0.66666667  0.77949378  0.94136100  1.0
  Ni  Ni78  1  0.00000000  0.11282711  0.94136100  1.0
  Ni  Ni79  1  0.00000000  0.44616044  0.94136100  1.0
  Ni  Ni80  1  0.00000000  0.77949378  0.94136100  1.0
  Ni  Ni81  1  0.16666667  0.27949378  0.81636100  1.0
  Ni  Ni82  1  0.16666667  0.61282711  0.81636100  1.0
  Ni  Ni83  1  0.16666667  0.94616044  0.81636100  1.0
  Ni  Ni84  1  0.50000000  0.27949378  0.81636100  1.0
  Ni  Ni85  1  0.50000000  0.61282711  0.81636100  1.0
  Ni  Ni86  1  0.50000000  0.94616044  0.81636100  1.0
  Ni  Ni87  1  0.83333333  0.27949378  0.81636100  1.0
  Ni  Ni88  1  0.83333333  0.61282711  0.81636100  1.0
  Ni  Ni89  1  0.83333333  0.94616044  0.81636100  1.0
  Ni  Ni90  1  0.22565422  0.22050622  0.77212033  1.0
  Ni  Ni91  1  0.22565422  0.55383955  0.77212033  1.0
  Ni  Ni92  1  0.22565422  0.88717289  0.77212033  1.0
  Ni  Ni93  1  0.55898755  0.22050622  0.77212033  1.0
  Ni  Ni94  1  0.55898755  0.55383955  0.77212033  1.0
  Ni  Ni95  1  0.55898755  0.88717289  0.77212033  1.0
  Ni  Ni96  1  0.89232089  0.22050622  0.77212033  1.0
  Ni  Ni97  1  0.89232089  0.55383955  0.77212033  1.0
  Ni  Ni98  1  0.89232089  0.88717289  0.77212033  1.0
  Ni  Ni99  1  0.05898755  0.05383955  0.89712033  1.0
  Ni  Ni100  1  0.05898755  0.38717289  0.89712033  1.0
  Ni  Ni101  1  0.05898755  0.72050622  0.89712033  1.0
  Ni  Ni102  1  0.39232089  0.05383955  0.89712033  1.0
  Ni  Ni103  1  0.39232089  0.38717289  0.89712033  1.0
  Ni  Ni104  1  0.39232089  0.72050622  0.89712033  1.0
  Ni  Ni105  1  0.72565422  0.05383955  0.89712033  1.0
  Ni  Ni106  1  0.72565422  0.38717289  0.89712033  1.0
  Ni  Ni107  1  0.72565422  0.72050622  0.89712033  1.0
  Ni  Ni108  1  0.10767911  0.22050622  0.77212033  1.0
  Ni  Ni109  1  0.10767911  0.55383956  0.77212033  1.0
  Ni  Ni110  1  0.10767911  0.88717289  0.77212033  1.0
  Ni  Ni111  1  0.44101244  0.22050622  0.77212033  1.0
  Ni  Ni112  1  0.44101244  0.55383956  0.77212033  1.0
  Ni  Ni113  1  0.44101244  0.88717289  0.77212033  1.0
  Ni  Ni114  1  0.77434578  0.22050622  0.77212033  1.0
  Ni  Ni115  1  0.77434578  0.55383956  0.77212033  1.0
  Ni  Ni116  1  0.77434578  0.88717289  0.77212033  1.0
  Ni  Ni117  1  0.27434578  0.05383955  0.89712033  1.0
  Ni  Ni118  1  0.27434578  0.38717289  0.89712033  1.0
  Ni  Ni119  1  0.27434578  0.72050622  0.89712033  1.0
  Ni  Ni120  1  0.60767911  0.05383955  0.89712033  1.0
  Ni  Ni121  1  0.60767911  0.38717289  0.89712033  1.0
  Ni  Ni122  1  0.60767911  0.72050622  0.89712033  1.0
  Ni  Ni123  1  0.94101244  0.05383955  0.89712033  1.0
  Ni  Ni124  1  0.94101244  0.38717289  0.89712033  1.0
  Ni  Ni125  1  0.94101244  0.72050622  0.89712033  1.0
  Ni  Ni126  1  0.33333333  0.11282711  0.85287967  1.0
  Ni  Ni127  1  0.33333333  0.44616044  0.85287967  1.0
  Ni  Ni128  1  0.33333333  0.77949378  0.85287967  1.0
  Ni  Ni129  1  0.66666667  0.11282711  0.85287967  1.0
  Ni  Ni130  1  0.66666667  0.44616044  0.85287967  1.0
  Ni  Ni131  1  0.66666667  0.77949378  0.85287967  1.0
  Ni  Ni132  1  0.00000000  0.11282711  0.85287967  1.0
  Ni  Ni133  1  0.00000000  0.44616044  0.85287967  1.0
  Ni  Ni134  1  0.00000000  0.77949378  0.85287967  1.0
  Ni  Ni135  1  0.16666667  0.27949378  0.97787967  1.0
  Ni  Ni136  1  0.16666667  0.61282711  0.97787967  1.0
  Ni  Ni137  1  0.16666667  0.94616044  0.97787967  1.0
  Ni  Ni138  1  0.50000000  0.27949378  0.97787967  1.0
  Ni  Ni139  1  0.50000000  0.61282711  0.97787967  1.0
  Ni  Ni140  1  0.50000000  0.94616044  0.97787967  1.0
  Ni  Ni141  1  0.83333333  0.27949378  0.97787967  1.0
  Ni  Ni142  1  0.83333333  0.61282711  0.97787967  1.0
  Ni  Ni143  1  0.83333333  0.94616044  0.97787967  1.0
  Ni  Ni144  1  0.33333333  0.30383956  0.72787966  1.0
  Ni  Ni145  1  0.33333333  0.63717289  0.72787966  1.0
  Ni  Ni146  1  0.33333333  0.97050622  0.72787966  1.0
  Ni  Ni147  1  0.66666667  0.30383956  0.72787966  1.0
  Ni  Ni148  1  0.66666667  0.63717289  0.72787966  1.0
  Ni  Ni149  1  0.66666667  0.97050622  0.72787966  1.0
  Ni  Ni150  1  1.00000000  0.30383956  0.72787966  1.0
  Ni  Ni151  1  1.00000000  0.63717289  0.72787966  1.0
  Ni  Ni152  1  1.00000000  0.97050622  0.72787966  1.0
  Ni  Ni153  1  0.16666667  0.13717289  0.60287966  1.0
  Ni  Ni154  1  0.16666667  0.47050622  0.60287966  1.0
  Ni  Ni155  1  0.16666667  0.80383956  0.60287966  1.0
  Ni  Ni156  1  0.50000000  0.13717289  0.60287966  1.0
  Ni  Ni157  1  0.50000000  0.47050622  0.60287966  1.0
  Ni  Ni158  1  0.50000000  0.80383956  0.60287966  1.0
  Ni  Ni159  1  0.83333333  0.13717289  0.60287966  1.0
  Ni  Ni160  1  0.83333333  0.47050622  0.60287966  1.0
  Ni  Ni161  1  0.83333333  0.80383956  0.60287966  1.0
  Ni  Ni162  1  0.10767911  0.19616045  0.64712033  1.0
  Ni  Ni163  1  0.10767911  0.52949378  0.64712033  1.0
  Ni  Ni164  1  0.10767911  0.86282711  0.64712033  1.0
  Ni  Ni165  1  0.44101244  0.19616045  0.64712033  1.0
  Ni  Ni166  1  0.44101244  0.52949378  0.64712033  1.0
  Ni  Ni167  1  0.44101244  0.86282711  0.64712033  1.0
  Ni  Ni168  1  0.77434578  0.19616045  0.64712033  1.0
  Ni  Ni169  1  0.77434578  0.52949378  0.64712033  1.0
  Ni  Ni170  1  0.77434578  0.86282711  0.64712033  1.0
  Ni  Ni171  1  0.27434578  0.02949378  0.52212033  1.0
  Ni  Ni172  1  0.27434578  0.36282711  0.52212033  1.0
  Ni  Ni173  1  0.27434578  0.69616044  0.52212033  1.0
  Ni  Ni174  1  0.60767911  0.02949378  0.52212033  1.0
  Ni  Ni175  1  0.60767911  0.36282711  0.52212033  1.0
  Ni  Ni176  1  0.60767911  0.69616044  0.52212033  1.0
  Ni  Ni177  1  0.94101245  0.02949378  0.52212033  1.0
  Ni  Ni178  1  0.94101245  0.36282711  0.52212033  1.0
  Ni  Ni179  1  0.94101245  0.69616044  0.52212033  1.0
  Ni  Ni180  1  0.22565422  0.19616045  0.64712033  1.0
  Ni  Ni181  1  0.22565422  0.52949378  0.64712033  1.0
  Ni  Ni182  1  0.22565422  0.86282711  0.64712033  1.0
  Ni  Ni183  1  0.55898755  0.19616045  0.64712033  1.0
  Ni  Ni184  1  0.55898755  0.52949378  0.64712033  1.0
  Ni  Ni185  1  0.55898756  0.86282711  0.64712033  1.0
  Ni  Ni186  1  0.89232089  0.19616045  0.64712033  1.0
  Ni  Ni187  1  0.89232089  0.52949378  0.64712033  1.0
  Ni  Ni188  1  0.89232089  0.86282711  0.64712033  1.0
  Ni  Ni189  1  0.05898755  0.02949378  0.52212033  1.0
  Ni  Ni190  1  0.05898755  0.36282711  0.52212033  1.0
  Ni  Ni191  1  0.05898755  0.69616044  0.52212033  1.0
  Ni  Ni192  1  0.39232089  0.02949378  0.52212033  1.0
  Ni  Ni193  1  0.39232089  0.36282711  0.52212033  1.0
  Ni  Ni194  1  0.39232089  0.69616044  0.52212033  1.0
  Ni  Ni195  1  0.72565422  0.02949378  0.52212033  1.0
  Ni  Ni196  1  0.72565422  0.36282711  0.52212033  1.0
  Ni  Ni197  1  0.72565422  0.69616044  0.52212033  1.0
  Ni  Ni198  1  0.33333333  0.30383956  0.56636100  1.0
  Ni  Ni199  1  0.33333333  0.63717289  0.56636100  1.0
  Ni  Ni200  1  0.33333333  0.97050622  0.56636100  1.0
  Ni  Ni201  1  0.66666667  0.30383956  0.56636100  1.0
  Ni  Ni202  1  0.66666667  0.63717289  0.56636100  1.0
  Ni  Ni203  1  0.66666667  0.97050622  0.56636100  1.0
  Ni  Ni204  1  1.00000000  0.30383956  0.56636100  1.0
  Ni  Ni205  1  1.00000000  0.63717289  0.56636100  1.0
  Ni  Ni206  1  1.00000000  0.97050622  0.56636100  1.0
  Ni  Ni207  1  0.16666667  0.13717289  0.69136100  1.0
  Ni  Ni208  1  0.16666667  0.47050622  0.69136100  1.0
  Ni  Ni209  1  0.16666667  0.80383956  0.69136100  1.0
  Ni  Ni210  1  0.50000000  0.13717289  0.69136100  1.0
  Ni  Ni211  1  0.50000000  0.47050622  0.69136100  1.0
  Ni  Ni212  1  0.50000000  0.80383956  0.69136100  1.0
  Ni  Ni213  1  0.83333333  0.13717289  0.69136100  1.0
  Ni  Ni214  1  0.83333333  0.47050622  0.69136100  1.0
  Ni  Ni215  1  0.83333333  0.80383956  0.69136100  1.0
  Ni  Ni216  1  0.33333333  0.11282711  0.69136100  1.0
  Ni  Ni217  1  0.33333333  0.44616044  0.69136100  1.0
  Ni  Ni218  1  0.33333333  0.77949378  0.69136100  1.0
  Ni  Ni219  1  0.66666667  0.11282711  0.69136100  1.0
  Ni  Ni220  1  0.66666667  0.44616044  0.69136100  1.0
  Ni  Ni221  1  0.66666667  0.77949378  0.69136100  1.0
  Ni  Ni222  1  1.00000000  0.11282711  0.69136100  1.0
  Ni  Ni223  1  1.00000000  0.44616044  0.69136100  1.0
  Ni  Ni224  1  0.00000000  0.77949378  0.69136100  1.0
  Ni  Ni225  1  0.16666667  0.27949378  0.56636100  1.0
  Ni  Ni226  1  0.16666667  0.61282711  0.56636100  1.0
  Ni  Ni227  1  0.16666667  0.94616044  0.56636100  1.0
  Ni  Ni228  1  0.50000000  0.27949378  0.56636100  1.0
  Ni  Ni229  1  0.50000000  0.61282711  0.56636100  1.0
  Ni  Ni230  1  0.50000000  0.94616044  0.56636100  1.0
  Ni  Ni231  1  0.83333333  0.27949378  0.56636100  1.0
  Ni  Ni232  1  0.83333333  0.61282711  0.56636100  1.0
  Ni  Ni233  1  0.83333333  0.94616044  0.56636100  1.0
  Ni  Ni234  1  0.22565422  0.22050622  0.52212033  1.0
  Ni  Ni235  1  0.22565422  0.55383956  0.52212033  1.0
  Ni  Ni236  1  0.22565422  0.88717289  0.52212033  1.0
  Ni  Ni237  1  0.55898755  0.22050622  0.52212033  1.0
  Ni  Ni238  1  0.55898755  0.55383956  0.52212033  1.0
  Ni  Ni239  1  0.55898756  0.88717289  0.52212033  1.0
  Ni  Ni240  1  0.89232089  0.22050622  0.52212033  1.0
  Ni  Ni241  1  0.89232089  0.55383956  0.52212033  1.0
  Ni  Ni242  1  0.89232089  0.88717289  0.52212033  1.0
  Ni  Ni243  1  0.05898755  0.05383955  0.64712033  1.0
  Ni  Ni244  1  0.05898755  0.38717289  0.64712033  1.0
  Ni  Ni245  1  0.05898755  0.72050622  0.64712033  1.0
  Ni  Ni246  1  0.39232089  0.05383955  0.64712033  1.0
  Ni  Ni247  1  0.39232089  0.38717289  0.64712033  1.0
  Ni  Ni248  1  0.39232089  0.72050622  0.64712033  1.0
  Ni  Ni249  1  0.72565422  0.05383955  0.64712033  1.0
  Ni  Ni250  1  0.72565422  0.38717289  0.64712033  1.0
  Ni  Ni251  1  0.72565422  0.72050622  0.64712033  1.0
  Ni  Ni252  1  0.10767911  0.22050622  0.52212033  1.0
  Ni  Ni253  1  0.10767911  0.55383956  0.52212033  1.0
  Ni  Ni254  1  0.10767911  0.88717289  0.52212033  1.0
  Ni  Ni255  1  0.44101244  0.22050622  0.52212033  1.0
  Ni  Ni256  1  0.44101244  0.55383956  0.52212033  1.0
  Ni  Ni257  1  0.44101244  0.88717289  0.52212033  1.0
  Ni  Ni258  1  0.77434578  0.22050622  0.52212033  1.0
  Ni  Ni259  1  0.77434578  0.55383956  0.52212033  1.0
  Ni  Ni260  1  0.77434578  0.88717289  0.52212033  1.0
  Ni  Ni261  1  0.27434578  0.05383955  0.64712033  1.0
  Ni  Ni262  1  0.27434578  0.38717289  0.64712033  1.0
  Ni  Ni263  1  0.27434578  0.72050622  0.64712033  1.0
  Ni  Ni264  1  0.60767911  0.05383955  0.64712033  1.0
  Ni  Ni265  1  0.60767911  0.38717289  0.64712033  1.0
  Ni  Ni266  1  0.60767911  0.72050622  0.64712033  1.0
  Ni  Ni267  1  0.94101244  0.05383955  0.64712033  1.0
  Ni  Ni268  1  0.94101244  0.38717289  0.64712033  1.0
  Ni  Ni269  1  0.94101244  0.72050622  0.64712033  1.0
  Ni  Ni270  1  0.33333333  0.11282711  0.60287967  1.0
  Ni  Ni271  1  0.33333333  0.44616044  0.60287967  1.0
  Ni  Ni272  1  0.33333333  0.77949378  0.60287967  1.0
  Ni  Ni273  1  0.66666667  0.11282711  0.60287967  1.0
  Ni  Ni274  1  0.66666667  0.44616044  0.60287967  1.0
  Ni  Ni275  1  0.66666667  0.77949378  0.60287967  1.0
  Ni  Ni276  1  0.00000000  0.11282711  0.60287967  1.0
  Ni  Ni277  1  0.00000000  0.44616044  0.60287967  1.0
  Ni  Ni278  1  0.00000000  0.77949378  0.60287967  1.0
  Ni  Ni279  1  0.16666667  0.27949378  0.72787967  1.0
  Ni  Ni280  1  0.16666667  0.61282711  0.72787967  1.0
  Ni  Ni281  1  0.16666667  0.94616044  0.72787967  1.0
  Ni  Ni282  1  0.50000000  0.27949378  0.72787967  1.0
  Ni  Ni283  1  0.50000000  0.61282711  0.72787967  1.0
  Ni  Ni284  1  0.50000000  0.94616044  0.72787967  1.0
  Ni  Ni285  1  0.83333333  0.27949378  0.72787967  1.0
  Ni  Ni286  1  0.83333333  0.61282711  0.72787967  1.0
  Ni  Ni287  1  0.83333333  0.94616044  0.72787967  1.0
  Ti  Ti288  1  0.33333333  0.04166667  0.83462033  1.0
  Ti  Ti289  1  0.33333333  0.37500000  0.83462033  1.0
  Ti  Ti290  1  0.33333333  0.70833333  0.83462033  1.0
  Ti  Ti291  1  0.66666667  0.04166667  0.83462033  1.0
  Ti  Ti292  1  0.66666667  0.37500000  0.83462033  1.0
  Ti  Ti293  1  0.66666667  0.70833333  0.83462033  1.0
  Ti  Ti294  1  0.00000000  0.04166667  0.83462033  1.0
  Ti  Ti295  1  0.00000000  0.37500000  0.83462033  1.0
  Ti  Ti296  1  0.00000000  0.70833333  0.83462033  1.0
  Ti  Ti297  1  0.16666667  0.20833333  0.95962033  1.0
  Ti  Ti298  1  0.16666667  0.54166667  0.95962033  1.0
  Ti  Ti299  1  0.16666667  0.87500000  0.95962033  1.0
  Ti  Ti300  1  0.50000000  0.20833333  0.95962033  1.0
  Ti  Ti301  1  0.50000000  0.54166667  0.95962033  1.0
  Ti  Ti302  1  0.50000000  0.87500000  0.95962033  1.0
  Ti  Ti303  1  0.83333333  0.20833333  0.95962033  1.0
  Ti  Ti304  1  0.83333333  0.54166667  0.95962033  1.0
  Ti  Ti305  1  0.83333333  0.87500000  0.95962033  1.0
  Ti  Ti306  1  0.25000000  0.12500000  0.89712033  1.0
  Ti  Ti307  1  0.25000000  0.45833333  0.89712033  1.0
  Ti  Ti308  1  0.25000000  0.79166667  0.89712033  1.0
  Ti  Ti309  1  0.58333333  0.12500000  0.89712033  1.0
  Ti  Ti310  1  0.58333333  0.45833333  0.89712033  1.0
  Ti  Ti311  1  0.58333333  0.79166667  0.89712033  1.0
  Ti  Ti312  1  0.91666667  0.12500000  0.89712033  1.0
  Ti  Ti313  1  0.91666667  0.45833333  0.89712033  1.0
  Ti  Ti314  1  0.91666667  0.79166667  0.89712033  1.0
  Ti  Ti315  1  0.08333333  0.29166667  0.77212033  1.0
  Ti  Ti316  1  0.08333333  0.62500000  0.77212033  1.0
  Ti  Ti317  1  0.08333333  0.95833333  0.77212033  1.0
  Ti  Ti318  1  0.41666667  0.29166667  0.77212033  1.0
  Ti  Ti319  1  0.41666667  0.62500000  0.77212033  1.0
  Ti  Ti320  1  0.41666667  0.95833333  0.77212033  1.0
  Ti  Ti321  1  0.75000000  0.29166667  0.77212033  1.0
  Ti  Ti322  1  0.75000000  0.62500000  0.77212033  1.0
  Ti  Ti323  1  0.75000000  0.95833333  0.77212033  1.0
  Ti  Ti324  1  0.08333333  0.12500000  0.89712033  1.0
  Ti  Ti325  1  0.08333333  0.45833333  0.89712033  1.0
  Ti  Ti326  1  0.08333333  0.79166667  0.89712033  1.0
  Ti  Ti327  1  0.41666667  0.12500000  0.89712033  1.0
  Ti  Ti328  1  0.41666667  0.45833333  0.89712033  1.0
  Ti  Ti329  1  0.41666667  0.79166667  0.89712033  1.0
  Ti  Ti330  1  0.75000000  0.12500000  0.89712033  1.0
  Ti  Ti331  1  0.75000000  0.45833333  0.89712033  1.0
  Ti  Ti332  1  0.75000000  0.79166667  0.89712033  1.0
  Ti  Ti333  1  0.25000000  0.29166667  0.77212033  1.0
  Ti  Ti334  1  0.25000000  0.62500000  0.77212033  1.0
  Ti  Ti335  1  0.25000000  0.95833333  0.77212033  1.0
  Ti  Ti336  1  0.58333333  0.29166667  0.77212033  1.0
  Ti  Ti337  1  0.58333333  0.62500000  0.77212033  1.0
  Ti  Ti338  1  0.58333333  0.95833333  0.77212033  1.0
  Ti  Ti339  1  0.91666667  0.29166667  0.77212033  1.0
  Ti  Ti340  1  0.91666667  0.62500000  0.77212033  1.0
  Ti  Ti341  1  0.91666667  0.95833333  0.77212033  1.0
  Ti  Ti342  1  0.33333333  0.04166667  0.95962033  1.0
  Ti  Ti343  1  0.33333333  0.37500000  0.95962033  1.0
  Ti  Ti344  1  0.33333333  0.70833333  0.95962033  1.0
  Ti  Ti345  1  0.66666667  0.04166667  0.95962033  1.0
  Ti  Ti346  1  0.66666667  0.37500000  0.95962033  1.0
  Ti  Ti347  1  0.66666667  0.70833333  0.95962033  1.0
  Ti  Ti348  1  0.00000000  0.04166667  0.95962033  1.0
  Ti  Ti349  1  0.00000000  0.37500000  0.95962033  1.0
  Ti  Ti350  1  0.00000000  0.70833333  0.95962033  1.0
  Ti  Ti351  1  0.16666667  0.20833333  0.83462033  1.0
  Ti  Ti352  1  0.16666667  0.54166667  0.83462033  1.0
  Ti  Ti353  1  0.16666667  0.87500000  0.83462033  1.0
  Ti  Ti354  1  0.50000000  0.20833333  0.83462033  1.0
  Ti  Ti355  1  0.50000000  0.54166667  0.83462033  1.0
  Ti  Ti356  1  0.50000000  0.87500000  0.83462033  1.0
  Ti  Ti357  1  0.83333333  0.20833333  0.83462033  1.0
  Ti  Ti358  1  0.83333333  0.54166667  0.83462033  1.0
  Ti  Ti359  1  0.83333333  0.87500000  0.83462033  1.0
  Ti  Ti360  1  0.06245967  0.16666667  0.81896508  1.0
  Ti  Ti361  1  0.06245967  0.50000000  0.81896508  1.0
  Ti  Ti362  1  0.06245967  0.83333333  0.81896508  1.0
  Ti  Ti363  1  0.39579300  0.16666667  0.81896508  1.0
  Ti  Ti364  1  0.39579300  0.50000000  0.81896508  1.0
  Ti  Ti365  1  0.39579300  0.83333333  0.81896508  1.0
  Ti  Ti366  1  0.72912633  0.16666667  0.81896508  1.0
  Ti  Ti367  1  0.72912633  0.50000000  0.81896508  1.0
  Ti  Ti368  1  0.72912633  0.83333333  0.81896508  1.0
  Ti  Ti369  1  0.22912633  0.33333333  0.94396508  1.0
  Ti  Ti370  1  0.22912633  0.66666667  0.94396508  1.0
  Ti  Ti371  1  0.22912633  0.00000000  0.94396508  1.0
  Ti  Ti372  1  0.56245967  0.33333333  0.94396508  1.0
  Ti  Ti373  1  0.56245967  0.66666667  0.94396508  1.0
  Ti  Ti374  1  0.56245967  0.00000000  0.94396508  1.0
  Ti  Ti375  1  0.89579300  0.33333333  0.94396508  1.0
  Ti  Ti376  1  0.89579300  0.66666667  0.94396508  1.0
  Ti  Ti377  1  0.89579300  0.00000000  0.94396508  1.0
  Ti  Ti378  1  0.27087367  0.16666667  0.97527558  1.0
  Ti  Ti379  1  0.27087367  0.50000000  0.97527558  1.0
  Ti  Ti380  1  0.27087367  0.83333333  0.97527558  1.0
  Ti  Ti381  1  0.60420700  0.16666667  0.97527558  1.0
  Ti  Ti382  1  0.60420700  0.50000000  0.97527558  1.0
  Ti  Ti383  1  0.60420700  0.83333333  0.97527558  1.0
  Ti  Ti384  1  0.93754033  0.16666667  0.97527558  1.0
  Ti  Ti385  1  0.93754033  0.50000000  0.97527558  1.0
  Ti  Ti386  1  0.93754033  0.83333333  0.97527558  1.0
  Ti  Ti387  1  0.10420700  0.33333333  0.85027558  1.0
  Ti  Ti388  1  0.10420700  0.66666667  0.85027558  1.0
  Ti  Ti389  1  0.10420700  0.00000000  0.85027558  1.0
  Ti  Ti390  1  0.43754033  0.33333333  0.85027558  1.0
  Ti  Ti391  1  0.43754033  0.66666667  0.85027558  1.0
  Ti  Ti392  1  0.43754033  0.00000000  0.85027558  1.0
  Ti  Ti393  1  0.77087367  0.33333333  0.85027558  1.0
  Ti  Ti394  1  0.77087367  0.66666667  0.85027558  1.0
  Ti  Ti395  1  0.77087367  0.00000000  0.85027558  1.0
  Ti  Ti396  1  0.27087367  0.16666667  0.81896508  1.0
  Ti  Ti397  1  0.27087367  0.50000000  0.81896508  1.0
  Ti  Ti398  1  0.27087367  0.83333333  0.81896508  1.0
  Ti  Ti399  1  0.60420700  0.16666667  0.81896508  1.0
  Ti  Ti400  1  0.60420700  0.50000000  0.81896508  1.0
  Ti  Ti401  1  0.60420700  0.83333333  0.81896508  1.0
  Ti  Ti402  1  0.93754033  0.16666667  0.81896508  1.0
  Ti  Ti403  1  0.93754033  0.50000000  0.81896508  1.0
  Ti  Ti404  1  0.93754033  0.83333333  0.81896508  1.0
  Ti  Ti405  1  0.10420700  0.33333333  0.94396508  1.0
  Ti  Ti406  1  0.10420700  0.66666667  0.94396508  1.0
  Ti  Ti407  1  0.10420700  0.00000000  0.94396508  1.0
  Ti  Ti408  1  0.43754033  0.33333333  0.94396508  1.0
  Ti  Ti409  1  0.43754033  0.66666667  0.94396508  1.0
  Ti  Ti410  1  0.43754033  0.00000000  0.94396508  1.0
  Ti  Ti411  1  0.77087367  0.33333333  0.94396508  1.0
  Ti  Ti412  1  0.77087367  0.66666667  0.94396508  1.0
  Ti  Ti413  1  0.77087367  0.00000000  0.94396508  1.0
  Ti  Ti414  1  0.06245967  0.16666667  0.97527558  1.0
  Ti  Ti415  1  0.06245967  0.50000000  0.97527558  1.0
  Ti  Ti416  1  0.06245967  0.83333333  0.97527558  1.0
  Ti  Ti417  1  0.39579300  0.16666667  0.97527558  1.0
  Ti  Ti418  1  0.39579300  0.50000000  0.97527558  1.0
  Ti  Ti419  1  0.39579300  0.83333333  0.97527558  1.0
  Ti  Ti420  1  0.72912633  0.16666667  0.97527558  1.0
  Ti  Ti421  1  0.72912633  0.50000000  0.97527558  1.0
  Ti  Ti422  1  0.72912633  0.83333333  0.97527558  1.0
  Ti  Ti423  1  0.22912633  0.33333333  0.85027558  1.0
  Ti  Ti424  1  0.22912633  0.66666667  0.85027558  1.0
  Ti  Ti425  1  0.22912633  0.00000000  0.85027558  1.0
  Ti  Ti426  1  0.56245967  0.33333333  0.85027558  1.0
  Ti  Ti427  1  0.56245967  0.66666667  0.85027558  1.0
  Ti  Ti428  1  0.56245967  0.00000000  0.85027558  1.0
  Ti  Ti429  1  0.89579300  0.33333333  0.85027558  1.0
  Ti  Ti430  1  0.89579300  0.66666667  0.85027558  1.0
  Ti  Ti431  1  0.89579300  0.00000000  0.85027558  1.0
  Ti  Ti432  1  0.33333333  0.10420700  0.77212033  1.0
  Ti  Ti433  1  0.33333333  0.43754033  0.77212033  1.0
  Ti  Ti434  1  0.33333333  0.77087367  0.77212033  1.0
  Ti  Ti435  1  0.66666667  0.10420700  0.77212033  1.0
  Ti  Ti436  1  0.66666667  0.43754033  0.77212033  1.0
  Ti  Ti437  1  0.66666667  0.77087367  0.77212033  1.0
  Ti  Ti438  1  1.00000000  0.10420700  0.77212033  1.0
  Ti  Ti439  1  1.00000000  0.43754033  0.77212033  1.0
  Ti  Ti440  1  0.00000000  0.77087367  0.77212033  1.0
  Ti  Ti441  1  0.16666667  0.27087367  0.89712033  1.0
  Ti  Ti442  1  0.16666667  0.60420700  0.89712033  1.0
  Ti  Ti443  1  0.16666667  0.93754033  0.89712033  1.0
  Ti  Ti444  1  0.50000000  0.27087367  0.89712033  1.0
  Ti  Ti445  1  0.50000000  0.60420700  0.89712033  1.0
  Ti  Ti446  1  0.50000000  0.93754033  0.89712033  1.0
  Ti  Ti447  1  0.83333333  0.27087367  0.89712033  1.0
  Ti  Ti448  1  0.83333333  0.60420700  0.89712033  1.0
  Ti  Ti449  1  0.83333333  0.93754033  0.89712033  1.0
  Ti  Ti450  1  0.00000000  0.22912633  0.77212033  1.0
  Ti  Ti451  1  0.00000000  0.56245967  0.77212033  1.0
  Ti  Ti452  1  0.00000000  0.89579300  0.77212033  1.0
  Ti  Ti453  1  0.33333333  0.22912633  0.77212033  1.0
  Ti  Ti454  1  0.33333333  0.56245967  0.77212033  1.0
  Ti  Ti455  1  0.33333333  0.89579300  0.77212033  1.0
  Ti  Ti456  1  0.66666667  0.22912633  0.77212033  1.0
  Ti  Ti457  1  0.66666667  0.56245967  0.77212033  1.0
  Ti  Ti458  1  0.66666667  0.89579300  0.77212033  1.0
  Ti  Ti459  1  0.16666667  0.06245967  0.89712033  1.0
  Ti  Ti460  1  0.16666667  0.39579300  0.89712033  1.0
  Ti  Ti461  1  0.16666667  0.72912633  0.89712033  1.0
  Ti  Ti462  1  0.50000000  0.06245967  0.89712033  1.0
  Ti  Ti463  1  0.50000000  0.39579300  0.89712033  1.0
  Ti  Ti464  1  0.50000000  0.72912633  0.89712033  1.0
  Ti  Ti465  1  0.83333333  0.06245967  0.89712033  1.0
  Ti  Ti466  1  0.83333333  0.39579300  0.89712033  1.0
  Ti  Ti467  1  0.83333333  0.72912633  0.89712033  1.0
  Ti  Ti468  1  0.27087367  0.25000000  0.85027558  1.0
  Ti  Ti469  1  0.27087367  0.58333333  0.85027558  1.0
  Ti  Ti470  1  0.27087367  0.91666667  0.85027558  1.0
  Ti  Ti471  1  0.60420700  0.25000000  0.85027558  1.0
  Ti  Ti472  1  0.60420700  0.58333333  0.85027558  1.0
  Ti  Ti473  1  0.60420700  0.91666667  0.85027558  1.0
  Ti  Ti474  1  0.93754033  0.25000000  0.85027558  1.0
  Ti  Ti475  1  0.93754033  0.58333333  0.85027558  1.0
  Ti  Ti476  1  0.93754033  0.91666667  0.85027558  1.0
  Ti  Ti477  1  0.10420700  0.08333333  0.97527558  1.0
  Ti  Ti478  1  0.10420700  0.41666667  0.97527558  1.0
  Ti  Ti479  1  0.10420700  0.75000000  0.97527558  1.0
  Ti  Ti480  1  0.43754033  0.08333333  0.97527558  1.0
  Ti  Ti481  1  0.43754033  0.41666667  0.97527558  1.0
  Ti  Ti482  1  0.43754033  0.75000000  0.97527558  1.0
  Ti  Ti483  1  0.77087367  0.08333333  0.97527558  1.0
  Ti  Ti484  1  0.77087367  0.41666667  0.97527558  1.0
  Ti  Ti485  1  0.77087367  0.75000000  0.97527558  1.0
  Ti  Ti486  1  0.06245967  0.25000000  0.94396508  1.0
  Ti  Ti487  1  0.06245967  0.58333333  0.94396508  1.0
  Ti  Ti488  1  0.06245967  0.91666667  0.94396508  1.0
  Ti  Ti489  1  0.39579300  0.25000000  0.94396508  1.0
  Ti  Ti490  1  0.39579300  0.58333333  0.94396508  1.0
  Ti  Ti491  1  0.39579300  0.91666667  0.94396508  1.0
  Ti  Ti492  1  0.72912633  0.25000000  0.94396508  1.0
  Ti  Ti493  1  0.72912633  0.58333333  0.94396508  1.0
  Ti  Ti494  1  0.72912633  0.91666667  0.94396508  1.0
  Ti  Ti495  1  0.22912633  0.08333333  0.81896508  1.0
  Ti  Ti496  1  0.22912633  0.41666667  0.81896508  1.0
  Ti  Ti497  1  0.22912633  0.75000000  0.81896508  1.0
  Ti  Ti498  1  0.56245967  0.08333333  0.81896508  1.0
  Ti  Ti499  1  0.56245967  0.41666667  0.81896508  1.0
  Ti  Ti500  1  0.56245967  0.75000000  0.81896508  1.0
  Ti  Ti501  1  0.89579300  0.08333333  0.81896508  1.0
  Ti  Ti502  1  0.89579300  0.41666667  0.81896508  1.0
  Ti  Ti503  1  0.89579300  0.75000000  0.81896508  1.0
  Ti  Ti504  1  0.06245967  0.25000000  0.85027558  1.0
  Ti  Ti505  1  0.06245967  0.58333333  0.85027558  1.0
  Ti  Ti506  1  0.06245967  0.91666667  0.85027558  1.0
  Ti  Ti507  1  0.39579300  0.25000000  0.85027558  1.0
  Ti  Ti508  1  0.39579300  0.58333333  0.85027558  1.0
  Ti  Ti509  1  0.39579300  0.91666667  0.85027558  1.0
  Ti  Ti510  1  0.72912633  0.25000000  0.85027558  1.0
  Ti  Ti511  1  0.72912633  0.58333333  0.85027558  1.0
  Ti  Ti512  1  0.72912633  0.91666667  0.85027558  1.0
  Ti  Ti513  1  0.22912633  0.08333333  0.97527558  1.0
  Ti  Ti514  1  0.22912633  0.41666667  0.97527558  1.0
  Ti  Ti515  1  0.22912633  0.75000000  0.97527558  1.0
  Ti  Ti516  1  0.56245967  0.08333333  0.97527558  1.0
  Ti  Ti517  1  0.56245967  0.41666667  0.97527558  1.0
  Ti  Ti518  1  0.56245967  0.75000000  0.97527558  1.0
  Ti  Ti519  1  0.89579300  0.08333333  0.97527558  1.0
  Ti  Ti520  1  0.89579300  0.41666667  0.97527558  1.0
  Ti  Ti521  1  0.89579300  0.75000000  0.97527558  1.0
  Ti  Ti522  1  0.27087367  0.25000000  0.94396508  1.0
  Ti  Ti523  1  0.27087367  0.58333333  0.94396508  1.0
  Ti  Ti524  1  0.27087367  0.91666667  0.94396508  1.0
  Ti  Ti525  1  0.60420700  0.25000000  0.94396508  1.0
  Ti  Ti526  1  0.60420700  0.58333333  0.94396508  1.0
  Ti  Ti527  1  0.60420700  0.91666667  0.94396508  1.0
  Ti  Ti528  1  0.93754033  0.25000000  0.94396508  1.0
  Ti  Ti529  1  0.93754033  0.58333333  0.94396508  1.0
  Ti  Ti530  1  0.93754033  0.91666667  0.94396508  1.0
  Ti  Ti531  1  0.10420700  0.08333333  0.81896508  1.0
  Ti  Ti532  1  0.10420700  0.41666667  0.81896508  1.0
  Ti  Ti533  1  0.10420700  0.75000000  0.81896508  1.0
  Ti  Ti534  1  0.43754033  0.08333333  0.81896508  1.0
  Ti  Ti535  1  0.43754033  0.41666667  0.81896508  1.0
  Ti  Ti536  1  0.43754033  0.75000000  0.81896508  1.0
  Ti  Ti537  1  0.77087367  0.08333333  0.81896508  1.0
  Ti  Ti538  1  0.77087367  0.41666667  0.81896508  1.0
  Ti  Ti539  1  0.77087367  0.75000000  0.81896508  1.0
  Ti  Ti540  1  0.00000000  0.31245967  0.89712033  1.0
  Ti  Ti541  1  0.00000000  0.64579300  0.89712033  1.0
  Ti  Ti542  1  0.00000000  0.97912633  0.89712033  1.0
  Ti  Ti543  1  0.33333333  0.31245967  0.89712033  1.0
  Ti  Ti544  1  0.33333333  0.64579300  0.89712033  1.0
  Ti  Ti545  1  0.33333333  0.97912633  0.89712033  1.0
  Ti  Ti546  1  0.66666667  0.31245967  0.89712033  1.0
  Ti  Ti547  1  0.66666667  0.64579300  0.89712033  1.0
  Ti  Ti548  1  0.66666667  0.97912633  0.89712033  1.0
  Ti  Ti549  1  0.16666667  0.14579300  0.77212033  1.0
  Ti  Ti550  1  0.16666667  0.47912633  0.77212033  1.0
  Ti  Ti551  1  0.16666667  0.81245967  0.77212033  1.0
  Ti  Ti552  1  0.50000000  0.14579300  0.77212033  1.0
  Ti  Ti553  1  0.50000000  0.47912633  0.77212033  1.0
  Ti  Ti554  1  0.50000000  0.81245967  0.77212033  1.0
  Ti  Ti555  1  0.83333333  0.14579300  0.77212033  1.0
  Ti  Ti556  1  0.83333333  0.47912633  0.77212033  1.0
  Ti  Ti557  1  0.83333333  0.81245967  0.77212033  1.0
  Ti  Ti558  1  0.00000000  0.18754033  0.89712033  1.0
  Ti  Ti559  1  0.00000000  0.52087367  0.89712033  1.0
  Ti  Ti560  1  0.00000000  0.85420700  0.89712033  1.0
  Ti  Ti561  1  0.33333333  0.18754033  0.89712033  1.0
  Ti  Ti562  1  0.33333333  0.52087367  0.89712033  1.0
  Ti  Ti563  1  0.33333333  0.85420700  0.89712033  1.0
  Ti  Ti564  1  0.66666667  0.18754033  0.89712033  1.0
  Ti  Ti565  1  0.66666667  0.52087367  0.89712033  1.0
  Ti  Ti566  1  0.66666667  0.85420700  0.89712033  1.0
  Ti  Ti567  1  0.16666667  0.02087367  0.77212033  1.0
  Ti  Ti568  1  0.16666667  0.35420700  0.77212033  1.0
  Ti  Ti569  1  0.16666667  0.68754033  0.77212033  1.0
  Ti  Ti570  1  0.50000000  0.02087367  0.77212033  1.0
  Ti  Ti571  1  0.50000000  0.35420700  0.77212033  1.0
  Ti  Ti572  1  0.50000000  0.68754033  0.77212033  1.0
  Ti  Ti573  1  0.83333333  0.02087367  0.77212033  1.0
  Ti  Ti574  1  0.83333333  0.35420700  0.77212033  1.0
  Ti  Ti575  1  0.83333333  0.68754033  0.77212033  1.0
  Ti  Ti576  1  0.33333333  0.04166667  0.58462033  1.0
  Ti  Ti577  1  0.33333333  0.37500000  0.58462033  1.0
  Ti  Ti578  1  0.33333333  0.70833333  0.58462033  1.0
  Ti  Ti579  1  0.66666667  0.04166667  0.58462033  1.0
  Ti  Ti580  1  0.66666667  0.37500000  0.58462033  1.0
  Ti  Ti581  1  0.66666667  0.70833333  0.58462033  1.0
  Ti  Ti582  1  0.00000000  0.04166667  0.58462033  1.0
  Ti  Ti583  1  0.00000000  0.37500000  0.58462033  1.0
  Ti  Ti584  1  0.00000000  0.70833333  0.58462033  1.0
  Ti  Ti585  1  0.16666667  0.20833333  0.70962033  1.0
  Ti  Ti586  1  0.16666667  0.54166667  0.70962033  1.0
  Ti  Ti587  1  0.16666667  0.87500000  0.70962033  1.0
  Ti  Ti588  1  0.50000000  0.20833333  0.70962033  1.0
  Ti  Ti589  1  0.50000000  0.54166667  0.70962033  1.0
  Ti  Ti590  1  0.50000000  0.87500000  0.70962033  1.0
  Ti  Ti591  1  0.83333333  0.20833333  0.70962033  1.0
  Ti  Ti592  1  0.83333333  0.54166667  0.70962033  1.0
  Ti  Ti593  1  0.83333333  0.87500000  0.70962033  1.0
  Ti  Ti594  1  0.25000000  0.12500000  0.64712033  1.0
  Ti  Ti595  1  0.25000000  0.45833333  0.64712033  1.0
  Ti  Ti596  1  0.25000000  0.79166667  0.64712033  1.0
  Ti  Ti597  1  0.58333333  0.12500000  0.64712033  1.0
  Ti  Ti598  1  0.58333333  0.45833333  0.64712033  1.0
  Ti  Ti599  1  0.58333333  0.79166667  0.64712033  1.0
  Ti  Ti600  1  0.91666667  0.12500000  0.64712033  1.0
  Ti  Ti601  1  0.91666667  0.45833333  0.64712033  1.0
  Ti  Ti602  1  0.91666667  0.79166667  0.64712033  1.0
  Ti  Ti603  1  0.08333333  0.29166667  0.52212033  1.0
  Ti  Ti604  1  0.08333333  0.62500000  0.52212033  1.0
  Ti  Ti605  1  0.08333333  0.95833333  0.52212033  1.0
  Ti  Ti606  1  0.41666667  0.29166667  0.52212033  1.0
  Ti  Ti607  1  0.41666667  0.62500000  0.52212033  1.0
  Ti  Ti608  1  0.41666667  0.95833333  0.52212033  1.0
  Ti  Ti609  1  0.75000000  0.29166667  0.52212033  1.0
  Ti  Ti610  1  0.75000000  0.62500000  0.52212033  1.0
  Ti  Ti611  1  0.75000000  0.95833333  0.52212033  1.0
  Ti  Ti612  1  0.08333333  0.12500000  0.64712033  1.0
  Ti  Ti613  1  0.08333333  0.45833333  0.64712033  1.0
  Ti  Ti614  1  0.08333333  0.79166667  0.64712033  1.0
  Ti  Ti615  1  0.41666667  0.12500000  0.64712033  1.0
  Ti  Ti616  1  0.41666667  0.45833333  0.64712033  1.0
  Ti  Ti617  1  0.41666667  0.79166667  0.64712033  1.0
  Ti  Ti618  1  0.75000000  0.12500000  0.64712033  1.0
  Ti  Ti619  1  0.75000000  0.45833333  0.64712033  1.0
  Ti  Ti620  1  0.75000000  0.79166667  0.64712033  1.0
  Ti  Ti621  1  0.25000000  0.29166667  0.52212033  1.0
  Ti  Ti622  1  0.25000000  0.62500000  0.52212033  1.0
  Ti  Ti623  1  0.25000000  0.95833333  0.52212033  1.0
  Ti  Ti624  1  0.58333333  0.29166667  0.52212033  1.0
  Ti  Ti625  1  0.58333333  0.62500000  0.52212033  1.0
  Ti  Ti626  1  0.58333333  0.95833333  0.52212033  1.0
  Ti  Ti627  1  0.91666667  0.29166667  0.52212033  1.0
  Ti  Ti628  1  0.91666667  0.62500000  0.52212033  1.0
  Ti  Ti629  1  0.91666667  0.95833333  0.52212033  1.0
  Ti  Ti630  1  0.33333333  0.04166667  0.70962033  1.0
  Ti  Ti631  1  0.33333333  0.37500000  0.70962033  1.0
  Ti  Ti632  1  0.33333333  0.70833333  0.70962033  1.0
  Ti  Ti633  1  0.66666667  0.04166667  0.70962033  1.0
  Ti  Ti634  1  0.66666667  0.37500000  0.70962033  1.0
  Ti  Ti635  1  0.66666667  0.70833333  0.70962033  1.0
  Ti  Ti636  1  0.00000000  0.04166667  0.70962033  1.0
  Ti  Ti637  1  0.00000000  0.37500000  0.70962033  1.0
  Ti  Ti638  1  0.00000000  0.70833333  0.70962033  1.0
  Ti  Ti639  1  0.16666667  0.20833333  0.58462033  1.0
  Ti  Ti640  1  0.16666667  0.54166667  0.58462033  1.0
  Ti  Ti641  1  0.16666667  0.87500000  0.58462033  1.0
  Ti  Ti642  1  0.50000000  0.20833333  0.58462033  1.0
  Ti  Ti643  1  0.50000000  0.54166667  0.58462033  1.0
  Ti  Ti644  1  0.50000000  0.87500000  0.58462033  1.0
  Ti  Ti645  1  0.83333333  0.20833333  0.58462033  1.0
  Ti  Ti646  1  0.83333333  0.54166667  0.58462033  1.0
  Ti  Ti647  1  0.83333333  0.87500000  0.58462033  1.0
  Ti  Ti648  1  0.06245967  0.16666667  0.56896508  1.0
  Ti  Ti649  1  0.06245967  0.50000000  0.56896508  1.0
  Ti  Ti650  1  0.06245967  0.83333333  0.56896508  1.0
  Ti  Ti651  1  0.39579300  0.16666667  0.56896508  1.0
  Ti  Ti652  1  0.39579300  0.50000000  0.56896508  1.0
  Ti  Ti653  1  0.39579300  0.83333333  0.56896508  1.0
  Ti  Ti654  1  0.72912633  0.16666667  0.56896508  1.0
  Ti  Ti655  1  0.72912633  0.50000000  0.56896508  1.0
  Ti  Ti656  1  0.72912633  0.83333333  0.56896508  1.0
  Ti  Ti657  1  0.22912633  0.33333333  0.69396508  1.0
  Ti  Ti658  1  0.22912633  0.66666667  0.69396508  1.0
  Ti  Ti659  1  0.22912633  0.00000000  0.69396508  1.0
  Ti  Ti660  1  0.56245967  0.33333333  0.69396508  1.0
  Ti  Ti661  1  0.56245967  0.66666667  0.69396508  1.0
  Ti  Ti662  1  0.56245967  0.00000000  0.69396508  1.0
  Ti  Ti663  1  0.89579300  0.33333333  0.69396508  1.0
  Ti  Ti664  1  0.89579300  0.66666667  0.69396508  1.0
  Ti  Ti665  1  0.89579300  0.00000000  0.69396508  1.0
  Ti  Ti666  1  0.27087367  0.16666667  0.72527558  1.0
  Ti  Ti667  1  0.27087367  0.50000000  0.72527558  1.0
  Ti  Ti668  1  0.27087367  0.83333333  0.72527558  1.0
  Ti  Ti669  1  0.60420700  0.16666667  0.72527558  1.0
  Ti  Ti670  1  0.60420700  0.50000000  0.72527558  1.0
  Ti  Ti671  1  0.60420700  0.83333333  0.72527558  1.0
  Ti  Ti672  1  0.93754033  0.16666667  0.72527558  1.0
  Ti  Ti673  1  0.93754033  0.50000000  0.72527558  1.0
  Ti  Ti674  1  0.93754033  0.83333333  0.72527558  1.0
  Ti  Ti675  1  0.10420700  0.33333333  0.60027558  1.0
  Ti  Ti676  1  0.10420700  0.66666667  0.60027558  1.0
  Ti  Ti677  1  0.10420700  0.00000000  0.60027558  1.0
  Ti  Ti678  1  0.43754033  0.33333333  0.60027558  1.0
  Ti  Ti679  1  0.43754033  0.66666667  0.60027558  1.0
  Ti  Ti680  1  0.43754033  0.00000000  0.60027558  1.0
  Ti  Ti681  1  0.77087367  0.33333333  0.60027558  1.0
  Ti  Ti682  1  0.77087367  0.66666667  0.60027558  1.0
  Ti  Ti683  1  0.77087367  0.00000000  0.60027558  1.0
  Ti  Ti684  1  0.27087367  0.16666667  0.56896508  1.0
  Ti  Ti685  1  0.27087367  0.50000000  0.56896508  1.0
  Ti  Ti686  1  0.27087367  0.83333333  0.56896508  1.0
  Ti  Ti687  1  0.60420700  0.16666667  0.56896508  1.0
  Ti  Ti688  1  0.60420700  0.50000000  0.56896508  1.0
  Ti  Ti689  1  0.60420700  0.83333333  0.56896508  1.0
  Ti  Ti690  1  0.93754033  0.16666667  0.56896508  1.0
  Ti  Ti691  1  0.93754033  0.50000000  0.56896508  1.0
  Ti  Ti692  1  0.93754033  0.83333333  0.56896508  1.0
  Ti  Ti693  1  0.10420700  0.33333333  0.69396508  1.0
  Ti  Ti694  1  0.10420700  0.66666667  0.69396508  1.0
  Ti  Ti695  1  0.10420700  0.00000000  0.69396508  1.0
  Ti  Ti696  1  0.43754033  0.33333333  0.69396508  1.0
  Ti  Ti697  1  0.43754033  0.66666667  0.69396508  1.0
  Ti  Ti698  1  0.43754033  0.00000000  0.69396508  1.0
  Ti  Ti699  1  0.77087367  0.33333333  0.69396508  1.0
  Ti  Ti700  1  0.77087367  0.66666667  0.69396508  1.0
  Ti  Ti701  1  0.77087367  0.00000000  0.69396508  1.0
  Ti  Ti702  1  0.06245967  0.16666667  0.72527558  1.0
  Ti  Ti703  1  0.06245967  0.50000000  0.72527558  1.0
  Ti  Ti704  1  0.06245967  0.83333333  0.72527558  1.0
  Ti  Ti705  1  0.39579300  0.16666667  0.72527558  1.0
  Ti  Ti706  1  0.39579300  0.50000000  0.72527558  1.0
  Ti  Ti707  1  0.39579300  0.83333333  0.72527558  1.0
  Ti  Ti708  1  0.72912633  0.16666667  0.72527558  1.0
  Ti  Ti709  1  0.72912633  0.50000000  0.72527558  1.0
  Ti  Ti710  1  0.72912633  0.83333333  0.72527558  1.0
  Ti  Ti711  1  0.22912633  0.33333333  0.60027558  1.0
  Ti  Ti712  1  0.22912633  0.66666667  0.60027558  1.0
  Ti  Ti713  1  0.22912633  0.00000000  0.60027558  1.0
  Ti  Ti714  1  0.56245967  0.33333333  0.60027558  1.0
  Ti  Ti715  1  0.56245967  0.66666667  0.60027558  1.0
  Ti  Ti716  1  0.56245967  0.00000000  0.60027558  1.0
  Ti  Ti717  1  0.89579300  0.33333333  0.60027558  1.0
  Ti  Ti718  1  0.89579300  0.66666667  0.60027558  1.0
  Ti  Ti719  1  0.89579300  0.00000000  0.60027558  1.0
  Ti  Ti720  1  0.33333333  0.10420700  0.52212033  1.0
  Ti  Ti721  1  0.33333333  0.43754033  0.52212033  1.0
  Ti  Ti722  1  0.33333333  0.77087367  0.52212033  1.0
  Ti  Ti723  1  0.66666667  0.10420700  0.52212033  1.0
  Ti  Ti724  1  0.66666667  0.43754033  0.52212033  1.0
  Ti  Ti725  1  0.66666667  0.77087367  0.52212033  1.0
  Ti  Ti726  1  0.00000000  0.10420700  0.52212033  1.0
  Ti  Ti727  1  0.00000000  0.43754033  0.52212033  1.0
  Ti  Ti728  1  0.00000000  0.77087367  0.52212033  1.0
  Ti  Ti729  1  0.16666667  0.27087367  0.64712033  1.0
  Ti  Ti730  1  0.16666667  0.60420700  0.64712033  1.0
  Ti  Ti731  1  0.16666667  0.93754033  0.64712033  1.0
  Ti  Ti732  1  0.50000000  0.27087367  0.64712033  1.0
  Ti  Ti733  1  0.50000000  0.60420700  0.64712033  1.0
  Ti  Ti734  1  0.50000000  0.93754033  0.64712033  1.0
  Ti  Ti735  1  0.83333333  0.27087367  0.64712033  1.0
  Ti  Ti736  1  0.83333333  0.60420700  0.64712033  1.0
  Ti  Ti737  1  0.83333333  0.93754033  0.64712033  1.0
  Ti  Ti738  1  0.00000000  0.22912633  0.52212033  1.0
  Ti  Ti739  1  0.00000000  0.56245967  0.52212033  1.0
  Ti  Ti740  1  0.00000000  0.89579300  0.52212033  1.0
  Ti  Ti741  1  0.33333333  0.22912633  0.52212033  1.0
  Ti  Ti742  1  0.33333333  0.56245967  0.52212033  1.0
  Ti  Ti743  1  0.33333333  0.89579300  0.52212033  1.0
  Ti  Ti744  1  0.66666667  0.22912633  0.52212033  1.0
  Ti  Ti745  1  0.66666667  0.56245967  0.52212033  1.0
  Ti  Ti746  1  0.66666667  0.89579300  0.52212033  1.0
  Ti  Ti747  1  0.16666667  0.06245967  0.64712033  1.0
  Ti  Ti748  1  0.16666667  0.39579300  0.64712033  1.0
  Ti  Ti749  1  0.16666667  0.72912633  0.64712033  1.0
  Ti  Ti750  1  0.50000000  0.06245967  0.64712033  1.0
  Ti  Ti751  1  0.50000000  0.39579300  0.64712033  1.0
  Ti  Ti752  1  0.50000000  0.72912633  0.64712033  1.0
  Ti  Ti753  1  0.83333333  0.06245967  0.64712033  1.0
  Ti  Ti754  1  0.83333333  0.39579300  0.64712033  1.0
  Ti  Ti755  1  0.83333333  0.72912633  0.64712033  1.0
  Ti  Ti756  1  0.27087367  0.25000000  0.60027558  1.0
  Ti  Ti757  1  0.27087367  0.58333333  0.60027558  1.0
  Ti  Ti758  1  0.27087367  0.91666667  0.60027558  1.0
  Ti  Ti759  1  0.60420700  0.25000000  0.60027558  1.0
  Ti  Ti760  1  0.60420700  0.58333333  0.60027558  1.0
  Ti  Ti761  1  0.60420700  0.91666667  0.60027558  1.0
  Ti  Ti762  1  0.93754033  0.25000000  0.60027558  1.0
  Ti  Ti763  1  0.93754033  0.58333333  0.60027558  1.0
  Ti  Ti764  1  0.93754033  0.91666667  0.60027558  1.0
  Ti  Ti765  1  0.10420700  0.08333333  0.72527558  1.0
  Ti  Ti766  1  0.10420700  0.41666667  0.72527558  1.0
  Ti  Ti767  1  0.10420700  0.75000000  0.72527558  1.0
  Ti  Ti768  1  0.43754033  0.08333333  0.72527558  1.0
  Ti  Ti769  1  0.43754033  0.41666667  0.72527558  1.0
  Ti  Ti770  1  0.43754033  0.75000000  0.72527558  1.0
  Ti  Ti771  1  0.77087367  0.08333333  0.72527558  1.0
  Ti  Ti772  1  0.77087367  0.41666667  0.72527558  1.0
  Ti  Ti773  1  0.77087367  0.75000000  0.72527558  1.0
  Ti  Ti774  1  0.06245967  0.25000000  0.69396508  1.0
  Ti  Ti775  1  0.06245967  0.58333333  0.69396508  1.0
  Ti  Ti776  1  0.06245967  0.91666667  0.69396508  1.0
  Ti  Ti777  1  0.39579300  0.25000000  0.69396508  1.0
  Ti  Ti778  1  0.39579300  0.58333333  0.69396508  1.0
  Ti  Ti779  1  0.39579300  0.91666667  0.69396508  1.0
  Ti  Ti780  1  0.72912633  0.25000000  0.69396508  1.0
  Ti  Ti781  1  0.72912633  0.58333333  0.69396508  1.0
  Ti  Ti782  1  0.72912633  0.91666667  0.69396508  1.0
  Ti  Ti783  1  0.22912633  0.08333333  0.56896508  1.0
  Ti  Ti784  1  0.22912633  0.41666667  0.56896508  1.0
  Ti  Ti785  1  0.22912633  0.75000000  0.56896508  1.0
  Ti  Ti786  1  0.56245967  0.08333333  0.56896508  1.0
  Ti  Ti787  1  0.56245967  0.41666667  0.56896508  1.0
  Ti  Ti788  1  0.56245967  0.75000000  0.56896508  1.0
  Ti  Ti789  1  0.89579300  0.08333333  0.56896508  1.0
  Ti  Ti790  1  0.89579300  0.41666667  0.56896508  1.0
  Ti  Ti791  1  0.89579300  0.75000000  0.56896508  1.0
  Ti  Ti792  1  0.06245967  0.25000000  0.60027558  1.0
  Ti  Ti793  1  0.06245967  0.58333333  0.60027558  1.0
  Ti  Ti794  1  0.06245967  0.91666667  0.60027558  1.0
  Ti  Ti795  1  0.39579300  0.25000000  0.60027558  1.0
  Ti  Ti796  1  0.39579300  0.58333333  0.60027558  1.0
  Ti  Ti797  1  0.39579300  0.91666667  0.60027558  1.0
  Ti  Ti798  1  0.72912633  0.25000000  0.60027558  1.0
  Ti  Ti799  1  0.72912633  0.58333333  0.60027558  1.0
  Ti  Ti800  1  0.72912633  0.91666667  0.60027558  1.0
  Ti  Ti801  1  0.22912633  0.08333333  0.72527558  1.0
  Ti  Ti802  1  0.22912633  0.41666667  0.72527558  1.0
  Ti  Ti803  1  0.22912633  0.75000000  0.72527558  1.0
  Ti  Ti804  1  0.56245967  0.08333333  0.72527558  1.0
  Ti  Ti805  1  0.56245967  0.41666667  0.72527558  1.0
  Ti  Ti806  1  0.56245967  0.75000000  0.72527558  1.0
  Ti  Ti807  1  0.89579300  0.08333333  0.72527558  1.0
  Ti  Ti808  1  0.89579300  0.41666667  0.72527558  1.0
  Ti  Ti809  1  0.89579300  0.75000000  0.72527558  1.0
  Ti  Ti810  1  0.27087367  0.25000000  0.69396508  1.0
  Ti  Ti811  1  0.27087367  0.58333333  0.69396508  1.0
  Ti  Ti812  1  0.27087367  0.91666667  0.69396508  1.0
  Ti  Ti813  1  0.60420700  0.25000000  0.69396508  1.0
  Ti  Ti814  1  0.60420700  0.58333333  0.69396508  1.0
  Ti  Ti815  1  0.60420700  0.91666667  0.69396508  1.0
  Ti  Ti816  1  0.93754033  0.25000000  0.69396508  1.0
  Ti  Ti817  1  0.93754033  0.58333333  0.69396508  1.0
  Ti  Ti818  1  0.93754033  0.91666667  0.69396508  1.0
  Ti  Ti819  1  0.10420700  0.08333333  0.56896508  1.0
  Ti  Ti820  1  0.10420700  0.41666667  0.56896508  1.0
  Ti  Ti821  1  0.10420700  0.75000000  0.56896508  1.0
  Ti  Ti822  1  0.43754033  0.08333333  0.56896508  1.0
  Ti  Ti823  1  0.43754033  0.41666667  0.56896508  1.0
  Ti  Ti824  1  0.43754033  0.75000000  0.56896508  1.0
  Ti  Ti825  1  0.77087367  0.08333333  0.56896508  1.0
  Ti  Ti826  1  0.77087367  0.41666667  0.56896508  1.0
  Ti  Ti827  1  0.77087367  0.75000000  0.56896508  1.0
  Ti  Ti828  1  0.00000000  0.31245967  0.64712033  1.0
  Ti  Ti829  1  0.00000000  0.64579300  0.64712033  1.0
  Ti  Ti830  1  0.00000000  0.97912633  0.64712033  1.0
  Ti  Ti831  1  0.33333333  0.31245967  0.64712033  1.0
  Ti  Ti832  1  0.33333333  0.64579300  0.64712033  1.0
  Ti  Ti833  1  0.33333333  0.97912633  0.64712033  1.0
  Ti  Ti834  1  0.66666667  0.31245967  0.64712033  1.0
  Ti  Ti835  1  0.66666667  0.64579300  0.64712033  1.0
  Ti  Ti836  1  0.66666667  0.97912633  0.64712033  1.0
  Ti  Ti837  1  0.16666667  0.14579300  0.52212033  1.0
  Ti  Ti838  1  0.16666667  0.47912633  0.52212033  1.0
  Ti  Ti839  1  0.16666667  0.81245967  0.52212033  1.0
  Ti  Ti840  1  0.50000000  0.14579300  0.52212033  1.0
  Ti  Ti841  1  0.50000000  0.47912633  0.52212033  1.0
  Ti  Ti842  1  0.50000000  0.81245967  0.52212033  1.0
  Ti  Ti843  1  0.83333333  0.14579300  0.52212033  1.0
  Ti  Ti844  1  0.83333333  0.47912633  0.52212033  1.0
  Ti  Ti845  1  0.83333333  0.81245967  0.52212033  1.0
  Ti  Ti846  1  0.00000000  0.18754033  0.64712033  1.0
  Ti  Ti847  1  0.00000000  0.52087367  0.64712033  1.0
  Ti  Ti848  1  0.00000000  0.85420700  0.64712033  1.0
  Ti  Ti849  1  0.33333333  0.18754033  0.64712033  1.0
  Ti  Ti850  1  0.33333333  0.52087367  0.64712033  1.0
  Ti  Ti851  1  0.33333333  0.85420700  0.64712033  1.0
  Ti  Ti852  1  0.66666667  0.18754033  0.64712033  1.0
  Ti  Ti853  1  0.66666667  0.52087367  0.64712033  1.0
  Ti  Ti854  1  0.66666667  0.85420700  0.64712033  1.0
  Ti  Ti855  1  0.16666667  0.02087367  0.52212033  1.0
  Ti  Ti856  1  0.16666667  0.35420700  0.52212033  1.0
  Ti  Ti857  1  0.16666667  0.68754033  0.52212033  1.0
  Ti  Ti858  1  0.50000000  0.02087367  0.52212033  1.0
  Ti  Ti859  1  0.50000000  0.35420700  0.52212033  1.0
  Ti  Ti860  1  0.50000000  0.68754033  0.52212033  1.0
  Ti  Ti861  1  0.83333333  0.02087367  0.52212033  1.0
  Ti  Ti862  1  0.83333333  0.35420700  0.52212033  1.0
  Ti  Ti863  1  0.83333333  0.68754033  0.52212033  1.0
