# generated using pymatgen
data_Ti2Ni
_symmetry_space_group_name_H-M   'P 1'
_cell_length_a   33.82492801
_cell_length_b   41.42690711
_cell_length_c   25.21161279
_cell_angle_alpha   90.00000000
_cell_angle_beta   90.00000000
_cell_angle_gamma   114.09484255
_symmetry_Int_Tables_number   1
_chemical_formula_structural   Ti2Ni
_chemical_formula_sum   'Ti576 Ni288'
_cell_volume   32249.97608169
_cell_formula_units_Z   288
loop_
 _symmetry_equiv_pos_site_id
 _symmetry_equiv_pos_as_xyz
  1  'x, y, z'
loop_
 _atom_site_type_symbol
 _atom_site_label
 _atom_site_symmetry_multiplicity
 _atom_site_fract_x
 _atom_site_fract_y
 _atom_site_fract_z
 _atom_site_occupancy
  Ni  Ni0  1  0.07168728  0.21022494  0.04219350  1.0
  Ni  Ni1  1  0.07168728  0.54355828  0.04219350  1.0
  Ni  Ni2  1  0.07168728  0.87689161  0.04219350  1.0
  Ni  Ni3  1  0.40502061  0.21022494  0.04219350  1.0
  Ni  Ni4  1  0.40502061  0.54355828  0.04219350  1.0
  Ni  Ni5  1  0.40502061  0.87689161  0.04219350  1.0
  Ni  Ni6  1  0.73835394  0.21022494  0.04219350  1.0
  Ni  Ni7  1  0.73835394  0.54355828  0.04219350  1.0
  Ni  Ni8  1  0.73835394  0.87689161  0.04219350  1.0
  Ni  Ni9  1  0.17168728  0.07689161  0.14219350  1.0
  Ni  Ni10  1  0.17168728  0.41022494  0.14219350  1.0
  Ni  Ni11  1  0.17168728  0.74355828  0.14219350  1.0
  Ni  Ni12  1  0.50502061  0.07689161  0.14219350  1.0
  Ni  Ni13  1  0.50502061  0.41022494  0.14219350  1.0
  Ni  Ni14  1  0.50502061  0.74355828  0.14219350  1.0
  Ni  Ni15  1  0.83835394  0.07689161  0.14219350  1.0
  Ni  Ni16  1  0.83835394  0.41022494  0.14219350  1.0
  Ni  Ni17  1  0.83835394  0.74355828  0.14219350  1.0
  Ni  Ni18  1  0.20707981  0.02970157  0.17758603  1.0
  Ni  Ni19  1  0.20707981  0.36303490  0.17758603  1.0
  Ni  Ni20  1  0.20707981  0.69636823  0.17758603  1.0
  Ni  Ni21  1  0.54041314  0.02970157  0.17758603  1.0
  Ni  Ni22  1  0.54041314  0.36303490  0.17758603  1.0
  Ni  Ni23  1  0.54041314  0.69636823  0.17758603  1.0
  Ni  Ni24  1  0.87374648  0.02970157  0.17758603  1.0
  Ni  Ni25  1  0.87374648  0.36303490  0.17758603  1.0
  Ni  Ni26  1  0.87374648  0.69636823  0.17758603  1.0
  Ni  Ni27  1  0.10707981  0.16303490  0.07758603  1.0
  Ni  Ni28  1  0.10707981  0.49636823  0.07758603  1.0
  Ni  Ni29  1  0.10707981  0.82970157  0.07758603  1.0
  Ni  Ni30  1  0.44041314  0.16303490  0.07758603  1.0
  Ni  Ni31  1  0.44041314  0.49636823  0.07758603  1.0
  Ni  Ni32  1  0.44041314  0.82970157  0.07758603  1.0
  Ni  Ni33  1  0.77374648  0.16303490  0.07758603  1.0
  Ni  Ni34  1  0.77374648  0.49636823  0.07758603  1.0
  Ni  Ni35  1  0.77374648  0.82970157  0.07758603  1.0
  Ni  Ni36  1  0.29322310  0.31996325  0.04837110  1.0
  Ni  Ni37  1  0.29322310  0.65329659  0.04837110  1.0
  Ni  Ni38  1  0.29322310  0.98662992  0.04837110  1.0
  Ni  Ni39  1  0.62655643  0.31996325  0.04837110  1.0
  Ni  Ni40  1  0.62655643  0.65329659  0.04837110  1.0
  Ni  Ni41  1  0.62655643  0.98662992  0.04837110  1.0
  Ni  Ni42  1  0.95988977  0.31996325  0.04837110  1.0
  Ni  Ni43  1  0.95988977  0.65329659  0.04837110  1.0
  Ni  Ni44  1  0.95988977  0.98662992  0.04837110  1.0
  Ni  Ni45  1  0.05988977  0.18662992  0.14837110  1.0
  Ni  Ni46  1  0.05988977  0.51996325  0.14837110  1.0
  Ni  Ni47  1  0.05988977  0.85329659  0.14837110  1.0
  Ni  Ni48  1  0.39322310  0.18662992  0.14837110  1.0
  Ni  Ni49  1  0.39322310  0.51996325  0.14837110  1.0
  Ni  Ni50  1  0.39322310  0.85329659  0.14837110  1.0
  Ni  Ni51  1  0.72655643  0.18662992  0.14837110  1.0
  Ni  Ni52  1  0.72655643  0.51996325  0.14837110  1.0
  Ni  Ni53  1  0.72655643  0.85329659  0.14837110  1.0
  Ni  Ni54  1  0.14247234  0.23381997  0.11297857  1.0
  Ni  Ni55  1  0.14247234  0.56715330  0.11297857  1.0
  Ni  Ni56  1  0.14247234  0.90048663  0.11297857  1.0
  Ni  Ni57  1  0.47580568  0.23381997  0.11297857  1.0
  Ni  Ni58  1  0.47580568  0.56715330  0.11297857  1.0
  Ni  Ni59  1  0.47580568  0.90048663  0.11297857  1.0
  Ni  Ni60  1  0.80913901  0.23381997  0.11297857  1.0
  Ni  Ni61  1  0.80913901  0.56715330  0.11297857  1.0
  Ni  Ni62  1  0.80913901  0.90048663  0.11297857  1.0
  Ni  Ni63  1  0.04247234  0.03381997  0.01297857  1.0
  Ni  Ni64  1  0.04247234  0.36715330  0.01297857  1.0
  Ni  Ni65  1  0.04247234  0.70048663  0.01297857  1.0
  Ni  Ni66  1  0.37580568  0.03381997  0.01297857  1.0
  Ni  Ni67  1  0.37580568  0.36715330  0.01297857  1.0
  Ni  Ni68  1  0.37580568  0.70048663  0.01297857  1.0
  Ni  Ni69  1  0.70913901  0.03381997  0.01297857  1.0
  Ni  Ni70  1  0.70913901  0.36715330  0.01297857  1.0
  Ni  Ni71  1  0.70913901  0.70048663  0.01297857  1.0
  Ni  Ni72  1  0.31887732  0.08662992  0.09837110  1.0
  Ni  Ni73  1  0.31887732  0.41996326  0.09837110  1.0
  Ni  Ni74  1  0.31887732  0.75329659  0.09837110  1.0
  Ni  Ni75  1  0.65221066  0.08662992  0.09837110  1.0
  Ni  Ni76  1  0.65221066  0.41996326  0.09837110  1.0
  Ni  Ni77  1  0.65221066  0.75329659  0.09837110  1.0
  Ni  Ni78  1  0.98554399  0.08662992  0.09837110  1.0
  Ni  Ni79  1  0.98554399  0.41996326  0.09837110  1.0
  Ni  Ni80  1  0.98554399  0.75329659  0.09837110  1.0
  Ni  Ni81  1  0.08554399  0.28662992  0.19837110  1.0
  Ni  Ni82  1  0.08554399  0.61996326  0.19837110  1.0
  Ni  Ni83  1  0.08554399  0.95329659  0.19837110  1.0
  Ni  Ni84  1  0.41887732  0.28662992  0.19837110  1.0
  Ni  Ni85  1  0.41887732  0.61996326  0.19837110  1.0
  Ni  Ni86  1  0.41887732  0.95329659  0.19837110  1.0
  Ni  Ni87  1  0.75221066  0.28662992  0.19837110  1.0
  Ni  Ni88  1  0.75221066  0.61996326  0.19837110  1.0
  Ni  Ni89  1  0.75221066  0.95329659  0.19837110  1.0
  Ni  Ni90  1  0.05015146  0.00048663  0.16297857  1.0
  Ni  Ni91  1  0.05015146  0.33381997  0.16297857  1.0
  Ni  Ni92  1  0.05015146  0.66715330  0.16297857  1.0
  Ni  Ni93  1  0.38348479  0.00048663  0.16297857  1.0
  Ni  Ni94  1  0.38348479  0.33381997  0.16297857  1.0
  Ni  Ni95  1  0.38348479  0.66715330  0.16297857  1.0
  Ni  Ni96  1  0.71681812  0.00048663  0.16297857  1.0
  Ni  Ni97  1  0.71681812  0.33381997  0.16297857  1.0
  Ni  Ni98  1  0.71681812  0.66715330  0.16297857  1.0
  Ni  Ni99  1  0.28348479  0.13381997  0.06297857  1.0
  Ni  Ni100  1  0.28348479  0.46715330  0.06297857  1.0
  Ni  Ni101  1  0.28348479  0.80048663  0.06297857  1.0
  Ni  Ni102  1  0.61681812  0.13381997  0.06297857  1.0
  Ni  Ni103  1  0.61681812  0.46715330  0.06297857  1.0
  Ni  Ni104  1  0.61681812  0.80048663  0.06297857  1.0
  Ni  Ni105  1  0.95015146  0.13381997  0.06297857  1.0
  Ni  Ni106  1  0.95015146  0.46715330  0.06297857  1.0
  Ni  Ni107  1  0.95015146  0.80048663  0.06297857  1.0
  Ni  Ni108  1  0.09734150  0.31022495  0.09219350  1.0
  Ni  Ni109  1  0.09734150  0.64355828  0.09219350  1.0
  Ni  Ni110  1  0.09734150  0.97689161  0.09219350  1.0
  Ni  Ni111  1  0.43067483  0.31022495  0.09219350  1.0
  Ni  Ni112  1  0.43067483  0.64355828  0.09219350  1.0
  Ni  Ni113  1  0.43067483  0.97689161  0.09219350  1.0
  Ni  Ni114  1  0.76400817  0.31022495  0.09219350  1.0
  Ni  Ni115  1  0.76400817  0.64355828  0.09219350  1.0
  Ni  Ni116  1  0.76400817  0.97689161  0.09219350  1.0
  Ni  Ni117  1  0.19734150  0.17689161  0.19219350  1.0
  Ni  Ni118  1  0.19734150  0.51022495  0.19219350  1.0
  Ni  Ni119  1  0.19734150  0.84355828  0.19219350  1.0
  Ni  Ni120  1  0.53067483  0.17689161  0.19219350  1.0
  Ni  Ni121  1  0.53067483  0.51022495  0.19219350  1.0
  Ni  Ni122  1  0.53067483  0.84355828  0.19219350  1.0
  Ni  Ni123  1  0.86400817  0.17689161  0.19219350  1.0
  Ni  Ni124  1  0.86400817  0.51022495  0.19219350  1.0
  Ni  Ni125  1  0.86400817  0.84355828  0.19219350  1.0
  Ni  Ni126  1  0.24809226  0.06303490  0.02758603  1.0
  Ni  Ni127  1  0.24809226  0.39636823  0.02758603  1.0
  Ni  Ni128  1  0.24809226  0.72970157  0.02758603  1.0
  Ni  Ni129  1  0.58142559  0.06303490  0.02758603  1.0
  Ni  Ni130  1  0.58142559  0.39636823  0.02758603  1.0
  Ni  Ni131  1  0.58142559  0.72970157  0.02758603  1.0
  Ni  Ni132  1  0.91475892  0.06303490  0.02758603  1.0
  Ni  Ni133  1  0.91475892  0.39636823  0.02758603  1.0
  Ni  Ni134  1  0.91475892  0.72970157  0.02758603  1.0
  Ni  Ni135  1  0.01475892  0.26303490  0.12758603  1.0
  Ni  Ni136  1  0.01475892  0.59636823  0.12758603  1.0
  Ni  Ni137  1  0.01475892  0.92970157  0.12758603  1.0
  Ni  Ni138  1  0.34809226  0.26303490  0.12758603  1.0
  Ni  Ni139  1  0.34809226  0.59636823  0.12758603  1.0
  Ni  Ni140  1  0.34809226  0.92970157  0.12758603  1.0
  Ni  Ni141  1  0.68142559  0.26303490  0.12758603  1.0
  Ni  Ni142  1  0.68142559  0.59636823  0.12758603  1.0
  Ni  Ni143  1  0.68142559  0.92970157  0.12758603  1.0
  Ni  Ni144  1  0.27168728  0.27689161  0.24219350  1.0
  Ni  Ni145  1  0.27168728  0.61022494  0.24219350  1.0
  Ni  Ni146  1  0.27168728  0.94355828  0.24219350  1.0
  Ni  Ni147  1  0.60502061  0.27689161  0.24219350  1.0
  Ni  Ni148  1  0.60502061  0.61022494  0.24219350  1.0
  Ni  Ni149  1  0.60502061  0.94355828  0.24219350  1.0
  Ni  Ni150  1  0.93835394  0.27689161  0.24219350  1.0
  Ni  Ni151  1  0.93835394  0.61022494  0.24219350  1.0
  Ni  Ni152  1  0.93835394  0.94355828  0.24219350  1.0
  Ni  Ni153  1  0.03835394  0.14355828  0.34219350  1.0
  Ni  Ni154  1  0.03835394  0.47689161  0.34219350  1.0
  Ni  Ni155  1  0.03835394  0.81022494  0.34219350  1.0
  Ni  Ni156  1  0.37168728  0.14355828  0.34219350  1.0
  Ni  Ni157  1  0.37168728  0.47689161  0.34219350  1.0
  Ni  Ni158  1  0.37168728  0.81022494  0.34219350  1.0
  Ni  Ni159  1  0.70502061  0.14355828  0.34219350  1.0
  Ni  Ni160  1  0.70502061  0.47689161  0.34219350  1.0
  Ni  Ni161  1  0.70502061  0.81022494  0.34219350  1.0
  Ni  Ni162  1  0.07374648  0.09636823  0.37758603  1.0
  Ni  Ni163  1  0.07374648  0.42970157  0.37758603  1.0
  Ni  Ni164  1  0.07374648  0.76303490  0.37758603  1.0
  Ni  Ni165  1  0.40707981  0.09636823  0.37758603  1.0
  Ni  Ni166  1  0.40707981  0.42970157  0.37758603  1.0
  Ni  Ni167  1  0.40707981  0.76303490  0.37758603  1.0
  Ni  Ni168  1  0.74041314  0.09636823  0.37758603  1.0
  Ni  Ni169  1  0.74041314  0.42970157  0.37758603  1.0
  Ni  Ni170  1  0.74041314  0.76303490  0.37758603  1.0
  Ni  Ni171  1  0.30707981  0.22970157  0.27758603  1.0
  Ni  Ni172  1  0.30707981  0.56303490  0.27758603  1.0
  Ni  Ni173  1  0.30707981  0.89636823  0.27758603  1.0
  Ni  Ni174  1  0.64041314  0.22970157  0.27758603  1.0
  Ni  Ni175  1  0.64041314  0.56303490  0.27758603  1.0
  Ni  Ni176  1  0.64041314  0.89636823  0.27758603  1.0
  Ni  Ni177  1  0.97374648  0.22970157  0.27758603  1.0
  Ni  Ni178  1  0.97374648  0.56303490  0.27758603  1.0
  Ni  Ni179  1  0.97374648  0.89636823  0.27758603  1.0
  Ni  Ni180  1  0.15988977  0.05329659  0.24837110  1.0
  Ni  Ni181  1  0.15988977  0.38662992  0.24837110  1.0
  Ni  Ni182  1  0.15988977  0.71996325  0.24837110  1.0
  Ni  Ni183  1  0.49322310  0.05329659  0.24837110  1.0
  Ni  Ni184  1  0.49322310  0.38662992  0.24837110  1.0
  Ni  Ni185  1  0.49322310  0.71996325  0.24837110  1.0
  Ni  Ni186  1  0.82655643  0.05329659  0.24837110  1.0
  Ni  Ni187  1  0.82655643  0.38662992  0.24837110  1.0
  Ni  Ni188  1  0.82655643  0.71996325  0.24837110  1.0
  Ni  Ni189  1  0.25988977  0.25329659  0.34837110  1.0
  Ni  Ni190  1  0.25988977  0.58662992  0.34837110  1.0
  Ni  Ni191  1  0.25988977  0.91996325  0.34837110  1.0
  Ni  Ni192  1  0.59322310  0.25329659  0.34837110  1.0
  Ni  Ni193  1  0.59322310  0.58662992  0.34837110  1.0
  Ni  Ni194  1  0.59322310  0.91996325  0.34837110  1.0
  Ni  Ni195  1  0.92655643  0.25329659  0.34837110  1.0
  Ni  Ni196  1  0.92655643  0.58662992  0.34837110  1.0
  Ni  Ni197  1  0.92655643  0.91996325  0.34837110  1.0
  Ni  Ni198  1  0.00913901  0.30048663  0.31297857  1.0
  Ni  Ni199  1  0.00913901  0.63381997  0.31297857  1.0
  Ni  Ni200  1  0.00913901  0.96715330  0.31297857  1.0
  Ni  Ni201  1  0.34247234  0.30048663  0.31297857  1.0
  Ni  Ni202  1  0.34247234  0.63381997  0.31297857  1.0
  Ni  Ni203  1  0.34247234  0.96715330  0.31297857  1.0
  Ni  Ni204  1  0.67580568  0.30048663  0.31297857  1.0
  Ni  Ni205  1  0.67580568  0.63381997  0.31297857  1.0
  Ni  Ni206  1  0.67580568  0.96715330  0.31297857  1.0
  Ni  Ni207  1  0.24247234  0.10048663  0.21297857  1.0
  Ni  Ni208  1  0.24247234  0.43381997  0.21297857  1.0
  Ni  Ni209  1  0.24247234  0.76715330  0.21297857  1.0
  Ni  Ni210  1  0.57580568  0.10048663  0.21297857  1.0
  Ni  Ni211  1  0.57580568  0.43381997  0.21297857  1.0
  Ni  Ni212  1  0.57580568  0.76715330  0.21297857  1.0
  Ni  Ni213  1  0.90913901  0.10048663  0.21297857  1.0
  Ni  Ni214  1  0.90913901  0.43381997  0.21297857  1.0
  Ni  Ni215  1  0.90913901  0.76715330  0.21297857  1.0
  Ni  Ni216  1  0.18554399  0.15329659  0.29837110  1.0
  Ni  Ni217  1  0.18554399  0.48662992  0.29837110  1.0
  Ni  Ni218  1  0.18554399  0.81996326  0.29837110  1.0
  Ni  Ni219  1  0.51887732  0.15329659  0.29837110  1.0
  Ni  Ni220  1  0.51887732  0.48662992  0.29837110  1.0
  Ni  Ni221  1  0.51887732  0.81996326  0.29837110  1.0
  Ni  Ni222  1  0.85221066  0.15329659  0.29837110  1.0
  Ni  Ni223  1  0.85221066  0.48662992  0.29837110  1.0
  Ni  Ni224  1  0.85221066  0.81996326  0.29837110  1.0
  Ni  Ni225  1  0.28554399  0.01996326  0.39837110  1.0
  Ni  Ni226  1  0.28554399  0.35329659  0.39837110  1.0
  Ni  Ni227  1  0.28554399  0.68662992  0.39837110  1.0
  Ni  Ni228  1  0.61887732  0.01996326  0.39837110  1.0
  Ni  Ni229  1  0.61887732  0.35329659  0.39837110  1.0
  Ni  Ni230  1  0.61887732  0.68662992  0.39837110  1.0
  Ni  Ni231  1  0.95221066  0.01996326  0.39837110  1.0
  Ni  Ni232  1  0.95221066  0.35329659  0.39837110  1.0
  Ni  Ni233  1  0.95221066  0.68662992  0.39837110  1.0
  Ni  Ni234  1  0.25015146  0.06715330  0.36297857  1.0
  Ni  Ni235  1  0.25015146  0.40048663  0.36297857  1.0
  Ni  Ni236  1  0.25015146  0.73381997  0.36297857  1.0
  Ni  Ni237  1  0.58348479  0.06715330  0.36297857  1.0
  Ni  Ni238  1  0.58348479  0.40048663  0.36297857  1.0
  Ni  Ni239  1  0.58348479  0.73381997  0.36297857  1.0
  Ni  Ni240  1  0.91681812  0.06715330  0.36297857  1.0
  Ni  Ni241  1  0.91681812  0.40048663  0.36297857  1.0
  Ni  Ni242  1  0.91681812  0.73381997  0.36297857  1.0
  Ni  Ni243  1  0.15015146  0.20048663  0.26297857  1.0
  Ni  Ni244  1  0.15015146  0.53381997  0.26297857  1.0
  Ni  Ni245  1  0.15015146  0.86715330  0.26297857  1.0
  Ni  Ni246  1  0.48348479  0.20048663  0.26297857  1.0
  Ni  Ni247  1  0.48348479  0.53381997  0.26297857  1.0
  Ni  Ni248  1  0.48348479  0.86715330  0.26297857  1.0
  Ni  Ni249  1  0.81681812  0.20048663  0.26297857  1.0
  Ni  Ni250  1  0.81681812  0.53381997  0.26297857  1.0
  Ni  Ni251  1  0.81681812  0.86715330  0.26297857  1.0
  Ni  Ni252  1  0.29734150  0.04355828  0.29219350  1.0
  Ni  Ni253  1  0.29734150  0.37689161  0.29219350  1.0
  Ni  Ni254  1  0.29734150  0.71022495  0.29219350  1.0
  Ni  Ni255  1  0.63067483  0.04355828  0.29219350  1.0
  Ni  Ni256  1  0.63067483  0.37689161  0.29219350  1.0
  Ni  Ni257  1  0.63067483  0.71022495  0.29219350  1.0
  Ni  Ni258  1  0.96400817  0.04355828  0.29219350  1.0
  Ni  Ni259  1  0.96400817  0.37689161  0.29219350  1.0
  Ni  Ni260  1  0.96400817  0.71022495  0.29219350  1.0
  Ni  Ni261  1  0.06400817  0.24355828  0.39219350  1.0
  Ni  Ni262  1  0.06400817  0.57689161  0.39219350  1.0
  Ni  Ni263  1  0.06400817  0.91022495  0.39219350  1.0
  Ni  Ni264  1  0.39734150  0.24355828  0.39219350  1.0
  Ni  Ni265  1  0.39734150  0.57689161  0.39219350  1.0
  Ni  Ni266  1  0.39734150  0.91022495  0.39219350  1.0
  Ni  Ni267  1  0.73067483  0.24355828  0.39219350  1.0
  Ni  Ni268  1  0.73067483  0.57689161  0.39219350  1.0
  Ni  Ni269  1  0.73067483  0.91022495  0.39219350  1.0
  Ni  Ni270  1  0.11475892  0.12970157  0.22758603  1.0
  Ni  Ni271  1  0.11475892  0.46303490  0.22758603  1.0
  Ni  Ni272  1  0.11475892  0.79636823  0.22758603  1.0
  Ni  Ni273  1  0.44809226  0.12970157  0.22758603  1.0
  Ni  Ni274  1  0.44809226  0.46303490  0.22758603  1.0
  Ni  Ni275  1  0.44809226  0.79636823  0.22758603  1.0
  Ni  Ni276  1  0.78142559  0.12970157  0.22758603  1.0
  Ni  Ni277  1  0.78142559  0.46303490  0.22758603  1.0
  Ni  Ni278  1  0.78142559  0.79636823  0.22758603  1.0
  Ni  Ni279  1  0.21475892  0.32970157  0.32758603  1.0
  Ni  Ni280  1  0.21475892  0.66303490  0.32758603  1.0
  Ni  Ni281  1  0.21475892  0.99636823  0.32758603  1.0
  Ni  Ni282  1  0.54809226  0.32970157  0.32758603  1.0
  Ni  Ni283  1  0.54809226  0.66303490  0.32758603  1.0
  Ni  Ni284  1  0.54809226  0.99636823  0.32758603  1.0
  Ni  Ni285  1  0.88142559  0.32970157  0.32758603  1.0
  Ni  Ni286  1  0.88142559  0.66303490  0.32758603  1.0
  Ni  Ni287  1  0.88142559  0.99636823  0.32758603  1.0
  Ti  Ti288  1  0.12861563  0.18176077  0.17028230  1.0
  Ti  Ti289  1  0.12861563  0.51509410  0.17028230  1.0
  Ti  Ti290  1  0.12861563  0.84842743  0.17028230  1.0
  Ti  Ti291  1  0.46194897  0.18176077  0.17028230  1.0
  Ti  Ti292  1  0.46194897  0.51509410  0.17028230  1.0
  Ti  Ti293  1  0.46194897  0.84842743  0.17028230  1.0
  Ti  Ti294  1  0.79528230  0.18176077  0.17028230  1.0
  Ti  Ti295  1  0.79528230  0.51509410  0.17028230  1.0
  Ti  Ti296  1  0.79528230  0.84842743  0.17028230  1.0
  Ti  Ti297  1  0.02861563  0.31509410  0.07028230  1.0
  Ti  Ti298  1  0.02861563  0.64842743  0.07028230  1.0
  Ti  Ti299  1  0.02861563  0.98176077  0.07028230  1.0
  Ti  Ti300  1  0.36194897  0.31509410  0.07028230  1.0
  Ti  Ti301  1  0.36194897  0.64842743  0.07028230  1.0
  Ti  Ti302  1  0.36194897  0.98176077  0.07028230  1.0
  Ti  Ti303  1  0.69528230  0.31509410  0.07028230  1.0
  Ti  Ti304  1  0.69528230  0.64842743  0.07028230  1.0
  Ti  Ti305  1  0.69528230  0.98176077  0.07028230  1.0
  Ti  Ti306  1  0.31194897  0.04842743  0.02028230  1.0
  Ti  Ti307  1  0.31194897  0.38176077  0.02028230  1.0
  Ti  Ti308  1  0.31194897  0.71509410  0.02028230  1.0
  Ti  Ti309  1  0.64528230  0.04842743  0.02028230  1.0
  Ti  Ti310  1  0.64528230  0.38176077  0.02028230  1.0
  Ti  Ti311  1  0.64528230  0.71509410  0.02028230  1.0
  Ti  Ti312  1  0.97861563  0.04842743  0.02028230  1.0
  Ti  Ti313  1  0.97861563  0.38176077  0.02028230  1.0
  Ti  Ti314  1  0.97861563  0.71509410  0.02028230  1.0
  Ti  Ti315  1  0.07861563  0.24842743  0.12028230  1.0
  Ti  Ti316  1  0.07861563  0.58176077  0.12028230  1.0
  Ti  Ti317  1  0.07861563  0.91509410  0.12028230  1.0
  Ti  Ti318  1  0.41194897  0.24842743  0.12028230  1.0
  Ti  Ti319  1  0.41194897  0.58176077  0.12028230  1.0
  Ti  Ti320  1  0.41194897  0.91509410  0.12028230  1.0
  Ti  Ti321  1  0.74528230  0.24842743  0.12028230  1.0
  Ti  Ti322  1  0.74528230  0.58176077  0.12028230  1.0
  Ti  Ti323  1  0.74528230  0.91509410  0.12028230  1.0
  Ti  Ti324  1  0.24528230  0.08176077  0.12028230  1.0
  Ti  Ti325  1  0.24528230  0.41509410  0.12028230  1.0
  Ti  Ti326  1  0.24528230  0.74842743  0.12028230  1.0
  Ti  Ti327  1  0.57861563  0.08176077  0.12028230  1.0
  Ti  Ti328  1  0.57861563  0.41509410  0.12028230  1.0
  Ti  Ti329  1  0.57861563  0.74842743  0.12028230  1.0
  Ti  Ti330  1  0.91194897  0.08176077  0.12028230  1.0
  Ti  Ti331  1  0.91194897  0.41509410  0.12028230  1.0
  Ti  Ti332  1  0.91194897  0.74842743  0.12028230  1.0
  Ti  Ti333  1  0.14528230  0.21509410  0.02028230  1.0
  Ti  Ti334  1  0.14528230  0.54842743  0.02028230  1.0
  Ti  Ti335  1  0.14528230  0.88176077  0.02028230  1.0
  Ti  Ti336  1  0.47861563  0.21509410  0.02028230  1.0
  Ti  Ti337  1  0.47861563  0.54842743  0.02028230  1.0
  Ti  Ti338  1  0.47861563  0.88176077  0.02028230  1.0
  Ti  Ti339  1  0.81194897  0.21509410  0.02028230  1.0
  Ti  Ti340  1  0.81194897  0.54842743  0.02028230  1.0
  Ti  Ti341  1  0.81194897  0.88176077  0.02028230  1.0
  Ti  Ti342  1  0.02861563  0.14842743  0.07028230  1.0
  Ti  Ti343  1  0.02861563  0.48176077  0.07028230  1.0
  Ti  Ti344  1  0.02861563  0.81509410  0.07028230  1.0
  Ti  Ti345  1  0.36194897  0.14842743  0.07028230  1.0
  Ti  Ti346  1  0.36194897  0.48176077  0.07028230  1.0
  Ti  Ti347  1  0.36194897  0.81509410  0.07028230  1.0
  Ti  Ti348  1  0.69528230  0.14842743  0.07028230  1.0
  Ti  Ti349  1  0.69528230  0.48176077  0.07028230  1.0
  Ti  Ti350  1  0.69528230  0.81509410  0.07028230  1.0
  Ti  Ti351  1  0.12861563  0.01509410  0.17028230  1.0
  Ti  Ti352  1  0.12861563  0.34842743  0.17028230  1.0
  Ti  Ti353  1  0.12861563  0.68176077  0.17028230  1.0
  Ti  Ti354  1  0.46194897  0.01509410  0.17028230  1.0
  Ti  Ti355  1  0.46194897  0.34842743  0.17028230  1.0
  Ti  Ti356  1  0.46194897  0.68176077  0.17028230  1.0
  Ti  Ti357  1  0.79528230  0.01509410  0.17028230  1.0
  Ti  Ti358  1  0.79528230  0.34842743  0.17028230  1.0
  Ti  Ti359  1  0.79528230  0.68176077  0.17028230  1.0
  Ti  Ti360  1  0.17444090  0.02341130  0.07023390  1.0
  Ti  Ti361  1  0.17444090  0.35674463  0.07023390  1.0
  Ti  Ti362  1  0.17444090  0.69007797  0.07023390  1.0
  Ti  Ti363  1  0.50777423  0.02341130  0.07023390  1.0
  Ti  Ti364  1  0.50777423  0.35674463  0.07023390  1.0
  Ti  Ti365  1  0.50777423  0.69007797  0.07023390  1.0
  Ti  Ti366  1  0.84110757  0.02341130  0.07023390  1.0
  Ti  Ti367  1  0.84110757  0.35674463  0.07023390  1.0
  Ti  Ti368  1  0.84110757  0.69007797  0.07023390  1.0
  Ti  Ti369  1  0.27444090  0.22341130  0.17023390  1.0
  Ti  Ti370  1  0.27444090  0.55674463  0.17023390  1.0
  Ti  Ti371  1  0.27444090  0.89007797  0.17023390  1.0
  Ti  Ti372  1  0.60777423  0.22341130  0.17023390  1.0
  Ti  Ti373  1  0.60777423  0.55674463  0.17023390  1.0
  Ti  Ti374  1  0.60777423  0.89007797  0.17023390  1.0
  Ti  Ti375  1  0.94110757  0.22341130  0.17023390  1.0
  Ti  Ti376  1  0.94110757  0.55674463  0.17023390  1.0
  Ti  Ti377  1  0.94110757  0.89007797  0.17023390  1.0
  Ti  Ti378  1  0.01612370  0.04011023  0.12033070  1.0
  Ti  Ti379  1  0.01612370  0.37344357  0.12033070  1.0
  Ti  Ti380  1  0.01612370  0.70677690  0.12033070  1.0
  Ti  Ti381  1  0.34945703  0.04011023  0.12033070  1.0
  Ti  Ti382  1  0.34945703  0.37344357  0.12033070  1.0
  Ti  Ti383  1  0.34945703  0.70677690  0.12033070  1.0
  Ti  Ti384  1  0.68279037  0.04011023  0.12033070  1.0
  Ti  Ti385  1  0.68279037  0.37344357  0.12033070  1.0
  Ti  Ti386  1  0.68279037  0.70677690  0.12033070  1.0
  Ti  Ti387  1  0.24945703  0.17344357  0.02033070  1.0
  Ti  Ti388  1  0.24945703  0.50677690  0.02033070  1.0
  Ti  Ti389  1  0.24945703  0.84011023  0.02033070  1.0
  Ti  Ti390  1  0.58279037  0.17344357  0.02033070  1.0
  Ti  Ti391  1  0.58279037  0.50677690  0.02033070  1.0
  Ti  Ti392  1  0.58279037  0.84011023  0.02033070  1.0
  Ti  Ti393  1  0.91612370  0.17344357  0.02033070  1.0
  Ti  Ti394  1  0.91612370  0.50677690  0.02033070  1.0
  Ti  Ti395  1  0.91612370  0.84011023  0.02033070  1.0
  Ti  Ti396  1  0.09107530  0.06509410  0.19528230  1.0
  Ti  Ti397  1  0.09107530  0.39842743  0.19528230  1.0
  Ti  Ti398  1  0.09107530  0.73176077  0.19528230  1.0
  Ti  Ti399  1  0.42440863  0.06509410  0.19528230  1.0
  Ti  Ti400  1  0.42440863  0.39842743  0.19528230  1.0
  Ti  Ti401  1  0.42440863  0.73176077  0.19528230  1.0
  Ti  Ti402  1  0.75774197  0.06509410  0.19528230  1.0
  Ti  Ti403  1  0.75774197  0.39842743  0.19528230  1.0
  Ti  Ti404  1  0.75774197  0.73176077  0.19528230  1.0
  Ti  Ti405  1  0.32440863  0.19842743  0.09528230  1.0
  Ti  Ti406  1  0.32440863  0.53176077  0.09528230  1.0
  Ti  Ti407  1  0.32440863  0.86509410  0.09528230  1.0
  Ti  Ti408  1  0.65774197  0.19842743  0.09528230  1.0
  Ti  Ti409  1  0.65774197  0.53176077  0.09528230  1.0
  Ti  Ti410  1  0.65774197  0.86509410  0.09528230  1.0
  Ti  Ti411  1  0.99107530  0.19842743  0.09528230  1.0
  Ti  Ti412  1  0.99107530  0.53176077  0.09528230  1.0
  Ti  Ti413  1  0.99107530  0.86509410  0.09528230  1.0
  Ti  Ti414  1  0.29948930  0.06509410  0.19528230  1.0
  Ti  Ti415  1  0.29948930  0.39842743  0.19528230  1.0
  Ti  Ti416  1  0.29948930  0.73176077  0.19528230  1.0
  Ti  Ti417  1  0.63282263  0.06509410  0.19528230  1.0
  Ti  Ti418  1  0.63282263  0.39842743  0.19528230  1.0
  Ti  Ti419  1  0.63282263  0.73176077  0.19528230  1.0
  Ti  Ti420  1  0.96615597  0.06509410  0.19528230  1.0
  Ti  Ti421  1  0.96615597  0.39842743  0.19528230  1.0
  Ti  Ti422  1  0.96615597  0.73176077  0.19528230  1.0
  Ti  Ti423  1  0.19948930  0.19842743  0.09528230  1.0
  Ti  Ti424  1  0.19948930  0.53176077  0.09528230  1.0
  Ti  Ti425  1  0.19948930  0.86509410  0.09528230  1.0
  Ti  Ti426  1  0.53282263  0.19842743  0.09528230  1.0
  Ti  Ti427  1  0.53282263  0.53176077  0.09528230  1.0
  Ti  Ti428  1  0.53282263  0.86509410  0.09528230  1.0
  Ti  Ti429  1  0.86615597  0.19842743  0.09528230  1.0
  Ti  Ti430  1  0.86615597  0.53176077  0.09528230  1.0
  Ti  Ti431  1  0.86615597  0.86509410  0.09528230  1.0
  Ti  Ti432  1  0.05359950  0.11506183  0.15780650  1.0
  Ti  Ti433  1  0.05359950  0.44839517  0.15780650  1.0
  Ti  Ti434  1  0.05359950  0.78172850  0.15780650  1.0
  Ti  Ti435  1  0.38693283  0.11506183  0.15780650  1.0
  Ti  Ti436  1  0.38693283  0.44839517  0.15780650  1.0
  Ti  Ti437  1  0.38693283  0.78172850  0.15780650  1.0
  Ti  Ti438  1  0.72026617  0.11506183  0.15780650  1.0
  Ti  Ti439  1  0.72026617  0.44839517  0.15780650  1.0
  Ti  Ti440  1  0.72026617  0.78172850  0.15780650  1.0
  Ti  Ti441  1  0.28693283  0.24839517  0.05780650  1.0
  Ti  Ti442  1  0.28693283  0.58172850  0.05780650  1.0
  Ti  Ti443  1  0.28693283  0.91506183  0.05780650  1.0
  Ti  Ti444  1  0.62026617  0.24839517  0.05780650  1.0
  Ti  Ti445  1  0.62026617  0.58172850  0.05780650  1.0
  Ti  Ti446  1  0.62026617  0.91506183  0.05780650  1.0
  Ti  Ti447  1  0.95359950  0.24839517  0.05780650  1.0
  Ti  Ti448  1  0.95359950  0.58172850  0.05780650  1.0
  Ti  Ti449  1  0.95359950  0.91506183  0.05780650  1.0
  Ti  Ti450  1  0.13696510  0.28179303  0.03275810  1.0
  Ti  Ti451  1  0.13696510  0.61512637  0.03275810  1.0
  Ti  Ti452  1  0.13696510  0.94845970  0.03275810  1.0
  Ti  Ti453  1  0.47029843  0.28179303  0.03275810  1.0
  Ti  Ti454  1  0.47029843  0.61512637  0.03275810  1.0
  Ti  Ti455  1  0.47029843  0.94845970  0.03275810  1.0
  Ti  Ti456  1  0.80363177  0.28179303  0.03275810  1.0
  Ti  Ti457  1  0.80363177  0.61512637  0.03275810  1.0
  Ti  Ti458  1  0.80363177  0.94845970  0.03275810  1.0
  Ti  Ti459  1  0.23696510  0.14845970  0.13275810  1.0
  Ti  Ti460  1  0.23696510  0.48179303  0.13275810  1.0
  Ti  Ti461  1  0.23696510  0.81512637  0.13275810  1.0
  Ti  Ti462  1  0.57029843  0.14845970  0.13275810  1.0
  Ti  Ti463  1  0.57029843  0.48179303  0.13275810  1.0
  Ti  Ti464  1  0.57029843  0.81512637  0.13275810  1.0
  Ti  Ti465  1  0.90363177  0.14845970  0.13275810  1.0
  Ti  Ti466  1  0.90363177  0.48179303  0.13275810  1.0
  Ti  Ti467  1  0.90363177  0.81512637  0.13275810  1.0
  Ti  Ti468  1  0.21612370  0.27344357  0.07033070  1.0
  Ti  Ti469  1  0.21612370  0.60677690  0.07033070  1.0
  Ti  Ti470  1  0.21612370  0.94011023  0.07033070  1.0
  Ti  Ti471  1  0.54945703  0.27344357  0.07033070  1.0
  Ti  Ti472  1  0.54945703  0.60677690  0.07033070  1.0
  Ti  Ti473  1  0.54945703  0.94011023  0.07033070  1.0
  Ti  Ti474  1  0.88279037  0.27344357  0.07033070  1.0
  Ti  Ti475  1  0.88279037  0.60677690  0.07033070  1.0
  Ti  Ti476  1  0.88279037  0.94011023  0.07033070  1.0
  Ti  Ti477  1  0.31612370  0.14011023  0.17033070  1.0
  Ti  Ti478  1  0.31612370  0.47344357  0.17033070  1.0
  Ti  Ti479  1  0.31612370  0.80677690  0.17033070  1.0
  Ti  Ti480  1  0.64945703  0.14011023  0.17033070  1.0
  Ti  Ti481  1  0.64945703  0.47344357  0.17033070  1.0
  Ti  Ti482  1  0.64945703  0.80677690  0.17033070  1.0
  Ti  Ti483  1  0.98279037  0.14011023  0.17033070  1.0
  Ti  Ti484  1  0.98279037  0.47344357  0.17033070  1.0
  Ti  Ti485  1  0.98279037  0.80677690  0.17033070  1.0
  Ti  Ti486  1  0.04110757  0.25674463  0.02023390  1.0
  Ti  Ti487  1  0.04110757  0.59007797  0.02023390  1.0
  Ti  Ti488  1  0.04110757  0.92341130  0.02023390  1.0
  Ti  Ti489  1  0.37444090  0.25674463  0.02023390  1.0
  Ti  Ti490  1  0.37444090  0.59007797  0.02023390  1.0
  Ti  Ti491  1  0.37444090  0.92341130  0.02023390  1.0
  Ti  Ti492  1  0.70777423  0.25674463  0.02023390  1.0
  Ti  Ti493  1  0.70777423  0.59007797  0.02023390  1.0
  Ti  Ti494  1  0.70777423  0.92341130  0.02023390  1.0
  Ti  Ti495  1  0.14110757  0.12341130  0.12023390  1.0
  Ti  Ti496  1  0.14110757  0.45674463  0.12023390  1.0
  Ti  Ti497  1  0.14110757  0.79007797  0.12023390  1.0
  Ti  Ti498  1  0.47444090  0.12341130  0.12023390  1.0
  Ti  Ti499  1  0.47444090  0.45674463  0.12023390  1.0
  Ti  Ti500  1  0.47444090  0.79007797  0.12023390  1.0
  Ti  Ti501  1  0.80777423  0.12341130  0.12023390  1.0
  Ti  Ti502  1  0.80777423  0.45674463  0.12023390  1.0
  Ti  Ti503  1  0.80777423  0.79007797  0.12023390  1.0
  Ti  Ti504  1  0.16615597  0.29842743  0.14528230  1.0
  Ti  Ti505  1  0.16615597  0.63176077  0.14528230  1.0
  Ti  Ti506  1  0.16615597  0.96509410  0.14528230  1.0
  Ti  Ti507  1  0.49948930  0.29842743  0.14528230  1.0
  Ti  Ti508  1  0.49948930  0.63176077  0.14528230  1.0
  Ti  Ti509  1  0.49948930  0.96509410  0.14528230  1.0
  Ti  Ti510  1  0.83282263  0.29842743  0.14528230  1.0
  Ti  Ti511  1  0.83282263  0.63176077  0.14528230  1.0
  Ti  Ti512  1  0.83282263  0.96509410  0.14528230  1.0
  Ti  Ti513  1  0.06615597  0.09842743  0.04528230  1.0
  Ti  Ti514  1  0.06615597  0.43176077  0.04528230  1.0
  Ti  Ti515  1  0.06615597  0.76509410  0.04528230  1.0
  Ti  Ti516  1  0.39948930  0.09842743  0.04528230  1.0
  Ti  Ti517  1  0.39948930  0.43176077  0.04528230  1.0
  Ti  Ti518  1  0.39948930  0.76509410  0.04528230  1.0
  Ti  Ti519  1  0.73282263  0.09842743  0.04528230  1.0
  Ti  Ti520  1  0.73282263  0.43176077  0.04528230  1.0
  Ti  Ti521  1  0.73282263  0.76509410  0.04528230  1.0
  Ti  Ti522  1  0.29107530  0.29842743  0.14528230  1.0
  Ti  Ti523  1  0.29107530  0.63176077  0.14528230  1.0
  Ti  Ti524  1  0.29107530  0.96509410  0.14528230  1.0
  Ti  Ti525  1  0.62440863  0.29842743  0.14528230  1.0
  Ti  Ti526  1  0.62440863  0.63176077  0.14528230  1.0
  Ti  Ti527  1  0.62440863  0.96509410  0.14528230  1.0
  Ti  Ti528  1  0.95774197  0.29842743  0.14528230  1.0
  Ti  Ti529  1  0.95774197  0.63176077  0.14528230  1.0
  Ti  Ti530  1  0.95774197  0.96509410  0.14528230  1.0
  Ti  Ti531  1  0.19107530  0.09842743  0.04528230  1.0
  Ti  Ti532  1  0.19107530  0.43176077  0.04528230  1.0
  Ti  Ti533  1  0.19107530  0.76509410  0.04528230  1.0
  Ti  Ti534  1  0.52440863  0.09842743  0.04528230  1.0
  Ti  Ti535  1  0.52440863  0.43176077  0.04528230  1.0
  Ti  Ti536  1  0.52440863  0.76509410  0.04528230  1.0
  Ti  Ti537  1  0.85774197  0.09842743  0.04528230  1.0
  Ti  Ti538  1  0.85774197  0.43176077  0.04528230  1.0
  Ti  Ti539  1  0.85774197  0.76509410  0.04528230  1.0
  Ti  Ti540  1  0.20363177  0.24845970  0.18275810  1.0
  Ti  Ti541  1  0.20363177  0.58179303  0.18275810  1.0
  Ti  Ti542  1  0.20363177  0.91512637  0.18275810  1.0
  Ti  Ti543  1  0.53696510  0.24845970  0.18275810  1.0
  Ti  Ti544  1  0.53696510  0.58179303  0.18275810  1.0
  Ti  Ti545  1  0.53696510  0.91512637  0.18275810  1.0
  Ti  Ti546  1  0.87029843  0.24845970  0.18275810  1.0
  Ti  Ti547  1  0.87029843  0.58179303  0.18275810  1.0
  Ti  Ti548  1  0.87029843  0.91512637  0.18275810  1.0
  Ti  Ti549  1  0.10363177  0.04845970  0.08275810  1.0
  Ti  Ti550  1  0.10363177  0.38179303  0.08275810  1.0
  Ti  Ti551  1  0.10363177  0.71512637  0.08275810  1.0
  Ti  Ti552  1  0.43696510  0.04845970  0.08275810  1.0
  Ti  Ti553  1  0.43696510  0.38179303  0.08275810  1.0
  Ti  Ti554  1  0.43696510  0.71512637  0.08275810  1.0
  Ti  Ti555  1  0.77029843  0.04845970  0.08275810  1.0
  Ti  Ti556  1  0.77029843  0.38179303  0.08275810  1.0
  Ti  Ti557  1  0.77029843  0.71512637  0.08275810  1.0
  Ti  Ti558  1  0.25359950  0.01506183  0.10780650  1.0
  Ti  Ti559  1  0.25359950  0.34839517  0.10780650  1.0
  Ti  Ti560  1  0.25359950  0.68172850  0.10780650  1.0
  Ti  Ti561  1  0.58693283  0.01506183  0.10780650  1.0
  Ti  Ti562  1  0.58693283  0.34839517  0.10780650  1.0
  Ti  Ti563  1  0.58693283  0.68172850  0.10780650  1.0
  Ti  Ti564  1  0.92026617  0.01506183  0.10780650  1.0
  Ti  Ti565  1  0.92026617  0.34839517  0.10780650  1.0
  Ti  Ti566  1  0.92026617  0.68172850  0.10780650  1.0
  Ti  Ti567  1  0.15359950  0.14839517  0.00780650  1.0
  Ti  Ti568  1  0.15359950  0.48172850  0.00780650  1.0
  Ti  Ti569  1  0.15359950  0.81506183  0.00780650  1.0
  Ti  Ti570  1  0.48693283  0.14839517  0.00780650  1.0
  Ti  Ti571  1  0.48693283  0.48172850  0.00780650  1.0
  Ti  Ti572  1  0.48693283  0.81506183  0.00780650  1.0
  Ti  Ti573  1  0.82026617  0.14839517  0.00780650  1.0
  Ti  Ti574  1  0.82026617  0.48172850  0.00780650  1.0
  Ti  Ti575  1  0.82026617  0.81506183  0.00780650  1.0
  Ti  Ti576  1  0.32861563  0.24842743  0.37028230  1.0
  Ti  Ti577  1  0.32861563  0.58176077  0.37028230  1.0
  Ti  Ti578  1  0.32861563  0.91509410  0.37028230  1.0
  Ti  Ti579  1  0.66194897  0.24842743  0.37028230  1.0
  Ti  Ti580  1  0.66194897  0.58176077  0.37028230  1.0
  Ti  Ti581  1  0.66194897  0.91509410  0.37028230  1.0
  Ti  Ti582  1  0.99528230  0.24842743  0.37028230  1.0
  Ti  Ti583  1  0.99528230  0.58176077  0.37028230  1.0
  Ti  Ti584  1  0.99528230  0.91509410  0.37028230  1.0
  Ti  Ti585  1  0.22861563  0.04842743  0.27028230  1.0
  Ti  Ti586  1  0.22861563  0.38176077  0.27028230  1.0
  Ti  Ti587  1  0.22861563  0.71509410  0.27028230  1.0
  Ti  Ti588  1  0.56194897  0.04842743  0.27028230  1.0
  Ti  Ti589  1  0.56194897  0.38176077  0.27028230  1.0
  Ti  Ti590  1  0.56194897  0.71509410  0.27028230  1.0
  Ti  Ti591  1  0.89528230  0.04842743  0.27028230  1.0
  Ti  Ti592  1  0.89528230  0.38176077  0.27028230  1.0
  Ti  Ti593  1  0.89528230  0.71509410  0.27028230  1.0
  Ti  Ti594  1  0.17861563  0.11509410  0.22028230  1.0
  Ti  Ti595  1  0.17861563  0.44842743  0.22028230  1.0
  Ti  Ti596  1  0.17861563  0.78176077  0.22028230  1.0
  Ti  Ti597  1  0.51194897  0.11509410  0.22028230  1.0
  Ti  Ti598  1  0.51194897  0.44842743  0.22028230  1.0
  Ti  Ti599  1  0.51194897  0.78176077  0.22028230  1.0
  Ti  Ti600  1  0.84528230  0.11509410  0.22028230  1.0
  Ti  Ti601  1  0.84528230  0.44842743  0.22028230  1.0
  Ti  Ti602  1  0.84528230  0.78176077  0.22028230  1.0
  Ti  Ti603  1  0.27861563  0.31509410  0.32028230  1.0
  Ti  Ti604  1  0.27861563  0.64842743  0.32028230  1.0
  Ti  Ti605  1  0.27861563  0.98176077  0.32028230  1.0
  Ti  Ti606  1  0.61194897  0.31509410  0.32028230  1.0
  Ti  Ti607  1  0.61194897  0.64842743  0.32028230  1.0
  Ti  Ti608  1  0.61194897  0.98176077  0.32028230  1.0
  Ti  Ti609  1  0.94528230  0.31509410  0.32028230  1.0
  Ti  Ti610  1  0.94528230  0.64842743  0.32028230  1.0
  Ti  Ti611  1  0.94528230  0.98176077  0.32028230  1.0
  Ti  Ti612  1  0.11194897  0.14842743  0.32028230  1.0
  Ti  Ti613  1  0.11194897  0.48176077  0.32028230  1.0
  Ti  Ti614  1  0.11194897  0.81509410  0.32028230  1.0
  Ti  Ti615  1  0.44528230  0.14842743  0.32028230  1.0
  Ti  Ti616  1  0.44528230  0.48176077  0.32028230  1.0
  Ti  Ti617  1  0.44528230  0.81509410  0.32028230  1.0
  Ti  Ti618  1  0.77861563  0.14842743  0.32028230  1.0
  Ti  Ti619  1  0.77861563  0.48176077  0.32028230  1.0
  Ti  Ti620  1  0.77861563  0.81509410  0.32028230  1.0
  Ti  Ti621  1  0.01194897  0.28176077  0.22028230  1.0
  Ti  Ti622  1  0.01194897  0.61509410  0.22028230  1.0
  Ti  Ti623  1  0.01194897  0.94842743  0.22028230  1.0
  Ti  Ti624  1  0.34528230  0.28176077  0.22028230  1.0
  Ti  Ti625  1  0.34528230  0.61509410  0.22028230  1.0
  Ti  Ti626  1  0.34528230  0.94842743  0.22028230  1.0
  Ti  Ti627  1  0.67861563  0.28176077  0.22028230  1.0
  Ti  Ti628  1  0.67861563  0.61509410  0.22028230  1.0
  Ti  Ti629  1  0.67861563  0.94842743  0.22028230  1.0
  Ti  Ti630  1  0.22861563  0.21509410  0.27028230  1.0
  Ti  Ti631  1  0.22861563  0.54842743  0.27028230  1.0
  Ti  Ti632  1  0.22861563  0.88176077  0.27028230  1.0
  Ti  Ti633  1  0.56194897  0.21509410  0.27028230  1.0
  Ti  Ti634  1  0.56194897  0.54842743  0.27028230  1.0
  Ti  Ti635  1  0.56194897  0.88176077  0.27028230  1.0
  Ti  Ti636  1  0.89528230  0.21509410  0.27028230  1.0
  Ti  Ti637  1  0.89528230  0.54842743  0.27028230  1.0
  Ti  Ti638  1  0.89528230  0.88176077  0.27028230  1.0
  Ti  Ti639  1  0.32861563  0.08176077  0.37028230  1.0
  Ti  Ti640  1  0.32861563  0.41509410  0.37028230  1.0
  Ti  Ti641  1  0.32861563  0.74842743  0.37028230  1.0
  Ti  Ti642  1  0.66194897  0.08176077  0.37028230  1.0
  Ti  Ti643  1  0.66194897  0.41509410  0.37028230  1.0
  Ti  Ti644  1  0.66194897  0.74842743  0.37028230  1.0
  Ti  Ti645  1  0.99528230  0.08176077  0.37028230  1.0
  Ti  Ti646  1  0.99528230  0.41509410  0.37028230  1.0
  Ti  Ti647  1  0.99528230  0.74842743  0.37028230  1.0
  Ti  Ti648  1  0.04110757  0.09007797  0.27023390  1.0
  Ti  Ti649  1  0.04110757  0.42341130  0.27023390  1.0
  Ti  Ti650  1  0.04110757  0.75674463  0.27023390  1.0
  Ti  Ti651  1  0.37444090  0.09007797  0.27023390  1.0
  Ti  Ti652  1  0.37444090  0.42341130  0.27023390  1.0
  Ti  Ti653  1  0.37444090  0.75674463  0.27023390  1.0
  Ti  Ti654  1  0.70777423  0.09007797  0.27023390  1.0
  Ti  Ti655  1  0.70777423  0.42341130  0.27023390  1.0
  Ti  Ti656  1  0.70777423  0.75674463  0.27023390  1.0
  Ti  Ti657  1  0.14110757  0.29007797  0.37023390  1.0
  Ti  Ti658  1  0.14110757  0.62341130  0.37023390  1.0
  Ti  Ti659  1  0.14110757  0.95674463  0.37023390  1.0
  Ti  Ti660  1  0.47444090  0.29007797  0.37023390  1.0
  Ti  Ti661  1  0.47444090  0.62341130  0.37023390  1.0
  Ti  Ti662  1  0.47444090  0.95674463  0.37023390  1.0
  Ti  Ti663  1  0.80777423  0.29007797  0.37023390  1.0
  Ti  Ti664  1  0.80777423  0.62341130  0.37023390  1.0
  Ti  Ti665  1  0.80777423  0.95674463  0.37023390  1.0
  Ti  Ti666  1  0.21612370  0.10677690  0.32033070  1.0
  Ti  Ti667  1  0.21612370  0.44011023  0.32033070  1.0
  Ti  Ti668  1  0.21612370  0.77344357  0.32033070  1.0
  Ti  Ti669  1  0.54945703  0.10677690  0.32033070  1.0
  Ti  Ti670  1  0.54945703  0.44011023  0.32033070  1.0
  Ti  Ti671  1  0.54945703  0.77344357  0.32033070  1.0
  Ti  Ti672  1  0.88279037  0.10677690  0.32033070  1.0
  Ti  Ti673  1  0.88279037  0.44011023  0.32033070  1.0
  Ti  Ti674  1  0.88279037  0.77344357  0.32033070  1.0
  Ti  Ti675  1  0.11612370  0.24011023  0.22033070  1.0
  Ti  Ti676  1  0.11612370  0.57344357  0.22033070  1.0
  Ti  Ti677  1  0.11612370  0.90677690  0.22033070  1.0
  Ti  Ti678  1  0.44945703  0.24011023  0.22033070  1.0
  Ti  Ti679  1  0.44945703  0.57344357  0.22033070  1.0
  Ti  Ti680  1  0.44945703  0.90677690  0.22033070  1.0
  Ti  Ti681  1  0.78279037  0.24011023  0.22033070  1.0
  Ti  Ti682  1  0.78279037  0.57344357  0.22033070  1.0
  Ti  Ti683  1  0.78279037  0.90677690  0.22033070  1.0
  Ti  Ti684  1  0.29107530  0.13176077  0.39528230  1.0
  Ti  Ti685  1  0.29107530  0.46509410  0.39528230  1.0
  Ti  Ti686  1  0.29107530  0.79842743  0.39528230  1.0
  Ti  Ti687  1  0.62440863  0.13176077  0.39528230  1.0
  Ti  Ti688  1  0.62440863  0.46509410  0.39528230  1.0
  Ti  Ti689  1  0.62440863  0.79842743  0.39528230  1.0
  Ti  Ti690  1  0.95774197  0.13176077  0.39528230  1.0
  Ti  Ti691  1  0.95774197  0.46509410  0.39528230  1.0
  Ti  Ti692  1  0.95774197  0.79842743  0.39528230  1.0
  Ti  Ti693  1  0.19107530  0.26509410  0.29528230  1.0
  Ti  Ti694  1  0.19107530  0.59842743  0.29528230  1.0
  Ti  Ti695  1  0.19107530  0.93176077  0.29528230  1.0
  Ti  Ti696  1  0.52440863  0.26509410  0.29528230  1.0
  Ti  Ti697  1  0.52440863  0.59842743  0.29528230  1.0
  Ti  Ti698  1  0.52440863  0.93176077  0.29528230  1.0
  Ti  Ti699  1  0.85774197  0.26509410  0.29528230  1.0
  Ti  Ti700  1  0.85774197  0.59842743  0.29528230  1.0
  Ti  Ti701  1  0.85774197  0.93176077  0.29528230  1.0
  Ti  Ti702  1  0.16615597  0.13176077  0.39528230  1.0
  Ti  Ti703  1  0.16615597  0.46509410  0.39528230  1.0
  Ti  Ti704  1  0.16615597  0.79842743  0.39528230  1.0
  Ti  Ti705  1  0.49948930  0.13176077  0.39528230  1.0
  Ti  Ti706  1  0.49948930  0.46509410  0.39528230  1.0
  Ti  Ti707  1  0.49948930  0.79842743  0.39528230  1.0
  Ti  Ti708  1  0.83282263  0.13176077  0.39528230  1.0
  Ti  Ti709  1  0.83282263  0.46509410  0.39528230  1.0
  Ti  Ti710  1  0.83282263  0.79842743  0.39528230  1.0
  Ti  Ti711  1  0.06615597  0.26509410  0.29528230  1.0
  Ti  Ti712  1  0.06615597  0.59842743  0.29528230  1.0
  Ti  Ti713  1  0.06615597  0.93176077  0.29528230  1.0
  Ti  Ti714  1  0.39948930  0.26509410  0.29528230  1.0
  Ti  Ti715  1  0.39948930  0.59842743  0.29528230  1.0
  Ti  Ti716  1  0.39948930  0.93176077  0.29528230  1.0
  Ti  Ti717  1  0.73282263  0.26509410  0.29528230  1.0
  Ti  Ti718  1  0.73282263  0.59842743  0.29528230  1.0
  Ti  Ti719  1  0.73282263  0.93176077  0.29528230  1.0
  Ti  Ti720  1  0.25359950  0.18172850  0.35780650  1.0
  Ti  Ti721  1  0.25359950  0.51506183  0.35780650  1.0
  Ti  Ti722  1  0.25359950  0.84839517  0.35780650  1.0
  Ti  Ti723  1  0.58693283  0.18172850  0.35780650  1.0
  Ti  Ti724  1  0.58693283  0.51506183  0.35780650  1.0
  Ti  Ti725  1  0.58693283  0.84839517  0.35780650  1.0
  Ti  Ti726  1  0.92026617  0.18172850  0.35780650  1.0
  Ti  Ti727  1  0.92026617  0.51506183  0.35780650  1.0
  Ti  Ti728  1  0.92026617  0.84839517  0.35780650  1.0
  Ti  Ti729  1  0.15359950  0.31506183  0.25780650  1.0
  Ti  Ti730  1  0.15359950  0.64839517  0.25780650  1.0
  Ti  Ti731  1  0.15359950  0.98172850  0.25780650  1.0
  Ti  Ti732  1  0.48693283  0.31506183  0.25780650  1.0
  Ti  Ti733  1  0.48693283  0.64839517  0.25780650  1.0
  Ti  Ti734  1  0.48693283  0.98172850  0.25780650  1.0
  Ti  Ti735  1  0.82026617  0.31506183  0.25780650  1.0
  Ti  Ti736  1  0.82026617  0.64839517  0.25780650  1.0
  Ti  Ti737  1  0.82026617  0.98172850  0.25780650  1.0
  Ti  Ti738  1  0.00363177  0.01512637  0.23275810  1.0
  Ti  Ti739  1  0.00363177  0.34845970  0.23275810  1.0
  Ti  Ti740  1  0.00363177  0.68179303  0.23275810  1.0
  Ti  Ti741  1  0.33696510  0.01512637  0.23275810  1.0
  Ti  Ti742  1  0.33696510  0.34845970  0.23275810  1.0
  Ti  Ti743  1  0.33696510  0.68179303  0.23275810  1.0
  Ti  Ti744  1  0.67029843  0.01512637  0.23275810  1.0
  Ti  Ti745  1  0.67029843  0.34845970  0.23275810  1.0
  Ti  Ti746  1  0.67029843  0.68179303  0.23275810  1.0
  Ti  Ti747  1  0.10363177  0.21512637  0.33275810  1.0
  Ti  Ti748  1  0.10363177  0.54845970  0.33275810  1.0
  Ti  Ti749  1  0.10363177  0.88179303  0.33275810  1.0
  Ti  Ti750  1  0.43696510  0.21512637  0.33275810  1.0
  Ti  Ti751  1  0.43696510  0.54845970  0.33275810  1.0
  Ti  Ti752  1  0.43696510  0.88179303  0.33275810  1.0
  Ti  Ti753  1  0.77029843  0.21512637  0.33275810  1.0
  Ti  Ti754  1  0.77029843  0.54845970  0.33275810  1.0
  Ti  Ti755  1  0.77029843  0.88179303  0.33275810  1.0
  Ti  Ti756  1  0.08279037  0.00677690  0.27033070  1.0
  Ti  Ti757  1  0.08279037  0.34011023  0.27033070  1.0
  Ti  Ti758  1  0.08279037  0.67344357  0.27033070  1.0
  Ti  Ti759  1  0.41612370  0.00677690  0.27033070  1.0
  Ti  Ti760  1  0.41612370  0.34011023  0.27033070  1.0
  Ti  Ti761  1  0.41612370  0.67344357  0.27033070  1.0
  Ti  Ti762  1  0.74945703  0.00677690  0.27033070  1.0
  Ti  Ti763  1  0.74945703  0.34011023  0.27033070  1.0
  Ti  Ti764  1  0.74945703  0.67344357  0.27033070  1.0
  Ti  Ti765  1  0.18279037  0.20677690  0.37033070  1.0
  Ti  Ti766  1  0.18279037  0.54011023  0.37033070  1.0
  Ti  Ti767  1  0.18279037  0.87344357  0.37033070  1.0
  Ti  Ti768  1  0.51612370  0.20677690  0.37033070  1.0
  Ti  Ti769  1  0.51612370  0.54011023  0.37033070  1.0
  Ti  Ti770  1  0.51612370  0.87344357  0.37033070  1.0
  Ti  Ti771  1  0.84945703  0.20677690  0.37033070  1.0
  Ti  Ti772  1  0.84945703  0.54011023  0.37033070  1.0
  Ti  Ti773  1  0.84945703  0.87344357  0.37033070  1.0
  Ti  Ti774  1  0.24110757  0.32341130  0.22023390  1.0
  Ti  Ti775  1  0.24110757  0.65674463  0.22023390  1.0
  Ti  Ti776  1  0.24110757  0.99007797  0.22023390  1.0
  Ti  Ti777  1  0.57444090  0.32341130  0.22023390  1.0
  Ti  Ti778  1  0.57444090  0.65674463  0.22023390  1.0
  Ti  Ti779  1  0.57444090  0.99007797  0.22023390  1.0
  Ti  Ti780  1  0.90777423  0.32341130  0.22023390  1.0
  Ti  Ti781  1  0.90777423  0.65674463  0.22023390  1.0
  Ti  Ti782  1  0.90777423  0.99007797  0.22023390  1.0
  Ti  Ti783  1  0.00777423  0.19007797  0.32023390  1.0
  Ti  Ti784  1  0.00777423  0.52341130  0.32023390  1.0
  Ti  Ti785  1  0.00777423  0.85674463  0.32023390  1.0
  Ti  Ti786  1  0.34110757  0.19007797  0.32023390  1.0
  Ti  Ti787  1  0.34110757  0.52341130  0.32023390  1.0
  Ti  Ti788  1  0.34110757  0.85674463  0.32023390  1.0
  Ti  Ti789  1  0.67444090  0.19007797  0.32023390  1.0
  Ti  Ti790  1  0.67444090  0.52341130  0.32023390  1.0
  Ti  Ti791  1  0.67444090  0.85674463  0.32023390  1.0
  Ti  Ti792  1  0.03282263  0.03176077  0.34528230  1.0
  Ti  Ti793  1  0.03282263  0.36509410  0.34528230  1.0
  Ti  Ti794  1  0.03282263  0.69842743  0.34528230  1.0
  Ti  Ti795  1  0.36615597  0.03176077  0.34528230  1.0
  Ti  Ti796  1  0.36615597  0.36509410  0.34528230  1.0
  Ti  Ti797  1  0.36615597  0.69842743  0.34528230  1.0
  Ti  Ti798  1  0.69948930  0.03176077  0.34528230  1.0
  Ti  Ti799  1  0.69948930  0.36509410  0.34528230  1.0
  Ti  Ti800  1  0.69948930  0.69842743  0.34528230  1.0
  Ti  Ti801  1  0.26615597  0.16509410  0.24528230  1.0
  Ti  Ti802  1  0.26615597  0.49842743  0.24528230  1.0
  Ti  Ti803  1  0.26615597  0.83176077  0.24528230  1.0
  Ti  Ti804  1  0.59948930  0.16509410  0.24528230  1.0
  Ti  Ti805  1  0.59948930  0.49842743  0.24528230  1.0
  Ti  Ti806  1  0.59948930  0.83176077  0.24528230  1.0
  Ti  Ti807  1  0.93282263  0.16509410  0.24528230  1.0
  Ti  Ti808  1  0.93282263  0.49842743  0.24528230  1.0
  Ti  Ti809  1  0.93282263  0.83176077  0.24528230  1.0
  Ti  Ti810  1  0.15774197  0.03176077  0.34528230  1.0
  Ti  Ti811  1  0.15774197  0.36509410  0.34528230  1.0
  Ti  Ti812  1  0.15774197  0.69842743  0.34528230  1.0
  Ti  Ti813  1  0.49107530  0.03176077  0.34528230  1.0
  Ti  Ti814  1  0.49107530  0.36509410  0.34528230  1.0
  Ti  Ti815  1  0.49107530  0.69842743  0.34528230  1.0
  Ti  Ti816  1  0.82440863  0.03176077  0.34528230  1.0
  Ti  Ti817  1  0.82440863  0.36509410  0.34528230  1.0
  Ti  Ti818  1  0.82440863  0.69842743  0.34528230  1.0
  Ti  Ti819  1  0.05774197  0.16509410  0.24528230  1.0
  Ti  Ti820  1  0.05774197  0.49842743  0.24528230  1.0
  Ti  Ti821  1  0.05774197  0.83176077  0.24528230  1.0
  Ti  Ti822  1  0.39107530  0.16509410  0.24528230  1.0
  Ti  Ti823  1  0.39107530  0.49842743  0.24528230  1.0
  Ti  Ti824  1  0.39107530  0.83176077  0.24528230  1.0
  Ti  Ti825  1  0.72440863  0.16509410  0.24528230  1.0
  Ti  Ti826  1  0.72440863  0.49842743  0.24528230  1.0
  Ti  Ti827  1  0.72440863  0.83176077  0.24528230  1.0
  Ti  Ti828  1  0.07029843  0.31512637  0.38275810  1.0
  Ti  Ti829  1  0.07029843  0.64845970  0.38275810  1.0
  Ti  Ti830  1  0.07029843  0.98179303  0.38275810  1.0
  Ti  Ti831  1  0.40363177  0.31512637  0.38275810  1.0
  Ti  Ti832  1  0.40363177  0.64845970  0.38275810  1.0
  Ti  Ti833  1  0.40363177  0.98179303  0.38275810  1.0
  Ti  Ti834  1  0.73696510  0.31512637  0.38275810  1.0
  Ti  Ti835  1  0.73696510  0.64845970  0.38275810  1.0
  Ti  Ti836  1  0.73696510  0.98179303  0.38275810  1.0
  Ti  Ti837  1  0.30363177  0.11512637  0.28275810  1.0
  Ti  Ti838  1  0.30363177  0.44845970  0.28275810  1.0
  Ti  Ti839  1  0.30363177  0.78179303  0.28275810  1.0
  Ti  Ti840  1  0.63696510  0.11512637  0.28275810  1.0
  Ti  Ti841  1  0.63696510  0.44845970  0.28275810  1.0
  Ti  Ti842  1  0.63696510  0.78179303  0.28275810  1.0
  Ti  Ti843  1  0.97029843  0.11512637  0.28275810  1.0
  Ti  Ti844  1  0.97029843  0.44845970  0.28275810  1.0
  Ti  Ti845  1  0.97029843  0.78179303  0.28275810  1.0
  Ti  Ti846  1  0.12026617  0.08172850  0.30780650  1.0
  Ti  Ti847  1  0.12026617  0.41506183  0.30780650  1.0
  Ti  Ti848  1  0.12026617  0.74839517  0.30780650  1.0
  Ti  Ti849  1  0.45359950  0.08172850  0.30780650  1.0
  Ti  Ti850  1  0.45359950  0.41506183  0.30780650  1.0
  Ti  Ti851  1  0.45359950  0.74839517  0.30780650  1.0
  Ti  Ti852  1  0.78693283  0.08172850  0.30780650  1.0
  Ti  Ti853  1  0.78693283  0.41506183  0.30780650  1.0
  Ti  Ti854  1  0.78693283  0.74839517  0.30780650  1.0
  Ti  Ti855  1  0.02026617  0.21506183  0.20780650  1.0
  Ti  Ti856  1  0.02026617  0.54839517  0.20780650  1.0
  Ti  Ti857  1  0.02026617  0.88172850  0.20780650  1.0
  Ti  Ti858  1  0.35359950  0.21506183  0.20780650  1.0
  Ti  Ti859  1  0.35359950  0.54839517  0.20780650  1.0
  Ti  Ti860  1  0.35359950  0.88172850  0.20780650  1.0
  Ti  Ti861  1  0.68693283  0.21506183  0.20780650  1.0
  Ti  Ti862  1  0.68693283  0.54839517  0.20780650  1.0
  Ti  Ti863  1  0.68693283  0.88172850  0.20780650  1.0
