# generated using pymatgen
data_Ti2Ni
_symmetry_space_group_name_H-M   'P 1'
_cell_length_a   23.91783597
_cell_length_b   58.58649388
_cell_length_c   32.87192135
_cell_angle_alpha   101.42175366
_cell_angle_beta   90.00000000
_cell_angle_gamma   90.00000000
_symmetry_Int_Tables_number   1
_chemical_formula_structural   Ti2Ni
_chemical_formula_sum   'Ti864 Ni432'
_cell_volume   45149.96651437
_cell_formula_units_Z   432
loop_
 _symmetry_equiv_pos_site_id
 _symmetry_equiv_pos_as_xyz
  1  'x, y, z'
loop_
 _atom_site_type_symbol
 _atom_site_label
 _atom_site_symmetry_multiplicity
 _atom_site_fract_x
 _atom_site_fract_y
 _atom_site_fract_z
 _atom_site_occupancy
  Ni  Ni0  1  0.33333333  0.00274254  0.04012686  1.0
  Ni  Ni1  1  0.33333333  0.33607587  0.04012686  1.0
  Ni  Ni2  1  0.33333333  0.66940921  0.04012686  1.0
  Ni  Ni3  1  0.66666667  0.00274254  0.04012686  1.0
  Ni  Ni4  1  0.66666667  0.33607587  0.04012686  1.0
  Ni  Ni5  1  0.66666667  0.66940921  0.04012686  1.0
  Ni  Ni6  1  1.00000000  0.00274254  0.04012686  1.0
  Ni  Ni7  1  1.00000000  0.33607587  0.04012686  1.0
  Ni  Ni8  1  0.00000000  0.66940921  0.04012686  1.0
  Ni  Ni9  1  0.16666667  0.12179016  0.11155543  1.0
  Ni  Ni10  1  0.16666667  0.45512349  0.11155543  1.0
  Ni  Ni11  1  0.16666667  0.78845682  0.11155543  1.0
  Ni  Ni12  1  0.50000000  0.12179016  0.11155543  1.0
  Ni  Ni13  1  0.50000000  0.45512349  0.11155543  1.0
  Ni  Ni14  1  0.50000000  0.78845682  0.11155543  1.0
  Ni  Ni15  1  0.83333333  0.12179016  0.11155543  1.0
  Ni  Ni16  1  0.83333333  0.45512349  0.11155543  1.0
  Ni  Ni17  1  0.83333333  0.78845682  0.11155543  1.0
  Ni  Ni18  1  0.10767911  0.11336336  0.03571429  1.0
  Ni  Ni19  1  0.10767911  0.44669670  0.03571429  1.0
  Ni  Ni20  1  0.10767911  0.78003003  0.03571429  1.0
  Ni  Ni21  1  0.44101245  0.11336336  0.03571429  1.0
  Ni  Ni22  1  0.44101245  0.44669670  0.03571429  1.0
  Ni  Ni23  1  0.44101245  0.78003003  0.03571429  1.0
  Ni  Ni24  1  0.77434578  0.11336336  0.03571429  1.0
  Ni  Ni25  1  0.77434578  0.44669670  0.03571429  1.0
  Ni  Ni26  1  0.77434578  0.78003003  0.03571429  1.0
  Ni  Ni27  1  0.27434578  0.23241098  0.10714286  1.0
  Ni  Ni28  1  0.27434578  0.56574432  0.10714286  1.0
  Ni  Ni29  1  0.27434578  0.89907765  0.10714286  1.0
  Ni  Ni30  1  0.60767911  0.23241098  0.10714286  1.0
  Ni  Ni31  1  0.60767911  0.56574432  0.10714286  1.0
  Ni  Ni32  1  0.60767911  0.89907765  0.10714286  1.0
  Ni  Ni33  1  0.94101245  0.23241098  0.10714286  1.0
  Ni  Ni34  1  0.94101245  0.56574432  0.10714286  1.0
  Ni  Ni35  1  0.94101244  0.89907765  0.10714286  1.0
  Ni  Ni36  1  0.22565422  0.11336336  0.03571429  1.0
  Ni  Ni37  1  0.22565422  0.44669670  0.03571429  1.0
  Ni  Ni38  1  0.22565422  0.78003003  0.03571429  1.0
  Ni  Ni39  1  0.55898755  0.11336336  0.03571429  1.0
  Ni  Ni40  1  0.55898755  0.44669670  0.03571429  1.0
  Ni  Ni41  1  0.55898755  0.78003003  0.03571429  1.0
  Ni  Ni42  1  0.89232089  0.11336336  0.03571429  1.0
  Ni  Ni43  1  0.89232089  0.44669670  0.03571429  1.0
  Ni  Ni44  1  0.89232089  0.78003003  0.03571429  1.0
  Ni  Ni45  1  0.05898756  0.23241098  0.10714286  1.0
  Ni  Ni46  1  0.05898756  0.56574432  0.10714286  1.0
  Ni  Ni47  1  0.05898756  0.89907765  0.10714286  1.0
  Ni  Ni48  1  0.39232089  0.23241098  0.10714286  1.0
  Ni  Ni49  1  0.39232089  0.56574432  0.10714286  1.0
  Ni  Ni50  1  0.39232089  0.89907765  0.10714286  1.0
  Ni  Ni51  1  0.72565422  0.23241098  0.10714286  1.0
  Ni  Ni52  1  0.72565422  0.56574432  0.10714286  1.0
  Ni  Ni53  1  0.72565422  0.89907765  0.10714286  1.0
  Ni  Ni54  1  0.00000000  0.27454495  0.13242324  1.0
  Ni  Ni55  1  0.00000000  0.60787828  0.13242324  1.0
  Ni  Ni56  1  0.00000000  0.94121162  0.13242324  1.0
  Ni  Ni57  1  0.33333333  0.27454495  0.13242324  1.0
  Ni  Ni58  1  0.33333333  0.60787828  0.13242324  1.0
  Ni  Ni59  1  0.33333333  0.94121162  0.13242324  1.0
  Ni  Ni60  1  0.66666667  0.27454495  0.13242324  1.0
  Ni  Ni61  1  0.66666667  0.60787828  0.13242324  1.0
  Ni  Ni62  1  0.66666667  0.94121162  0.13242324  1.0
  Ni  Ni63  1  0.16666667  0.15549733  0.06099467  1.0
  Ni  Ni64  1  0.16666667  0.48883067  0.06099467  1.0
  Ni  Ni65  1  0.16666667  0.82216400  0.06099467  1.0
  Ni  Ni66  1  0.50000000  0.15549733  0.06099467  1.0
  Ni  Ni67  1  0.50000000  0.48883067  0.06099467  1.0
  Ni  Ni68  1  0.50000000  0.82216400  0.06099467  1.0
  Ni  Ni69  1  0.83333333  0.15549733  0.06099467  1.0
  Ni  Ni70  1  0.83333333  0.48883067  0.06099467  1.0
  Ni  Ni71  1  0.83333333  0.82216400  0.06099467  1.0
  Ni  Ni72  1  0.00000000  0.16593124  0.08186248  1.0
  Ni  Ni73  1  0.00000000  0.49926457  0.08186248  1.0
  Ni  Ni74  1  0.00000000  0.83259791  0.08186248  1.0
  Ni  Ni75  1  0.33333333  0.16593124  0.08186248  1.0
  Ni  Ni76  1  0.33333333  0.49926457  0.08186248  1.0
  Ni  Ni77  1  0.33333333  0.83259791  0.08186248  1.0
  Ni  Ni78  1  0.66666667  0.16593124  0.08186248  1.0
  Ni  Ni79  1  0.66666667  0.49926457  0.08186248  1.0
  Ni  Ni80  1  0.66666667  0.83259791  0.08186248  1.0
  Ni  Ni81  1  0.16666667  0.04688362  0.01043390  1.0
  Ni  Ni82  1  0.16666667  0.38021695  0.01043390  1.0
  Ni  Ni83  1  0.16666667  0.71355029  0.01043390  1.0
  Ni  Ni84  1  0.50000000  0.04688362  0.01043390  1.0
  Ni  Ni85  1  0.50000000  0.38021695  0.01043390  1.0
  Ni  Ni86  1  0.50000000  0.71355029  0.01043390  1.0
  Ni  Ni87  1  0.83333333  0.04688362  0.01043390  1.0
  Ni  Ni88  1  0.83333333  0.38021695  0.01043390  1.0
  Ni  Ni89  1  0.83333333  0.71355029  0.01043390  1.0
  Ni  Ni90  1  0.22565422  0.05531041  0.08627505  1.0
  Ni  Ni91  1  0.22565422  0.38864375  0.08627505  1.0
  Ni  Ni92  1  0.22565422  0.72197708  0.08627505  1.0
  Ni  Ni93  1  0.55898755  0.05531041  0.08627505  1.0
  Ni  Ni94  1  0.55898756  0.38864375  0.08627505  1.0
  Ni  Ni95  1  0.55898755  0.72197708  0.08627505  1.0
  Ni  Ni96  1  0.89232089  0.05531041  0.08627505  1.0
  Ni  Ni97  1  0.89232089  0.38864375  0.08627505  1.0
  Ni  Ni98  1  0.89232089  0.72197708  0.08627505  1.0
  Ni  Ni99  1  0.05898756  0.26959613  0.01484648  1.0
  Ni  Ni100  1  0.05898756  0.60292946  0.01484648  1.0
  Ni  Ni101  1  0.05898756  0.93626279  0.01484648  1.0
  Ni  Ni102  1  0.39232089  0.26959613  0.01484648  1.0
  Ni  Ni103  1  0.39232089  0.60292946  0.01484648  1.0
  Ni  Ni104  1  0.39232089  0.93626279  0.01484648  1.0
  Ni  Ni105  1  0.72565422  0.26959613  0.01484648  1.0
  Ni  Ni106  1  0.72565422  0.60292946  0.01484648  1.0
  Ni  Ni107  1  0.72565422  0.93626279  0.01484648  1.0
  Ni  Ni108  1  0.10767911  0.05531041  0.08627505  1.0
  Ni  Ni109  1  0.10767911  0.38864375  0.08627505  1.0
  Ni  Ni110  1  0.10767911  0.72197708  0.08627505  1.0
  Ni  Ni111  1  0.44101245  0.05531041  0.08627505  1.0
  Ni  Ni112  1  0.44101244  0.38864375  0.08627505  1.0
  Ni  Ni113  1  0.44101245  0.72197708  0.08627505  1.0
  Ni  Ni114  1  0.77434578  0.05531041  0.08627505  1.0
  Ni  Ni115  1  0.77434578  0.38864375  0.08627505  1.0
  Ni  Ni116  1  0.77434578  0.72197708  0.08627505  1.0
  Ni  Ni117  1  0.27434578  0.26959613  0.01484648  1.0
  Ni  Ni118  1  0.27434578  0.60292946  0.01484648  1.0
  Ni  Ni119  1  0.27434578  0.93626279  0.01484648  1.0
  Ni  Ni120  1  0.60767911  0.26959613  0.01484648  1.0
  Ni  Ni121  1  0.60767911  0.60292946  0.01484648  1.0
  Ni  Ni122  1  0.60767911  0.93626279  0.01484648  1.0
  Ni  Ni123  1  0.94101245  0.26959613  0.01484648  1.0
  Ni  Ni124  1  0.94101245  0.60292946  0.01484648  1.0
  Ni  Ni125  1  0.94101245  0.93626279  0.01484648  1.0
  Ni  Ni126  1  0.00000000  0.13222406  0.13242324  1.0
  Ni  Ni127  1  0.00000000  0.46555740  0.13242324  1.0
  Ni  Ni128  1  0.00000000  0.79889073  0.13242324  1.0
  Ni  Ni129  1  0.33333333  0.13222406  0.13242324  1.0
  Ni  Ni130  1  0.33333333  0.46555740  0.13242324  1.0
  Ni  Ni131  1  0.33333333  0.79889073  0.13242324  1.0
  Ni  Ni132  1  0.66666667  0.13222406  0.13242324  1.0
  Ni  Ni133  1  0.66666667  0.46555740  0.13242324  1.0
  Ni  Ni134  1  0.66666667  0.79889073  0.13242324  1.0
  Ni  Ni135  1  0.16666667  0.01317645  0.06099467  1.0
  Ni  Ni136  1  0.16666667  0.34650978  0.06099467  1.0
  Ni  Ni137  1  0.16666667  0.67984311  0.06099467  1.0
  Ni  Ni138  1  0.50000000  0.01317645  0.06099467  1.0
  Ni  Ni139  1  0.50000000  0.34650978  0.06099467  1.0
  Ni  Ni140  1  0.50000000  0.67984311  0.06099467  1.0
  Ni  Ni141  1  0.83333333  0.01317645  0.06099467  1.0
  Ni  Ni142  1  0.83333333  0.34650978  0.06099467  1.0
  Ni  Ni143  1  0.83333333  0.67984311  0.06099467  1.0
  Ni  Ni144  1  0.33333333  0.24083778  0.18298400  1.0
  Ni  Ni145  1  0.33333333  0.57417111  0.18298400  1.0
  Ni  Ni146  1  0.33333333  0.90750444  0.18298400  1.0
  Ni  Ni147  1  0.66666667  0.24083778  0.18298400  1.0
  Ni  Ni148  1  0.66666667  0.57417111  0.18298400  1.0
  Ni  Ni149  1  0.66666667  0.90750444  0.18298400  1.0
  Ni  Ni150  1  1.00000000  0.24083778  0.18298400  1.0
  Ni  Ni151  1  0.00000000  0.57417111  0.18298400  1.0
  Ni  Ni152  1  0.00000000  0.90750444  0.18298400  1.0
  Ni  Ni153  1  0.16666667  0.02655206  0.25441257  1.0
  Ni  Ni154  1  0.16666667  0.35988540  0.25441257  1.0
  Ni  Ni155  1  0.16666667  0.69321873  0.25441257  1.0
  Ni  Ni156  1  0.50000000  0.02655206  0.25441257  1.0
  Ni  Ni157  1  0.50000000  0.35988540  0.25441257  1.0
  Ni  Ni158  1  0.50000000  0.69321873  0.25441257  1.0
  Ni  Ni159  1  0.83333333  0.02655206  0.25441257  1.0
  Ni  Ni160  1  0.83333333  0.35988540  0.25441257  1.0
  Ni  Ni161  1  0.83333333  0.69321873  0.25441257  1.0
  Ni  Ni162  1  0.10767911  0.01812527  0.17857143  1.0
  Ni  Ni163  1  0.10767911  0.35145860  0.17857143  1.0
  Ni  Ni164  1  0.10767911  0.68479194  0.17857143  1.0
  Ni  Ni165  1  0.44101245  0.01812527  0.17857143  1.0
  Ni  Ni166  1  0.44101245  0.35145860  0.17857143  1.0
  Ni  Ni167  1  0.44101245  0.68479194  0.17857143  1.0
  Ni  Ni168  1  0.77434578  0.01812527  0.17857143  1.0
  Ni  Ni169  1  0.77434578  0.35145860  0.17857143  1.0
  Ni  Ni170  1  0.77434578  0.68479194  0.17857143  1.0
  Ni  Ni171  1  0.27434578  0.13717289  0.25000000  1.0
  Ni  Ni172  1  0.27434578  0.47050622  0.25000000  1.0
  Ni  Ni173  1  0.27434578  0.80383956  0.25000000  1.0
  Ni  Ni174  1  0.60767911  0.13717289  0.25000000  1.0
  Ni  Ni175  1  0.60767911  0.47050622  0.25000000  1.0
  Ni  Ni176  1  0.60767911  0.80383956  0.25000000  1.0
  Ni  Ni177  1  0.94101245  0.13717289  0.25000000  1.0
  Ni  Ni178  1  0.94101245  0.47050622  0.25000000  1.0
  Ni  Ni179  1  0.94101244  0.80383956  0.25000000  1.0
  Ni  Ni180  1  0.22565422  0.01812527  0.17857143  1.0
  Ni  Ni181  1  0.22565422  0.35145860  0.17857143  1.0
  Ni  Ni182  1  0.22565422  0.68479194  0.17857143  1.0
  Ni  Ni183  1  0.55898755  0.01812527  0.17857143  1.0
  Ni  Ni184  1  0.55898756  0.35145860  0.17857143  1.0
  Ni  Ni185  1  0.55898756  0.68479194  0.17857143  1.0
  Ni  Ni186  1  0.89232089  0.01812527  0.17857143  1.0
  Ni  Ni187  1  0.89232089  0.35145860  0.17857143  1.0
  Ni  Ni188  1  0.89232089  0.68479194  0.17857143  1.0
  Ni  Ni189  1  0.05898756  0.13717289  0.25000000  1.0
  Ni  Ni190  1  0.05898756  0.47050622  0.25000000  1.0
  Ni  Ni191  1  0.05898756  0.80383955  0.25000000  1.0
  Ni  Ni192  1  0.39232089  0.13717289  0.25000000  1.0
  Ni  Ni193  1  0.39232089  0.47050622  0.25000000  1.0
  Ni  Ni194  1  0.39232089  0.80383955  0.25000000  1.0
  Ni  Ni195  1  0.72565422  0.13717289  0.25000000  1.0
  Ni  Ni196  1  0.72565422  0.47050622  0.25000000  1.0
  Ni  Ni197  1  0.72565422  0.80383955  0.25000000  1.0
  Ni  Ni198  1  0.33333333  0.17930686  0.27528038  1.0
  Ni  Ni199  1  0.33333333  0.51264019  0.27528038  1.0
  Ni  Ni200  1  0.33333333  0.84597352  0.27528038  1.0
  Ni  Ni201  1  0.66666667  0.17930686  0.27528038  1.0
  Ni  Ni202  1  0.66666667  0.51264019  0.27528038  1.0
  Ni  Ni203  1  0.66666667  0.84597352  0.27528038  1.0
  Ni  Ni204  1  1.00000000  0.17930686  0.27528038  1.0
  Ni  Ni205  1  0.00000000  0.51264019  0.27528038  1.0
  Ni  Ni206  1  0.00000000  0.84597352  0.27528038  1.0
  Ni  Ni207  1  0.16666667  0.06025924  0.20385181  1.0
  Ni  Ni208  1  0.16666667  0.39359257  0.20385181  1.0
  Ni  Ni209  1  0.16666667  0.72692590  0.20385181  1.0
  Ni  Ni210  1  0.50000000  0.06025924  0.20385181  1.0
  Ni  Ni211  1  0.50000000  0.39359257  0.20385181  1.0
  Ni  Ni212  1  0.50000000  0.72692590  0.20385181  1.0
  Ni  Ni213  1  0.83333333  0.06025924  0.20385181  1.0
  Ni  Ni214  1  0.83333333  0.39359257  0.20385181  1.0
  Ni  Ni215  1  0.83333333  0.72692590  0.20385181  1.0
  Ni  Ni216  1  0.00000000  0.07069314  0.22471962  1.0
  Ni  Ni217  1  0.00000000  0.40402648  0.22471962  1.0
  Ni  Ni218  1  0.00000000  0.73735981  0.22471962  1.0
  Ni  Ni219  1  0.33333333  0.07069314  0.22471962  1.0
  Ni  Ni220  1  0.33333333  0.40402648  0.22471962  1.0
  Ni  Ni221  1  0.33333333  0.73735981  0.22471962  1.0
  Ni  Ni222  1  0.66666667  0.07069314  0.22471962  1.0
  Ni  Ni223  1  0.66666667  0.40402648  0.22471962  1.0
  Ni  Ni224  1  0.66666667  0.73735981  0.22471962  1.0
  Ni  Ni225  1  0.16666667  0.28497886  0.15329105  1.0
  Ni  Ni226  1  0.16666667  0.61831219  0.15329105  1.0
  Ni  Ni227  1  0.16666667  0.95164552  0.15329105  1.0
  Ni  Ni228  1  0.50000000  0.28497886  0.15329105  1.0
  Ni  Ni229  1  0.50000000  0.61831219  0.15329105  1.0
  Ni  Ni230  1  0.50000000  0.95164552  0.15329105  1.0
  Ni  Ni231  1  0.83333333  0.28497886  0.15329105  1.0
  Ni  Ni232  1  0.83333333  0.61831219  0.15329105  1.0
  Ni  Ni233  1  0.83333333  0.95164552  0.15329105  1.0
  Ni  Ni234  1  0.22565422  0.29340565  0.22913219  1.0
  Ni  Ni235  1  0.22565422  0.62673898  0.22913219  1.0
  Ni  Ni236  1  0.22565422  0.96007232  0.22913219  1.0
  Ni  Ni237  1  0.55898756  0.29340565  0.22913219  1.0
  Ni  Ni238  1  0.55898756  0.62673898  0.22913219  1.0
  Ni  Ni239  1  0.55898756  0.96007232  0.22913219  1.0
  Ni  Ni240  1  0.89232089  0.29340565  0.22913219  1.0
  Ni  Ni241  1  0.89232089  0.62673898  0.22913219  1.0
  Ni  Ni242  1  0.89232089  0.96007232  0.22913219  1.0
  Ni  Ni243  1  0.05898755  0.17435803  0.15770362  1.0
  Ni  Ni244  1  0.05898755  0.50769137  0.15770362  1.0
  Ni  Ni245  1  0.05898755  0.84102470  0.15770362  1.0
  Ni  Ni246  1  0.39232089  0.17435803  0.15770362  1.0
  Ni  Ni247  1  0.39232089  0.50769137  0.15770362  1.0
  Ni  Ni248  1  0.39232089  0.84102470  0.15770362  1.0
  Ni  Ni249  1  0.72565422  0.17435803  0.15770362  1.0
  Ni  Ni250  1  0.72565422  0.50769137  0.15770362  1.0
  Ni  Ni251  1  0.72565422  0.84102470  0.15770362  1.0
  Ni  Ni252  1  0.10767911  0.29340565  0.22913219  1.0
  Ni  Ni253  1  0.10767911  0.62673898  0.22913219  1.0
  Ni  Ni254  1  0.10767911  0.96007232  0.22913219  1.0
  Ni  Ni255  1  0.44101245  0.29340565  0.22913219  1.0
  Ni  Ni256  1  0.44101244  0.62673898  0.22913219  1.0
  Ni  Ni257  1  0.44101244  0.96007232  0.22913219  1.0
  Ni  Ni258  1  0.77434578  0.29340565  0.22913219  1.0
  Ni  Ni259  1  0.77434578  0.62673898  0.22913219  1.0
  Ni  Ni260  1  0.77434578  0.96007232  0.22913219  1.0
  Ni  Ni261  1  0.27434578  0.17435803  0.15770362  1.0
  Ni  Ni262  1  0.27434578  0.50769137  0.15770362  1.0
  Ni  Ni263  1  0.27434578  0.84102470  0.15770362  1.0
  Ni  Ni264  1  0.60767911  0.17435803  0.15770362  1.0
  Ni  Ni265  1  0.60767911  0.50769137  0.15770362  1.0
  Ni  Ni266  1  0.60767911  0.84102470  0.15770362  1.0
  Ni  Ni267  1  0.94101245  0.17435803  0.15770362  1.0
  Ni  Ni268  1  0.94101245  0.50769137  0.15770362  1.0
  Ni  Ni269  1  0.94101245  0.84102470  0.15770362  1.0
  Ni  Ni270  1  0.00000000  0.03698597  0.27528038  1.0
  Ni  Ni271  1  0.00000000  0.37031930  0.27528038  1.0
  Ni  Ni272  1  0.00000000  0.70365264  0.27528038  1.0
  Ni  Ni273  1  0.33333333  0.03698597  0.27528038  1.0
  Ni  Ni274  1  0.33333333  0.37031930  0.27528038  1.0
  Ni  Ni275  1  0.33333333  0.70365264  0.27528038  1.0
  Ni  Ni276  1  0.66666667  0.03698597  0.27528038  1.0
  Ni  Ni277  1  0.66666667  0.37031930  0.27528038  1.0
  Ni  Ni278  1  0.66666667  0.70365264  0.27528038  1.0
  Ni  Ni279  1  0.16666667  0.25127168  0.20385181  1.0
  Ni  Ni280  1  0.16666667  0.58460502  0.20385181  1.0
  Ni  Ni281  1  0.16666667  0.91793835  0.20385181  1.0
  Ni  Ni282  1  0.50000000  0.25127168  0.20385181  1.0
  Ni  Ni283  1  0.50000000  0.58460502  0.20385181  1.0
  Ni  Ni284  1  0.50000000  0.91793835  0.20385181  1.0
  Ni  Ni285  1  0.83333333  0.25127168  0.20385181  1.0
  Ni  Ni286  1  0.83333333  0.58460502  0.20385181  1.0
  Ni  Ni287  1  0.83333333  0.91793835  0.20385181  1.0
  Ni  Ni288  1  0.33333333  0.14559968  0.32584114  1.0
  Ni  Ni289  1  0.33333333  0.47893302  0.32584114  1.0
  Ni  Ni290  1  0.33333333  0.81226635  0.32584114  1.0
  Ni  Ni291  1  0.66666667  0.14559968  0.32584114  1.0
  Ni  Ni292  1  0.66666667  0.47893302  0.32584114  1.0
  Ni  Ni293  1  0.66666667  0.81226635  0.32584114  1.0
  Ni  Ni294  1  1.00000000  0.14559968  0.32584114  1.0
  Ni  Ni295  1  0.00000000  0.47893302  0.32584114  1.0
  Ni  Ni296  1  0.00000000  0.81226635  0.32584114  1.0
  Ni  Ni297  1  0.16666667  0.26464730  0.39726971  1.0
  Ni  Ni298  1  0.16666667  0.59798063  0.39726971  1.0
  Ni  Ni299  1  0.16666667  0.93131397  0.39726971  1.0
  Ni  Ni300  1  0.50000000  0.26464730  0.39726971  1.0
  Ni  Ni301  1  0.50000000  0.59798063  0.39726971  1.0
  Ni  Ni302  1  0.50000000  0.93131397  0.39726971  1.0
  Ni  Ni303  1  0.83333333  0.26464730  0.39726971  1.0
  Ni  Ni304  1  0.83333333  0.59798063  0.39726971  1.0
  Ni  Ni305  1  0.83333333  0.93131397  0.39726971  1.0
  Ni  Ni306  1  0.10767911  0.25622051  0.32142857  1.0
  Ni  Ni307  1  0.10767911  0.58955384  0.32142857  1.0
  Ni  Ni308  1  0.10767911  0.92288717  0.32142857  1.0
  Ni  Ni309  1  0.44101245  0.25622051  0.32142857  1.0
  Ni  Ni310  1  0.44101245  0.58955384  0.32142857  1.0
  Ni  Ni311  1  0.44101245  0.92288717  0.32142857  1.0
  Ni  Ni312  1  0.77434578  0.25622051  0.32142857  1.0
  Ni  Ni313  1  0.77434578  0.58955384  0.32142857  1.0
  Ni  Ni314  1  0.77434578  0.92288717  0.32142857  1.0
  Ni  Ni315  1  0.27434578  0.04193479  0.39285714  1.0
  Ni  Ni316  1  0.27434578  0.37526813  0.39285714  1.0
  Ni  Ni317  1  0.27434578  0.70860146  0.39285714  1.0
  Ni  Ni318  1  0.60767911  0.04193479  0.39285714  1.0
  Ni  Ni319  1  0.60767911  0.37526813  0.39285714  1.0
  Ni  Ni320  1  0.60767911  0.70860146  0.39285714  1.0
  Ni  Ni321  1  0.94101245  0.04193479  0.39285714  1.0
  Ni  Ni322  1  0.94101245  0.37526813  0.39285714  1.0
  Ni  Ni323  1  0.94101245  0.70860146  0.39285714  1.0
  Ni  Ni324  1  0.22565422  0.25622051  0.32142857  1.0
  Ni  Ni325  1  0.22565422  0.58955384  0.32142857  1.0
  Ni  Ni326  1  0.22565422  0.92288717  0.32142857  1.0
  Ni  Ni327  1  0.55898756  0.25622051  0.32142857  1.0
  Ni  Ni328  1  0.55898756  0.58955384  0.32142857  1.0
  Ni  Ni329  1  0.55898756  0.92288717  0.32142857  1.0
  Ni  Ni330  1  0.89232089  0.25622051  0.32142857  1.0
  Ni  Ni331  1  0.89232089  0.58955384  0.32142857  1.0
  Ni  Ni332  1  0.89232089  0.92288717  0.32142857  1.0
  Ni  Ni333  1  0.05898756  0.04193479  0.39285714  1.0
  Ni  Ni334  1  0.05898756  0.37526813  0.39285714  1.0
  Ni  Ni335  1  0.05898756  0.70860146  0.39285714  1.0
  Ni  Ni336  1  0.39232089  0.04193479  0.39285714  1.0
  Ni  Ni337  1  0.39232089  0.37526813  0.39285714  1.0
  Ni  Ni338  1  0.39232089  0.70860146  0.39285714  1.0
  Ni  Ni339  1  0.72565422  0.04193479  0.39285714  1.0
  Ni  Ni340  1  0.72565422  0.37526813  0.39285714  1.0
  Ni  Ni341  1  0.72565422  0.70860146  0.39285714  1.0
  Ni  Ni342  1  0.00000000  0.08406876  0.41813752  1.0
  Ni  Ni343  1  0.00000000  0.41740209  0.41813752  1.0
  Ni  Ni344  1  0.00000000  0.75073543  0.41813752  1.0
  Ni  Ni345  1  0.33333333  0.08406876  0.41813752  1.0
  Ni  Ni346  1  0.33333333  0.41740209  0.41813752  1.0
  Ni  Ni347  1  0.33333333  0.75073543  0.41813752  1.0
  Ni  Ni348  1  0.66666667  0.08406876  0.41813752  1.0
  Ni  Ni349  1  0.66666667  0.41740209  0.41813752  1.0
  Ni  Ni350  1  0.66666667  0.75073543  0.41813752  1.0
  Ni  Ni351  1  0.16666667  0.29835448  0.34670895  1.0
  Ni  Ni352  1  0.16666667  0.63168781  0.34670895  1.0
  Ni  Ni353  1  0.16666667  0.96502114  0.34670895  1.0
  Ni  Ni354  1  0.50000000  0.29835448  0.34670895  1.0
  Ni  Ni355  1  0.50000000  0.63168781  0.34670895  1.0
  Ni  Ni356  1  0.50000000  0.96502114  0.34670895  1.0
  Ni  Ni357  1  0.83333333  0.29835448  0.34670895  1.0
  Ni  Ni358  1  0.83333333  0.63168781  0.34670895  1.0
  Ni  Ni359  1  0.83333333  0.96502114  0.34670895  1.0
  Ni  Ni360  1  0.00000000  0.30878838  0.36757676  1.0
  Ni  Ni361  1  0.00000000  0.64212172  0.36757676  1.0
  Ni  Ni362  1  0.00000000  0.97545505  0.36757676  1.0
  Ni  Ni363  1  0.33333333  0.30878838  0.36757676  1.0
  Ni  Ni364  1  0.33333333  0.64212172  0.36757676  1.0
  Ni  Ni365  1  0.33333333  0.97545505  0.36757676  1.0
  Ni  Ni366  1  0.66666667  0.30878838  0.36757676  1.0
  Ni  Ni367  1  0.66666667  0.64212172  0.36757676  1.0
  Ni  Ni368  1  0.66666667  0.97545505  0.36757676  1.0
  Ni  Ni369  1  0.16666667  0.18974076  0.29614819  1.0
  Ni  Ni370  1  0.16666667  0.52307410  0.29614819  1.0
  Ni  Ni371  1  0.16666667  0.85640743  0.29614819  1.0
  Ni  Ni372  1  0.50000000  0.18974076  0.29614819  1.0
  Ni  Ni373  1  0.50000000  0.52307410  0.29614819  1.0
  Ni  Ni374  1  0.50000000  0.85640743  0.29614819  1.0
  Ni  Ni375  1  0.83333333  0.18974076  0.29614819  1.0
  Ni  Ni376  1  0.83333333  0.52307410  0.29614819  1.0
  Ni  Ni377  1  0.83333333  0.85640743  0.29614819  1.0
  Ni  Ni378  1  0.22565422  0.19816756  0.37198933  1.0
  Ni  Ni379  1  0.22565422  0.53150089  0.37198933  1.0
  Ni  Ni380  1  0.22565422  0.86483422  0.37198933  1.0
  Ni  Ni381  1  0.55898756  0.19816756  0.37198933  1.0
  Ni  Ni382  1  0.55898755  0.53150089  0.37198933  1.0
  Ni  Ni383  1  0.55898756  0.86483422  0.37198933  1.0
  Ni  Ni384  1  0.89232089  0.19816756  0.37198933  1.0
  Ni  Ni385  1  0.89232089  0.53150089  0.37198933  1.0
  Ni  Ni386  1  0.89232089  0.86483422  0.37198933  1.0
  Ni  Ni387  1  0.05898756  0.07911994  0.30056076  1.0
  Ni  Ni388  1  0.05898756  0.41245327  0.30056076  1.0
  Ni  Ni389  1  0.05898756  0.74578660  0.30056076  1.0
  Ni  Ni390  1  0.39232089  0.07911994  0.30056076  1.0
  Ni  Ni391  1  0.39232089  0.41245327  0.30056076  1.0
  Ni  Ni392  1  0.39232089  0.74578660  0.30056076  1.0
  Ni  Ni393  1  0.72565422  0.07911994  0.30056076  1.0
  Ni  Ni394  1  0.72565422  0.41245327  0.30056076  1.0
  Ni  Ni395  1  0.72565422  0.74578660  0.30056076  1.0
  Ni  Ni396  1  0.10767911  0.19816756  0.37198933  1.0
  Ni  Ni397  1  0.10767911  0.53150089  0.37198933  1.0
  Ni  Ni398  1  0.10767911  0.86483422  0.37198933  1.0
  Ni  Ni399  1  0.44101245  0.19816756  0.37198933  1.0
  Ni  Ni400  1  0.44101244  0.53150089  0.37198933  1.0
  Ni  Ni401  1  0.44101245  0.86483422  0.37198933  1.0
  Ni  Ni402  1  0.77434578  0.19816756  0.37198933  1.0
  Ni  Ni403  1  0.77434578  0.53150089  0.37198933  1.0
  Ni  Ni404  1  0.77434578  0.86483422  0.37198933  1.0
  Ni  Ni405  1  0.27434578  0.07911994  0.30056076  1.0
  Ni  Ni406  1  0.27434578  0.41245327  0.30056076  1.0
  Ni  Ni407  1  0.27434578  0.74578660  0.30056076  1.0
  Ni  Ni408  1  0.60767911  0.07911994  0.30056076  1.0
  Ni  Ni409  1  0.60767911  0.41245327  0.30056076  1.0
  Ni  Ni410  1  0.60767911  0.74578660  0.30056076  1.0
  Ni  Ni411  1  0.94101245  0.07911994  0.30056076  1.0
  Ni  Ni412  1  0.94101245  0.41245327  0.30056076  1.0
  Ni  Ni413  1  0.94101245  0.74578660  0.30056076  1.0
  Ni  Ni414  1  0.00000000  0.27508121  0.41813752  1.0
  Ni  Ni415  1  0.00000000  0.60841454  0.41813752  1.0
  Ni  Ni416  1  0.00000000  0.94174787  0.41813752  1.0
  Ni  Ni417  1  0.33333333  0.27508121  0.41813752  1.0
  Ni  Ni418  1  0.33333333  0.60841454  0.41813752  1.0
  Ni  Ni419  1  0.33333333  0.94174787  0.41813752  1.0
  Ni  Ni420  1  0.66666667  0.27508121  0.41813752  1.0
  Ni  Ni421  1  0.66666667  0.60841454  0.41813752  1.0
  Ni  Ni422  1  0.66666667  0.94174787  0.41813752  1.0
  Ni  Ni423  1  0.16666667  0.15603359  0.34670895  1.0
  Ni  Ni424  1  0.16666667  0.48936692  0.34670895  1.0
  Ni  Ni425  1  0.16666667  0.82270026  0.34670895  1.0
  Ni  Ni426  1  0.50000000  0.15603359  0.34670895  1.0
  Ni  Ni427  1  0.50000000  0.48936692  0.34670895  1.0
  Ni  Ni428  1  0.50000000  0.82270026  0.34670895  1.0
  Ni  Ni429  1  0.83333333  0.15603359  0.34670895  1.0
  Ni  Ni430  1  0.83333333  0.48936692  0.34670895  1.0
  Ni  Ni431  1  0.83333333  0.82270026  0.34670895  1.0
  Ti  Ti432  1  0.00000000  0.25100356  0.06099467  1.0
  Ti  Ti433  1  0.00000000  0.58433689  0.06099467  1.0
  Ti  Ti434  1  0.00000000  0.91767022  0.06099467  1.0
  Ti  Ti435  1  0.33333333  0.25100356  0.06099467  1.0
  Ti  Ti436  1  0.33333333  0.58433689  0.06099467  1.0
  Ti  Ti437  1  0.33333333  0.91767022  0.06099467  1.0
  Ti  Ti438  1  0.66666667  0.25100356  0.06099467  1.0
  Ti  Ti439  1  0.66666667  0.58433689  0.06099467  1.0
  Ti  Ti440  1  0.66666667  0.91767022  0.06099467  1.0
  Ti  Ti441  1  0.16666667  0.03671784  0.13242324  1.0
  Ti  Ti442  1  0.16666667  0.37005117  0.13242324  1.0
  Ti  Ti443  1  0.16666667  0.70338451  0.13242324  1.0
  Ti  Ti444  1  0.50000000  0.03671784  0.13242324  1.0
  Ti  Ti445  1  0.50000000  0.37005117  0.13242324  1.0
  Ti  Ti446  1  0.50000000  0.70338451  0.13242324  1.0
  Ti  Ti447  1  0.83333333  0.03671784  0.13242324  1.0
  Ti  Ti448  1  0.83333333  0.37005117  0.13242324  1.0
  Ti  Ti449  1  0.83333333  0.70338451  0.13242324  1.0
  Ti  Ti450  1  0.25000000  0.14386070  0.09670895  1.0
  Ti  Ti451  1  0.25000000  0.47719403  0.09670895  1.0
  Ti  Ti452  1  0.25000000  0.81052737  0.09670895  1.0
  Ti  Ti453  1  0.58333333  0.14386070  0.09670895  1.0
  Ti  Ti454  1  0.58333333  0.47719403  0.09670895  1.0
  Ti  Ti455  1  0.58333333  0.81052737  0.09670895  1.0
  Ti  Ti456  1  0.91666667  0.14386070  0.09670895  1.0
  Ti  Ti457  1  0.91666667  0.47719403  0.09670895  1.0
  Ti  Ti458  1  0.91666667  0.81052737  0.09670895  1.0
  Ti  Ti459  1  0.08333333  0.02481308  0.02528038  1.0
  Ti  Ti460  1  0.08333333  0.35814641  0.02528038  1.0
  Ti  Ti461  1  0.08333333  0.69147975  0.02528038  1.0
  Ti  Ti462  1  0.41666667  0.02481308  0.02528038  1.0
  Ti  Ti463  1  0.41666667  0.35814641  0.02528038  1.0
  Ti  Ti464  1  0.41666667  0.69147975  0.02528038  1.0
  Ti  Ti465  1  0.75000000  0.02481308  0.02528038  1.0
  Ti  Ti466  1  0.75000000  0.35814641  0.02528038  1.0
  Ti  Ti467  1  0.75000000  0.69147975  0.02528038  1.0
  Ti  Ti468  1  0.08333333  0.14386070  0.09670895  1.0
  Ti  Ti469  1  0.08333333  0.47719403  0.09670895  1.0
  Ti  Ti470  1  0.08333333  0.81052737  0.09670895  1.0
  Ti  Ti471  1  0.41666667  0.14386070  0.09670895  1.0
  Ti  Ti472  1  0.41666667  0.47719403  0.09670895  1.0
  Ti  Ti473  1  0.41666667  0.81052737  0.09670895  1.0
  Ti  Ti474  1  0.75000000  0.14386070  0.09670895  1.0
  Ti  Ti475  1  0.75000000  0.47719403  0.09670895  1.0
  Ti  Ti476  1  0.75000000  0.81052737  0.09670895  1.0
  Ti  Ti477  1  0.25000000  0.02481308  0.02528038  1.0
  Ti  Ti478  1  0.25000000  0.35814641  0.02528038  1.0
  Ti  Ti479  1  0.25000000  0.69147975  0.02528038  1.0
  Ti  Ti480  1  0.58333333  0.02481308  0.02528038  1.0
  Ti  Ti481  1  0.58333333  0.35814641  0.02528038  1.0
  Ti  Ti482  1  0.58333333  0.69147975  0.02528038  1.0
  Ti  Ti483  1  0.91666667  0.02481308  0.02528038  1.0
  Ti  Ti484  1  0.91666667  0.35814641  0.02528038  1.0
  Ti  Ti485  1  0.91666667  0.69147975  0.02528038  1.0
  Ti  Ti486  1  0.00000000  0.20338451  0.13242324  1.0
  Ti  Ti487  1  0.00000000  0.53671784  0.13242324  1.0
  Ti  Ti488  1  0.00000000  0.87005117  0.13242324  1.0
  Ti  Ti489  1  0.33333333  0.20338451  0.13242324  1.0
  Ti  Ti490  1  0.33333333  0.53671784  0.13242324  1.0
  Ti  Ti491  1  0.33333333  0.87005117  0.13242324  1.0
  Ti  Ti492  1  0.66666667  0.20338451  0.13242324  1.0
  Ti  Ti493  1  0.66666667  0.53671784  0.13242324  1.0
  Ti  Ti494  1  0.66666667  0.87005117  0.13242324  1.0
  Ti  Ti495  1  0.16666667  0.08433689  0.06099467  1.0
  Ti  Ti496  1  0.16666667  0.41767022  0.06099467  1.0
  Ti  Ti497  1  0.16666667  0.75100356  0.06099467  1.0
  Ti  Ti498  1  0.50000000  0.08433689  0.06099467  1.0
  Ti  Ti499  1  0.50000000  0.41767022  0.06099467  1.0
  Ti  Ti500  1  0.50000000  0.75100356  0.06099467  1.0
  Ti  Ti501  1  0.83333333  0.08433689  0.06099467  1.0
  Ti  Ti502  1  0.83333333  0.41767022  0.06099467  1.0
  Ti  Ti503  1  0.83333333  0.75100356  0.06099467  1.0
  Ti  Ti504  1  0.06245967  0.09623013  0.10565481  1.0
  Ti  Ti505  1  0.06245967  0.42956346  0.10565481  1.0
  Ti  Ti506  1  0.06245967  0.76289679  0.10565481  1.0
  Ti  Ti507  1  0.39579300  0.09623013  0.10565481  1.0
  Ti  Ti508  1  0.39579300  0.42956346  0.10565481  1.0
  Ti  Ti509  1  0.39579300  0.76289679  0.10565481  1.0
  Ti  Ti510  1  0.72912633  0.09623013  0.10565481  1.0
  Ti  Ti511  1  0.72912633  0.42956346  0.10565481  1.0
  Ti  Ti512  1  0.72912633  0.76289679  0.10565481  1.0
  Ti  Ti513  1  0.22912633  0.31051584  0.03422624  1.0
  Ti  Ti514  1  0.22912633  0.64384917  0.03422624  1.0
  Ti  Ti515  1  0.22912633  0.97718251  0.03422624  1.0
  Ti  Ti516  1  0.56245967  0.31051584  0.03422624  1.0
  Ti  Ti517  1  0.56245967  0.64384917  0.03422624  1.0
  Ti  Ti518  1  0.56245967  0.97718251  0.03422624  1.0
  Ti  Ti519  1  0.89579300  0.31051584  0.03422624  1.0
  Ti  Ti520  1  0.89579300  0.64384917  0.03422624  1.0
  Ti  Ti521  1  0.89579300  0.97718251  0.03422624  1.0
  Ti  Ti522  1  0.27087367  0.15577698  0.01633452  1.0
  Ti  Ti523  1  0.27087367  0.48911032  0.01633452  1.0
  Ti  Ti524  1  0.27087367  0.82244365  0.01633452  1.0
  Ti  Ti525  1  0.60420700  0.15577698  0.01633452  1.0
  Ti  Ti526  1  0.60420700  0.48911032  0.01633452  1.0
  Ti  Ti527  1  0.60420700  0.82244365  0.01633452  1.0
  Ti  Ti528  1  0.93754033  0.15577698  0.01633452  1.0
  Ti  Ti529  1  0.93754033  0.48911032  0.01633452  1.0
  Ti  Ti530  1  0.93754033  0.82244365  0.01633452  1.0
  Ti  Ti531  1  0.10420700  0.27482460  0.08776310  1.0
  Ti  Ti532  1  0.10420700  0.60815794  0.08776309  1.0
  Ti  Ti533  1  0.10420700  0.94149127  0.08776309  1.0
  Ti  Ti534  1  0.43754033  0.27482460  0.08776310  1.0
  Ti  Ti535  1  0.43754033  0.60815794  0.08776309  1.0
  Ti  Ti536  1  0.43754033  0.94149127  0.08776309  1.0
  Ti  Ti537  1  0.77087367  0.27482460  0.08776310  1.0
  Ti  Ti538  1  0.77087367  0.60815794  0.08776309  1.0
  Ti  Ti539  1  0.77087367  0.94149127  0.08776309  1.0
  Ti  Ti540  1  0.27087367  0.09623013  0.10565481  1.0
  Ti  Ti541  1  0.27087367  0.42956346  0.10565481  1.0
  Ti  Ti542  1  0.27087367  0.76289679  0.10565481  1.0
  Ti  Ti543  1  0.60420700  0.09623013  0.10565481  1.0
  Ti  Ti544  1  0.60420700  0.42956346  0.10565481  1.0
  Ti  Ti545  1  0.60420700  0.76289679  0.10565481  1.0
  Ti  Ti546  1  0.93754033  0.09623013  0.10565481  1.0
  Ti  Ti547  1  0.93754033  0.42956346  0.10565481  1.0
  Ti  Ti548  1  0.93754033  0.76289679  0.10565481  1.0
  Ti  Ti549  1  0.10420700  0.31051584  0.03422624  1.0
  Ti  Ti550  1  0.10420700  0.64384917  0.03422624  1.0
  Ti  Ti551  1  0.10420700  0.97718251  0.03422624  1.0
  Ti  Ti552  1  0.43754033  0.31051584  0.03422624  1.0
  Ti  Ti553  1  0.43754033  0.64384917  0.03422624  1.0
  Ti  Ti554  1  0.43754033  0.97718251  0.03422624  1.0
  Ti  Ti555  1  0.77087367  0.31051584  0.03422624  1.0
  Ti  Ti556  1  0.77087367  0.64384917  0.03422624  1.0
  Ti  Ti557  1  0.77087367  0.97718251  0.03422624  1.0
  Ti  Ti558  1  0.06245967  0.15577698  0.01633452  1.0
  Ti  Ti559  1  0.06245967  0.48911032  0.01633452  1.0
  Ti  Ti560  1  0.06245967  0.82244365  0.01633452  1.0
  Ti  Ti561  1  0.39579300  0.15577698  0.01633452  1.0
  Ti  Ti562  1  0.39579300  0.48911032  0.01633452  1.0
  Ti  Ti563  1  0.39579300  0.82244365  0.01633452  1.0
  Ti  Ti564  1  0.72912633  0.15577698  0.01633452  1.0
  Ti  Ti565  1  0.72912633  0.48911032  0.01633452  1.0
  Ti  Ti566  1  0.72912633  0.82244365  0.01633452  1.0
  Ti  Ti567  1  0.22912633  0.27482460  0.08776310  1.0
  Ti  Ti568  1  0.22912633  0.60815794  0.08776310  1.0
  Ti  Ti569  1  0.22912633  0.94149127  0.08776309  1.0
  Ti  Ti570  1  0.56245967  0.27482460  0.08776310  1.0
  Ti  Ti571  1  0.56245967  0.60815794  0.08776310  1.0
  Ti  Ti572  1  0.56245967  0.94149127  0.08776309  1.0
  Ti  Ti573  1  0.89579300  0.27482460  0.08776310  1.0
  Ti  Ti574  1  0.89579300  0.60815794  0.08776310  1.0
  Ti  Ti575  1  0.89579300  0.94149127  0.08776309  1.0
  Ti  Ti576  1  0.00000000  0.20039103  0.04310295  1.0
  Ti  Ti577  1  0.00000000  0.53372437  0.04310295  1.0
  Ti  Ti578  1  0.00000000  0.86705770  0.04310295  1.0
  Ti  Ti579  1  0.33333333  0.20039103  0.04310295  1.0
  Ti  Ti580  1  0.33333333  0.53372437  0.04310295  1.0
  Ti  Ti581  1  0.33333333  0.86705770  0.04310295  1.0
  Ti  Ti582  1  0.66666667  0.20039103  0.04310295  1.0
  Ti  Ti583  1  0.66666667  0.53372437  0.04310295  1.0
  Ti  Ti584  1  0.66666667  0.86705770  0.04310295  1.0
  Ti  Ti585  1  0.16666667  0.31943865  0.11453152  1.0
  Ti  Ti586  1  0.16666667  0.65277198  0.11453152  1.0
  Ti  Ti587  1  0.16666667  0.98610532  0.11453152  1.0
  Ti  Ti588  1  0.50000000  0.31943865  0.11453152  1.0
  Ti  Ti589  1  0.50000000  0.65277198  0.11453152  1.0
  Ti  Ti590  1  0.50000000  0.98610532  0.11453152  1.0
  Ti  Ti591  1  0.83333333  0.31943865  0.11453152  1.0
  Ti  Ti592  1  0.83333333  0.65277198  0.11453152  1.0
  Ti  Ti593  1  0.83333333  0.98610532  0.11453152  1.0
  Ti  Ti594  1  0.33333333  0.05161608  0.07888638  1.0
  Ti  Ti595  1  0.33333333  0.38494941  0.07888638  1.0
  Ti  Ti596  1  0.33333333  0.71828275  0.07888638  1.0
  Ti  Ti597  1  0.66666667  0.05161608  0.07888638  1.0
  Ti  Ti598  1  0.66666667  0.38494941  0.07888638  1.0
  Ti  Ti599  1  0.66666667  0.71828275  0.07888638  1.0
  Ti  Ti600  1  0.00000000  0.05161608  0.07888638  1.0
  Ti  Ti601  1  0.00000000  0.38494941  0.07888638  1.0
  Ti  Ti602  1  0.00000000  0.71828275  0.07888638  1.0
  Ti  Ti603  1  0.16666667  0.26590179  0.00745781  1.0
  Ti  Ti604  1  0.16666667  0.59923513  0.00745781  1.0
  Ti  Ti605  1  0.16666667  0.93256846  0.00745781  1.0
  Ti  Ti606  1  0.50000000  0.26590179  0.00745781  1.0
  Ti  Ti607  1  0.50000000  0.59923513  0.00745781  1.0
  Ti  Ti608  1  0.50000000  0.93256846  0.00745781  1.0
  Ti  Ti609  1  0.83333333  0.26590179  0.00745781  1.0
  Ti  Ti610  1  0.83333333  0.59923513  0.00745781  1.0
  Ti  Ti611  1  0.83333333  0.93256846  0.00745781  1.0
  Ti  Ti612  1  0.27087367  0.07244365  0.01633452  1.0
  Ti  Ti613  1  0.27087367  0.40577698  0.01633452  1.0
  Ti  Ti614  1  0.27087367  0.73911032  0.01633452  1.0
  Ti  Ti615  1  0.60420700  0.07244365  0.01633452  1.0
  Ti  Ti616  1  0.60420700  0.40577698  0.01633452  1.0
  Ti  Ti617  1  0.60420700  0.73911032  0.01633452  1.0
  Ti  Ti618  1  0.93754033  0.07244365  0.01633452  1.0
  Ti  Ti619  1  0.93754033  0.40577698  0.01633452  1.0
  Ti  Ti620  1  0.93754033  0.73911032  0.01633452  1.0
  Ti  Ti621  1  0.10420700  0.19149127  0.08776309  1.0
  Ti  Ti622  1  0.10420700  0.52482460  0.08776309  1.0
  Ti  Ti623  1  0.10420700  0.85815794  0.08776309  1.0
  Ti  Ti624  1  0.43754033  0.19149127  0.08776309  1.0
  Ti  Ti625  1  0.43754033  0.52482460  0.08776309  1.0
  Ti  Ti626  1  0.43754033  0.85815794  0.08776309  1.0
  Ti  Ti627  1  0.77087367  0.19149127  0.08776309  1.0
  Ti  Ti628  1  0.77087367  0.52482460  0.08776309  1.0
  Ti  Ti629  1  0.77087367  0.85815794  0.08776309  1.0
  Ti  Ti630  1  0.06245967  0.01289679  0.10565481  1.0
  Ti  Ti631  1  0.06245967  0.34623013  0.10565481  1.0
  Ti  Ti632  1  0.06245967  0.67956346  0.10565481  1.0
  Ti  Ti633  1  0.39579300  0.01289679  0.10565481  1.0
  Ti  Ti634  1  0.39579300  0.34623013  0.10565481  1.0
  Ti  Ti635  1  0.39579300  0.67956346  0.10565481  1.0
  Ti  Ti636  1  0.72912633  0.01289679  0.10565481  1.0
  Ti  Ti637  1  0.72912633  0.34623013  0.10565481  1.0
  Ti  Ti638  1  0.72912633  0.67956346  0.10565481  1.0
  Ti  Ti639  1  0.22912633  0.22718251  0.03422624  1.0
  Ti  Ti640  1  0.22912633  0.56051584  0.03422624  1.0
  Ti  Ti641  1  0.22912633  0.89384917  0.03422624  1.0
  Ti  Ti642  1  0.56245967  0.22718251  0.03422624  1.0
  Ti  Ti643  1  0.56245967  0.56051584  0.03422624  1.0
  Ti  Ti644  1  0.56245967  0.89384917  0.03422624  1.0
  Ti  Ti645  1  0.89579300  0.22718251  0.03422624  1.0
  Ti  Ti646  1  0.89579300  0.56051584  0.03422624  1.0
  Ti  Ti647  1  0.89579300  0.89384917  0.03422624  1.0
  Ti  Ti648  1  0.06245967  0.07244365  0.01633452  1.0
  Ti  Ti649  1  0.06245967  0.40577698  0.01633452  1.0
  Ti  Ti650  1  0.06245967  0.73911032  0.01633452  1.0
  Ti  Ti651  1  0.39579300  0.07244365  0.01633452  1.0
  Ti  Ti652  1  0.39579300  0.40577698  0.01633452  1.0
  Ti  Ti653  1  0.39579300  0.73911032  0.01633452  1.0
  Ti  Ti654  1  0.72912633  0.07244365  0.01633452  1.0
  Ti  Ti655  1  0.72912633  0.40577698  0.01633452  1.0
  Ti  Ti656  1  0.72912633  0.73911032  0.01633452  1.0
  Ti  Ti657  1  0.22912633  0.19149127  0.08776309  1.0
  Ti  Ti658  1  0.22912633  0.52482460  0.08776309  1.0
  Ti  Ti659  1  0.22912633  0.85815794  0.08776309  1.0
  Ti  Ti660  1  0.56245967  0.19149127  0.08776309  1.0
  Ti  Ti661  1  0.56245967  0.52482460  0.08776309  1.0
  Ti  Ti662  1  0.56245967  0.85815794  0.08776309  1.0
  Ti  Ti663  1  0.89579300  0.19149127  0.08776309  1.0
  Ti  Ti664  1  0.89579300  0.52482460  0.08776309  1.0
  Ti  Ti665  1  0.89579300  0.85815794  0.08776309  1.0
  Ti  Ti666  1  0.27087367  0.01289679  0.10565481  1.0
  Ti  Ti667  1  0.27087367  0.34623013  0.10565481  1.0
  Ti  Ti668  1  0.27087367  0.67956346  0.10565481  1.0
  Ti  Ti669  1  0.60420700  0.01289679  0.10565481  1.0
  Ti  Ti670  1  0.60420700  0.34623013  0.10565481  1.0
  Ti  Ti671  1  0.60420700  0.67956346  0.10565481  1.0
  Ti  Ti672  1  0.93754033  0.01289679  0.10565481  1.0
  Ti  Ti673  1  0.93754033  0.34623013  0.10565481  1.0
  Ti  Ti674  1  0.93754033  0.67956346  0.10565481  1.0
  Ti  Ti675  1  0.10420700  0.22718251  0.03422624  1.0
  Ti  Ti676  1  0.10420700  0.56051584  0.03422624  1.0
  Ti  Ti677  1  0.10420700  0.89384917  0.03422624  1.0
  Ti  Ti678  1  0.43754033  0.22718251  0.03422624  1.0
  Ti  Ti679  1  0.43754033  0.56051584  0.03422624  1.0
  Ti  Ti680  1  0.43754033  0.89384917  0.03422624  1.0
  Ti  Ti681  1  0.77087367  0.22718251  0.03422624  1.0
  Ti  Ti682  1  0.77087367  0.56051584  0.03422624  1.0
  Ti  Ti683  1  0.77087367  0.89384917  0.03422624  1.0
  Ti  Ti684  1  0.33333333  0.30161608  0.07888638  1.0
  Ti  Ti685  1  0.33333333  0.63494941  0.07888638  1.0
  Ti  Ti686  1  0.33333333  0.96828275  0.07888638  1.0
  Ti  Ti687  1  0.66666667  0.30161608  0.07888638  1.0
  Ti  Ti688  1  0.66666667  0.63494941  0.07888638  1.0
  Ti  Ti689  1  0.66666667  0.96828275  0.07888638  1.0
  Ti  Ti690  1  1.00000000  0.30161608  0.07888638  1.0
  Ti  Ti691  1  0.00000000  0.63494941  0.07888638  1.0
  Ti  Ti692  1  0.00000000  0.96828275  0.07888638  1.0
  Ti  Ti693  1  0.16666667  0.18256846  0.00745781  1.0
  Ti  Ti694  1  0.16666667  0.51590179  0.00745781  1.0
  Ti  Ti695  1  0.16666667  0.84923513  0.00745781  1.0
  Ti  Ti696  1  0.50000000  0.18256846  0.00745781  1.0
  Ti  Ti697  1  0.50000000  0.51590179  0.00745781  1.0
  Ti  Ti698  1  0.50000000  0.84923513  0.00745781  1.0
  Ti  Ti699  1  0.83333333  0.18256846  0.00745781  1.0
  Ti  Ti700  1  0.83333333  0.51590179  0.00745781  1.0
  Ti  Ti701  1  0.83333333  0.84923513  0.00745781  1.0
  Ti  Ti702  1  0.00000000  0.11705770  0.04310295  1.0
  Ti  Ti703  1  0.00000000  0.45039103  0.04310295  1.0
  Ti  Ti704  1  0.00000000  0.78372437  0.04310295  1.0
  Ti  Ti705  1  0.33333333  0.11705770  0.04310295  1.0
  Ti  Ti706  1  0.33333333  0.45039103  0.04310295  1.0
  Ti  Ti707  1  0.33333333  0.78372437  0.04310295  1.0
  Ti  Ti708  1  0.66666667  0.11705770  0.04310295  1.0
  Ti  Ti709  1  0.66666667  0.45039103  0.04310295  1.0
  Ti  Ti710  1  0.66666667  0.78372437  0.04310295  1.0
  Ti  Ti711  1  0.16666667  0.23610532  0.11453152  1.0
  Ti  Ti712  1  0.16666667  0.56943865  0.11453152  1.0
  Ti  Ti713  1  0.16666667  0.90277198  0.11453152  1.0
  Ti  Ti714  1  0.50000000  0.23610532  0.11453152  1.0
  Ti  Ti715  1  0.50000000  0.56943865  0.11453152  1.0
  Ti  Ti716  1  0.50000000  0.90277198  0.11453152  1.0
  Ti  Ti717  1  0.83333333  0.23610532  0.11453152  1.0
  Ti  Ti718  1  0.83333333  0.56943865  0.11453152  1.0
  Ti  Ti719  1  0.83333333  0.90277198  0.11453152  1.0
  Ti  Ti720  1  0.00000000  0.15576546  0.20385181  1.0
  Ti  Ti721  1  0.00000000  0.48909879  0.20385181  1.0
  Ti  Ti722  1  0.00000000  0.82243213  0.20385181  1.0
  Ti  Ti723  1  0.33333333  0.15576546  0.20385181  1.0
  Ti  Ti724  1  0.33333333  0.48909879  0.20385181  1.0
  Ti  Ti725  1  0.33333333  0.82243213  0.20385181  1.0
  Ti  Ti726  1  0.66666667  0.15576546  0.20385181  1.0
  Ti  Ti727  1  0.66666667  0.48909879  0.20385181  1.0
  Ti  Ti728  1  0.66666667  0.82243213  0.20385181  1.0
  Ti  Ti729  1  0.16666667  0.27481308  0.27528038  1.0
  Ti  Ti730  1  0.16666667  0.60814641  0.27528038  1.0
  Ti  Ti731  1  0.16666667  0.94147975  0.27528038  1.0
  Ti  Ti732  1  0.50000000  0.27481308  0.27528038  1.0
  Ti  Ti733  1  0.50000000  0.60814641  0.27528038  1.0
  Ti  Ti734  1  0.50000000  0.94147975  0.27528038  1.0
  Ti  Ti735  1  0.83333333  0.27481308  0.27528038  1.0
  Ti  Ti736  1  0.83333333  0.60814641  0.27528038  1.0
  Ti  Ti737  1  0.83333333  0.94147975  0.27528038  1.0
  Ti  Ti738  1  0.25000000  0.04862260  0.23956609  1.0
  Ti  Ti739  1  0.25000000  0.38195594  0.23956609  1.0
  Ti  Ti740  1  0.25000000  0.71528927  0.23956609  1.0
  Ti  Ti741  1  0.58333333  0.04862260  0.23956609  1.0
  Ti  Ti742  1  0.58333333  0.38195594  0.23956609  1.0
  Ti  Ti743  1  0.58333333  0.71528927  0.23956609  1.0
  Ti  Ti744  1  0.91666667  0.04862260  0.23956609  1.0
  Ti  Ti745  1  0.91666667  0.38195594  0.23956609  1.0
  Ti  Ti746  1  0.91666667  0.71528927  0.23956609  1.0
  Ti  Ti747  1  0.08333333  0.26290832  0.16813752  1.0
  Ti  Ti748  1  0.08333333  0.59624165  0.16813752  1.0
  Ti  Ti749  1  0.08333333  0.92957498  0.16813752  1.0
  Ti  Ti750  1  0.41666667  0.26290832  0.16813752  1.0
  Ti  Ti751  1  0.41666667  0.59624165  0.16813752  1.0
  Ti  Ti752  1  0.41666667  0.92957498  0.16813752  1.0
  Ti  Ti753  1  0.75000000  0.26290832  0.16813752  1.0
  Ti  Ti754  1  0.75000000  0.59624165  0.16813752  1.0
  Ti  Ti755  1  0.75000000  0.92957498  0.16813752  1.0
  Ti  Ti756  1  0.08333333  0.04862260  0.23956609  1.0
  Ti  Ti757  1  0.08333333  0.38195594  0.23956609  1.0
  Ti  Ti758  1  0.08333333  0.71528927  0.23956609  1.0
  Ti  Ti759  1  0.41666667  0.04862260  0.23956610  1.0
  Ti  Ti760  1  0.41666667  0.38195594  0.23956609  1.0
  Ti  Ti761  1  0.41666667  0.71528927  0.23956610  1.0
  Ti  Ti762  1  0.75000000  0.04862260  0.23956609  1.0
  Ti  Ti763  1  0.75000000  0.38195594  0.23956609  1.0
  Ti  Ti764  1  0.75000000  0.71528927  0.23956609  1.0
  Ti  Ti765  1  0.25000000  0.26290832  0.16813752  1.0
  Ti  Ti766  1  0.25000000  0.59624165  0.16813752  1.0
  Ti  Ti767  1  0.25000000  0.92957498  0.16813752  1.0
  Ti  Ti768  1  0.58333333  0.26290832  0.16813752  1.0
  Ti  Ti769  1  0.58333333  0.59624165  0.16813752  1.0
  Ti  Ti770  1  0.58333333  0.92957498  0.16813752  1.0
  Ti  Ti771  1  0.91666667  0.26290832  0.16813752  1.0
  Ti  Ti772  1  0.91666667  0.59624165  0.16813752  1.0
  Ti  Ti773  1  0.91666667  0.92957498  0.16813752  1.0
  Ti  Ti774  1  0.00000000  0.10814641  0.27528038  1.0
  Ti  Ti775  1  0.00000000  0.44147975  0.27528038  1.0
  Ti  Ti776  1  0.00000000  0.77481308  0.27528038  1.0
  Ti  Ti777  1  0.33333333  0.10814641  0.27528038  1.0
  Ti  Ti778  1  0.33333333  0.44147975  0.27528038  1.0
  Ti  Ti779  1  0.33333333  0.77481308  0.27528038  1.0
  Ti  Ti780  1  0.66666667  0.10814641  0.27528038  1.0
  Ti  Ti781  1  0.66666667  0.44147975  0.27528038  1.0
  Ti  Ti782  1  0.66666667  0.77481308  0.27528038  1.0
  Ti  Ti783  1  0.16666667  0.32243213  0.20385181  1.0
  Ti  Ti784  1  0.16666667  0.65576546  0.20385181  1.0
  Ti  Ti785  1  0.16666667  0.98909879  0.20385181  1.0
  Ti  Ti786  1  0.50000000  0.32243213  0.20385181  1.0
  Ti  Ti787  1  0.50000000  0.65576546  0.20385181  1.0
  Ti  Ti788  1  0.50000000  0.98909879  0.20385181  1.0
  Ti  Ti789  1  0.83333333  0.32243213  0.20385181  1.0
  Ti  Ti790  1  0.83333333  0.65576546  0.20385181  1.0
  Ti  Ti791  1  0.83333333  0.98909879  0.20385181  1.0
  Ti  Ti792  1  0.06245967  0.00099203  0.24851195  1.0
  Ti  Ti793  1  0.06245967  0.33432537  0.24851195  1.0
  Ti  Ti794  1  0.06245967  0.66765870  0.24851195  1.0
  Ti  Ti795  1  0.39579300  0.00099203  0.24851195  1.0
  Ti  Ti796  1  0.39579300  0.33432537  0.24851195  1.0
  Ti  Ti797  1  0.39579300  0.66765870  0.24851195  1.0
  Ti  Ti798  1  0.72912633  0.00099203  0.24851195  1.0
  Ti  Ti799  1  0.72912633  0.33432537  0.24851195  1.0
  Ti  Ti800  1  0.72912633  0.66765870  0.24851195  1.0
  Ti  Ti801  1  0.22912633  0.21527775  0.17708338  1.0
  Ti  Ti802  1  0.22912633  0.54861108  0.17708338  1.0
  Ti  Ti803  1  0.22912633  0.88194441  0.17708338  1.0
  Ti  Ti804  1  0.56245967  0.21527775  0.17708338  1.0
  Ti  Ti805  1  0.56245967  0.54861108  0.17708338  1.0
  Ti  Ti806  1  0.56245967  0.88194441  0.17708338  1.0
  Ti  Ti807  1  0.89579300  0.21527775  0.17708338  1.0
  Ti  Ti808  1  0.89579300  0.54861108  0.17708338  1.0
  Ti  Ti809  1  0.89579300  0.88194441  0.17708338  1.0
  Ti  Ti810  1  0.27087367  0.06053889  0.15919167  1.0
  Ti  Ti811  1  0.27087367  0.39387222  0.15919167  1.0
  Ti  Ti812  1  0.27087367  0.72720556  0.15919167  1.0
  Ti  Ti813  1  0.60420700  0.06053889  0.15919167  1.0
  Ti  Ti814  1  0.60420700  0.39387222  0.15919167  1.0
  Ti  Ti815  1  0.60420700  0.72720556  0.15919167  1.0
  Ti  Ti816  1  0.93754033  0.06053889  0.15919167  1.0
  Ti  Ti817  1  0.93754033  0.39387222  0.15919167  1.0
  Ti  Ti818  1  0.93754033  0.72720556  0.15919167  1.0
  Ti  Ti819  1  0.10420700  0.17958651  0.23062024  1.0
  Ti  Ti820  1  0.10420700  0.51291984  0.23062024  1.0
  Ti  Ti821  1  0.10420700  0.84625317  0.23062024  1.0
  Ti  Ti822  1  0.43754033  0.17958651  0.23062024  1.0
  Ti  Ti823  1  0.43754033  0.51291984  0.23062024  1.0
  Ti  Ti824  1  0.43754033  0.84625317  0.23062024  1.0
  Ti  Ti825  1  0.77087367  0.17958651  0.23062024  1.0
  Ti  Ti826  1  0.77087367  0.51291984  0.23062024  1.0
  Ti  Ti827  1  0.77087367  0.84625317  0.23062024  1.0
  Ti  Ti828  1  0.27087367  0.00099203  0.24851195  1.0
  Ti  Ti829  1  0.27087367  0.33432537  0.24851195  1.0
  Ti  Ti830  1  0.27087367  0.66765870  0.24851195  1.0
  Ti  Ti831  1  0.60420700  0.00099203  0.24851195  1.0
  Ti  Ti832  1  0.60420700  0.33432537  0.24851195  1.0
  Ti  Ti833  1  0.60420700  0.66765870  0.24851195  1.0
  Ti  Ti834  1  0.93754033  0.00099203  0.24851195  1.0
  Ti  Ti835  1  0.93754033  0.33432537  0.24851195  1.0
  Ti  Ti836  1  0.93754033  0.66765870  0.24851195  1.0
  Ti  Ti837  1  0.10420700  0.21527775  0.17708338  1.0
  Ti  Ti838  1  0.10420700  0.54861108  0.17708338  1.0
  Ti  Ti839  1  0.10420700  0.88194441  0.17708338  1.0
  Ti  Ti840  1  0.43754033  0.21527775  0.17708338  1.0
  Ti  Ti841  1  0.43754033  0.54861108  0.17708338  1.0
  Ti  Ti842  1  0.43754033  0.88194441  0.17708338  1.0
  Ti  Ti843  1  0.77087367  0.21527775  0.17708338  1.0
  Ti  Ti844  1  0.77087367  0.54861108  0.17708338  1.0
  Ti  Ti845  1  0.77087367  0.88194441  0.17708338  1.0
  Ti  Ti846  1  0.06245967  0.06053889  0.15919167  1.0
  Ti  Ti847  1  0.06245967  0.39387222  0.15919167  1.0
  Ti  Ti848  1  0.06245967  0.72720556  0.15919167  1.0
  Ti  Ti849  1  0.39579300  0.06053889  0.15919167  1.0
  Ti  Ti850  1  0.39579300  0.39387222  0.15919167  1.0
  Ti  Ti851  1  0.39579300  0.72720556  0.15919167  1.0
  Ti  Ti852  1  0.72912633  0.06053889  0.15919167  1.0
  Ti  Ti853  1  0.72912633  0.39387222  0.15919167  1.0
  Ti  Ti854  1  0.72912633  0.72720556  0.15919167  1.0
  Ti  Ti855  1  0.22912633  0.17958651  0.23062024  1.0
  Ti  Ti856  1  0.22912633  0.51291984  0.23062024  1.0
  Ti  Ti857  1  0.22912633  0.84625317  0.23062024  1.0
  Ti  Ti858  1  0.56245967  0.17958651  0.23062024  1.0
  Ti  Ti859  1  0.56245967  0.51291984  0.23062024  1.0
  Ti  Ti860  1  0.56245967  0.84625317  0.23062024  1.0
  Ti  Ti861  1  0.89579300  0.17958651  0.23062024  1.0
  Ti  Ti862  1  0.89579300  0.51291984  0.23062024  1.0
  Ti  Ti863  1  0.89579300  0.84625317  0.23062024  1.0
  Ti  Ti864  1  0.00000000  0.10515294  0.18596009  1.0
  Ti  Ti865  1  0.00000000  0.43848627  0.18596009  1.0
  Ti  Ti866  1  0.00000000  0.77181960  0.18596009  1.0
  Ti  Ti867  1  0.33333333  0.10515294  0.18596009  1.0
  Ti  Ti868  1  0.33333333  0.43848627  0.18596009  1.0
  Ti  Ti869  1  0.33333333  0.77181960  0.18596009  1.0
  Ti  Ti870  1  0.66666667  0.10515294  0.18596009  1.0
  Ti  Ti871  1  0.66666667  0.43848627  0.18596009  1.0
  Ti  Ti872  1  0.66666667  0.77181960  0.18596009  1.0
  Ti  Ti873  1  0.16666667  0.22420056  0.25738867  1.0
  Ti  Ti874  1  0.16666667  0.55753389  0.25738867  1.0
  Ti  Ti875  1  0.16666667  0.89086722  0.25738867  1.0
  Ti  Ti876  1  0.50000000  0.22420056  0.25738867  1.0
  Ti  Ti877  1  0.50000000  0.55753389  0.25738867  1.0
  Ti  Ti878  1  0.50000000  0.89086722  0.25738867  1.0
  Ti  Ti879  1  0.83333333  0.22420056  0.25738867  1.0
  Ti  Ti880  1  0.83333333  0.55753389  0.25738867  1.0
  Ti  Ti881  1  0.83333333  0.89086722  0.25738867  1.0
  Ti  Ti882  1  0.33333333  0.28971132  0.22174352  1.0
  Ti  Ti883  1  0.33333333  0.62304465  0.22174352  1.0
  Ti  Ti884  1  0.33333333  0.95637798  0.22174352  1.0
  Ti  Ti885  1  0.66666667  0.28971132  0.22174352  1.0
  Ti  Ti886  1  0.66666667  0.62304465  0.22174352  1.0
  Ti  Ti887  1  0.66666667  0.95637798  0.22174352  1.0
  Ti  Ti888  1  1.00000000  0.28971132  0.22174352  1.0
  Ti  Ti889  1  0.00000000  0.62304465  0.22174352  1.0
  Ti  Ti890  1  0.00000000  0.95637798  0.22174352  1.0
  Ti  Ti891  1  0.16666667  0.17066370  0.15031495  1.0
  Ti  Ti892  1  0.16666667  0.50399703  0.15031495  1.0
  Ti  Ti893  1  0.16666667  0.83733037  0.15031495  1.0
  Ti  Ti894  1  0.50000000  0.17066370  0.15031495  1.0
  Ti  Ti895  1  0.50000000  0.50399703  0.15031495  1.0
  Ti  Ti896  1  0.50000000  0.83733037  0.15031495  1.0
  Ti  Ti897  1  0.83333333  0.17066370  0.15031495  1.0
  Ti  Ti898  1  0.83333333  0.50399703  0.15031495  1.0
  Ti  Ti899  1  0.83333333  0.83733037  0.15031495  1.0
  Ti  Ti900  1  0.27087367  0.31053889  0.15919167  1.0
  Ti  Ti901  1  0.27087367  0.64387222  0.15919167  1.0
  Ti  Ti902  1  0.27087367  0.97720556  0.15919167  1.0
  Ti  Ti903  1  0.60420700  0.31053889  0.15919167  1.0
  Ti  Ti904  1  0.60420700  0.64387222  0.15919167  1.0
  Ti  Ti905  1  0.60420700  0.97720556  0.15919167  1.0
  Ti  Ti906  1  0.93754033  0.31053889  0.15919167  1.0
  Ti  Ti907  1  0.93754033  0.64387222  0.15919167  1.0
  Ti  Ti908  1  0.93754033  0.97720556  0.15919167  1.0
  Ti  Ti909  1  0.10420700  0.09625317  0.23062024  1.0
  Ti  Ti910  1  0.10420700  0.42958651  0.23062024  1.0
  Ti  Ti911  1  0.10420700  0.76291984  0.23062024  1.0
  Ti  Ti912  1  0.43754033  0.09625317  0.23062024  1.0
  Ti  Ti913  1  0.43754033  0.42958651  0.23062024  1.0
  Ti  Ti914  1  0.43754033  0.76291984  0.23062024  1.0
  Ti  Ti915  1  0.77087367  0.09625317  0.23062024  1.0
  Ti  Ti916  1  0.77087367  0.42958651  0.23062024  1.0
  Ti  Ti917  1  0.77087367  0.76291984  0.23062024  1.0
  Ti  Ti918  1  0.06245967  0.25099203  0.24851195  1.0
  Ti  Ti919  1  0.06245967  0.58432537  0.24851195  1.0
  Ti  Ti920  1  0.06245967  0.91765870  0.24851195  1.0
  Ti  Ti921  1  0.39579300  0.25099203  0.24851195  1.0
  Ti  Ti922  1  0.39579300  0.58432537  0.24851195  1.0
  Ti  Ti923  1  0.39579300  0.91765870  0.24851195  1.0
  Ti  Ti924  1  0.72912633  0.25099203  0.24851195  1.0
  Ti  Ti925  1  0.72912633  0.58432537  0.24851195  1.0
  Ti  Ti926  1  0.72912633  0.91765870  0.24851195  1.0
  Ti  Ti927  1  0.22912633  0.13194441  0.17708338  1.0
  Ti  Ti928  1  0.22912633  0.46527775  0.17708338  1.0
  Ti  Ti929  1  0.22912633  0.79861108  0.17708338  1.0
  Ti  Ti930  1  0.56245967  0.13194441  0.17708338  1.0
  Ti  Ti931  1  0.56245967  0.46527775  0.17708338  1.0
  Ti  Ti932  1  0.56245967  0.79861108  0.17708338  1.0
  Ti  Ti933  1  0.89579300  0.13194441  0.17708338  1.0
  Ti  Ti934  1  0.89579300  0.46527775  0.17708338  1.0
  Ti  Ti935  1  0.89579300  0.79861108  0.17708338  1.0
  Ti  Ti936  1  0.06245967  0.31053889  0.15919167  1.0
  Ti  Ti937  1  0.06245967  0.64387222  0.15919167  1.0
  Ti  Ti938  1  0.06245967  0.97720556  0.15919167  1.0
  Ti  Ti939  1  0.39579300  0.31053889  0.15919167  1.0
  Ti  Ti940  1  0.39579300  0.64387222  0.15919167  1.0
  Ti  Ti941  1  0.39579300  0.97720556  0.15919167  1.0
  Ti  Ti942  1  0.72912633  0.31053889  0.15919167  1.0
  Ti  Ti943  1  0.72912633  0.64387222  0.15919167  1.0
  Ti  Ti944  1  0.72912633  0.97720556  0.15919167  1.0
  Ti  Ti945  1  0.22912633  0.09625317  0.23062024  1.0
  Ti  Ti946  1  0.22912633  0.42958651  0.23062024  1.0
  Ti  Ti947  1  0.22912633  0.76291984  0.23062024  1.0
  Ti  Ti948  1  0.56245967  0.09625317  0.23062024  1.0
  Ti  Ti949  1  0.56245967  0.42958651  0.23062024  1.0
  Ti  Ti950  1  0.56245967  0.76291984  0.23062024  1.0
  Ti  Ti951  1  0.89579300  0.09625317  0.23062024  1.0
  Ti  Ti952  1  0.89579300  0.42958651  0.23062024  1.0
  Ti  Ti953  1  0.89579300  0.76291984  0.23062024  1.0
  Ti  Ti954  1  0.27087367  0.25099203  0.24851195  1.0
  Ti  Ti955  1  0.27087367  0.58432537  0.24851195  1.0
  Ti  Ti956  1  0.27087367  0.91765870  0.24851195  1.0
  Ti  Ti957  1  0.60420700  0.25099203  0.24851195  1.0
  Ti  Ti958  1  0.60420700  0.58432537  0.24851195  1.0
  Ti  Ti959  1  0.60420700  0.91765870  0.24851195  1.0
  Ti  Ti960  1  0.93754033  0.25099203  0.24851195  1.0
  Ti  Ti961  1  0.93754033  0.58432537  0.24851195  1.0
  Ti  Ti962  1  0.93754033  0.91765870  0.24851195  1.0
  Ti  Ti963  1  0.10420700  0.13194441  0.17708338  1.0
  Ti  Ti964  1  0.10420700  0.46527775  0.17708338  1.0
  Ti  Ti965  1  0.10420700  0.79861108  0.17708338  1.0
  Ti  Ti966  1  0.43754033  0.13194441  0.17708338  1.0
  Ti  Ti967  1  0.43754033  0.46527775  0.17708338  1.0
  Ti  Ti968  1  0.43754033  0.79861108  0.17708338  1.0
  Ti  Ti969  1  0.77087367  0.13194441  0.17708338  1.0
  Ti  Ti970  1  0.77087367  0.46527775  0.17708338  1.0
  Ti  Ti971  1  0.77087367  0.79861108  0.17708338  1.0
  Ti  Ti972  1  0.00000000  0.20637798  0.22174352  1.0
  Ti  Ti973  1  0.00000000  0.53971132  0.22174352  1.0
  Ti  Ti974  1  0.00000000  0.87304465  0.22174352  1.0
  Ti  Ti975  1  0.33333333  0.20637798  0.22174352  1.0
  Ti  Ti976  1  0.33333333  0.53971132  0.22174352  1.0
  Ti  Ti977  1  0.33333333  0.87304465  0.22174352  1.0
  Ti  Ti978  1  0.66666667  0.20637798  0.22174352  1.0
  Ti  Ti979  1  0.66666667  0.53971132  0.22174352  1.0
  Ti  Ti980  1  0.66666667  0.87304465  0.22174352  1.0
  Ti  Ti981  1  0.16666667  0.08733037  0.15031495  1.0
  Ti  Ti982  1  0.16666667  0.42066370  0.15031495  1.0
  Ti  Ti983  1  0.16666667  0.75399703  0.15031495  1.0
  Ti  Ti984  1  0.50000000  0.08733037  0.15031495  1.0
  Ti  Ti985  1  0.50000000  0.42066370  0.15031495  1.0
  Ti  Ti986  1  0.50000000  0.75399703  0.15031495  1.0
  Ti  Ti987  1  0.83333333  0.08733037  0.15031495  1.0
  Ti  Ti988  1  0.83333333  0.42066370  0.15031495  1.0
  Ti  Ti989  1  0.83333333  0.75399703  0.15031495  1.0
  Ti  Ti990  1  0.00000000  0.02181960  0.18596009  1.0
  Ti  Ti991  1  0.00000000  0.35515294  0.18596009  1.0
  Ti  Ti992  1  0.00000000  0.68848627  0.18596009  1.0
  Ti  Ti993  1  0.33333333  0.02181960  0.18596009  1.0
  Ti  Ti994  1  0.33333333  0.35515294  0.18596009  1.0
  Ti  Ti995  1  0.33333333  0.68848627  0.18596009  1.0
  Ti  Ti996  1  0.66666667  0.02181960  0.18596009  1.0
  Ti  Ti997  1  0.66666667  0.35515294  0.18596009  1.0
  Ti  Ti998  1  0.66666667  0.68848627  0.18596009  1.0
  Ti  Ti999  1  0.16666667  0.14086722  0.25738867  1.0
  Ti  Ti1000  1  0.16666667  0.47420056  0.25738867  1.0
  Ti  Ti1001  1  0.16666667  0.80753389  0.25738867  1.0
  Ti  Ti1002  1  0.50000000  0.14086722  0.25738867  1.0
  Ti  Ti1003  1  0.50000000  0.47420056  0.25738867  1.0
  Ti  Ti1004  1  0.50000000  0.80753389  0.25738867  1.0
  Ti  Ti1005  1  0.83333333  0.14086722  0.25738867  1.0
  Ti  Ti1006  1  0.83333333  0.47420056  0.25738867  1.0
  Ti  Ti1007  1  0.83333333  0.80753389  0.25738867  1.0
  Ti  Ti1008  1  0.00000000  0.06052737  0.34670895  1.0
  Ti  Ti1009  1  0.00000000  0.39386070  0.34670895  1.0
  Ti  Ti1010  1  0.00000000  0.72719403  0.34670895  1.0
  Ti  Ti1011  1  0.33333333  0.06052737  0.34670895  1.0
  Ti  Ti1012  1  0.33333333  0.39386070  0.34670895  1.0
  Ti  Ti1013  1  0.33333333  0.72719403  0.34670895  1.0
  Ti  Ti1014  1  0.66666667  0.06052737  0.34670895  1.0
  Ti  Ti1015  1  0.66666667  0.39386070  0.34670895  1.0
  Ti  Ti1016  1  0.66666667  0.72719403  0.34670895  1.0
  Ti  Ti1017  1  0.16666667  0.17957498  0.41813752  1.0
  Ti  Ti1018  1  0.16666667  0.51290832  0.41813752  1.0
  Ti  Ti1019  1  0.16666667  0.84624165  0.41813752  1.0
  Ti  Ti1020  1  0.50000000  0.17957498  0.41813752  1.0
  Ti  Ti1021  1  0.50000000  0.51290832  0.41813752  1.0
  Ti  Ti1022  1  0.50000000  0.84624165  0.41813752  1.0
  Ti  Ti1023  1  0.83333333  0.17957498  0.41813752  1.0
  Ti  Ti1024  1  0.83333333  0.51290832  0.41813752  1.0
  Ti  Ti1025  1  0.83333333  0.84624165  0.41813752  1.0
  Ti  Ti1026  1  0.25000000  0.28671784  0.38242324  1.0
  Ti  Ti1027  1  0.25000000  0.62005117  0.38242324  1.0
  Ti  Ti1028  1  0.25000000  0.95338451  0.38242324  1.0
  Ti  Ti1029  1  0.58333333  0.28671784  0.38242324  1.0
  Ti  Ti1030  1  0.58333333  0.62005117  0.38242324  1.0
  Ti  Ti1031  1  0.58333333  0.95338451  0.38242324  1.0
  Ti  Ti1032  1  0.91666667  0.28671784  0.38242324  1.0
  Ti  Ti1033  1  0.91666667  0.62005117  0.38242324  1.0
  Ti  Ti1034  1  0.91666667  0.95338451  0.38242324  1.0
  Ti  Ti1035  1  0.08333333  0.16767022  0.31099467  1.0
  Ti  Ti1036  1  0.08333333  0.50100356  0.31099467  1.0
  Ti  Ti1037  1  0.08333333  0.83433689  0.31099467  1.0
  Ti  Ti1038  1  0.41666667  0.16767022  0.31099467  1.0
  Ti  Ti1039  1  0.41666667  0.50100356  0.31099467  1.0
  Ti  Ti1040  1  0.41666667  0.83433689  0.31099467  1.0
  Ti  Ti1041  1  0.75000000  0.16767022  0.31099467  1.0
  Ti  Ti1042  1  0.75000000  0.50100356  0.31099467  1.0
  Ti  Ti1043  1  0.75000000  0.83433689  0.31099467  1.0
  Ti  Ti1044  1  0.08333333  0.28671784  0.38242324  1.0
  Ti  Ti1045  1  0.08333333  0.62005117  0.38242324  1.0
  Ti  Ti1046  1  0.08333333  0.95338451  0.38242324  1.0
  Ti  Ti1047  1  0.41666667  0.28671784  0.38242324  1.0
  Ti  Ti1048  1  0.41666667  0.62005117  0.38242324  1.0
  Ti  Ti1049  1  0.41666667  0.95338451  0.38242324  1.0
  Ti  Ti1050  1  0.75000000  0.28671784  0.38242324  1.0
  Ti  Ti1051  1  0.75000000  0.62005117  0.38242324  1.0
  Ti  Ti1052  1  0.75000000  0.95338451  0.38242324  1.0
  Ti  Ti1053  1  0.25000000  0.16767022  0.31099467  1.0
  Ti  Ti1054  1  0.25000000  0.50100356  0.31099467  1.0
  Ti  Ti1055  1  0.25000000  0.83433689  0.31099467  1.0
  Ti  Ti1056  1  0.58333333  0.16767022  0.31099467  1.0
  Ti  Ti1057  1  0.58333333  0.50100356  0.31099467  1.0
  Ti  Ti1058  1  0.58333333  0.83433689  0.31099467  1.0
  Ti  Ti1059  1  0.91666667  0.16767022  0.31099467  1.0
  Ti  Ti1060  1  0.91666667  0.50100356  0.31099467  1.0
  Ti  Ti1061  1  0.91666667  0.83433689  0.31099467  1.0
  Ti  Ti1062  1  0.00000000  0.01290832  0.41813752  1.0
  Ti  Ti1063  1  0.00000000  0.34624165  0.41813752  1.0
  Ti  Ti1064  1  0.00000000  0.67957498  0.41813752  1.0
  Ti  Ti1065  1  0.33333333  0.01290832  0.41813752  1.0
  Ti  Ti1066  1  0.33333333  0.34624165  0.41813752  1.0
  Ti  Ti1067  1  0.33333333  0.67957498  0.41813752  1.0
  Ti  Ti1068  1  0.66666667  0.01290832  0.41813752  1.0
  Ti  Ti1069  1  0.66666667  0.34624165  0.41813752  1.0
  Ti  Ti1070  1  0.66666667  0.67957498  0.41813752  1.0
  Ti  Ti1071  1  0.16666667  0.22719403  0.34670895  1.0
  Ti  Ti1072  1  0.16666667  0.56052737  0.34670895  1.0
  Ti  Ti1073  1  0.16666667  0.89386070  0.34670895  1.0
  Ti  Ti1074  1  0.50000000  0.22719403  0.34670895  1.0
  Ti  Ti1075  1  0.50000000  0.56052737  0.34670895  1.0
  Ti  Ti1076  1  0.50000000  0.89386070  0.34670895  1.0
  Ti  Ti1077  1  0.83333333  0.22719403  0.34670895  1.0
  Ti  Ti1078  1  0.83333333  0.56052737  0.34670895  1.0
  Ti  Ti1079  1  0.83333333  0.89386070  0.34670895  1.0
  Ti  Ti1080  1  0.06245967  0.23908727  0.39136909  1.0
  Ti  Ti1081  1  0.06245967  0.57242060  0.39136909  1.0
  Ti  Ti1082  1  0.06245967  0.90575394  0.39136909  1.0
  Ti  Ti1083  1  0.39579300  0.23908727  0.39136909  1.0
  Ti  Ti1084  1  0.39579300  0.57242060  0.39136909  1.0
  Ti  Ti1085  1  0.39579300  0.90575394  0.39136909  1.0
  Ti  Ti1086  1  0.72912633  0.23908727  0.39136909  1.0
  Ti  Ti1087  1  0.72912633  0.57242060  0.39136909  1.0
  Ti  Ti1088  1  0.72912633  0.90575394  0.39136909  1.0
  Ti  Ti1089  1  0.22912633  0.12003965  0.31994052  1.0
  Ti  Ti1090  1  0.22912633  0.45337298  0.31994052  1.0
  Ti  Ti1091  1  0.22912633  0.78670632  0.31994052  1.0
  Ti  Ti1092  1  0.56245967  0.12003965  0.31994052  1.0
  Ti  Ti1093  1  0.56245967  0.45337298  0.31994052  1.0
  Ti  Ti1094  1  0.56245967  0.78670632  0.31994052  1.0
  Ti  Ti1095  1  0.89579300  0.12003965  0.31994052  1.0
  Ti  Ti1096  1  0.89579300  0.45337298  0.31994052  1.0
  Ti  Ti1097  1  0.89579300  0.78670632  0.31994052  1.0
  Ti  Ti1098  1  0.27087367  0.29863413  0.30204881  1.0
  Ti  Ti1099  1  0.27087367  0.63196746  0.30204881  1.0
  Ti  Ti1100  1  0.27087367  0.96530079  0.30204881  1.0
  Ti  Ti1101  1  0.60420700  0.29863413  0.30204881  1.0
  Ti  Ti1102  1  0.60420700  0.63196746  0.30204881  1.0
  Ti  Ti1103  1  0.60420700  0.96530079  0.30204881  1.0
  Ti  Ti1104  1  0.93754033  0.29863413  0.30204881  1.0
  Ti  Ti1105  1  0.93754033  0.63196746  0.30204881  1.0
  Ti  Ti1106  1  0.93754033  0.96530079  0.30204881  1.0
  Ti  Ti1107  1  0.10420700  0.08434841  0.37347738  1.0
  Ti  Ti1108  1  0.10420700  0.41768175  0.37347738  1.0
  Ti  Ti1109  1  0.10420700  0.75101508  0.37347738  1.0
  Ti  Ti1110  1  0.43754033  0.08434841  0.37347738  1.0
  Ti  Ti1111  1  0.43754033  0.41768175  0.37347738  1.0
  Ti  Ti1112  1  0.43754033  0.75101508  0.37347738  1.0
  Ti  Ti1113  1  0.77087367  0.08434841  0.37347738  1.0
  Ti  Ti1114  1  0.77087367  0.41768175  0.37347738  1.0
  Ti  Ti1115  1  0.77087367  0.75101508  0.37347738  1.0
  Ti  Ti1116  1  0.27087367  0.23908727  0.39136909  1.0
  Ti  Ti1117  1  0.27087367  0.57242060  0.39136909  1.0
  Ti  Ti1118  1  0.27087367  0.90575394  0.39136909  1.0
  Ti  Ti1119  1  0.60420700  0.23908727  0.39136909  1.0
  Ti  Ti1120  1  0.60420700  0.57242060  0.39136909  1.0
  Ti  Ti1121  1  0.60420700  0.90575394  0.39136910  1.0
  Ti  Ti1122  1  0.93754033  0.23908727  0.39136910  1.0
  Ti  Ti1123  1  0.93754033  0.57242060  0.39136909  1.0
  Ti  Ti1124  1  0.93754033  0.90575394  0.39136909  1.0
  Ti  Ti1125  1  0.10420700  0.12003965  0.31994052  1.0
  Ti  Ti1126  1  0.10420700  0.45337298  0.31994052  1.0
  Ti  Ti1127  1  0.10420700  0.78670632  0.31994052  1.0
  Ti  Ti1128  1  0.43754033  0.12003965  0.31994052  1.0
  Ti  Ti1129  1  0.43754033  0.45337298  0.31994052  1.0
  Ti  Ti1130  1  0.43754033  0.78670632  0.31994052  1.0
  Ti  Ti1131  1  0.77087367  0.12003965  0.31994052  1.0
  Ti  Ti1132  1  0.77087367  0.45337298  0.31994052  1.0
  Ti  Ti1133  1  0.77087367  0.78670632  0.31994052  1.0
  Ti  Ti1134  1  0.06245967  0.29863413  0.30204881  1.0
  Ti  Ti1135  1  0.06245967  0.63196746  0.30204881  1.0
  Ti  Ti1136  1  0.06245967  0.96530079  0.30204881  1.0
  Ti  Ti1137  1  0.39579300  0.29863413  0.30204881  1.0
  Ti  Ti1138  1  0.39579300  0.63196746  0.30204881  1.0
  Ti  Ti1139  1  0.39579300  0.96530079  0.30204881  1.0
  Ti  Ti1140  1  0.72912633  0.29863413  0.30204881  1.0
  Ti  Ti1141  1  0.72912633  0.63196746  0.30204881  1.0
  Ti  Ti1142  1  0.72912633  0.96530079  0.30204881  1.0
  Ti  Ti1143  1  0.22912633  0.08434841  0.37347738  1.0
  Ti  Ti1144  1  0.22912633  0.41768175  0.37347738  1.0
  Ti  Ti1145  1  0.22912633  0.75101508  0.37347738  1.0
  Ti  Ti1146  1  0.56245967  0.08434841  0.37347738  1.0
  Ti  Ti1147  1  0.56245967  0.41768175  0.37347738  1.0
  Ti  Ti1148  1  0.56245967  0.75101508  0.37347738  1.0
  Ti  Ti1149  1  0.89579300  0.08434841  0.37347738  1.0
  Ti  Ti1150  1  0.89579300  0.41768175  0.37347738  1.0
  Ti  Ti1151  1  0.89579300  0.75101508  0.37347738  1.0
  Ti  Ti1152  1  0.00000000  0.00991484  0.32881724  1.0
  Ti  Ti1153  1  0.00000000  0.34324817  0.32881724  1.0
  Ti  Ti1154  1  0.00000000  0.67658151  0.32881724  1.0
  Ti  Ti1155  1  0.33333333  0.00991484  0.32881724  1.0
  Ti  Ti1156  1  0.33333333  0.34324817  0.32881724  1.0
  Ti  Ti1157  1  0.33333333  0.67658151  0.32881724  1.0
  Ti  Ti1158  1  0.66666667  0.00991484  0.32881724  1.0
  Ti  Ti1159  1  0.66666667  0.34324817  0.32881724  1.0
  Ti  Ti1160  1  0.66666667  0.67658151  0.32881724  1.0
  Ti  Ti1161  1  0.16666667  0.12896246  0.40024581  1.0
  Ti  Ti1162  1  0.16666667  0.46229579  0.40024581  1.0
  Ti  Ti1163  1  0.16666667  0.79562913  0.40024581  1.0
  Ti  Ti1164  1  0.50000000  0.12896246  0.40024581  1.0
  Ti  Ti1165  1  0.50000000  0.46229579  0.40024581  1.0
  Ti  Ti1166  1  0.50000000  0.79562913  0.40024581  1.0
  Ti  Ti1167  1  0.83333333  0.12896246  0.40024581  1.0
  Ti  Ti1168  1  0.83333333  0.46229579  0.40024581  1.0
  Ti  Ti1169  1  0.83333333  0.79562913  0.40024581  1.0
  Ti  Ti1170  1  0.00000000  0.19447322  0.36460067  1.0
  Ti  Ti1171  1  0.00000000  0.52780656  0.36460067  1.0
  Ti  Ti1172  1  0.00000000  0.86113989  0.36460067  1.0
  Ti  Ti1173  1  0.33333333  0.19447322  0.36460067  1.0
  Ti  Ti1174  1  0.33333333  0.52780656  0.36460067  1.0
  Ti  Ti1175  1  0.33333333  0.86113989  0.36460067  1.0
  Ti  Ti1176  1  0.66666667  0.19447322  0.36460067  1.0
  Ti  Ti1177  1  0.66666667  0.52780656  0.36460067  1.0
  Ti  Ti1178  1  0.66666667  0.86113989  0.36460067  1.0
  Ti  Ti1179  1  0.16666667  0.07542560  0.29317209  1.0
  Ti  Ti1180  1  0.16666667  0.40875894  0.29317209  1.0
  Ti  Ti1181  1  0.16666667  0.74209227  0.29317209  1.0
  Ti  Ti1182  1  0.50000000  0.07542560  0.29317209  1.0
  Ti  Ti1183  1  0.50000000  0.40875894  0.29317209  1.0
  Ti  Ti1184  1  0.50000000  0.74209227  0.29317209  1.0
  Ti  Ti1185  1  0.83333333  0.07542560  0.29317209  1.0
  Ti  Ti1186  1  0.83333333  0.40875894  0.29317209  1.0
  Ti  Ti1187  1  0.83333333  0.74209227  0.29317209  1.0
  Ti  Ti1188  1  0.27087367  0.21530079  0.30204881  1.0
  Ti  Ti1189  1  0.27087367  0.54863413  0.30204881  1.0
  Ti  Ti1190  1  0.27087367  0.88196746  0.30204881  1.0
  Ti  Ti1191  1  0.60420700  0.21530079  0.30204881  1.0
  Ti  Ti1192  1  0.60420700  0.54863413  0.30204881  1.0
  Ti  Ti1193  1  0.60420700  0.88196746  0.30204881  1.0
  Ti  Ti1194  1  0.93754033  0.21530079  0.30204881  1.0
  Ti  Ti1195  1  0.93754033  0.54863413  0.30204881  1.0
  Ti  Ti1196  1  0.93754033  0.88196746  0.30204881  1.0
  Ti  Ti1197  1  0.10420700  0.00101508  0.37347738  1.0
  Ti  Ti1198  1  0.10420700  0.33434841  0.37347738  1.0
  Ti  Ti1199  1  0.10420700  0.66768175  0.37347738  1.0
  Ti  Ti1200  1  0.43754033  0.00101508  0.37347738  1.0
  Ti  Ti1201  1  0.43754033  0.33434841  0.37347738  1.0
  Ti  Ti1202  1  0.43754033  0.66768175  0.37347738  1.0
  Ti  Ti1203  1  0.77087367  0.00101508  0.37347738  1.0
  Ti  Ti1204  1  0.77087367  0.33434841  0.37347738  1.0
  Ti  Ti1205  1  0.77087367  0.66768175  0.37347738  1.0
  Ti  Ti1206  1  0.06245967  0.15575394  0.39136910  1.0
  Ti  Ti1207  1  0.06245967  0.48908727  0.39136910  1.0
  Ti  Ti1208  1  0.06245967  0.82242060  0.39136910  1.0
  Ti  Ti1209  1  0.39579300  0.15575394  0.39136910  1.0
  Ti  Ti1210  1  0.39579300  0.48908727  0.39136910  1.0
  Ti  Ti1211  1  0.39579300  0.82242060  0.39136910  1.0
  Ti  Ti1212  1  0.72912633  0.15575394  0.39136910  1.0
  Ti  Ti1213  1  0.72912633  0.48908727  0.39136910  1.0
  Ti  Ti1214  1  0.72912633  0.82242060  0.39136910  1.0
  Ti  Ti1215  1  0.22912633  0.03670632  0.31994052  1.0
  Ti  Ti1216  1  0.22912633  0.37003965  0.31994052  1.0
  Ti  Ti1217  1  0.22912633  0.70337298  0.31994052  1.0
  Ti  Ti1218  1  0.56245967  0.03670632  0.31994052  1.0
  Ti  Ti1219  1  0.56245967  0.37003965  0.31994052  1.0
  Ti  Ti1220  1  0.56245967  0.70337298  0.31994052  1.0
  Ti  Ti1221  1  0.89579300  0.03670632  0.31994052  1.0
  Ti  Ti1222  1  0.89579300  0.37003965  0.31994052  1.0
  Ti  Ti1223  1  0.89579300  0.70337298  0.31994052  1.0
  Ti  Ti1224  1  0.06245967  0.21530079  0.30204881  1.0
  Ti  Ti1225  1  0.06245967  0.54863413  0.30204881  1.0
  Ti  Ti1226  1  0.06245967  0.88196746  0.30204881  1.0
  Ti  Ti1227  1  0.39579300  0.21530079  0.30204881  1.0
  Ti  Ti1228  1  0.39579300  0.54863413  0.30204881  1.0
  Ti  Ti1229  1  0.39579300  0.88196746  0.30204881  1.0
  Ti  Ti1230  1  0.72912633  0.21530079  0.30204881  1.0
  Ti  Ti1231  1  0.72912633  0.54863413  0.30204881  1.0
  Ti  Ti1232  1  0.72912633  0.88196746  0.30204881  1.0
  Ti  Ti1233  1  0.22912633  0.00101508  0.37347738  1.0
  Ti  Ti1234  1  0.22912633  0.33434841  0.37347738  1.0
  Ti  Ti1235  1  0.22912633  0.66768175  0.37347738  1.0
  Ti  Ti1236  1  0.56245967  0.00101508  0.37347738  1.0
  Ti  Ti1237  1  0.56245967  0.33434841  0.37347738  1.0
  Ti  Ti1238  1  0.56245967  0.66768175  0.37347738  1.0
  Ti  Ti1239  1  0.89579300  0.00101508  0.37347738  1.0
  Ti  Ti1240  1  0.89579300  0.33434841  0.37347738  1.0
  Ti  Ti1241  1  0.89579300  0.66768175  0.37347738  1.0
  Ti  Ti1242  1  0.27087367  0.15575394  0.39136910  1.0
  Ti  Ti1243  1  0.27087367  0.48908727  0.39136910  1.0
  Ti  Ti1244  1  0.27087367  0.82242060  0.39136910  1.0
  Ti  Ti1245  1  0.60420700  0.15575394  0.39136910  1.0
  Ti  Ti1246  1  0.60420700  0.48908727  0.39136910  1.0
  Ti  Ti1247  1  0.60420700  0.82242060  0.39136910  1.0
  Ti  Ti1248  1  0.93754033  0.15575394  0.39136910  1.0
  Ti  Ti1249  1  0.93754033  0.48908727  0.39136910  1.0
  Ti  Ti1250  1  0.93754033  0.82242060  0.39136910  1.0
  Ti  Ti1251  1  0.10420700  0.03670632  0.31994052  1.0
  Ti  Ti1252  1  0.10420700  0.37003965  0.31994052  1.0
  Ti  Ti1253  1  0.10420700  0.70337298  0.31994052  1.0
  Ti  Ti1254  1  0.43754033  0.03670632  0.31994052  1.0
  Ti  Ti1255  1  0.43754033  0.37003965  0.31994052  1.0
  Ti  Ti1256  1  0.43754033  0.70337298  0.31994052  1.0
  Ti  Ti1257  1  0.77087367  0.03670632  0.31994052  1.0
  Ti  Ti1258  1  0.77087367  0.37003965  0.31994052  1.0
  Ti  Ti1259  1  0.77087367  0.70337298  0.31994052  1.0
  Ti  Ti1260  1  0.33333333  0.11113989  0.36460067  1.0
  Ti  Ti1261  1  0.33333333  0.44447322  0.36460067  1.0
  Ti  Ti1262  1  0.33333333  0.77780656  0.36460067  1.0
  Ti  Ti1263  1  0.66666667  0.11113989  0.36460067  1.0
  Ti  Ti1264  1  0.66666667  0.44447322  0.36460067  1.0
  Ti  Ti1265  1  0.66666667  0.77780656  0.36460067  1.0
  Ti  Ti1266  1  0.00000000  0.11113989  0.36460067  1.0
  Ti  Ti1267  1  0.00000000  0.44447322  0.36460067  1.0
  Ti  Ti1268  1  1.00000000  0.77780656  0.36460067  1.0
  Ti  Ti1269  1  0.16666667  0.32542560  0.29317209  1.0
  Ti  Ti1270  1  0.16666667  0.65875894  0.29317209  1.0
  Ti  Ti1271  1  0.16666667  0.99209227  0.29317209  1.0
  Ti  Ti1272  1  0.50000000  0.32542560  0.29317209  1.0
  Ti  Ti1273  1  0.50000000  0.65875894  0.29317209  1.0
  Ti  Ti1274  1  0.50000000  0.99209227  0.29317209  1.0
  Ti  Ti1275  1  0.83333333  0.32542560  0.29317209  1.0
  Ti  Ti1276  1  0.83333333  0.65875894  0.29317209  1.0
  Ti  Ti1277  1  0.83333333  0.99209227  0.29317209  1.0
  Ti  Ti1278  1  0.00000000  0.25991484  0.32881724  1.0
  Ti  Ti1279  1  0.00000000  0.59324817  0.32881724  1.0
  Ti  Ti1280  1  0.00000000  0.92658151  0.32881724  1.0
  Ti  Ti1281  1  0.33333333  0.25991484  0.32881724  1.0
  Ti  Ti1282  1  0.33333333  0.59324817  0.32881724  1.0
  Ti  Ti1283  1  0.33333333  0.92658151  0.32881724  1.0
  Ti  Ti1284  1  0.66666667  0.25991484  0.32881724  1.0
  Ti  Ti1285  1  0.66666667  0.59324817  0.32881724  1.0
  Ti  Ti1286  1  0.66666667  0.92658151  0.32881724  1.0
  Ti  Ti1287  1  0.16666667  0.04562913  0.40024581  1.0
  Ti  Ti1288  1  0.16666667  0.37896246  0.40024581  1.0
  Ti  Ti1289  1  0.16666667  0.71229579  0.40024581  1.0
  Ti  Ti1290  1  0.50000000  0.04562913  0.40024581  1.0
  Ti  Ti1291  1  0.50000000  0.37896246  0.40024581  1.0
  Ti  Ti1292  1  0.50000000  0.71229579  0.40024581  1.0
  Ti  Ti1293  1  0.83333333  0.04562913  0.40024581  1.0
  Ti  Ti1294  1  0.83333333  0.37896246  0.40024581  1.0
  Ti  Ti1295  1  0.83333333  0.71229579  0.40024581  1.0
