# generated using pymatgen
data_Ti3Ni4
_symmetry_space_group_name_H-M   'P 1'
_cell_length_a   21.89828572
_cell_length_b   36.90429572
_cell_length_c   29.15608608
_cell_angle_alpha   88.96324495
_cell_angle_beta   88.83518241
_cell_angle_gamma   79.06103240
_symmetry_Int_Tables_number   1
_chemical_formula_structural   Ti3Ni4
_chemical_formula_sum   'Ti324 Ni432'
_cell_volume   23126.88160162
_cell_formula_units_Z   108
loop_
 _symmetry_equiv_pos_site_id
 _symmetry_equiv_pos_as_xyz
  1  'x, y, z'
loop_
 _atom_site_type_symbol
 _atom_site_label
 _atom_site_symmetry_multiplicity
 _atom_site_fract_x
 _atom_site_fract_y
 _atom_site_fract_z
 _atom_site_occupancy
  Ni  Ni0  1  0.10080505  0.16955902  0.91174843  1.0
  Ni  Ni1  1  0.10080505  0.50289236  0.91174843  1.0
  Ni  Ni2  1  0.10080505  0.83622569  0.91174843  1.0
  Ni  Ni3  1  0.43413838  0.16955902  0.91174843  1.0
  Ni  Ni4  1  0.43413838  0.50289236  0.91174843  1.0
  Ni  Ni5  1  0.43413838  0.83622569  0.91174843  1.0
  Ni  Ni6  1  0.76747171  0.16955902  0.91174843  1.0
  Ni  Ni7  1  0.76747171  0.50289236  0.91174843  1.0
  Ni  Ni8  1  0.76747171  0.83622569  0.91174843  1.0
  Ni  Ni9  1  0.21985267  0.31241617  0.98317700  1.0
  Ni  Ni10  1  0.21985267  0.64574950  0.98317700  1.0
  Ni  Ni11  1  0.21985267  0.97908283  0.98317700  1.0
  Ni  Ni12  1  0.55318600  0.31241617  0.98317700  1.0
  Ni  Ni13  1  0.55318600  0.64574950  0.98317700  1.0
  Ni  Ni14  1  0.55318600  0.97908283  0.98317700  1.0
  Ni  Ni15  1  0.88651933  0.31241617  0.98317700  1.0
  Ni  Ni16  1  0.88651933  0.64574950  0.98317700  1.0
  Ni  Ni17  1  0.88651933  0.97908283  0.98317700  1.0
  Ni  Ni18  1  0.00494900  0.20929017  0.95170400  1.0
  Ni  Ni19  1  0.00494900  0.54262350  0.95170400  1.0
  Ni  Ni20  1  0.00494900  0.87595683  0.95170400  1.0
  Ni  Ni21  1  0.33828233  0.20929017  0.95170400  1.0
  Ni  Ni22  1  0.33828233  0.54262350  0.95170400  1.0
  Ni  Ni23  1  0.33828233  0.87595683  0.95170400  1.0
  Ni  Ni24  1  0.67161567  0.20929017  0.95170400  1.0
  Ni  Ni25  1  0.67161567  0.54262350  0.95170400  1.0
  Ni  Ni26  1  0.67161567  0.87595683  0.95170400  1.0
  Ni  Ni27  1  0.21923471  0.06643302  0.88027543  1.0
  Ni  Ni28  1  0.21923471  0.39976636  0.88027543  1.0
  Ni  Ni29  1  0.21923471  0.73309969  0.88027543  1.0
  Ni  Ni30  1  0.55256805  0.06643302  0.88027543  1.0
  Ni  Ni31  1  0.55256805  0.39976636  0.88027543  1.0
  Ni  Ni32  1  0.55256805  0.73309969  0.88027543  1.0
  Ni  Ni33  1  0.88590138  0.06643302  0.88027543  1.0
  Ni  Ni34  1  0.88590138  0.39976636  0.88027543  1.0
  Ni  Ni35  1  0.88590138  0.73309969  0.88027543  1.0
  Ni  Ni36  1  0.18181881  0.31488807  0.89703729  1.0
  Ni  Ni37  1  0.18181881  0.64822140  0.89703729  1.0
  Ni  Ni38  1  0.18181881  0.98155474  0.89703729  1.0
  Ni  Ni39  1  0.51515214  0.31488807  0.89703729  1.0
  Ni  Ni40  1  0.51515214  0.64822140  0.89703729  1.0
  Ni  Ni41  1  0.51515214  0.98155474  0.89703729  1.0
  Ni  Ni42  1  0.84848548  0.31488807  0.89703729  1.0
  Ni  Ni43  1  0.84848548  0.64822140  0.89703729  1.0
  Ni  Ni44  1  0.84848548  0.98155474  0.89703729  1.0
  Ni  Ni45  1  0.30086643  0.12441188  0.96846586  1.0
  Ni  Ni46  1  0.30086643  0.45774521  0.96846586  1.0
  Ni  Ni47  1  0.30086643  0.79107855  0.96846586  1.0
  Ni  Ni48  1  0.63419976  0.12441188  0.96846586  1.0
  Ni  Ni49  1  0.63419976  0.45774521  0.96846586  1.0
  Ni  Ni50  1  0.63419976  0.79107855  0.96846586  1.0
  Ni  Ni51  1  0.96753310  0.12441188  0.96846586  1.0
  Ni  Ni52  1  0.96753310  0.45774521  0.96846586  1.0
  Ni  Ni53  1  0.96753310  0.79107855  0.96846586  1.0
  Ni  Ni54  1  0.07967074  0.10232512  0.93089764  1.0
  Ni  Ni55  1  0.07967074  0.43565845  0.93089764  1.0
  Ni  Ni56  1  0.07967074  0.76899179  0.93089764  1.0
  Ni  Ni57  1  0.41300407  0.10232512  0.93089764  1.0
  Ni  Ni58  1  0.41300407  0.43565845  0.93089764  1.0
  Ni  Ni59  1  0.41300407  0.76899179  0.93089764  1.0
  Ni  Ni60  1  0.74633740  0.10232512  0.93089764  1.0
  Ni  Ni61  1  0.74633740  0.43565845  0.93089764  1.0
  Ni  Ni62  1  0.74633740  0.76899179  0.93089764  1.0
  Ni  Ni63  1  0.29395645  0.29280131  0.85946907  1.0
  Ni  Ni64  1  0.29395645  0.62613464  0.85946907  1.0
  Ni  Ni65  1  0.29395645  0.95946798  0.85946907  1.0
  Ni  Ni66  1  0.62728979  0.29280131  0.85946907  1.0
  Ni  Ni67  1  0.62728979  0.62613464  0.85946907  1.0
  Ni  Ni68  1  0.62728979  0.95946798  0.85946907  1.0
  Ni  Ni69  1  0.96062312  0.29280131  0.85946907  1.0
  Ni  Ni70  1  0.96062312  0.62613464  0.85946907  1.0
  Ni  Ni71  1  0.96062312  0.95946798  0.85946907  1.0
  Ni  Ni72  1  0.25726857  0.06396112  0.96641514  1.0
  Ni  Ni73  1  0.25726857  0.39729445  0.96641514  1.0
  Ni  Ni74  1  0.25726857  0.73062779  0.96641514  1.0
  Ni  Ni75  1  0.59060190  0.06396112  0.96641514  1.0
  Ni  Ni76  1  0.59060190  0.39729445  0.96641514  1.0
  Ni  Ni77  1  0.59060190  0.73062779  0.96641514  1.0
  Ni  Ni78  1  0.92393524  0.06396112  0.96641514  1.0
  Ni  Ni79  1  0.92393524  0.39729445  0.96641514  1.0
  Ni  Ni80  1  0.92393524  0.73062779  0.96641514  1.0
  Ni  Ni81  1  0.13822095  0.25443731  0.89498657  1.0
  Ni  Ni82  1  0.13822095  0.58777064  0.89498657  1.0
  Ni  Ni83  1  0.13822095  0.92110398  0.89498657  1.0
  Ni  Ni84  1  0.47155429  0.25443731  0.89498657  1.0
  Ni  Ni85  1  0.47155429  0.58777064  0.89498657  1.0
  Ni  Ni86  1  0.47155429  0.92110398  0.89498657  1.0
  Ni  Ni87  1  0.80488762  0.25443731  0.89498657  1.0
  Ni  Ni88  1  0.80488762  0.58777064  0.89498657  1.0
  Ni  Ni89  1  0.80488762  0.92110398  0.89498657  1.0
  Ni  Ni90  1  0.21954369  0.18942460  0.93172621  1.0
  Ni  Ni91  1  0.21954369  0.52275793  0.93172621  1.0
  Ni  Ni92  1  0.21954369  0.85609126  0.93172621  1.0
  Ni  Ni93  1  0.55287702  0.18942460  0.93172621  1.0
  Ni  Ni94  1  0.55287702  0.52275793  0.93172621  1.0
  Ni  Ni95  1  0.55287702  0.85609126  0.93172621  1.0
  Ni  Ni96  1  0.88621036  0.18942460  0.93172621  1.0
  Ni  Ni97  1  0.88621036  0.52275793  0.93172621  1.0
  Ni  Ni98  1  0.88621036  0.85609126  0.93172621  1.0
  Ni  Ni99  1  0.10049607  0.04656745  0.86029764  1.0
  Ni  Ni100  1  0.10049607  0.37990079  0.86029764  1.0
  Ni  Ni101  1  0.10049607  0.71323412  0.86029764  1.0
  Ni  Ni102  1  0.43382940  0.04656745  0.86029764  1.0
  Ni  Ni103  1  0.43382940  0.37990079  0.86029764  1.0
  Ni  Ni104  1  0.43382940  0.71323412  0.86029764  1.0
  Ni  Ni105  1  0.76716274  0.04656745  0.86029764  1.0
  Ni  Ni106  1  0.76716274  0.37990079  0.86029764  1.0
  Ni  Ni107  1  0.76716274  0.71323412  0.86029764  1.0
  Ni  Ni108  1  0.02608331  0.27652407  0.93255479  1.0
  Ni  Ni109  1  0.02608331  0.60985740  0.93255479  1.0
  Ni  Ni110  1  0.02608331  0.94319074  0.93255479  1.0
  Ni  Ni111  1  0.35941664  0.27652407  0.93255479  1.0
  Ni  Ni112  1  0.35941664  0.60985740  0.93255479  1.0
  Ni  Ni113  1  0.35941664  0.94319074  0.93255479  1.0
  Ni  Ni114  1  0.69274998  0.27652407  0.93255479  1.0
  Ni  Ni115  1  0.69274998  0.60985740  0.93255479  1.0
  Ni  Ni116  1  0.69274998  0.94319074  0.93255479  1.0
  Ni  Ni117  1  0.24036902  0.13366693  0.86112621  1.0
  Ni  Ni118  1  0.24036902  0.46700026  0.86112621  1.0
  Ni  Ni119  1  0.24036902  0.80033360  0.86112621  1.0
  Ni  Ni120  1  0.57370236  0.13366693  0.86112621  1.0
  Ni  Ni121  1  0.57370236  0.46700026  0.86112621  1.0
  Ni  Ni122  1  0.57370236  0.80033360  0.86112621  1.0
  Ni  Ni123  1  0.90703569  0.13366693  0.86112621  1.0
  Ni  Ni124  1  0.90703569  0.46700026  0.86112621  1.0
  Ni  Ni125  1  0.90703569  0.80033360  0.86112621  1.0
  Ni  Ni126  1  0.26716274  0.21323412  0.86029764  1.0
  Ni  Ni127  1  0.26716274  0.54656745  0.86029764  1.0
  Ni  Ni128  1  0.26716274  0.87990079  0.86029764  1.0
  Ni  Ni129  1  0.60049607  0.21323412  0.86029764  1.0
  Ni  Ni130  1  0.60049607  0.54656745  0.86029764  1.0
  Ni  Ni131  1  0.60049607  0.87990079  0.86029764  1.0
  Ni  Ni132  1  0.93382940  0.21323412  0.86029764  1.0
  Ni  Ni133  1  0.93382940  0.54656745  0.86029764  1.0
  Ni  Ni134  1  0.93382940  0.87990079  0.86029764  1.0
  Ni  Ni135  1  0.05287702  0.02275793  0.93172621  1.0
  Ni  Ni136  1  0.05287702  0.35609126  0.93172621  1.0
  Ni  Ni137  1  0.05287702  0.68942460  0.93172621  1.0
  Ni  Ni138  1  0.38621036  0.02275793  0.93172621  1.0
  Ni  Ni139  1  0.38621036  0.35609126  0.93172621  1.0
  Ni  Ni140  1  0.38621036  0.68942460  0.93172621  1.0
  Ni  Ni141  1  0.71954369  0.02275793  0.93172621  1.0
  Ni  Ni142  1  0.71954369  0.35609126  0.93172621  1.0
  Ni  Ni143  1  0.71954369  0.68942460  0.93172621  1.0
  Ni  Ni144  1  0.19604314  0.21717807  0.76889129  1.0
  Ni  Ni145  1  0.19604314  0.55051140  0.76889129  1.0
  Ni  Ni146  1  0.19604314  0.88384474  0.76889129  1.0
  Ni  Ni147  1  0.52937648  0.21717807  0.76889129  1.0
  Ni  Ni148  1  0.52937648  0.55051140  0.76889129  1.0
  Ni  Ni149  1  0.52937648  0.88384474  0.76889129  1.0
  Ni  Ni150  1  0.86270981  0.21717807  0.76889129  1.0
  Ni  Ni151  1  0.86270981  0.55051140  0.76889129  1.0
  Ni  Ni152  1  0.86270981  0.88384474  0.76889129  1.0
  Ni  Ni153  1  0.31509076  0.02670188  0.84031986  1.0
  Ni  Ni154  1  0.31509076  0.36003521  0.84031986  1.0
  Ni  Ni155  1  0.31509076  0.69336855  0.84031986  1.0
  Ni  Ni156  1  0.64842410  0.02670188  0.84031986  1.0
  Ni  Ni157  1  0.64842410  0.36003521  0.84031986  1.0
  Ni  Ni158  1  0.64842410  0.69336855  0.84031986  1.0
  Ni  Ni159  1  0.98175743  0.02670188  0.84031986  1.0
  Ni  Ni160  1  0.98175743  0.36003521  0.84031986  1.0
  Ni  Ni161  1  0.98175743  0.69336855  0.84031986  1.0
  Ni  Ni162  1  0.10018710  0.25690921  0.80884686  1.0
  Ni  Ni163  1  0.10018710  0.59024255  0.80884686  1.0
  Ni  Ni164  1  0.10018710  0.92357588  0.80884686  1.0
  Ni  Ni165  1  0.43352043  0.25690921  0.80884686  1.0
  Ni  Ni166  1  0.43352043  0.59024255  0.80884686  1.0
  Ni  Ni167  1  0.43352043  0.92357588  0.80884686  1.0
  Ni  Ni168  1  0.76685376  0.25690921  0.80884686  1.0
  Ni  Ni169  1  0.76685376  0.59024255  0.80884686  1.0
  Ni  Ni170  1  0.76685376  0.92357588  0.80884686  1.0
  Ni  Ni171  1  0.31447281  0.11405207  0.73741829  1.0
  Ni  Ni172  1  0.31447281  0.44738540  0.73741829  1.0
  Ni  Ni173  1  0.31447281  0.78071874  0.73741829  1.0
  Ni  Ni174  1  0.64780614  0.11405207  0.73741829  1.0
  Ni  Ni175  1  0.64780614  0.44738540  0.73741829  1.0
  Ni  Ni176  1  0.64780614  0.78071874  0.73741829  1.0
  Ni  Ni177  1  0.98113948  0.11405207  0.73741829  1.0
  Ni  Ni178  1  0.98113948  0.44738540  0.73741829  1.0
  Ni  Ni179  1  0.98113948  0.78071874  0.73741829  1.0
  Ni  Ni180  1  0.27705690  0.02917379  0.75418014  1.0
  Ni  Ni181  1  0.27705690  0.36250712  0.75418014  1.0
  Ni  Ni182  1  0.27705690  0.69584045  0.75418014  1.0
  Ni  Ni183  1  0.61039024  0.02917379  0.75418014  1.0
  Ni  Ni184  1  0.61039024  0.36250712  0.75418014  1.0
  Ni  Ni185  1  0.61039024  0.69584045  0.75418014  1.0
  Ni  Ni186  1  0.94372357  0.02917379  0.75418014  1.0
  Ni  Ni187  1  0.94372357  0.36250712  0.75418014  1.0
  Ni  Ni188  1  0.94372357  0.69584045  0.75418014  1.0
  Ni  Ni189  1  0.06277119  0.17203093  0.82560871  1.0
  Ni  Ni190  1  0.06277119  0.50536426  0.82560871  1.0
  Ni  Ni191  1  0.06277119  0.83869760  0.82560871  1.0
  Ni  Ni192  1  0.39610452  0.17203093  0.82560871  1.0
  Ni  Ni193  1  0.39610452  0.50536426  0.82560871  1.0
  Ni  Ni194  1  0.39610452  0.83869760  0.82560871  1.0
  Ni  Ni195  1  0.72943786  0.17203093  0.82560871  1.0
  Ni  Ni196  1  0.72943786  0.50536426  0.82560871  1.0
  Ni  Ni197  1  0.72943786  0.83869760  0.82560871  1.0
  Ni  Ni198  1  0.17490883  0.14994417  0.78804050  1.0
  Ni  Ni199  1  0.17490883  0.48327750  0.78804050  1.0
  Ni  Ni200  1  0.17490883  0.81661083  0.78804050  1.0
  Ni  Ni201  1  0.50824217  0.14994417  0.78804050  1.0
  Ni  Ni202  1  0.50824217  0.48327750  0.78804050  1.0
  Ni  Ni203  1  0.50824217  0.81661083  0.78804050  1.0
  Ni  Ni204  1  0.84157550  0.14994417  0.78804050  1.0
  Ni  Ni205  1  0.84157550  0.48327750  0.78804050  1.0
  Ni  Ni206  1  0.84157550  0.81661083  0.78804050  1.0
  Ni  Ni207  1  0.05586121  0.00708702  0.71661193  1.0
  Ni  Ni208  1  0.05586121  0.34042036  0.71661193  1.0
  Ni  Ni209  1  0.05586121  0.67375369  0.71661193  1.0
  Ni  Ni210  1  0.38919455  0.00708702  0.71661193  1.0
  Ni  Ni211  1  0.38919455  0.34042036  0.71661193  1.0
  Ni  Ni212  1  0.38919455  0.67375369  0.71661193  1.0
  Ni  Ni213  1  0.72252788  0.00708702  0.71661193  1.0
  Ni  Ni214  1  0.72252788  0.34042036  0.71661193  1.0
  Ni  Ni215  1  0.72252788  0.67375369  0.71661193  1.0
  Ni  Ni216  1  0.01917333  0.11158017  0.82355800  1.0
  Ni  Ni217  1  0.01917333  0.44491350  0.82355800  1.0
  Ni  Ni218  1  0.01917333  0.77824683  0.82355800  1.0
  Ni  Ni219  1  0.35250667  0.11158017  0.82355800  1.0
  Ni  Ni220  1  0.35250667  0.44491350  0.82355800  1.0
  Ni  Ni221  1  0.35250667  0.77824683  0.82355800  1.0
  Ni  Ni222  1  0.68584000  0.11158017  0.82355800  1.0
  Ni  Ni223  1  0.68584000  0.44491350  0.82355800  1.0
  Ni  Ni224  1  0.68584000  0.77824683  0.82355800  1.0
  Ni  Ni225  1  0.23345905  0.30205636  0.75212943  1.0
  Ni  Ni226  1  0.23345905  0.63538969  0.75212943  1.0
  Ni  Ni227  1  0.23345905  0.96872302  0.75212943  1.0
  Ni  Ni228  1  0.56679238  0.30205636  0.75212943  1.0
  Ni  Ni229  1  0.56679238  0.63538969  0.75212943  1.0
  Ni  Ni230  1  0.56679238  0.96872302  0.75212943  1.0
  Ni  Ni231  1  0.90012571  0.30205636  0.75212943  1.0
  Ni  Ni232  1  0.90012571  0.63538969  0.75212943  1.0
  Ni  Ni233  1  0.90012571  0.96872302  0.75212943  1.0
  Ni  Ni234  1  0.31478179  0.23704364  0.78886907  1.0
  Ni  Ni235  1  0.31478179  0.57037698  0.78886907  1.0
  Ni  Ni236  1  0.31478179  0.90371031  0.78886907  1.0
  Ni  Ni237  1  0.64811512  0.23704364  0.78886907  1.0
  Ni  Ni238  1  0.64811512  0.57037698  0.78886907  1.0
  Ni  Ni239  1  0.64811512  0.90371031  0.78886907  1.0
  Ni  Ni240  1  0.98144845  0.23704364  0.78886907  1.0
  Ni  Ni241  1  0.98144845  0.57037698  0.78886907  1.0
  Ni  Ni242  1  0.98144845  0.90371031  0.78886907  1.0
  Ni  Ni243  1  0.19573417  0.09418650  0.71744050  1.0
  Ni  Ni244  1  0.19573417  0.42751983  0.71744050  1.0
  Ni  Ni245  1  0.19573417  0.76085317  0.71744050  1.0
  Ni  Ni246  1  0.52906750  0.09418650  0.71744050  1.0
  Ni  Ni247  1  0.52906750  0.42751983  0.71744050  1.0
  Ni  Ni248  1  0.52906750  0.76085317  0.71744050  1.0
  Ni  Ni249  1  0.86240083  0.09418650  0.71744050  1.0
  Ni  Ni250  1  0.86240083  0.42751983  0.71744050  1.0
  Ni  Ni251  1  0.86240083  0.76085317  0.71744050  1.0
  Ni  Ni252  1  0.12132140  0.32414312  0.78969764  1.0
  Ni  Ni253  1  0.12132140  0.65747645  0.78969764  1.0
  Ni  Ni254  1  0.12132140  0.99080979  0.78969764  1.0
  Ni  Ni255  1  0.45465474  0.32414312  0.78969764  1.0
  Ni  Ni256  1  0.45465474  0.65747645  0.78969764  1.0
  Ni  Ni257  1  0.45465474  0.99080979  0.78969764  1.0
  Ni  Ni258  1  0.78798807  0.32414312  0.78969764  1.0
  Ni  Ni259  1  0.78798807  0.65747645  0.78969764  1.0
  Ni  Ni260  1  0.78798807  0.99080979  0.78969764  1.0
  Ni  Ni261  1  0.00227379  0.18128598  0.71826907  1.0
  Ni  Ni262  1  0.00227379  0.51461931  0.71826907  1.0
  Ni  Ni263  1  0.00227379  0.84795264  0.71826907  1.0
  Ni  Ni264  1  0.33560712  0.18128598  0.71826907  1.0
  Ni  Ni265  1  0.33560712  0.51461931  0.71826907  1.0
  Ni  Ni266  1  0.33560712  0.84795264  0.71826907  1.0
  Ni  Ni267  1  0.66894045  0.18128598  0.71826907  1.0
  Ni  Ni268  1  0.66894045  0.51461931  0.71826907  1.0
  Ni  Ni269  1  0.66894045  0.84795264  0.71826907  1.0
  Ni  Ni270  1  0.02906750  0.26085317  0.71744050  1.0
  Ni  Ni271  1  0.02906750  0.59418650  0.71744050  1.0
  Ni  Ni272  1  0.02906750  0.92751983  0.71744050  1.0
  Ni  Ni273  1  0.36240083  0.26085317  0.71744050  1.0
  Ni  Ni274  1  0.36240083  0.59418650  0.71744050  1.0
  Ni  Ni275  1  0.36240083  0.92751983  0.71744050  1.0
  Ni  Ni276  1  0.69573417  0.26085317  0.71744050  1.0
  Ni  Ni277  1  0.69573417  0.59418650  0.71744050  1.0
  Ni  Ni278  1  0.69573417  0.92751983  0.71744050  1.0
  Ni  Ni279  1  0.14811512  0.07037698  0.78886907  1.0
  Ni  Ni280  1  0.14811512  0.40371031  0.78886907  1.0
  Ni  Ni281  1  0.14811512  0.73704364  0.78886907  1.0
  Ni  Ni282  1  0.48144845  0.07037698  0.78886907  1.0
  Ni  Ni283  1  0.48144845  0.40371031  0.78886907  1.0
  Ni  Ni284  1  0.48144845  0.73704364  0.78886907  1.0
  Ni  Ni285  1  0.81478179  0.07037698  0.78886907  1.0
  Ni  Ni286  1  0.81478179  0.40371031  0.78886907  1.0
  Ni  Ni287  1  0.81478179  0.73704364  0.78886907  1.0
  Ni  Ni288  1  0.29128124  0.26479712  0.62603414  1.0
  Ni  Ni289  1  0.29128124  0.59813045  0.62603414  1.0
  Ni  Ni290  1  0.29128124  0.93146379  0.62603414  1.0
  Ni  Ni291  1  0.62461457  0.26479712  0.62603414  1.0
  Ni  Ni292  1  0.62461457  0.59813045  0.62603414  1.0
  Ni  Ni293  1  0.62461457  0.93146379  0.62603414  1.0
  Ni  Ni294  1  0.95794790  0.26479712  0.62603414  1.0
  Ni  Ni295  1  0.95794790  0.59813045  0.62603414  1.0
  Ni  Ni296  1  0.95794790  0.93146379  0.62603414  1.0
  Ni  Ni297  1  0.07699552  0.07432093  0.69746271  1.0
  Ni  Ni298  1  0.07699552  0.40765426  0.69746271  1.0
  Ni  Ni299  1  0.07699552  0.74098760  0.69746271  1.0
  Ni  Ni300  1  0.41032886  0.07432093  0.69746271  1.0
  Ni  Ni301  1  0.41032886  0.40765426  0.69746271  1.0
  Ni  Ni302  1  0.41032886  0.74098760  0.69746271  1.0
  Ni  Ni303  1  0.74366219  0.07432093  0.69746271  1.0
  Ni  Ni304  1  0.74366219  0.40765426  0.69746271  1.0
  Ni  Ni305  1  0.74366219  0.74098760  0.69746271  1.0
  Ni  Ni306  1  0.19542519  0.30452826  0.66598971  1.0
  Ni  Ni307  1  0.19542519  0.63786160  0.66598971  1.0
  Ni  Ni308  1  0.19542519  0.97119493  0.66598971  1.0
  Ni  Ni309  1  0.52875852  0.30452826  0.66598971  1.0
  Ni  Ni310  1  0.52875852  0.63786160  0.66598971  1.0
  Ni  Ni311  1  0.52875852  0.97119493  0.66598971  1.0
  Ni  Ni312  1  0.86209186  0.30452826  0.66598971  1.0
  Ni  Ni313  1  0.86209186  0.63786160  0.66598971  1.0
  Ni  Ni314  1  0.86209186  0.97119493  0.66598971  1.0
  Ni  Ni315  1  0.07637757  0.16167112  0.59456114  1.0
  Ni  Ni316  1  0.07637757  0.49500445  0.59456114  1.0
  Ni  Ni317  1  0.07637757  0.82833779  0.59456114  1.0
  Ni  Ni318  1  0.40971090  0.16167112  0.59456114  1.0
  Ni  Ni319  1  0.40971090  0.49500445  0.59456114  1.0
  Ni  Ni320  1  0.40971090  0.82833779  0.59456114  1.0
  Ni  Ni321  1  0.74304424  0.16167112  0.59456114  1.0
  Ni  Ni322  1  0.74304424  0.49500445  0.59456114  1.0
  Ni  Ni323  1  0.74304424  0.82833779  0.59456114  1.0
  Ni  Ni324  1  0.03896167  0.07679283  0.61132300  1.0
  Ni  Ni325  1  0.03896167  0.41012617  0.61132300  1.0
  Ni  Ni326  1  0.03896167  0.74345950  0.61132300  1.0
  Ni  Ni327  1  0.37229500  0.07679283  0.61132300  1.0
  Ni  Ni328  1  0.37229500  0.41012617  0.61132300  1.0
  Ni  Ni329  1  0.37229500  0.74345950  0.61132300  1.0
  Ni  Ni330  1  0.70562833  0.07679283  0.61132300  1.0
  Ni  Ni331  1  0.70562833  0.41012617  0.61132300  1.0
  Ni  Ni332  1  0.70562833  0.74345950  0.61132300  1.0
  Ni  Ni333  1  0.15800929  0.21964998  0.68275157  1.0
  Ni  Ni334  1  0.15800929  0.55298331  0.68275157  1.0
  Ni  Ni335  1  0.15800929  0.88631664  0.68275157  1.0
  Ni  Ni336  1  0.49134262  0.21964998  0.68275157  1.0
  Ni  Ni337  1  0.49134262  0.55298331  0.68275157  1.0
  Ni  Ni338  1  0.49134262  0.88631664  0.68275157  1.0
  Ni  Ni339  1  0.82467595  0.21964998  0.68275157  1.0
  Ni  Ni340  1  0.82467595  0.55298331  0.68275157  1.0
  Ni  Ni341  1  0.82467595  0.88631664  0.68275157  1.0
  Ni  Ni342  1  0.27014693  0.19756321  0.64518336  1.0
  Ni  Ni343  1  0.27014693  0.53089655  0.64518336  1.0
  Ni  Ni344  1  0.27014693  0.86422988  0.64518336  1.0
  Ni  Ni345  1  0.60348026  0.19756321  0.64518336  1.0
  Ni  Ni346  1  0.60348026  0.53089655  0.64518336  1.0
  Ni  Ni347  1  0.60348026  0.86422988  0.64518336  1.0
  Ni  Ni348  1  0.93681360  0.19756321  0.64518336  1.0
  Ni  Ni349  1  0.93681360  0.53089655  0.64518336  1.0
  Ni  Ni350  1  0.93681360  0.86422988  0.64518336  1.0
  Ni  Ni351  1  0.15109931  0.05470607  0.57375479  1.0
  Ni  Ni352  1  0.15109931  0.38803940  0.57375479  1.0
  Ni  Ni353  1  0.15109931  0.72137274  0.57375479  1.0
  Ni  Ni354  1  0.48443264  0.05470607  0.57375479  1.0
  Ni  Ni355  1  0.48443264  0.38803940  0.57375479  1.0
  Ni  Ni356  1  0.48443264  0.72137274  0.57375479  1.0
  Ni  Ni357  1  0.81776598  0.05470607  0.57375479  1.0
  Ni  Ni358  1  0.81776598  0.38803940  0.57375479  1.0
  Ni  Ni359  1  0.81776598  0.72137274  0.57375479  1.0
  Ni  Ni360  1  0.11441143  0.15919921  0.68070086  1.0
  Ni  Ni361  1  0.11441143  0.49253255  0.68070086  1.0
  Ni  Ni362  1  0.11441143  0.82586588  0.68070086  1.0
  Ni  Ni363  1  0.44774476  0.15919921  0.68070086  1.0
  Ni  Ni364  1  0.44774476  0.49253255  0.68070086  1.0
  Ni  Ni365  1  0.44774476  0.82586588  0.68070086  1.0
  Ni  Ni366  1  0.78107810  0.15919921  0.68070086  1.0
  Ni  Ni367  1  0.78107810  0.49253255  0.68070086  1.0
  Ni  Ni368  1  0.78107810  0.82586588  0.68070086  1.0
  Ni  Ni369  1  0.32869714  0.01634207  0.60927229  1.0
  Ni  Ni370  1  0.32869714  0.34967540  0.60927229  1.0
  Ni  Ni371  1  0.32869714  0.68300874  0.60927229  1.0
  Ni  Ni372  1  0.66203048  0.01634207  0.60927229  1.0
  Ni  Ni373  1  0.66203048  0.34967540  0.60927229  1.0
  Ni  Ni374  1  0.66203048  0.68300874  0.60927229  1.0
  Ni  Ni375  1  0.99536381  0.01634207  0.60927229  1.0
  Ni  Ni376  1  0.99536381  0.34967540  0.60927229  1.0
  Ni  Ni377  1  0.99536381  0.68300874  0.60927229  1.0
  Ni  Ni378  1  0.07668655  0.28466269  0.64601193  1.0
  Ni  Ni379  1  0.07668655  0.61799602  0.64601193  1.0
  Ni  Ni380  1  0.07668655  0.95132936  0.64601193  1.0
  Ni  Ni381  1  0.41001988  0.28466269  0.64601193  1.0
  Ni  Ni382  1  0.41001988  0.61799602  0.64601193  1.0
  Ni  Ni383  1  0.41001988  0.95132936  0.64601193  1.0
  Ni  Ni384  1  0.74335321  0.28466269  0.64601193  1.0
  Ni  Ni385  1  0.74335321  0.61799602  0.64601193  1.0
  Ni  Ni386  1  0.74335321  0.95132936  0.64601193  1.0
  Ni  Ni387  1  0.29097226  0.14180555  0.57458336  1.0
  Ni  Ni388  1  0.29097226  0.47513888  0.57458336  1.0
  Ni  Ni389  1  0.29097226  0.80847221  0.57458336  1.0
  Ni  Ni390  1  0.62430560  0.14180555  0.57458336  1.0
  Ni  Ni391  1  0.62430560  0.47513888  0.57458336  1.0
  Ni  Ni392  1  0.62430560  0.80847221  0.57458336  1.0
  Ni  Ni393  1  0.95763893  0.14180555  0.57458336  1.0
  Ni  Ni394  1  0.95763893  0.47513888  0.57458336  1.0
  Ni  Ni395  1  0.95763893  0.80847221  0.57458336  1.0
  Ni  Ni396  1  0.21655950  0.03842883  0.64684050  1.0
  Ni  Ni397  1  0.21655950  0.37176217  0.64684050  1.0
  Ni  Ni398  1  0.21655950  0.70509550  0.64684050  1.0
  Ni  Ni399  1  0.54989283  0.03842883  0.64684050  1.0
  Ni  Ni400  1  0.54989283  0.37176217  0.64684050  1.0
  Ni  Ni401  1  0.54989283  0.70509550  0.64684050  1.0
  Ni  Ni402  1  0.88322617  0.03842883  0.64684050  1.0
  Ni  Ni403  1  0.88322617  0.37176217  0.64684050  1.0
  Ni  Ni404  1  0.88322617  0.70509550  0.64684050  1.0
  Ni  Ni405  1  0.09751188  0.22890502  0.57541193  1.0
  Ni  Ni406  1  0.09751188  0.56223836  0.57541193  1.0
  Ni  Ni407  1  0.09751188  0.89557169  0.57541193  1.0
  Ni  Ni408  1  0.43084521  0.22890502  0.57541193  1.0
  Ni  Ni409  1  0.43084521  0.56223836  0.57541193  1.0
  Ni  Ni410  1  0.43084521  0.89557169  0.57541193  1.0
  Ni  Ni411  1  0.76417855  0.22890502  0.57541193  1.0
  Ni  Ni412  1  0.76417855  0.56223836  0.57541193  1.0
  Ni  Ni413  1  0.76417855  0.89557169  0.57541193  1.0
  Ni  Ni414  1  0.12430560  0.30847221  0.57458336  1.0
  Ni  Ni415  1  0.12430560  0.64180555  0.57458336  1.0
  Ni  Ni416  1  0.12430560  0.97513888  0.57458336  1.0
  Ni  Ni417  1  0.45763893  0.30847221  0.57458336  1.0
  Ni  Ni418  1  0.45763893  0.64180555  0.57458336  1.0
  Ni  Ni419  1  0.45763893  0.97513888  0.57458336  1.0
  Ni  Ni420  1  0.79097226  0.30847221  0.57458336  1.0
  Ni  Ni421  1  0.79097226  0.64180555  0.57458336  1.0
  Ni  Ni422  1  0.79097226  0.97513888  0.57458336  1.0
  Ni  Ni423  1  0.24335321  0.11799602  0.64601193  1.0
  Ni  Ni424  1  0.24335321  0.45132936  0.64601193  1.0
  Ni  Ni425  1  0.24335321  0.78466269  0.64601193  1.0
  Ni  Ni426  1  0.57668655  0.11799602  0.64601193  1.0
  Ni  Ni427  1  0.57668655  0.45132936  0.64601193  1.0
  Ni  Ni428  1  0.57668655  0.78466269  0.64601193  1.0
  Ni  Ni429  1  0.91001988  0.11799602  0.64601193  1.0
  Ni  Ni430  1  0.91001988  0.45132936  0.64601193  1.0
  Ni  Ni431  1  0.91001988  0.78466269  0.64601193  1.0
  Ti  Ti432  1  0.19384698  0.12117007  0.93803579  1.0
  Ti  Ti433  1  0.19384698  0.45450340  0.93803579  1.0
  Ti  Ti434  1  0.19384698  0.78783674  0.93803579  1.0
  Ti  Ti435  1  0.52718031  0.12117007  0.93803579  1.0
  Ti  Ti436  1  0.52718031  0.45450340  0.93803579  1.0
  Ti  Ti437  1  0.52718031  0.78783674  0.93803579  1.0
  Ti  Ti438  1  0.86051364  0.12117007  0.93803579  1.0
  Ti  Ti439  1  0.86051364  0.45450340  0.93803579  1.0
  Ti  Ti440  1  0.86051364  0.78783674  0.93803579  1.0
  Ti  Ti441  1  0.07479936  0.31164626  0.86660721  1.0
  Ti  Ti442  1  0.07479936  0.64497960  0.86660721  1.0
  Ti  Ti443  1  0.07479936  0.97831293  0.86660721  1.0
  Ti  Ti444  1  0.40813269  0.31164626  0.86660721  1.0
  Ti  Ti445  1  0.40813269  0.64497960  0.86660721  1.0
  Ti  Ti446  1  0.40813269  0.97831293  0.86660721  1.0
  Ti  Ti447  1  0.74146602  0.31164626  0.86660721  1.0
  Ti  Ti448  1  0.74146602  0.64497960  0.86660721  1.0
  Ti  Ti449  1  0.74146602  0.97831293  0.86660721  1.0
  Ti  Ti450  1  0.33089224  0.15703712  0.89742614  1.0
  Ti  Ti451  1  0.33089224  0.49037045  0.89742614  1.0
  Ti  Ti452  1  0.33089224  0.82370379  0.89742614  1.0
  Ti  Ti453  1  0.66422557  0.15703712  0.89742614  1.0
  Ti  Ti454  1  0.66422557  0.49037045  0.89742614  1.0
  Ti  Ti455  1  0.66422557  0.82370379  0.89742614  1.0
  Ti  Ti456  1  0.99755890  0.15703712  0.89742614  1.0
  Ti  Ti457  1  0.99755890  0.49037045  0.89742614  1.0
  Ti  Ti458  1  0.99755890  0.82370379  0.89742614  1.0
  Ti  Ti459  1  0.11660652  0.29989426  0.96885471  1.0
  Ti  Ti460  1  0.11660652  0.63322760  0.96885471  1.0
  Ti  Ti461  1  0.11660652  0.96656093  0.96885471  1.0
  Ti  Ti462  1  0.44993986  0.29989426  0.96885471  1.0
  Ti  Ti463  1  0.44993986  0.63322760  0.96885471  1.0
  Ti  Ti464  1  0.44993986  0.96656093  0.96885471  1.0
  Ti  Ti465  1  0.78327319  0.29989426  0.96885471  1.0
  Ti  Ti466  1  0.78327319  0.63322760  0.96885471  1.0
  Ti  Ti467  1  0.78327319  0.96656093  0.96885471  1.0
  Ti  Ti468  1  0.24524040  0.25767912  0.92541664  1.0
  Ti  Ti469  1  0.24524040  0.59101245  0.92541664  1.0
  Ti  Ti470  1  0.24524040  0.92434579  0.92541664  1.0
  Ti  Ti471  1  0.57857374  0.25767912  0.92541664  1.0
  Ti  Ti472  1  0.57857374  0.59101245  0.92541664  1.0
  Ti  Ti473  1  0.57857374  0.92434579  0.92541664  1.0
  Ti  Ti474  1  0.91190707  0.25767912  0.92541664  1.0
  Ti  Ti475  1  0.91190707  0.59101245  0.92541664  1.0
  Ti  Ti476  1  0.91190707  0.92434579  0.92541664  1.0
  Ti  Ti477  1  0.03095469  0.06720293  0.99684521  1.0
  Ti  Ti478  1  0.03095469  0.40053626  0.99684521  1.0
  Ti  Ti479  1  0.03095469  0.73386960  0.99684521  1.0
  Ti  Ti480  1  0.36428802  0.06720293  0.99684521  1.0
  Ti  Ti481  1  0.36428802  0.40053626  0.99684521  1.0
  Ti  Ti482  1  0.36428802  0.73386960  0.99684521  1.0
  Ti  Ti483  1  0.69762136  0.06720293  0.99684521  1.0
  Ti  Ti484  1  0.69762136  0.40053626  0.99684521  1.0
  Ti  Ti485  1  0.69762136  0.73386960  0.99684521  1.0
  Ti  Ti486  1  0.06886081  0.14673874  0.99279229  1.0
  Ti  Ti487  1  0.06886081  0.48007207  0.99279229  1.0
  Ti  Ti488  1  0.06886081  0.81340540  0.99279229  1.0
  Ti  Ti489  1  0.40219414  0.14673874  0.99279229  1.0
  Ti  Ti490  1  0.40219414  0.48007207  0.99279229  1.0
  Ti  Ti491  1  0.40219414  0.81340540  0.99279229  1.0
  Ti  Ti492  1  0.73552748  0.14673874  0.99279229  1.0
  Ti  Ti493  1  0.73552748  0.48007207  0.99279229  1.0
  Ti  Ti494  1  0.73552748  0.81340540  0.99279229  1.0
  Ti  Ti495  1  0.28314652  0.00388160  0.92136371  1.0
  Ti  Ti496  1  0.28314652  0.33721493  0.92136371  1.0
  Ti  Ti497  1  0.28314652  0.67054826  0.92136371  1.0
  Ti  Ti498  1  0.61647986  0.00388160  0.92136371  1.0
  Ti  Ti499  1  0.61647986  0.33721493  0.92136371  1.0
  Ti  Ti500  1  0.61647986  0.67054826  0.92136371  1.0
  Ti  Ti501  1  0.94981319  0.00388160  0.92136371  1.0
  Ti  Ti502  1  0.94981319  0.33721493  0.92136371  1.0
  Ti  Ti503  1  0.94981319  0.67054826  0.92136371  1.0
  Ti  Ti504  1  0.03689324  0.23211045  0.87066014  1.0
  Ti  Ti505  1  0.03689324  0.56544379  0.87066014  1.0
  Ti  Ti506  1  0.03689324  0.89877712  0.87066014  1.0
  Ti  Ti507  1  0.37022657  0.23211045  0.87066014  1.0
  Ti  Ti508  1  0.37022657  0.56544379  0.87066014  1.0
  Ti  Ti509  1  0.37022657  0.89877712  0.87066014  1.0
  Ti  Ti510  1  0.70355990  0.23211045  0.87066014  1.0
  Ti  Ti511  1  0.70355990  0.56544379  0.87066014  1.0
  Ti  Ti512  1  0.70355990  0.89877712  0.87066014  1.0
  Ti  Ti513  1  0.15594086  0.04163426  0.94208871  1.0
  Ti  Ti514  1  0.15594086  0.37496760  0.94208871  1.0
  Ti  Ti515  1  0.15594086  0.70830093  0.94208871  1.0
  Ti  Ti516  1  0.48927419  0.04163426  0.94208871  1.0
  Ti  Ti517  1  0.48927419  0.37496760  0.94208871  1.0
  Ti  Ti518  1  0.48927419  0.70830093  0.94208871  1.0
  Ti  Ti519  1  0.82260752  0.04163426  0.94208871  1.0
  Ti  Ti520  1  0.82260752  0.37496760  0.94208871  1.0
  Ti  Ti521  1  0.82260752  0.70830093  0.94208871  1.0
  Ti  Ti522  1  0.10819514  0.22181207  0.96602629  1.0
  Ti  Ti523  1  0.10819514  0.55514540  0.96602629  1.0
  Ti  Ti524  1  0.10819514  0.88847874  0.96602629  1.0
  Ti  Ti525  1  0.44152848  0.22181207  0.96602629  1.0
  Ti  Ti526  1  0.44152848  0.55514540  0.96602629  1.0
  Ti  Ti527  1  0.44152848  0.88847874  0.96602629  1.0
  Ti  Ti528  1  0.77486181  0.22181207  0.96602629  1.0
  Ti  Ti529  1  0.77486181  0.55514540  0.96602629  1.0
  Ti  Ti530  1  0.77486181  0.88847874  0.96602629  1.0
  Ti  Ti531  1  0.32248086  0.07895493  0.89459771  1.0
  Ti  Ti532  1  0.32248086  0.41228826  0.89459771  1.0
  Ti  Ti533  1  0.32248086  0.74562160  0.89459771  1.0
  Ti  Ti534  1  0.65581419  0.07895493  0.89459771  1.0
  Ti  Ti535  1  0.65581419  0.41228826  0.89459771  1.0
  Ti  Ti536  1  0.65581419  0.74562160  0.89459771  1.0
  Ti  Ti537  1  0.98914752  0.07895493  0.89459771  1.0
  Ti  Ti538  1  0.98914752  0.41228826  0.89459771  1.0
  Ti  Ti539  1  0.98914752  0.74562160  0.89459771  1.0
  Ti  Ti540  1  0.28908507  0.16878912  0.79517864  1.0
  Ti  Ti541  1  0.28908507  0.50212245  0.79517864  1.0
  Ti  Ti542  1  0.28908507  0.83545579  0.79517864  1.0
  Ti  Ti543  1  0.62241840  0.16878912  0.79517864  1.0
  Ti  Ti544  1  0.62241840  0.50212245  0.79517864  1.0
  Ti  Ti545  1  0.62241840  0.83545579  0.79517864  1.0
  Ti  Ti546  1  0.95575174  0.16878912  0.79517864  1.0
  Ti  Ti547  1  0.95575174  0.50212245  0.79517864  1.0
  Ti  Ti548  1  0.95575174  0.83545579  0.79517864  1.0
  Ti  Ti549  1  0.17003745  0.02593198  0.72375007  1.0
  Ti  Ti550  1  0.17003745  0.35926531  0.72375007  1.0
  Ti  Ti551  1  0.17003745  0.69259864  0.72375007  1.0
  Ti  Ti552  1  0.50337079  0.02593198  0.72375007  1.0
  Ti  Ti553  1  0.50337079  0.35926531  0.72375007  1.0
  Ti  Ti554  1  0.50337079  0.69259864  0.72375007  1.0
  Ti  Ti555  1  0.83670412  0.02593198  0.72375007  1.0
  Ti  Ti556  1  0.83670412  0.35926531  0.72375007  1.0
  Ti  Ti557  1  0.83670412  0.69259864  0.72375007  1.0
  Ti  Ti558  1  0.09279700  0.20465617  0.75456900  1.0
  Ti  Ti559  1  0.09279700  0.53798950  0.75456900  1.0
  Ti  Ti560  1  0.09279700  0.87132283  0.75456900  1.0
  Ti  Ti561  1  0.42613033  0.20465617  0.75456900  1.0
  Ti  Ti562  1  0.42613033  0.53798950  0.75456900  1.0
  Ti  Ti563  1  0.42613033  0.87132283  0.75456900  1.0
  Ti  Ti564  1  0.75946367  0.20465617  0.75456900  1.0
  Ti  Ti565  1  0.75946367  0.53798950  0.75456900  1.0
  Ti  Ti566  1  0.75946367  0.87132283  0.75456900  1.0
  Ti  Ti567  1  0.21184462  0.01417998  0.82599757  1.0
  Ti  Ti568  1  0.21184462  0.34751331  0.82599757  1.0
  Ti  Ti569  1  0.21184462  0.68084664  0.82599757  1.0
  Ti  Ti570  1  0.54517795  0.01417998  0.82599757  1.0
  Ti  Ti571  1  0.54517795  0.34751331  0.82599757  1.0
  Ti  Ti572  1  0.54517795  0.68084664  0.82599757  1.0
  Ti  Ti573  1  0.87851129  0.01417998  0.82599757  1.0
  Ti  Ti574  1  0.87851129  0.34751331  0.82599757  1.0
  Ti  Ti575  1  0.87851129  0.68084664  0.82599757  1.0
  Ti  Ti576  1  0.00714517  0.30529817  0.78255950  1.0
  Ti  Ti577  1  0.00714517  0.63863150  0.78255950  1.0
  Ti  Ti578  1  0.00714517  0.97196483  0.78255950  1.0
  Ti  Ti579  1  0.34047850  0.30529817  0.78255950  1.0
  Ti  Ti580  1  0.34047850  0.63863150  0.78255950  1.0
  Ti  Ti581  1  0.34047850  0.97196483  0.78255950  1.0
  Ti  Ti582  1  0.67381183  0.30529817  0.78255950  1.0
  Ti  Ti583  1  0.67381183  0.63863150  0.78255950  1.0
  Ti  Ti584  1  0.67381183  0.97196483  0.78255950  1.0
  Ti  Ti585  1  0.12619279  0.11482198  0.85398807  1.0
  Ti  Ti586  1  0.12619279  0.44815531  0.85398807  1.0
  Ti  Ti587  1  0.12619279  0.78148864  0.85398807  1.0
  Ti  Ti588  1  0.45952612  0.11482198  0.85398807  1.0
  Ti  Ti589  1  0.45952612  0.44815531  0.85398807  1.0
  Ti  Ti590  1  0.45952612  0.78148864  0.85398807  1.0
  Ti  Ti591  1  0.79285945  0.11482198  0.85398807  1.0
  Ti  Ti592  1  0.79285945  0.44815531  0.85398807  1.0
  Ti  Ti593  1  0.79285945  0.78148864  0.85398807  1.0
  Ti  Ti594  1  0.16409890  0.19435779  0.84993514  1.0
  Ti  Ti595  1  0.16409890  0.52769112  0.84993514  1.0
  Ti  Ti596  1  0.16409890  0.86102445  0.84993514  1.0
  Ti  Ti597  1  0.49743224  0.19435779  0.84993514  1.0
  Ti  Ti598  1  0.49743224  0.52769112  0.84993514  1.0
  Ti  Ti599  1  0.49743224  0.86102445  0.84993514  1.0
  Ti  Ti600  1  0.83076557  0.19435779  0.84993514  1.0
  Ti  Ti601  1  0.83076557  0.52769112  0.84993514  1.0
  Ti  Ti602  1  0.83076557  0.86102445  0.84993514  1.0
  Ti  Ti603  1  0.04505129  0.05150064  0.77850657  1.0
  Ti  Ti604  1  0.04505129  0.38483398  0.77850657  1.0
  Ti  Ti605  1  0.04505129  0.71816731  0.77850657  1.0
  Ti  Ti606  1  0.37838462  0.05150064  0.77850657  1.0
  Ti  Ti607  1  0.37838462  0.38483398  0.77850657  1.0
  Ti  Ti608  1  0.37838462  0.71816731  0.77850657  1.0
  Ti  Ti609  1  0.71171795  0.05150064  0.77850657  1.0
  Ti  Ti610  1  0.71171795  0.38483398  0.77850657  1.0
  Ti  Ti611  1  0.71171795  0.71816731  0.77850657  1.0
  Ti  Ti612  1  0.13213133  0.27972950  0.72780300  1.0
  Ti  Ti613  1  0.13213133  0.61306283  0.72780300  1.0
  Ti  Ti614  1  0.13213133  0.94639617  0.72780300  1.0
  Ti  Ti615  1  0.46546467  0.27972950  0.72780300  1.0
  Ti  Ti616  1  0.46546467  0.61306283  0.72780300  1.0
  Ti  Ti617  1  0.46546467  0.94639617  0.72780300  1.0
  Ti  Ti618  1  0.79879800  0.27972950  0.72780300  1.0
  Ti  Ti619  1  0.79879800  0.61306283  0.72780300  1.0
  Ti  Ti620  1  0.79879800  0.94639617  0.72780300  1.0
  Ti  Ti621  1  0.25117895  0.08925331  0.79923157  1.0
  Ti  Ti622  1  0.25117895  0.42258664  0.79923157  1.0
  Ti  Ti623  1  0.25117895  0.75591998  0.79923157  1.0
  Ti  Ti624  1  0.58451229  0.08925331  0.79923157  1.0
  Ti  Ti625  1  0.58451229  0.42258664  0.79923157  1.0
  Ti  Ti626  1  0.58451229  0.75591998  0.79923157  1.0
  Ti  Ti627  1  0.91784562  0.08925331  0.79923157  1.0
  Ti  Ti628  1  0.91784562  0.42258664  0.79923157  1.0
  Ti  Ti629  1  0.91784562  0.75591998  0.79923157  1.0
  Ti  Ti630  1  0.20343324  0.26943112  0.82316914  1.0
  Ti  Ti631  1  0.20343324  0.60276445  0.82316914  1.0
  Ti  Ti632  1  0.20343324  0.93609779  0.82316914  1.0
  Ti  Ti633  1  0.53676657  0.26943112  0.82316914  1.0
  Ti  Ti634  1  0.53676657  0.60276445  0.82316914  1.0
  Ti  Ti635  1  0.53676657  0.93609779  0.82316914  1.0
  Ti  Ti636  1  0.87009990  0.26943112  0.82316914  1.0
  Ti  Ti637  1  0.87009990  0.60276445  0.82316914  1.0
  Ti  Ti638  1  0.87009990  0.93609779  0.82316914  1.0
  Ti  Ti639  1  0.08438562  0.12657398  0.75174057  1.0
  Ti  Ti640  1  0.08438562  0.45990731  0.75174057  1.0
  Ti  Ti641  1  0.08438562  0.79324064  0.75174057  1.0
  Ti  Ti642  1  0.41771895  0.12657398  0.75174057  1.0
  Ti  Ti643  1  0.41771895  0.45990731  0.75174057  1.0
  Ti  Ti644  1  0.41771895  0.79324064  0.75174057  1.0
  Ti  Ti645  1  0.75105229  0.12657398  0.75174057  1.0
  Ti  Ti646  1  0.75105229  0.45990731  0.75174057  1.0
  Ti  Ti647  1  0.75105229  0.79324064  0.75174057  1.0
  Ti  Ti648  1  0.05098983  0.21640817  0.65232150  1.0
  Ti  Ti649  1  0.05098983  0.54974150  0.65232150  1.0
  Ti  Ti650  1  0.05098983  0.88307483  0.65232150  1.0
  Ti  Ti651  1  0.38432317  0.21640817  0.65232150  1.0
  Ti  Ti652  1  0.38432317  0.54974150  0.65232150  1.0
  Ti  Ti653  1  0.38432317  0.88307483  0.65232150  1.0
  Ti  Ti654  1  0.71765650  0.21640817  0.65232150  1.0
  Ti  Ti655  1  0.71765650  0.54974150  0.65232150  1.0
  Ti  Ti656  1  0.71765650  0.88307483  0.65232150  1.0
  Ti  Ti657  1  0.26527555  0.07355102  0.58089293  1.0
  Ti  Ti658  1  0.26527555  0.40688436  0.58089293  1.0
  Ti  Ti659  1  0.26527555  0.74021769  0.58089293  1.0
  Ti  Ti660  1  0.59860888  0.07355102  0.58089293  1.0
  Ti  Ti661  1  0.59860888  0.40688436  0.58089293  1.0
  Ti  Ti662  1  0.59860888  0.74021769  0.58089293  1.0
  Ti  Ti663  1  0.93194221  0.07355102  0.58089293  1.0
  Ti  Ti664  1  0.93194221  0.40688436  0.58089293  1.0
  Ti  Ti665  1  0.93194221  0.74021769  0.58089293  1.0
  Ti  Ti666  1  0.18803510  0.25227521  0.61171186  1.0
  Ti  Ti667  1  0.18803510  0.58560855  0.61171186  1.0
  Ti  Ti668  1  0.18803510  0.91894188  0.61171186  1.0
  Ti  Ti669  1  0.52136843  0.25227521  0.61171186  1.0
  Ti  Ti670  1  0.52136843  0.58560855  0.61171186  1.0
  Ti  Ti671  1  0.52136843  0.91894188  0.61171186  1.0
  Ti  Ti672  1  0.85470176  0.25227521  0.61171186  1.0
  Ti  Ti673  1  0.85470176  0.58560855  0.61171186  1.0
  Ti  Ti674  1  0.85470176  0.91894188  0.61171186  1.0
  Ti  Ti675  1  0.30708271  0.06179902  0.68314043  1.0
  Ti  Ti676  1  0.30708271  0.39513236  0.68314043  1.0
  Ti  Ti677  1  0.30708271  0.72846569  0.68314043  1.0
  Ti  Ti678  1  0.64041605  0.06179902  0.68314043  1.0
  Ti  Ti679  1  0.64041605  0.39513236  0.68314043  1.0
  Ti  Ti680  1  0.64041605  0.72846569  0.68314043  1.0
  Ti  Ti681  1  0.97374938  0.06179902  0.68314043  1.0
  Ti  Ti682  1  0.97374938  0.39513236  0.68314043  1.0
  Ti  Ti683  1  0.97374938  0.72846569  0.68314043  1.0
  Ti  Ti684  1  0.10238326  0.01958388  0.63970236  1.0
  Ti  Ti685  1  0.10238326  0.35291721  0.63970236  1.0
  Ti  Ti686  1  0.10238326  0.68625055  0.63970236  1.0
  Ti  Ti687  1  0.43571660  0.01958388  0.63970236  1.0
  Ti  Ti688  1  0.43571660  0.35291721  0.63970236  1.0
  Ti  Ti689  1  0.43571660  0.68625055  0.63970236  1.0
  Ti  Ti690  1  0.76904993  0.01958388  0.63970236  1.0
  Ti  Ti691  1  0.76904993  0.35291721  0.63970236  1.0
  Ti  Ti692  1  0.76904993  0.68625055  0.63970236  1.0
  Ti  Ti693  1  0.22143088  0.16244102  0.71113093  1.0
  Ti  Ti694  1  0.22143088  0.49577436  0.71113093  1.0
  Ti  Ti695  1  0.22143088  0.82910769  0.71113093  1.0
  Ti  Ti696  1  0.55476421  0.16244102  0.71113093  1.0
  Ti  Ti697  1  0.55476421  0.49577436  0.71113093  1.0
  Ti  Ti698  1  0.55476421  0.82910769  0.71113093  1.0
  Ti  Ti699  1  0.88809755  0.16244102  0.71113093  1.0
  Ti  Ti700  1  0.88809755  0.49577436  0.71113093  1.0
  Ti  Ti701  1  0.88809755  0.82910769  0.71113093  1.0
  Ti  Ti702  1  0.25933700  0.24197683  0.70707800  1.0
  Ti  Ti703  1  0.25933700  0.57531017  0.70707800  1.0
  Ti  Ti704  1  0.25933700  0.90864350  0.70707800  1.0
  Ti  Ti705  1  0.59267033  0.24197683  0.70707800  1.0
  Ti  Ti706  1  0.59267033  0.57531017  0.70707800  1.0
  Ti  Ti707  1  0.59267033  0.90864350  0.70707800  1.0
  Ti  Ti708  1  0.92600367  0.24197683  0.70707800  1.0
  Ti  Ti709  1  0.92600367  0.57531017  0.70707800  1.0
  Ti  Ti710  1  0.92600367  0.90864350  0.70707800  1.0
  Ti  Ti711  1  0.14028938  0.09911969  0.63564943  1.0
  Ti  Ti712  1  0.14028938  0.43245302  0.63564943  1.0
  Ti  Ti713  1  0.14028938  0.76578636  0.63564943  1.0
  Ti  Ti714  1  0.47362271  0.09911969  0.63564943  1.0
  Ti  Ti715  1  0.47362271  0.43245302  0.63564943  1.0
  Ti  Ti716  1  0.47362271  0.76578636  0.63564943  1.0
  Ti  Ti717  1  0.80695605  0.09911969  0.63564943  1.0
  Ti  Ti718  1  0.80695605  0.43245302  0.63564943  1.0
  Ti  Ti719  1  0.80695605  0.76578636  0.63564943  1.0
  Ti  Ti720  1  0.22736943  0.32734855  0.58494586  1.0
  Ti  Ti721  1  0.22736943  0.66068188  0.58494586  1.0
  Ti  Ti722  1  0.22736943  0.99401521  0.58494586  1.0
  Ti  Ti723  1  0.56070276  0.32734855  0.58494586  1.0
  Ti  Ti724  1  0.56070276  0.66068188  0.58494586  1.0
  Ti  Ti725  1  0.56070276  0.99401521  0.58494586  1.0
  Ti  Ti726  1  0.89403610  0.32734855  0.58494586  1.0
  Ti  Ti727  1  0.89403610  0.66068188  0.58494586  1.0
  Ti  Ti728  1  0.89403610  0.99401521  0.58494586  1.0
  Ti  Ti729  1  0.01308371  0.13687236  0.65637443  1.0
  Ti  Ti730  1  0.01308371  0.47020569  0.65637443  1.0
  Ti  Ti731  1  0.01308371  0.80353902  0.65637443  1.0
  Ti  Ti732  1  0.34641705  0.13687236  0.65637443  1.0
  Ti  Ti733  1  0.34641705  0.47020569  0.65637443  1.0
  Ti  Ti734  1  0.34641705  0.80353902  0.65637443  1.0
  Ti  Ti735  1  0.67975038  0.13687236  0.65637443  1.0
  Ti  Ti736  1  0.67975038  0.47020569  0.65637443  1.0
  Ti  Ti737  1  0.67975038  0.80353902  0.65637443  1.0
  Ti  Ti738  1  0.29867133  0.31705017  0.68031200  1.0
  Ti  Ti739  1  0.29867133  0.65038350  0.68031200  1.0
  Ti  Ti740  1  0.29867133  0.98371683  0.68031200  1.0
  Ti  Ti741  1  0.63200467  0.31705017  0.68031200  1.0
  Ti  Ti742  1  0.63200467  0.65038350  0.68031200  1.0
  Ti  Ti743  1  0.63200467  0.98371683  0.68031200  1.0
  Ti  Ti744  1  0.96533800  0.31705017  0.68031200  1.0
  Ti  Ti745  1  0.96533800  0.65038350  0.68031200  1.0
  Ti  Ti746  1  0.96533800  0.98371683  0.68031200  1.0
  Ti  Ti747  1  0.17962371  0.17419302  0.60888343  1.0
  Ti  Ti748  1  0.17962371  0.50752636  0.60888343  1.0
  Ti  Ti749  1  0.17962371  0.84085969  0.60888343  1.0
  Ti  Ti750  1  0.51295705  0.17419302  0.60888343  1.0
  Ti  Ti751  1  0.51295705  0.50752636  0.60888343  1.0
  Ti  Ti752  1  0.51295705  0.84085969  0.60888343  1.0
  Ti  Ti753  1  0.84629038  0.17419302  0.60888343  1.0
  Ti  Ti754  1  0.84629038  0.50752636  0.60888343  1.0
  Ti  Ti755  1  0.84629038  0.84085969  0.60888343  1.0
