# generated using pymatgen
data_Ti3Ni4
_symmetry_space_group_name_H-M   'P 1'
_cell_length_a   33.64363107
_cell_length_b   33.64363107
_cell_length_c   100.35651540
_cell_angle_alpha   90.00000000
_cell_angle_beta   33.05967990
_cell_angle_gamma   60.00000000
_symmetry_Int_Tables_number   1
_chemical_formula_structural   Ti3Ni4
_chemical_formula_sum   'Ti324 Ni432'
_cell_volume   24778.80171602
_cell_formula_units_Z   108
loop_
 _symmetry_equiv_pos_site_id
 _symmetry_equiv_pos_as_xyz
  1  'x, y, z'
loop_
 _atom_site_type_symbol
 _atom_site_label
 _atom_site_symmetry_multiplicity
 _atom_site_fract_x
 _atom_site_fract_y
 _atom_site_fract_z
 _atom_site_occupancy
  Ti  Ti0  1  0.08394433  0.16851533  0.05234717  1.0
  Ti  Ti1  1  0.08394433  0.50184867  0.05234717  1.0
  Ti  Ti2  1  0.08394433  0.83518200  0.05234717  1.0
  Ti  Ti3  1  0.41727767  0.16851533  0.05234717  1.0
  Ti  Ti4  1  0.41727767  0.50184867  0.05234717  1.0
  Ti  Ti5  1  0.41727767  0.83518200  0.05234717  1.0
  Ti  Ti6  1  0.75061100  0.16851533  0.05234717  1.0
  Ti  Ti7  1  0.75061100  0.50184867  0.05234717  1.0
  Ti  Ti8  1  0.75061100  0.83518200  0.05234717  1.0
  Ti  Ti9  1  0.11708633  0.25245967  0.00477317  1.0
  Ti  Ti10  1  0.11708633  0.58579300  0.00477317  1.0
  Ti  Ti11  1  0.11708633  0.91912633  0.00477317  1.0
  Ti  Ti12  1  0.45041967  0.25245967  0.00477317  1.0
  Ti  Ti13  1  0.45041967  0.58579300  0.00477317  1.0
  Ti  Ti14  1  0.45041967  0.91912633  0.00477317  1.0
  Ti  Ti15  1  0.78375300  0.25245967  0.00477317  1.0
  Ti  Ti16  1  0.78375300  0.58579300  0.00477317  1.0
  Ti  Ti17  1  0.78375300  0.91912633  0.00477317  1.0
  Ti  Ti18  1  0.24938900  0.16481800  0.00477317  1.0
  Ti  Ti19  1  0.24938900  0.49815133  0.00477317  1.0
  Ti  Ti20  1  0.24938900  0.83148467  0.00477317  1.0
  Ti  Ti21  1  0.58272233  0.16481800  0.00477317  1.0
  Ti  Ti22  1  0.58272233  0.49815133  0.00477317  1.0
  Ti  Ti23  1  0.58272233  0.83148467  0.00477317  1.0
  Ti  Ti24  1  0.91605567  0.16481800  0.00477317  1.0
  Ti  Ti25  1  0.91605567  0.49815133  0.00477317  1.0
  Ti  Ti26  1  0.91605567  0.83148467  0.00477317  1.0
  Ti  Ti27  1  0.20472800  0.29712067  0.00477317  1.0
  Ti  Ti28  1  0.20472800  0.63045400  0.00477317  1.0
  Ti  Ti29  1  0.20472800  0.96378733  0.00477317  1.0
  Ti  Ti30  1  0.53806133  0.29712067  0.00477317  1.0
  Ti  Ti31  1  0.53806133  0.63045400  0.00477317  1.0
  Ti  Ti32  1  0.53806133  0.96378733  0.00477317  1.0
  Ti  Ti33  1  0.87139467  0.29712067  0.00477317  1.0
  Ti  Ti34  1  0.87139467  0.63045400  0.00477317  1.0
  Ti  Ti35  1  0.87139467  0.96378733  0.00477317  1.0
  Ti  Ti36  1  0.12860533  0.03621267  0.05234717  1.0
  Ti  Ti37  1  0.12860533  0.36954600  0.05234717  1.0
  Ti  Ti38  1  0.12860533  0.70287933  0.05234717  1.0
  Ti  Ti39  1  0.46193867  0.03621267  0.05234717  1.0
  Ti  Ti40  1  0.46193867  0.36954600  0.05234717  1.0
  Ti  Ti41  1  0.46193867  0.70287933  0.05234717  1.0
  Ti  Ti42  1  0.79527200  0.03621267  0.05234717  1.0
  Ti  Ti43  1  0.79527200  0.36954600  0.05234717  1.0
  Ti  Ti44  1  0.79527200  0.70287933  0.05234717  1.0
  Ti  Ti45  1  0.21624700  0.08087367  0.05234717  1.0
  Ti  Ti46  1  0.21624700  0.41420700  0.05234717  1.0
  Ti  Ti47  1  0.21624700  0.74754033  0.05234717  1.0
  Ti  Ti48  1  0.54958033  0.08087367  0.05234717  1.0
  Ti  Ti49  1  0.54958033  0.41420700  0.05234717  1.0
  Ti  Ti50  1  0.54958033  0.74754033  0.05234717  1.0
  Ti  Ti51  1  0.88291367  0.08087367  0.05234717  1.0
  Ti  Ti52  1  0.88291367  0.41420700  0.05234717  1.0
  Ti  Ti53  1  0.88291367  0.74754033  0.05234717  1.0
  Ni  Ni54  1  0.21493133  0.13849200  0.03599570  1.0
  Ni  Ni55  1  0.21493133  0.47182533  0.03599570  1.0
  Ni  Ni56  1  0.21493133  0.80515867  0.03599570  1.0
  Ni  Ni57  1  0.54826467  0.13849200  0.03599570  1.0
  Ni  Ni58  1  0.54826467  0.47182533  0.03599570  1.0
  Ni  Ni59  1  0.54826467  0.80515867  0.03599570  1.0
  Ni  Ni60  1  0.88159800  0.13849200  0.03599570  1.0
  Ni  Ni61  1  0.88159800  0.47182533  0.03599570  1.0
  Ni  Ni62  1  0.88159800  0.80515867  0.03599570  1.0
  Ni  Ni63  1  0.11840200  0.19484133  0.02112463  1.0
  Ni  Ni64  1  0.11840200  0.52817467  0.02112463  1.0
  Ni  Ni65  1  0.11840200  0.86150800  0.02112463  1.0
  Ni  Ni66  1  0.45173533  0.19484133  0.02112463  1.0
  Ni  Ni67  1  0.45173533  0.52817467  0.02112463  1.0
  Ni  Ni68  1  0.45173533  0.86150800  0.02112463  1.0
  Ni  Ni69  1  0.78506867  0.19484133  0.02112463  1.0
  Ni  Ni70  1  0.78506867  0.52817467  0.02112463  1.0
  Ni  Ni71  1  0.78506867  0.86150800  0.02112463  1.0
  Ni  Ni72  1  0.10939900  0.08544233  0.03599570  1.0
  Ni  Ni73  1  0.10939900  0.41877567  0.03599570  1.0
  Ni  Ni74  1  0.10939900  0.75210900  0.03599570  1.0
  Ni  Ni75  1  0.44273233  0.08544233  0.03599570  1.0
  Ni  Ni76  1  0.44273233  0.41877567  0.03599570  1.0
  Ni  Ni77  1  0.44273233  0.75210900  0.03599570  1.0
  Ni  Ni78  1  0.77606567  0.08544233  0.03599570  1.0
  Ni  Ni79  1  0.77606567  0.41877567  0.03599570  1.0
  Ni  Ni80  1  0.77606567  0.75210900  0.03599570  1.0
  Ni  Ni81  1  0.26798100  0.31324333  0.03599570  1.0
  Ni  Ni82  1  0.26798100  0.64657667  0.03599570  1.0
  Ni  Ni83  1  0.26798100  0.97991000  0.03599570  1.0
  Ni  Ni84  1  0.60131433  0.31324333  0.03599570  1.0
  Ni  Ni85  1  0.60131433  0.64657667  0.03599570  1.0
  Ni  Ni86  1  0.60131433  0.97991000  0.03599570  1.0
  Ni  Ni87  1  0.93464767  0.31324333  0.03599570  1.0
  Ni  Ni88  1  0.93464767  0.64657667  0.03599570  1.0
  Ni  Ni89  1  0.93464767  0.97991000  0.03599570  1.0
  Ni  Ni90  1  0.22393433  0.24789100  0.02112463  1.0
  Ni  Ni91  1  0.22393433  0.58122433  0.02112463  1.0
  Ni  Ni92  1  0.22393433  0.91455767  0.02112463  1.0
  Ni  Ni93  1  0.55726767  0.24789100  0.02112463  1.0
  Ni  Ni94  1  0.55726767  0.58122433  0.02112463  1.0
  Ni  Ni95  1  0.55726767  0.91455767  0.02112463  1.0
  Ni  Ni96  1  0.89060100  0.24789100  0.02112463  1.0
  Ni  Ni97  1  0.89060100  0.58122433  0.02112463  1.0
  Ni  Ni98  1  0.89060100  0.91455767  0.02112463  1.0
  Ni  Ni99  1  0.00000000  0.00000000  0.06189350  1.0
  Ni  Ni100  1  0.00000000  0.33333333  0.06189350  1.0
  Ni  Ni101  1  0.00000000  0.66666667  0.06189350  1.0
  Ni  Ni102  1  0.33333333  0.00000000  0.06189350  1.0
  Ni  Ni103  1  0.33333333  0.33333333  0.06189350  1.0
  Ni  Ni104  1  0.33333333  0.66666667  0.06189350  1.0
  Ni  Ni105  1  0.66666667  0.00000000  0.06189350  1.0
  Ni  Ni106  1  0.66666667  0.33333333  0.06189350  1.0
  Ni  Ni107  1  0.66666667  0.66666667  0.06189350  1.0
  Ni  Ni108  1  0.06535233  0.02009000  0.02112463  1.0
  Ni  Ni109  1  0.06535233  0.35342333  0.02112463  1.0
  Ni  Ni110  1  0.06535233  0.68675667  0.02112463  1.0
  Ni  Ni111  1  0.39868567  0.02009000  0.02112463  1.0
  Ni  Ni112  1  0.39868567  0.35342333  0.02112463  1.0
  Ni  Ni113  1  0.39868567  0.68675667  0.02112463  1.0
  Ni  Ni114  1  0.73201900  0.02009000  0.02112463  1.0
  Ni  Ni115  1  0.73201900  0.35342333  0.02112463  1.0
  Ni  Ni116  1  0.73201900  0.68675667  0.02112463  1.0
  Ni  Ni117  1  0.00000000  0.16666667  0.02856017  1.0
  Ni  Ni118  1  0.00000000  0.50000000  0.02856017  1.0
  Ni  Ni119  1  0.00000000  0.83333333  0.02856017  1.0
  Ni  Ni120  1  0.33333333  0.16666667  0.02856017  1.0
  Ni  Ni121  1  0.33333333  0.50000000  0.02856017  1.0
  Ni  Ni122  1  0.33333333  0.83333333  0.02856017  1.0
  Ni  Ni123  1  0.66666667  0.16666667  0.02856017  1.0
  Ni  Ni124  1  0.66666667  0.50000000  0.02856017  1.0
  Ni  Ni125  1  0.66666667  0.83333333  0.02856017  1.0
  Ti  Ti126  1  0.08394433  0.16851533  0.11901383  1.0
  Ti  Ti127  1  0.08394433  0.50184867  0.11901383  1.0
  Ti  Ti128  1  0.08394433  0.83518200  0.11901383  1.0
  Ti  Ti129  1  0.41727767  0.16851533  0.11901383  1.0
  Ti  Ti130  1  0.41727767  0.50184867  0.11901383  1.0
  Ti  Ti131  1  0.41727767  0.83518200  0.11901383  1.0
  Ti  Ti132  1  0.75061100  0.16851533  0.11901383  1.0
  Ti  Ti133  1  0.75061100  0.50184867  0.11901383  1.0
  Ti  Ti134  1  0.75061100  0.83518200  0.11901383  1.0
  Ti  Ti135  1  0.11708633  0.25245967  0.07143983  1.0
  Ti  Ti136  1  0.11708633  0.58579300  0.07143983  1.0
  Ti  Ti137  1  0.11708633  0.91912633  0.07143983  1.0
  Ti  Ti138  1  0.45041967  0.25245967  0.07143983  1.0
  Ti  Ti139  1  0.45041967  0.58579300  0.07143983  1.0
  Ti  Ti140  1  0.45041967  0.91912633  0.07143983  1.0
  Ti  Ti141  1  0.78375300  0.25245967  0.07143983  1.0
  Ti  Ti142  1  0.78375300  0.58579300  0.07143983  1.0
  Ti  Ti143  1  0.78375300  0.91912633  0.07143983  1.0
  Ti  Ti144  1  0.24938900  0.16481800  0.07143983  1.0
  Ti  Ti145  1  0.24938900  0.49815133  0.07143983  1.0
  Ti  Ti146  1  0.24938900  0.83148467  0.07143983  1.0
  Ti  Ti147  1  0.58272233  0.16481800  0.07143983  1.0
  Ti  Ti148  1  0.58272233  0.49815133  0.07143983  1.0
  Ti  Ti149  1  0.58272233  0.83148467  0.07143983  1.0
  Ti  Ti150  1  0.91605567  0.16481800  0.07143983  1.0
  Ti  Ti151  1  0.91605567  0.49815133  0.07143983  1.0
  Ti  Ti152  1  0.91605567  0.83148467  0.07143983  1.0
  Ti  Ti153  1  0.20472800  0.29712067  0.07143983  1.0
  Ti  Ti154  1  0.20472800  0.63045400  0.07143983  1.0
  Ti  Ti155  1  0.20472800  0.96378733  0.07143983  1.0
  Ti  Ti156  1  0.53806133  0.29712067  0.07143983  1.0
  Ti  Ti157  1  0.53806133  0.63045400  0.07143983  1.0
  Ti  Ti158  1  0.53806133  0.96378733  0.07143983  1.0
  Ti  Ti159  1  0.87139467  0.29712067  0.07143983  1.0
  Ti  Ti160  1  0.87139467  0.63045400  0.07143983  1.0
  Ti  Ti161  1  0.87139467  0.96378733  0.07143983  1.0
  Ti  Ti162  1  0.12860533  0.03621267  0.11901383  1.0
  Ti  Ti163  1  0.12860533  0.36954600  0.11901383  1.0
  Ti  Ti164  1  0.12860533  0.70287933  0.11901383  1.0
  Ti  Ti165  1  0.46193867  0.03621267  0.11901383  1.0
  Ti  Ti166  1  0.46193867  0.36954600  0.11901383  1.0
  Ti  Ti167  1  0.46193867  0.70287933  0.11901383  1.0
  Ti  Ti168  1  0.79527200  0.03621267  0.11901383  1.0
  Ti  Ti169  1  0.79527200  0.36954600  0.11901383  1.0
  Ti  Ti170  1  0.79527200  0.70287933  0.11901383  1.0
  Ti  Ti171  1  0.21624700  0.08087367  0.11901383  1.0
  Ti  Ti172  1  0.21624700  0.41420700  0.11901383  1.0
  Ti  Ti173  1  0.21624700  0.74754033  0.11901383  1.0
  Ti  Ti174  1  0.54958033  0.08087367  0.11901383  1.0
  Ti  Ti175  1  0.54958033  0.41420700  0.11901383  1.0
  Ti  Ti176  1  0.54958033  0.74754033  0.11901383  1.0
  Ti  Ti177  1  0.88291367  0.08087367  0.11901383  1.0
  Ti  Ti178  1  0.88291367  0.41420700  0.11901383  1.0
  Ti  Ti179  1  0.88291367  0.74754033  0.11901383  1.0
  Ni  Ni180  1  0.21493133  0.13849200  0.10266237  1.0
  Ni  Ni181  1  0.21493133  0.47182533  0.10266237  1.0
  Ni  Ni182  1  0.21493133  0.80515867  0.10266237  1.0
  Ni  Ni183  1  0.54826467  0.13849200  0.10266237  1.0
  Ni  Ni184  1  0.54826467  0.47182533  0.10266237  1.0
  Ni  Ni185  1  0.54826467  0.80515867  0.10266237  1.0
  Ni  Ni186  1  0.88159800  0.13849200  0.10266237  1.0
  Ni  Ni187  1  0.88159800  0.47182533  0.10266237  1.0
  Ni  Ni188  1  0.88159800  0.80515867  0.10266237  1.0
  Ni  Ni189  1  0.11840200  0.19484133  0.08779130  1.0
  Ni  Ni190  1  0.11840200  0.52817467  0.08779130  1.0
  Ni  Ni191  1  0.11840200  0.86150800  0.08779130  1.0
  Ni  Ni192  1  0.45173533  0.19484133  0.08779130  1.0
  Ni  Ni193  1  0.45173533  0.52817467  0.08779130  1.0
  Ni  Ni194  1  0.45173533  0.86150800  0.08779130  1.0
  Ni  Ni195  1  0.78506867  0.19484133  0.08779130  1.0
  Ni  Ni196  1  0.78506867  0.52817467  0.08779130  1.0
  Ni  Ni197  1  0.78506867  0.86150800  0.08779130  1.0
  Ni  Ni198  1  0.10939900  0.08544233  0.10266237  1.0
  Ni  Ni199  1  0.10939900  0.41877567  0.10266237  1.0
  Ni  Ni200  1  0.10939900  0.75210900  0.10266237  1.0
  Ni  Ni201  1  0.44273233  0.08544233  0.10266237  1.0
  Ni  Ni202  1  0.44273233  0.41877567  0.10266237  1.0
  Ni  Ni203  1  0.44273233  0.75210900  0.10266237  1.0
  Ni  Ni204  1  0.77606567  0.08544233  0.10266237  1.0
  Ni  Ni205  1  0.77606567  0.41877567  0.10266237  1.0
  Ni  Ni206  1  0.77606567  0.75210900  0.10266237  1.0
  Ni  Ni207  1  0.26798100  0.31324333  0.10266237  1.0
  Ni  Ni208  1  0.26798100  0.64657667  0.10266237  1.0
  Ni  Ni209  1  0.26798100  0.97991000  0.10266237  1.0
  Ni  Ni210  1  0.60131433  0.31324333  0.10266237  1.0
  Ni  Ni211  1  0.60131433  0.64657667  0.10266237  1.0
  Ni  Ni212  1  0.60131433  0.97991000  0.10266237  1.0
  Ni  Ni213  1  0.93464767  0.31324333  0.10266237  1.0
  Ni  Ni214  1  0.93464767  0.64657667  0.10266237  1.0
  Ni  Ni215  1  0.93464767  0.97991000  0.10266237  1.0
  Ni  Ni216  1  0.22393433  0.24789100  0.08779130  1.0
  Ni  Ni217  1  0.22393433  0.58122433  0.08779130  1.0
  Ni  Ni218  1  0.22393433  0.91455767  0.08779130  1.0
  Ni  Ni219  1  0.55726767  0.24789100  0.08779130  1.0
  Ni  Ni220  1  0.55726767  0.58122433  0.08779130  1.0
  Ni  Ni221  1  0.55726767  0.91455767  0.08779130  1.0
  Ni  Ni222  1  0.89060100  0.24789100  0.08779130  1.0
  Ni  Ni223  1  0.89060100  0.58122433  0.08779130  1.0
  Ni  Ni224  1  0.89060100  0.91455767  0.08779130  1.0
  Ni  Ni225  1  0.00000000  0.00000000  0.12856017  1.0
  Ni  Ni226  1  0.00000000  0.33333333  0.12856017  1.0
  Ni  Ni227  1  0.00000000  0.66666667  0.12856017  1.0
  Ni  Ni228  1  0.33333333  0.00000000  0.12856017  1.0
  Ni  Ni229  1  0.33333333  0.33333333  0.12856017  1.0
  Ni  Ni230  1  0.33333333  0.66666667  0.12856017  1.0
  Ni  Ni231  1  0.66666667  0.00000000  0.12856017  1.0
  Ni  Ni232  1  0.66666667  0.33333333  0.12856017  1.0
  Ni  Ni233  1  0.66666667  0.66666667  0.12856017  1.0
  Ni  Ni234  1  0.06535233  0.02009000  0.08779130  1.0
  Ni  Ni235  1  0.06535233  0.35342333  0.08779130  1.0
  Ni  Ni236  1  0.06535233  0.68675667  0.08779130  1.0
  Ni  Ni237  1  0.39868567  0.02009000  0.08779130  1.0
  Ni  Ni238  1  0.39868567  0.35342333  0.08779130  1.0
  Ni  Ni239  1  0.39868567  0.68675667  0.08779130  1.0
  Ni  Ni240  1  0.73201900  0.02009000  0.08779130  1.0
  Ni  Ni241  1  0.73201900  0.35342333  0.08779130  1.0
  Ni  Ni242  1  0.73201900  0.68675667  0.08779130  1.0
  Ni  Ni243  1  0.00000000  0.16666667  0.09522683  1.0
  Ni  Ni244  1  0.00000000  0.50000000  0.09522683  1.0
  Ni  Ni245  1  0.00000000  0.83333333  0.09522683  1.0
  Ni  Ni246  1  0.33333333  0.16666667  0.09522683  1.0
  Ni  Ni247  1  0.33333333  0.50000000  0.09522683  1.0
  Ni  Ni248  1  0.33333333  0.83333333  0.09522683  1.0
  Ni  Ni249  1  0.66666667  0.16666667  0.09522683  1.0
  Ni  Ni250  1  0.66666667  0.50000000  0.09522683  1.0
  Ni  Ni251  1  0.66666667  0.83333333  0.09522683  1.0
  Ti  Ti252  1  0.08394433  0.16851533  0.18568050  1.0
  Ti  Ti253  1  0.08394433  0.50184867  0.18568050  1.0
  Ti  Ti254  1  0.08394433  0.83518200  0.18568050  1.0
  Ti  Ti255  1  0.41727767  0.16851533  0.18568050  1.0
  Ti  Ti256  1  0.41727767  0.50184867  0.18568050  1.0
  Ti  Ti257  1  0.41727767  0.83518200  0.18568050  1.0
  Ti  Ti258  1  0.75061100  0.16851533  0.18568050  1.0
  Ti  Ti259  1  0.75061100  0.50184867  0.18568050  1.0
  Ti  Ti260  1  0.75061100  0.83518200  0.18568050  1.0
  Ti  Ti261  1  0.11708633  0.25245967  0.13810650  1.0
  Ti  Ti262  1  0.11708633  0.58579300  0.13810650  1.0
  Ti  Ti263  1  0.11708633  0.91912633  0.13810650  1.0
  Ti  Ti264  1  0.45041967  0.25245967  0.13810650  1.0
  Ti  Ti265  1  0.45041967  0.58579300  0.13810650  1.0
  Ti  Ti266  1  0.45041967  0.91912633  0.13810650  1.0
  Ti  Ti267  1  0.78375300  0.25245967  0.13810650  1.0
  Ti  Ti268  1  0.78375300  0.58579300  0.13810650  1.0
  Ti  Ti269  1  0.78375300  0.91912633  0.13810650  1.0
  Ti  Ti270  1  0.24938900  0.16481800  0.13810650  1.0
  Ti  Ti271  1  0.24938900  0.49815133  0.13810650  1.0
  Ti  Ti272  1  0.24938900  0.83148467  0.13810650  1.0
  Ti  Ti273  1  0.58272233  0.16481800  0.13810650  1.0
  Ti  Ti274  1  0.58272233  0.49815133  0.13810650  1.0
  Ti  Ti275  1  0.58272233  0.83148467  0.13810650  1.0
  Ti  Ti276  1  0.91605567  0.16481800  0.13810650  1.0
  Ti  Ti277  1  0.91605567  0.49815133  0.13810650  1.0
  Ti  Ti278  1  0.91605567  0.83148467  0.13810650  1.0
  Ti  Ti279  1  0.20472800  0.29712067  0.13810650  1.0
  Ti  Ti280  1  0.20472800  0.63045400  0.13810650  1.0
  Ti  Ti281  1  0.20472800  0.96378733  0.13810650  1.0
  Ti  Ti282  1  0.53806133  0.29712067  0.13810650  1.0
  Ti  Ti283  1  0.53806133  0.63045400  0.13810650  1.0
  Ti  Ti284  1  0.53806133  0.96378733  0.13810650  1.0
  Ti  Ti285  1  0.87139467  0.29712067  0.13810650  1.0
  Ti  Ti286  1  0.87139467  0.63045400  0.13810650  1.0
  Ti  Ti287  1  0.87139467  0.96378733  0.13810650  1.0
  Ti  Ti288  1  0.12860533  0.03621267  0.18568050  1.0
  Ti  Ti289  1  0.12860533  0.36954600  0.18568050  1.0
  Ti  Ti290  1  0.12860533  0.70287933  0.18568050  1.0
  Ti  Ti291  1  0.46193867  0.03621267  0.18568050  1.0
  Ti  Ti292  1  0.46193867  0.36954600  0.18568050  1.0
  Ti  Ti293  1  0.46193867  0.70287933  0.18568050  1.0
  Ti  Ti294  1  0.79527200  0.03621267  0.18568050  1.0
  Ti  Ti295  1  0.79527200  0.36954600  0.18568050  1.0
  Ti  Ti296  1  0.79527200  0.70287933  0.18568050  1.0
  Ti  Ti297  1  0.21624700  0.08087367  0.18568050  1.0
  Ti  Ti298  1  0.21624700  0.41420700  0.18568050  1.0
  Ti  Ti299  1  0.21624700  0.74754033  0.18568050  1.0
  Ti  Ti300  1  0.54958033  0.08087367  0.18568050  1.0
  Ti  Ti301  1  0.54958033  0.41420700  0.18568050  1.0
  Ti  Ti302  1  0.54958033  0.74754033  0.18568050  1.0
  Ti  Ti303  1  0.88291367  0.08087367  0.18568050  1.0
  Ti  Ti304  1  0.88291367  0.41420700  0.18568050  1.0
  Ti  Ti305  1  0.88291367  0.74754033  0.18568050  1.0
  Ni  Ni306  1  0.21493133  0.13849200  0.16932903  1.0
  Ni  Ni307  1  0.21493133  0.47182533  0.16932903  1.0
  Ni  Ni308  1  0.21493133  0.80515867  0.16932903  1.0
  Ni  Ni309  1  0.54826467  0.13849200  0.16932903  1.0
  Ni  Ni310  1  0.54826467  0.47182533  0.16932903  1.0
  Ni  Ni311  1  0.54826467  0.80515867  0.16932903  1.0
  Ni  Ni312  1  0.88159800  0.13849200  0.16932903  1.0
  Ni  Ni313  1  0.88159800  0.47182533  0.16932903  1.0
  Ni  Ni314  1  0.88159800  0.80515867  0.16932903  1.0
  Ni  Ni315  1  0.11840200  0.19484133  0.15445797  1.0
  Ni  Ni316  1  0.11840200  0.52817467  0.15445797  1.0
  Ni  Ni317  1  0.11840200  0.86150800  0.15445797  1.0
  Ni  Ni318  1  0.45173533  0.19484133  0.15445797  1.0
  Ni  Ni319  1  0.45173533  0.52817467  0.15445797  1.0
  Ni  Ni320  1  0.45173533  0.86150800  0.15445797  1.0
  Ni  Ni321  1  0.78506867  0.19484133  0.15445797  1.0
  Ni  Ni322  1  0.78506867  0.52817467  0.15445797  1.0
  Ni  Ni323  1  0.78506867  0.86150800  0.15445797  1.0
  Ni  Ni324  1  0.10939900  0.08544233  0.16932903  1.0
  Ni  Ni325  1  0.10939900  0.41877567  0.16932903  1.0
  Ni  Ni326  1  0.10939900  0.75210900  0.16932903  1.0
  Ni  Ni327  1  0.44273233  0.08544233  0.16932903  1.0
  Ni  Ni328  1  0.44273233  0.41877567  0.16932903  1.0
  Ni  Ni329  1  0.44273233  0.75210900  0.16932903  1.0
  Ni  Ni330  1  0.77606567  0.08544233  0.16932903  1.0
  Ni  Ni331  1  0.77606567  0.41877567  0.16932903  1.0
  Ni  Ni332  1  0.77606567  0.75210900  0.16932903  1.0
  Ni  Ni333  1  0.26798100  0.31324333  0.16932903  1.0
  Ni  Ni334  1  0.26798100  0.64657667  0.16932903  1.0
  Ni  Ni335  1  0.26798100  0.97991000  0.16932903  1.0
  Ni  Ni336  1  0.60131433  0.31324333  0.16932903  1.0
  Ni  Ni337  1  0.60131433  0.64657667  0.16932903  1.0
  Ni  Ni338  1  0.60131433  0.97991000  0.16932903  1.0
  Ni  Ni339  1  0.93464767  0.31324333  0.16932903  1.0
  Ni  Ni340  1  0.93464767  0.64657667  0.16932903  1.0
  Ni  Ni341  1  0.93464767  0.97991000  0.16932903  1.0
  Ni  Ni342  1  0.22393433  0.24789100  0.15445797  1.0
  Ni  Ni343  1  0.22393433  0.58122433  0.15445797  1.0
  Ni  Ni344  1  0.22393433  0.91455767  0.15445797  1.0
  Ni  Ni345  1  0.55726767  0.24789100  0.15445797  1.0
  Ni  Ni346  1  0.55726767  0.58122433  0.15445797  1.0
  Ni  Ni347  1  0.55726767  0.91455767  0.15445797  1.0
  Ni  Ni348  1  0.89060100  0.24789100  0.15445797  1.0
  Ni  Ni349  1  0.89060100  0.58122433  0.15445797  1.0
  Ni  Ni350  1  0.89060100  0.91455767  0.15445797  1.0
  Ni  Ni351  1  0.00000000  0.00000000  0.19522683  1.0
  Ni  Ni352  1  0.00000000  0.33333333  0.19522683  1.0
  Ni  Ni353  1  0.00000000  0.66666667  0.19522683  1.0
  Ni  Ni354  1  0.33333333  0.00000000  0.19522683  1.0
  Ni  Ni355  1  0.33333333  0.33333333  0.19522683  1.0
  Ni  Ni356  1  0.33333333  0.66666667  0.19522683  1.0
  Ni  Ni357  1  0.66666667  0.00000000  0.19522683  1.0
  Ni  Ni358  1  0.66666667  0.33333333  0.19522683  1.0
  Ni  Ni359  1  0.66666667  0.66666667  0.19522683  1.0
  Ni  Ni360  1  0.06535233  0.02009000  0.15445797  1.0
  Ni  Ni361  1  0.06535233  0.35342333  0.15445797  1.0
  Ni  Ni362  1  0.06535233  0.68675667  0.15445797  1.0
  Ni  Ni363  1  0.39868567  0.02009000  0.15445797  1.0
  Ni  Ni364  1  0.39868567  0.35342333  0.15445797  1.0
  Ni  Ni365  1  0.39868567  0.68675667  0.15445797  1.0
  Ni  Ni366  1  0.73201900  0.02009000  0.15445797  1.0
  Ni  Ni367  1  0.73201900  0.35342333  0.15445797  1.0
  Ni  Ni368  1  0.73201900  0.68675667  0.15445797  1.0
  Ni  Ni369  1  0.00000000  0.16666667  0.16189350  1.0
  Ni  Ni370  1  0.00000000  0.50000000  0.16189350  1.0
  Ni  Ni371  1  0.00000000  0.83333333  0.16189350  1.0
  Ni  Ni372  1  0.33333333  0.16666667  0.16189350  1.0
  Ni  Ni373  1  0.33333333  0.50000000  0.16189350  1.0
  Ni  Ni374  1  0.33333333  0.83333333  0.16189350  1.0
  Ni  Ni375  1  0.66666667  0.16666667  0.16189350  1.0
  Ni  Ni376  1  0.66666667  0.50000000  0.16189350  1.0
  Ni  Ni377  1  0.66666667  0.83333333  0.16189350  1.0
  Ti  Ti378  1  0.08394433  0.16851533  0.25234717  1.0
  Ti  Ti379  1  0.08394433  0.50184867  0.25234717  1.0
  Ti  Ti380  1  0.08394433  0.83518200  0.25234717  1.0
  Ti  Ti381  1  0.41727767  0.16851533  0.25234717  1.0
  Ti  Ti382  1  0.41727767  0.50184867  0.25234717  1.0
  Ti  Ti383  1  0.41727767  0.83518200  0.25234717  1.0
  Ti  Ti384  1  0.75061100  0.16851533  0.25234717  1.0
  Ti  Ti385  1  0.75061100  0.50184867  0.25234717  1.0
  Ti  Ti386  1  0.75061100  0.83518200  0.25234717  1.0
  Ti  Ti387  1  0.11708633  0.25245967  0.20477317  1.0
  Ti  Ti388  1  0.11708633  0.58579300  0.20477317  1.0
  Ti  Ti389  1  0.11708633  0.91912633  0.20477317  1.0
  Ti  Ti390  1  0.45041967  0.25245967  0.20477317  1.0
  Ti  Ti391  1  0.45041967  0.58579300  0.20477317  1.0
  Ti  Ti392  1  0.45041967  0.91912633  0.20477317  1.0
  Ti  Ti393  1  0.78375300  0.25245967  0.20477317  1.0
  Ti  Ti394  1  0.78375300  0.58579300  0.20477317  1.0
  Ti  Ti395  1  0.78375300  0.91912633  0.20477317  1.0
  Ti  Ti396  1  0.24938900  0.16481800  0.20477317  1.0
  Ti  Ti397  1  0.24938900  0.49815133  0.20477317  1.0
  Ti  Ti398  1  0.24938900  0.83148467  0.20477317  1.0
  Ti  Ti399  1  0.58272233  0.16481800  0.20477317  1.0
  Ti  Ti400  1  0.58272233  0.49815133  0.20477317  1.0
  Ti  Ti401  1  0.58272233  0.83148467  0.20477317  1.0
  Ti  Ti402  1  0.91605567  0.16481800  0.20477317  1.0
  Ti  Ti403  1  0.91605567  0.49815133  0.20477317  1.0
  Ti  Ti404  1  0.91605567  0.83148467  0.20477317  1.0
  Ti  Ti405  1  0.20472800  0.29712067  0.20477317  1.0
  Ti  Ti406  1  0.20472800  0.63045400  0.20477317  1.0
  Ti  Ti407  1  0.20472800  0.96378733  0.20477317  1.0
  Ti  Ti408  1  0.53806133  0.29712067  0.20477317  1.0
  Ti  Ti409  1  0.53806133  0.63045400  0.20477317  1.0
  Ti  Ti410  1  0.53806133  0.96378733  0.20477317  1.0
  Ti  Ti411  1  0.87139467  0.29712067  0.20477317  1.0
  Ti  Ti412  1  0.87139467  0.63045400  0.20477317  1.0
  Ti  Ti413  1  0.87139467  0.96378733  0.20477317  1.0
  Ti  Ti414  1  0.12860533  0.03621267  0.25234717  1.0
  Ti  Ti415  1  0.12860533  0.36954600  0.25234717  1.0
  Ti  Ti416  1  0.12860533  0.70287933  0.25234717  1.0
  Ti  Ti417  1  0.46193867  0.03621267  0.25234717  1.0
  Ti  Ti418  1  0.46193867  0.36954600  0.25234717  1.0
  Ti  Ti419  1  0.46193867  0.70287933  0.25234717  1.0
  Ti  Ti420  1  0.79527200  0.03621267  0.25234717  1.0
  Ti  Ti421  1  0.79527200  0.36954600  0.25234717  1.0
  Ti  Ti422  1  0.79527200  0.70287933  0.25234717  1.0
  Ti  Ti423  1  0.21624700  0.08087367  0.25234717  1.0
  Ti  Ti424  1  0.21624700  0.41420700  0.25234717  1.0
  Ti  Ti425  1  0.21624700  0.74754033  0.25234717  1.0
  Ti  Ti426  1  0.54958033  0.08087367  0.25234717  1.0
  Ti  Ti427  1  0.54958033  0.41420700  0.25234717  1.0
  Ti  Ti428  1  0.54958033  0.74754033  0.25234717  1.0
  Ti  Ti429  1  0.88291367  0.08087367  0.25234717  1.0
  Ti  Ti430  1  0.88291367  0.41420700  0.25234717  1.0
  Ti  Ti431  1  0.88291367  0.74754033  0.25234717  1.0
  Ni  Ni432  1  0.21493133  0.13849200  0.23599570  1.0
  Ni  Ni433  1  0.21493133  0.47182533  0.23599570  1.0
  Ni  Ni434  1  0.21493133  0.80515867  0.23599570  1.0
  Ni  Ni435  1  0.54826467  0.13849200  0.23599570  1.0
  Ni  Ni436  1  0.54826467  0.47182533  0.23599570  1.0
  Ni  Ni437  1  0.54826467  0.80515867  0.23599570  1.0
  Ni  Ni438  1  0.88159800  0.13849200  0.23599570  1.0
  Ni  Ni439  1  0.88159800  0.47182533  0.23599570  1.0
  Ni  Ni440  1  0.88159800  0.80515867  0.23599570  1.0
  Ni  Ni441  1  0.11840200  0.19484133  0.22112463  1.0
  Ni  Ni442  1  0.11840200  0.52817467  0.22112463  1.0
  Ni  Ni443  1  0.11840200  0.86150800  0.22112463  1.0
  Ni  Ni444  1  0.45173533  0.19484133  0.22112463  1.0
  Ni  Ni445  1  0.45173533  0.52817467  0.22112463  1.0
  Ni  Ni446  1  0.45173533  0.86150800  0.22112463  1.0
  Ni  Ni447  1  0.78506867  0.19484133  0.22112463  1.0
  Ni  Ni448  1  0.78506867  0.52817467  0.22112463  1.0
  Ni  Ni449  1  0.78506867  0.86150800  0.22112463  1.0
  Ni  Ni450  1  0.10939900  0.08544233  0.23599570  1.0
  Ni  Ni451  1  0.10939900  0.41877567  0.23599570  1.0
  Ni  Ni452  1  0.10939900  0.75210900  0.23599570  1.0
  Ni  Ni453  1  0.44273233  0.08544233  0.23599570  1.0
  Ni  Ni454  1  0.44273233  0.41877567  0.23599570  1.0
  Ni  Ni455  1  0.44273233  0.75210900  0.23599570  1.0
  Ni  Ni456  1  0.77606567  0.08544233  0.23599570  1.0
  Ni  Ni457  1  0.77606567  0.41877567  0.23599570  1.0
  Ni  Ni458  1  0.77606567  0.75210900  0.23599570  1.0
  Ni  Ni459  1  0.26798100  0.31324333  0.23599570  1.0
  Ni  Ni460  1  0.26798100  0.64657667  0.23599570  1.0
  Ni  Ni461  1  0.26798100  0.97991000  0.23599570  1.0
  Ni  Ni462  1  0.60131433  0.31324333  0.23599570  1.0
  Ni  Ni463  1  0.60131433  0.64657667  0.23599570  1.0
  Ni  Ni464  1  0.60131433  0.97991000  0.23599570  1.0
  Ni  Ni465  1  0.93464767  0.31324333  0.23599570  1.0
  Ni  Ni466  1  0.93464767  0.64657667  0.23599570  1.0
  Ni  Ni467  1  0.93464767  0.97991000  0.23599570  1.0
  Ni  Ni468  1  0.22393433  0.24789100  0.22112463  1.0
  Ni  Ni469  1  0.22393433  0.58122433  0.22112463  1.0
  Ni  Ni470  1  0.22393433  0.91455767  0.22112463  1.0
  Ni  Ni471  1  0.55726767  0.24789100  0.22112463  1.0
  Ni  Ni472  1  0.55726767  0.58122433  0.22112463  1.0
  Ni  Ni473  1  0.55726767  0.91455767  0.22112463  1.0
  Ni  Ni474  1  0.89060100  0.24789100  0.22112463  1.0
  Ni  Ni475  1  0.89060100  0.58122433  0.22112463  1.0
  Ni  Ni476  1  0.89060100  0.91455767  0.22112463  1.0
  Ni  Ni477  1  0.00000000  0.00000000  0.26189350  1.0
  Ni  Ni478  1  0.00000000  0.33333333  0.26189350  1.0
  Ni  Ni479  1  0.00000000  0.66666667  0.26189350  1.0
  Ni  Ni480  1  0.33333333  0.00000000  0.26189350  1.0
  Ni  Ni481  1  0.33333333  0.33333333  0.26189350  1.0
  Ni  Ni482  1  0.33333333  0.66666667  0.26189350  1.0
  Ni  Ni483  1  0.66666667  0.00000000  0.26189350  1.0
  Ni  Ni484  1  0.66666667  0.33333333  0.26189350  1.0
  Ni  Ni485  1  0.66666667  0.66666667  0.26189350  1.0
  Ni  Ni486  1  0.06535233  0.02009000  0.22112463  1.0
  Ni  Ni487  1  0.06535233  0.35342333  0.22112463  1.0
  Ni  Ni488  1  0.06535233  0.68675667  0.22112463  1.0
  Ni  Ni489  1  0.39868567  0.02009000  0.22112463  1.0
  Ni  Ni490  1  0.39868567  0.35342333  0.22112463  1.0
  Ni  Ni491  1  0.39868567  0.68675667  0.22112463  1.0
  Ni  Ni492  1  0.73201900  0.02009000  0.22112463  1.0
  Ni  Ni493  1  0.73201900  0.35342333  0.22112463  1.0
  Ni  Ni494  1  0.73201900  0.68675667  0.22112463  1.0
  Ni  Ni495  1  0.00000000  0.16666667  0.22856017  1.0
  Ni  Ni496  1  0.00000000  0.50000000  0.22856017  1.0
  Ni  Ni497  1  0.00000000  0.83333333  0.22856017  1.0
  Ni  Ni498  1  0.33333333  0.16666667  0.22856017  1.0
  Ni  Ni499  1  0.33333333  0.50000000  0.22856017  1.0
  Ni  Ni500  1  0.33333333  0.83333333  0.22856017  1.0
  Ni  Ni501  1  0.66666667  0.16666667  0.22856017  1.0
  Ni  Ni502  1  0.66666667  0.50000000  0.22856017  1.0
  Ni  Ni503  1  0.66666667  0.83333333  0.22856017  1.0
  Ti  Ti504  1  0.08394433  0.16851533  0.31901383  1.0
  Ti  Ti505  1  0.08394433  0.50184867  0.31901383  1.0
  Ti  Ti506  1  0.08394433  0.83518200  0.31901383  1.0
  Ti  Ti507  1  0.41727767  0.16851533  0.31901383  1.0
  Ti  Ti508  1  0.41727767  0.50184867  0.31901383  1.0
  Ti  Ti509  1  0.41727767  0.83518200  0.31901383  1.0
  Ti  Ti510  1  0.75061100  0.16851533  0.31901383  1.0
  Ti  Ti511  1  0.75061100  0.50184867  0.31901383  1.0
  Ti  Ti512  1  0.75061100  0.83518200  0.31901383  1.0
  Ti  Ti513  1  0.11708633  0.25245967  0.27143983  1.0
  Ti  Ti514  1  0.11708633  0.58579300  0.27143983  1.0
  Ti  Ti515  1  0.11708633  0.91912633  0.27143983  1.0
  Ti  Ti516  1  0.45041967  0.25245967  0.27143983  1.0
  Ti  Ti517  1  0.45041967  0.58579300  0.27143983  1.0
  Ti  Ti518  1  0.45041967  0.91912633  0.27143983  1.0
  Ti  Ti519  1  0.78375300  0.25245967  0.27143983  1.0
  Ti  Ti520  1  0.78375300  0.58579300  0.27143983  1.0
  Ti  Ti521  1  0.78375300  0.91912633  0.27143983  1.0
  Ti  Ti522  1  0.24938900  0.16481800  0.27143983  1.0
  Ti  Ti523  1  0.24938900  0.49815133  0.27143983  1.0
  Ti  Ti524  1  0.24938900  0.83148467  0.27143983  1.0
  Ti  Ti525  1  0.58272233  0.16481800  0.27143983  1.0
  Ti  Ti526  1  0.58272233  0.49815133  0.27143983  1.0
  Ti  Ti527  1  0.58272233  0.83148467  0.27143983  1.0
  Ti  Ti528  1  0.91605567  0.16481800  0.27143983  1.0
  Ti  Ti529  1  0.91605567  0.49815133  0.27143983  1.0
  Ti  Ti530  1  0.91605567  0.83148467  0.27143983  1.0
  Ti  Ti531  1  0.20472800  0.29712067  0.27143983  1.0
  Ti  Ti532  1  0.20472800  0.63045400  0.27143983  1.0
  Ti  Ti533  1  0.20472800  0.96378733  0.27143983  1.0
  Ti  Ti534  1  0.53806133  0.29712067  0.27143983  1.0
  Ti  Ti535  1  0.53806133  0.63045400  0.27143983  1.0
  Ti  Ti536  1  0.53806133  0.96378733  0.27143983  1.0
  Ti  Ti537  1  0.87139467  0.29712067  0.27143983  1.0
  Ti  Ti538  1  0.87139467  0.63045400  0.27143983  1.0
  Ti  Ti539  1  0.87139467  0.96378733  0.27143983  1.0
  Ti  Ti540  1  0.12860533  0.03621267  0.31901383  1.0
  Ti  Ti541  1  0.12860533  0.36954600  0.31901383  1.0
  Ti  Ti542  1  0.12860533  0.70287933  0.31901383  1.0
  Ti  Ti543  1  0.46193867  0.03621267  0.31901383  1.0
  Ti  Ti544  1  0.46193867  0.36954600  0.31901383  1.0
  Ti  Ti545  1  0.46193867  0.70287933  0.31901383  1.0
  Ti  Ti546  1  0.79527200  0.03621267  0.31901383  1.0
  Ti  Ti547  1  0.79527200  0.36954600  0.31901383  1.0
  Ti  Ti548  1  0.79527200  0.70287933  0.31901383  1.0
  Ti  Ti549  1  0.21624700  0.08087367  0.31901383  1.0
  Ti  Ti550  1  0.21624700  0.41420700  0.31901383  1.0
  Ti  Ti551  1  0.21624700  0.74754033  0.31901383  1.0
  Ti  Ti552  1  0.54958033  0.08087367  0.31901383  1.0
  Ti  Ti553  1  0.54958033  0.41420700  0.31901383  1.0
  Ti  Ti554  1  0.54958033  0.74754033  0.31901383  1.0
  Ti  Ti555  1  0.88291367  0.08087367  0.31901383  1.0
  Ti  Ti556  1  0.88291367  0.41420700  0.31901383  1.0
  Ti  Ti557  1  0.88291367  0.74754033  0.31901383  1.0
  Ni  Ni558  1  0.21493133  0.13849200  0.30266237  1.0
  Ni  Ni559  1  0.21493133  0.47182533  0.30266237  1.0
  Ni  Ni560  1  0.21493133  0.80515867  0.30266237  1.0
  Ni  Ni561  1  0.54826467  0.13849200  0.30266237  1.0
  Ni  Ni562  1  0.54826467  0.47182533  0.30266237  1.0
  Ni  Ni563  1  0.54826467  0.80515867  0.30266237  1.0
  Ni  Ni564  1  0.88159800  0.13849200  0.30266237  1.0
  Ni  Ni565  1  0.88159800  0.47182533  0.30266237  1.0
  Ni  Ni566  1  0.88159800  0.80515867  0.30266237  1.0
  Ni  Ni567  1  0.11840200  0.19484133  0.28779130  1.0
  Ni  Ni568  1  0.11840200  0.52817467  0.28779130  1.0
  Ni  Ni569  1  0.11840200  0.86150800  0.28779130  1.0
  Ni  Ni570  1  0.45173533  0.19484133  0.28779130  1.0
  Ni  Ni571  1  0.45173533  0.52817467  0.28779130  1.0
  Ni  Ni572  1  0.45173533  0.86150800  0.28779130  1.0
  Ni  Ni573  1  0.78506867  0.19484133  0.28779130  1.0
  Ni  Ni574  1  0.78506867  0.52817467  0.28779130  1.0
  Ni  Ni575  1  0.78506867  0.86150800  0.28779130  1.0
  Ni  Ni576  1  0.10939900  0.08544233  0.30266237  1.0
  Ni  Ni577  1  0.10939900  0.41877567  0.30266237  1.0
  Ni  Ni578  1  0.10939900  0.75210900  0.30266237  1.0
  Ni  Ni579  1  0.44273233  0.08544233  0.30266237  1.0
  Ni  Ni580  1  0.44273233  0.41877567  0.30266237  1.0
  Ni  Ni581  1  0.44273233  0.75210900  0.30266237  1.0
  Ni  Ni582  1  0.77606567  0.08544233  0.30266237  1.0
  Ni  Ni583  1  0.77606567  0.41877567  0.30266237  1.0
  Ni  Ni584  1  0.77606567  0.75210900  0.30266237  1.0
  Ni  Ni585  1  0.26798100  0.31324333  0.30266237  1.0
  Ni  Ni586  1  0.26798100  0.64657667  0.30266237  1.0
  Ni  Ni587  1  0.26798100  0.97991000  0.30266237  1.0
  Ni  Ni588  1  0.60131433  0.31324333  0.30266237  1.0
  Ni  Ni589  1  0.60131433  0.64657667  0.30266237  1.0
  Ni  Ni590  1  0.60131433  0.97991000  0.30266237  1.0
  Ni  Ni591  1  0.93464767  0.31324333  0.30266237  1.0
  Ni  Ni592  1  0.93464767  0.64657667  0.30266237  1.0
  Ni  Ni593  1  0.93464767  0.97991000  0.30266237  1.0
  Ni  Ni594  1  0.22393433  0.24789100  0.28779130  1.0
  Ni  Ni595  1  0.22393433  0.58122433  0.28779130  1.0
  Ni  Ni596  1  0.22393433  0.91455767  0.28779130  1.0
  Ni  Ni597  1  0.55726767  0.24789100  0.28779130  1.0
  Ni  Ni598  1  0.55726767  0.58122433  0.28779130  1.0
  Ni  Ni599  1  0.55726767  0.91455767  0.28779130  1.0
  Ni  Ni600  1  0.89060100  0.24789100  0.28779130  1.0
  Ni  Ni601  1  0.89060100  0.58122433  0.28779130  1.0
  Ni  Ni602  1  0.89060100  0.91455767  0.28779130  1.0
  Ni  Ni603  1  0.00000000  0.00000000  0.32856017  1.0
  Ni  Ni604  1  0.00000000  0.33333333  0.32856017  1.0
  Ni  Ni605  1  0.00000000  0.66666667  0.32856017  1.0
  Ni  Ni606  1  0.33333333  0.00000000  0.32856017  1.0
  Ni  Ni607  1  0.33333333  0.33333333  0.32856017  1.0
  Ni  Ni608  1  0.33333333  0.66666667  0.32856017  1.0
  Ni  Ni609  1  0.66666667  0.00000000  0.32856017  1.0
  Ni  Ni610  1  0.66666667  0.33333333  0.32856017  1.0
  Ni  Ni611  1  0.66666667  0.66666667  0.32856017  1.0
  Ni  Ni612  1  0.06535233  0.02009000  0.28779130  1.0
  Ni  Ni613  1  0.06535233  0.35342333  0.28779130  1.0
  Ni  Ni614  1  0.06535233  0.68675667  0.28779130  1.0
  Ni  Ni615  1  0.39868567  0.02009000  0.28779130  1.0
  Ni  Ni616  1  0.39868567  0.35342333  0.28779130  1.0
  Ni  Ni617  1  0.39868567  0.68675667  0.28779130  1.0
  Ni  Ni618  1  0.73201900  0.02009000  0.28779130  1.0
  Ni  Ni619  1  0.73201900  0.35342333  0.28779130  1.0
  Ni  Ni620  1  0.73201900  0.68675667  0.28779130  1.0
  Ni  Ni621  1  0.00000000  0.16666667  0.29522683  1.0
  Ni  Ni622  1  0.00000000  0.50000000  0.29522683  1.0
  Ni  Ni623  1  0.00000000  0.83333333  0.29522683  1.0
  Ni  Ni624  1  0.33333333  0.16666667  0.29522683  1.0
  Ni  Ni625  1  0.33333333  0.50000000  0.29522683  1.0
  Ni  Ni626  1  0.33333333  0.83333333  0.29522683  1.0
  Ni  Ni627  1  0.66666667  0.16666667  0.29522683  1.0
  Ni  Ni628  1  0.66666667  0.50000000  0.29522683  1.0
  Ni  Ni629  1  0.66666667  0.83333333  0.29522683  1.0
  Ti  Ti630  1  0.08394433  0.16851533  0.38568050  1.0
  Ti  Ti631  1  0.08394433  0.50184867  0.38568050  1.0
  Ti  Ti632  1  0.08394433  0.83518200  0.38568050  1.0
  Ti  Ti633  1  0.41727767  0.16851533  0.38568050  1.0
  Ti  Ti634  1  0.41727767  0.50184867  0.38568050  1.0
  Ti  Ti635  1  0.41727767  0.83518200  0.38568050  1.0
  Ti  Ti636  1  0.75061100  0.16851533  0.38568050  1.0
  Ti  Ti637  1  0.75061100  0.50184867  0.38568050  1.0
  Ti  Ti638  1  0.75061100  0.83518200  0.38568050  1.0
  Ti  Ti639  1  0.11708633  0.25245967  0.33810650  1.0
  Ti  Ti640  1  0.11708633  0.58579300  0.33810650  1.0
  Ti  Ti641  1  0.11708633  0.91912633  0.33810650  1.0
  Ti  Ti642  1  0.45041967  0.25245967  0.33810650  1.0
  Ti  Ti643  1  0.45041967  0.58579300  0.33810650  1.0
  Ti  Ti644  1  0.45041967  0.91912633  0.33810650  1.0
  Ti  Ti645  1  0.78375300  0.25245967  0.33810650  1.0
  Ti  Ti646  1  0.78375300  0.58579300  0.33810650  1.0
  Ti  Ti647  1  0.78375300  0.91912633  0.33810650  1.0
  Ti  Ti648  1  0.24938900  0.16481800  0.33810650  1.0
  Ti  Ti649  1  0.24938900  0.49815133  0.33810650  1.0
  Ti  Ti650  1  0.24938900  0.83148467  0.33810650  1.0
  Ti  Ti651  1  0.58272233  0.16481800  0.33810650  1.0
  Ti  Ti652  1  0.58272233  0.49815133  0.33810650  1.0
  Ti  Ti653  1  0.58272233  0.83148467  0.33810650  1.0
  Ti  Ti654  1  0.91605567  0.16481800  0.33810650  1.0
  Ti  Ti655  1  0.91605567  0.49815133  0.33810650  1.0
  Ti  Ti656  1  0.91605567  0.83148467  0.33810650  1.0
  Ti  Ti657  1  0.20472800  0.29712067  0.33810650  1.0
  Ti  Ti658  1  0.20472800  0.63045400  0.33810650  1.0
  Ti  Ti659  1  0.20472800  0.96378733  0.33810650  1.0
  Ti  Ti660  1  0.53806133  0.29712067  0.33810650  1.0
  Ti  Ti661  1  0.53806133  0.63045400  0.33810650  1.0
  Ti  Ti662  1  0.53806133  0.96378733  0.33810650  1.0
  Ti  Ti663  1  0.87139467  0.29712067  0.33810650  1.0
  Ti  Ti664  1  0.87139467  0.63045400  0.33810650  1.0
  Ti  Ti665  1  0.87139467  0.96378733  0.33810650  1.0
  Ti  Ti666  1  0.12860533  0.03621267  0.38568050  1.0
  Ti  Ti667  1  0.12860533  0.36954600  0.38568050  1.0
  Ti  Ti668  1  0.12860533  0.70287933  0.38568050  1.0
  Ti  Ti669  1  0.46193867  0.03621267  0.38568050  1.0
  Ti  Ti670  1  0.46193867  0.36954600  0.38568050  1.0
  Ti  Ti671  1  0.46193867  0.70287933  0.38568050  1.0
  Ti  Ti672  1  0.79527200  0.03621267  0.38568050  1.0
  Ti  Ti673  1  0.79527200  0.36954600  0.38568050  1.0
  Ti  Ti674  1  0.79527200  0.70287933  0.38568050  1.0
  Ti  Ti675  1  0.21624700  0.08087367  0.38568050  1.0
  Ti  Ti676  1  0.21624700  0.41420700  0.38568050  1.0
  Ti  Ti677  1  0.21624700  0.74754033  0.38568050  1.0
  Ti  Ti678  1  0.54958033  0.08087367  0.38568050  1.0
  Ti  Ti679  1  0.54958033  0.41420700  0.38568050  1.0
  Ti  Ti680  1  0.54958033  0.74754033  0.38568050  1.0
  Ti  Ti681  1  0.88291367  0.08087367  0.38568050  1.0
  Ti  Ti682  1  0.88291367  0.41420700  0.38568050  1.0
  Ti  Ti683  1  0.88291367  0.74754033  0.38568050  1.0
  Ni  Ni684  1  0.21493133  0.13849200  0.36932903  1.0
  Ni  Ni685  1  0.21493133  0.47182533  0.36932903  1.0
  Ni  Ni686  1  0.21493133  0.80515867  0.36932903  1.0
  Ni  Ni687  1  0.54826467  0.13849200  0.36932903  1.0
  Ni  Ni688  1  0.54826467  0.47182533  0.36932903  1.0
  Ni  Ni689  1  0.54826467  0.80515867  0.36932903  1.0
  Ni  Ni690  1  0.88159800  0.13849200  0.36932903  1.0
  Ni  Ni691  1  0.88159800  0.47182533  0.36932903  1.0
  Ni  Ni692  1  0.88159800  0.80515867  0.36932903  1.0
  Ni  Ni693  1  0.11840200  0.19484133  0.35445797  1.0
  Ni  Ni694  1  0.11840200  0.52817467  0.35445797  1.0
  Ni  Ni695  1  0.11840200  0.86150800  0.35445797  1.0
  Ni  Ni696  1  0.45173533  0.19484133  0.35445797  1.0
  Ni  Ni697  1  0.45173533  0.52817467  0.35445797  1.0
  Ni  Ni698  1  0.45173533  0.86150800  0.35445797  1.0
  Ni  Ni699  1  0.78506867  0.19484133  0.35445797  1.0
  Ni  Ni700  1  0.78506867  0.52817467  0.35445797  1.0
  Ni  Ni701  1  0.78506867  0.86150800  0.35445797  1.0
  Ni  Ni702  1  0.10939900  0.08544233  0.36932903  1.0
  Ni  Ni703  1  0.10939900  0.41877567  0.36932903  1.0
  Ni  Ni704  1  0.10939900  0.75210900  0.36932903  1.0
  Ni  Ni705  1  0.44273233  0.08544233  0.36932903  1.0
  Ni  Ni706  1  0.44273233  0.41877567  0.36932903  1.0
  Ni  Ni707  1  0.44273233  0.75210900  0.36932903  1.0
  Ni  Ni708  1  0.77606567  0.08544233  0.36932903  1.0
  Ni  Ni709  1  0.77606567  0.41877567  0.36932903  1.0
  Ni  Ni710  1  0.77606567  0.75210900  0.36932903  1.0
  Ni  Ni711  1  0.26798100  0.31324333  0.36932903  1.0
  Ni  Ni712  1  0.26798100  0.64657667  0.36932903  1.0
  Ni  Ni713  1  0.26798100  0.97991000  0.36932903  1.0
  Ni  Ni714  1  0.60131433  0.31324333  0.36932903  1.0
  Ni  Ni715  1  0.60131433  0.64657667  0.36932903  1.0
  Ni  Ni716  1  0.60131433  0.97991000  0.36932903  1.0
  Ni  Ni717  1  0.93464767  0.31324333  0.36932903  1.0
  Ni  Ni718  1  0.93464767  0.64657667  0.36932903  1.0
  Ni  Ni719  1  0.93464767  0.97991000  0.36932903  1.0
  Ni  Ni720  1  0.22393433  0.24789100  0.35445797  1.0
  Ni  Ni721  1  0.22393433  0.58122433  0.35445797  1.0
  Ni  Ni722  1  0.22393433  0.91455767  0.35445797  1.0
  Ni  Ni723  1  0.55726767  0.24789100  0.35445797  1.0
  Ni  Ni724  1  0.55726767  0.58122433  0.35445797  1.0
  Ni  Ni725  1  0.55726767  0.91455767  0.35445797  1.0
  Ni  Ni726  1  0.89060100  0.24789100  0.35445797  1.0
  Ni  Ni727  1  0.89060100  0.58122433  0.35445797  1.0
  Ni  Ni728  1  0.89060100  0.91455767  0.35445797  1.0
  Ni  Ni729  1  0.00000000  0.00000000  0.39522683  1.0
  Ni  Ni730  1  0.00000000  0.33333333  0.39522683  1.0
  Ni  Ni731  1  0.00000000  0.66666667  0.39522683  1.0
  Ni  Ni732  1  0.33333333  0.00000000  0.39522683  1.0
  Ni  Ni733  1  0.33333333  0.33333333  0.39522683  1.0
  Ni  Ni734  1  0.33333333  0.66666667  0.39522683  1.0
  Ni  Ni735  1  0.66666667  0.00000000  0.39522683  1.0
  Ni  Ni736  1  0.66666667  0.33333333  0.39522683  1.0
  Ni  Ni737  1  0.66666667  0.66666667  0.39522683  1.0
  Ni  Ni738  1  0.06535233  0.02009000  0.35445797  1.0
  Ni  Ni739  1  0.06535233  0.35342333  0.35445797  1.0
  Ni  Ni740  1  0.06535233  0.68675667  0.35445797  1.0
  Ni  Ni741  1  0.39868567  0.02009000  0.35445797  1.0
  Ni  Ni742  1  0.39868567  0.35342333  0.35445797  1.0
  Ni  Ni743  1  0.39868567  0.68675667  0.35445797  1.0
  Ni  Ni744  1  0.73201900  0.02009000  0.35445797  1.0
  Ni  Ni745  1  0.73201900  0.35342333  0.35445797  1.0
  Ni  Ni746  1  0.73201900  0.68675667  0.35445797  1.0
  Ni  Ni747  1  0.00000000  0.16666667  0.36189350  1.0
  Ni  Ni748  1  0.00000000  0.50000000  0.36189350  1.0
  Ni  Ni749  1  0.00000000  0.83333333  0.36189350  1.0
  Ni  Ni750  1  0.33333333  0.16666667  0.36189350  1.0
  Ni  Ni751  1  0.33333333  0.50000000  0.36189350  1.0
  Ni  Ni752  1  0.33333333  0.83333333  0.36189350  1.0
  Ni  Ni753  1  0.66666667  0.16666667  0.36189350  1.0
  Ni  Ni754  1  0.66666667  0.50000000  0.36189350  1.0
  Ni  Ni755  1  0.66666667  0.83333333  0.36189350  1.0
