# generated using pymatgen
data_Ti3Ni4
_symmetry_space_group_name_H-M   'P 1'
_cell_length_a   33.64363107
_cell_length_b   39.17589972
_cell_length_c   25.27807190
_cell_angle_alpha   97.41464658
_cell_angle_beta   90.00000000
_cell_angle_gamma   90.00000000
_symmetry_Int_Tables_number   1
_chemical_formula_structural   Ti3Ni4
_chemical_formula_sum   'Ti432 Ni576'
_cell_volume   33038.40228802
_cell_formula_units_Z   144
loop_
 _symmetry_equiv_pos_site_id
 _symmetry_equiv_pos_as_xyz
  1  'x, y, z'
loop_
 _atom_site_type_symbol
 _atom_site_label
 _atom_site_symmetry_multiplicity
 _atom_site_fract_x
 _atom_site_fract_y
 _atom_site_fract_z
 _atom_site_occupancy
  Ni  Ni0  1  0.02652483  0.25220679  0.01850437  1.0
  Ni  Ni1  1  0.02652483  0.58554012  0.01850437  1.0
  Ni  Ni2  1  0.02652483  0.91887346  0.01850437  1.0
  Ni  Ni3  1  0.35985817  0.25220679  0.01850437  1.0
  Ni  Ni4  1  0.35985817  0.58554012  0.01850437  1.0
  Ni  Ni5  1  0.35985817  0.91887346  0.01850437  1.0
  Ni  Ni6  1  0.69319150  0.25220679  0.01850437  1.0
  Ni  Ni7  1  0.69319150  0.58554012  0.01850437  1.0
  Ni  Ni8  1  0.69319150  0.91887346  0.01850437  1.0
  Ni  Ni9  1  0.19319150  0.16887346  0.06850437  1.0
  Ni  Ni10  1  0.19319150  0.50220679  0.06850437  1.0
  Ni  Ni11  1  0.19319150  0.83554012  0.06850437  1.0
  Ni  Ni12  1  0.52652483  0.16887346  0.06850437  1.0
  Ni  Ni13  1  0.52652483  0.50220679  0.06850437  1.0
  Ni  Ni14  1  0.52652483  0.83554012  0.06850437  1.0
  Ni  Ni15  1  0.85985817  0.16887346  0.06850437  1.0
  Ni  Ni16  1  0.85985817  0.50220679  0.06850437  1.0
  Ni  Ni17  1  0.85985817  0.83554012  0.06850437  1.0
  Ni  Ni18  1  0.30680850  0.21759729  0.06337808  1.0
  Ni  Ni19  1  0.30680850  0.55093063  0.06337808  1.0
  Ni  Ni20  1  0.30680850  0.88426396  0.06337807  1.0
  Ni  Ni21  1  0.64014183  0.21759729  0.06337808  1.0
  Ni  Ni22  1  0.64014183  0.55093063  0.06337808  1.0
  Ni  Ni23  1  0.64014183  0.88426396  0.06337807  1.0
  Ni  Ni24  1  0.97347517  0.21759729  0.06337808  1.0
  Ni  Ni25  1  0.97347517  0.55093063  0.06337808  1.0
  Ni  Ni26  1  0.97347517  0.88426396  0.06337807  1.0
  Ni  Ni27  1  0.14014183  0.30093063  0.01337808  1.0
  Ni  Ni28  1  0.14014183  0.63426396  0.01337808  1.0
  Ni  Ni29  1  0.14014183  0.96759729  0.01337807  1.0
  Ni  Ni30  1  0.47347517  0.30093063  0.01337808  1.0
  Ni  Ni31  1  0.47347517  0.63426396  0.01337808  1.0
  Ni  Ni32  1  0.47347517  0.96759729  0.01337807  1.0
  Ni  Ni33  1  0.80680850  0.30093063  0.01337808  1.0
  Ni  Ni34  1  0.80680850  0.63426396  0.01337808  1.0
  Ni  Ni35  1  0.80680850  0.96759729  0.01337807  1.0
  Ni  Ni36  1  0.21943283  0.28780996  0.09229168  1.0
  Ni  Ni37  1  0.21943283  0.62114329  0.09229168  1.0
  Ni  Ni38  1  0.21943283  0.95447662  0.09229168  1.0
  Ni  Ni39  1  0.55276617  0.28780996  0.09229168  1.0
  Ni  Ni40  1  0.55276617  0.62114329  0.09229168  1.0
  Ni  Ni41  1  0.55276617  0.95447662  0.09229168  1.0
  Ni  Ni42  1  0.88609950  0.28780996  0.09229168  1.0
  Ni  Ni43  1  0.88609950  0.62114329  0.09229168  1.0
  Ni  Ni44  1  0.88609950  0.95447662  0.09229168  1.0
  Ni  Ni45  1  0.05276617  0.03780996  0.04229168  1.0
  Ni  Ni46  1  0.05276617  0.37114329  0.04229168  1.0
  Ni  Ni47  1  0.05276617  0.70447662  0.04229167  1.0
  Ni  Ni48  1  0.38609950  0.03780996  0.04229167  1.0
  Ni  Ni49  1  0.38609950  0.37114329  0.04229168  1.0
  Ni  Ni50  1  0.38609950  0.70447662  0.04229167  1.0
  Ni  Ni51  1  0.71943283  0.03780996  0.04229167  1.0
  Ni  Ni52  1  0.71943283  0.37114329  0.04229167  1.0
  Ni  Ni53  1  0.71943283  0.70447662  0.04229167  1.0
  Ni  Ni54  1  0.08737567  0.24802271  0.08433422  1.0
  Ni  Ni55  1  0.08737567  0.58135604  0.08433422  1.0
  Ni  Ni56  1  0.08737567  0.91468938  0.08433422  1.0
  Ni  Ni57  1  0.42070900  0.24802271  0.08433422  1.0
  Ni  Ni58  1  0.42070900  0.58135604  0.08433422  1.0
  Ni  Ni59  1  0.42070900  0.91468938  0.08433422  1.0
  Ni  Ni60  1  0.75404233  0.24802271  0.08433422  1.0
  Ni  Ni61  1  0.75404233  0.58135604  0.08433422  1.0
  Ni  Ni62  1  0.75404233  0.91468938  0.08433422  1.0
  Ni  Ni63  1  0.25404233  0.33135604  0.03433422  1.0
  Ni  Ni64  1  0.25404233  0.66468938  0.03433423  1.0
  Ni  Ni65  1  0.25404233  0.99802271  0.03433422  1.0
  Ni  Ni66  1  0.58737567  0.33135604  0.03433422  1.0
  Ni  Ni67  1  0.58737567  0.66468938  0.03433422  1.0
  Ni  Ni68  1  0.58737567  0.99802271  0.03433422  1.0
  Ni  Ni69  1  0.92070900  0.33135604  0.03433422  1.0
  Ni  Ni70  1  0.92070900  0.66468938  0.03433422  1.0
  Ni  Ni71  1  0.92070900  0.99802271  0.03433422  1.0
  Ni  Ni72  1  0.11390050  0.01532746  0.08959077  1.0
  Ni  Ni73  1  0.11390050  0.34866079  0.08959077  1.0
  Ni  Ni74  1  0.11390050  0.68199413  0.08959077  1.0
  Ni  Ni75  1  0.44723383  0.01532746  0.08959077  1.0
  Ni  Ni76  1  0.44723383  0.34866079  0.08959077  1.0
  Ni  Ni77  1  0.44723383  0.68199413  0.08959077  1.0
  Ni  Ni78  1  0.78056717  0.01532746  0.08959077  1.0
  Ni  Ni79  1  0.78056717  0.34866079  0.08959077  1.0
  Ni  Ni80  1  0.78056717  0.68199413  0.08959077  1.0
  Ni  Ni81  1  0.28056717  0.09866079  0.03959078  1.0
  Ni  Ni82  1  0.28056717  0.43199412  0.03959077  1.0
  Ni  Ni83  1  0.28056717  0.76532746  0.03959078  1.0
  Ni  Ni84  1  0.61390050  0.09866079  0.03959078  1.0
  Ni  Ni85  1  0.61390050  0.43199412  0.03959077  1.0
  Ni  Ni86  1  0.61390050  0.76532746  0.03959077  1.0
  Ni  Ni87  1  0.94723383  0.09866079  0.03959078  1.0
  Ni  Ni88  1  0.94723383  0.43199412  0.03959077  1.0
  Ni  Ni89  1  0.94723383  0.76532746  0.03959078  1.0
  Ni  Ni90  1  0.00000000  0.15156871  0.09094122  1.0
  Ni  Ni91  1  0.00000000  0.48490204  0.09094122  1.0
  Ni  Ni92  1  0.00000000  0.81823537  0.09094122  1.0
  Ni  Ni93  1  0.33333333  0.15156871  0.09094122  1.0
  Ni  Ni94  1  0.33333333  0.48490204  0.09094122  1.0
  Ni  Ni95  1  0.33333333  0.81823537  0.09094122  1.0
  Ni  Ni96  1  0.66666667  0.15156871  0.09094122  1.0
  Ni  Ni97  1  0.66666667  0.48490204  0.09094122  1.0
  Ni  Ni98  1  0.66666667  0.81823537  0.09094122  1.0
  Ni  Ni99  1  0.16666667  0.23490204  0.04094122  1.0
  Ni  Ni100  1  0.16666667  0.56823537  0.04094122  1.0
  Ni  Ni101  1  0.16666667  0.90156871  0.04094122  1.0
  Ni  Ni102  1  0.50000000  0.23490204  0.04094122  1.0
  Ni  Ni103  1  0.50000000  0.56823537  0.04094122  1.0
  Ni  Ni104  1  0.50000000  0.90156871  0.04094122  1.0
  Ni  Ni105  1  0.83333333  0.23490204  0.04094122  1.0
  Ni  Ni106  1  0.83333333  0.56823537  0.04094122  1.0
  Ni  Ni107  1  0.83333333  0.90156871  0.04094122  1.0
  Ni  Ni108  1  0.24595767  0.05511471  0.09754822  1.0
  Ni  Ni109  1  0.24595767  0.38844804  0.09754822  1.0
  Ni  Ni110  1  0.24595767  0.72178137  0.09754822  1.0
  Ni  Ni111  1  0.57929100  0.05511471  0.09754822  1.0
  Ni  Ni112  1  0.57929100  0.38844804  0.09754822  1.0
  Ni  Ni113  1  0.57929100  0.72178137  0.09754822  1.0
  Ni  Ni114  1  0.91262433  0.05511471  0.09754822  1.0
  Ni  Ni115  1  0.91262433  0.38844804  0.09754822  1.0
  Ni  Ni116  1  0.91262433  0.72178137  0.09754822  1.0
  Ni  Ni117  1  0.07929100  0.13844804  0.04754823  1.0
  Ni  Ni118  1  0.07929100  0.47178138  0.04754823  1.0
  Ni  Ni119  1  0.07929100  0.80511471  0.04754823  1.0
  Ni  Ni120  1  0.41262433  0.13844804  0.04754823  1.0
  Ni  Ni121  1  0.41262433  0.47178138  0.04754823  1.0
  Ni  Ni122  1  0.41262433  0.80511471  0.04754823  1.0
  Ni  Ni123  1  0.74595767  0.13844804  0.04754823  1.0
  Ni  Ni124  1  0.74595767  0.47178138  0.04754823  1.0
  Ni  Ni125  1  0.74595767  0.80511471  0.04754823  1.0
  Ni  Ni126  1  0.00000000  0.31823537  0.09094122  1.0
  Ni  Ni127  1  0.00000000  0.65156871  0.09094122  1.0
  Ni  Ni128  1  0.00000000  0.98490204  0.09094122  1.0
  Ni  Ni129  1  0.33333333  0.31823537  0.09094122  1.0
  Ni  Ni130  1  0.33333333  0.65156871  0.09094122  1.0
  Ni  Ni131  1  0.33333333  0.98490204  0.09094122  1.0
  Ni  Ni132  1  0.66666667  0.31823537  0.09094122  1.0
  Ni  Ni133  1  0.66666667  0.65156871  0.09094122  1.0
  Ni  Ni134  1  0.66666667  0.98490204  0.09094122  1.0
  Ni  Ni135  1  0.16666667  0.06823537  0.04094122  1.0
  Ni  Ni136  1  0.16666667  0.40156871  0.04094122  1.0
  Ni  Ni137  1  0.16666667  0.73490204  0.04094122  1.0
  Ni  Ni138  1  0.50000000  0.06823537  0.04094122  1.0
  Ni  Ni139  1  0.50000000  0.40156871  0.04094122  1.0
  Ni  Ni140  1  0.50000000  0.73490204  0.04094122  1.0
  Ni  Ni141  1  0.83333333  0.06823537  0.04094122  1.0
  Ni  Ni142  1  0.83333333  0.40156871  0.04094122  1.0
  Ni  Ni143  1  0.83333333  0.73490204  0.04094122  1.0
  Ni  Ni144  1  0.02652483  0.08554012  0.11850437  1.0
  Ni  Ni145  1  0.02652483  0.41887346  0.11850437  1.0
  Ni  Ni146  1  0.02652483  0.75220679  0.11850437  1.0
  Ni  Ni147  1  0.35985817  0.08554012  0.11850437  1.0
  Ni  Ni148  1  0.35985817  0.41887346  0.11850437  1.0
  Ni  Ni149  1  0.35985817  0.75220679  0.11850437  1.0
  Ni  Ni150  1  0.69319150  0.08554012  0.11850437  1.0
  Ni  Ni151  1  0.69319150  0.41887346  0.11850437  1.0
  Ni  Ni152  1  0.69319150  0.75220679  0.11850437  1.0
  Ni  Ni153  1  0.19319150  0.00220679  0.16850437  1.0
  Ni  Ni154  1  0.19319150  0.33554012  0.16850437  1.0
  Ni  Ni155  1  0.19319150  0.66887346  0.16850437  1.0
  Ni  Ni156  1  0.52652483  0.00220679  0.16850437  1.0
  Ni  Ni157  1  0.52652483  0.33554012  0.16850437  1.0
  Ni  Ni158  1  0.52652483  0.66887346  0.16850437  1.0
  Ni  Ni159  1  0.85985817  0.00220679  0.16850437  1.0
  Ni  Ni160  1  0.85985817  0.33554012  0.16850437  1.0
  Ni  Ni161  1  0.85985817  0.66887346  0.16850437  1.0
  Ni  Ni162  1  0.30680850  0.05093062  0.16337807  1.0
  Ni  Ni163  1  0.30680850  0.38426396  0.16337808  1.0
  Ni  Ni164  1  0.30680850  0.71759729  0.16337808  1.0
  Ni  Ni165  1  0.64014183  0.05093062  0.16337808  1.0
  Ni  Ni166  1  0.64014183  0.38426396  0.16337808  1.0
  Ni  Ni167  1  0.64014183  0.71759729  0.16337807  1.0
  Ni  Ni168  1  0.97347517  0.05093062  0.16337807  1.0
  Ni  Ni169  1  0.97347517  0.38426396  0.16337808  1.0
  Ni  Ni170  1  0.97347517  0.71759729  0.16337808  1.0
  Ni  Ni171  1  0.14014183  0.13426396  0.11337808  1.0
  Ni  Ni172  1  0.14014183  0.46759729  0.11337807  1.0
  Ni  Ni173  1  0.14014183  0.80093063  0.11337807  1.0
  Ni  Ni174  1  0.47347517  0.13426396  0.11337807  1.0
  Ni  Ni175  1  0.47347517  0.46759729  0.11337807  1.0
  Ni  Ni176  1  0.47347517  0.80093063  0.11337808  1.0
  Ni  Ni177  1  0.80680850  0.13426396  0.11337807  1.0
  Ni  Ni178  1  0.80680850  0.46759729  0.11337807  1.0
  Ni  Ni179  1  0.80680850  0.80093063  0.11337807  1.0
  Ni  Ni180  1  0.21943283  0.12114329  0.19229168  1.0
  Ni  Ni181  1  0.21943283  0.45447662  0.19229168  1.0
  Ni  Ni182  1  0.21943283  0.78780996  0.19229168  1.0
  Ni  Ni183  1  0.55276617  0.12114329  0.19229168  1.0
  Ni  Ni184  1  0.55276617  0.45447662  0.19229168  1.0
  Ni  Ni185  1  0.55276617  0.78780996  0.19229167  1.0
  Ni  Ni186  1  0.88609950  0.12114329  0.19229168  1.0
  Ni  Ni187  1  0.88609950  0.45447662  0.19229168  1.0
  Ni  Ni188  1  0.88609950  0.78780996  0.19229168  1.0
  Ni  Ni189  1  0.05276617  0.20447662  0.14229167  1.0
  Ni  Ni190  1  0.05276617  0.53780996  0.14229167  1.0
  Ni  Ni191  1  0.05276617  0.87114329  0.14229167  1.0
  Ni  Ni192  1  0.38609950  0.20447662  0.14229167  1.0
  Ni  Ni193  1  0.38609950  0.53780996  0.14229167  1.0
  Ni  Ni194  1  0.38609950  0.87114329  0.14229167  1.0
  Ni  Ni195  1  0.71943283  0.20447662  0.14229167  1.0
  Ni  Ni196  1  0.71943283  0.53780996  0.14229167  1.0
  Ni  Ni197  1  0.71943283  0.87114329  0.14229167  1.0
  Ni  Ni198  1  0.08737567  0.08135604  0.18433422  1.0
  Ni  Ni199  1  0.08737567  0.41468937  0.18433422  1.0
  Ni  Ni200  1  0.08737567  0.74802271  0.18433422  1.0
  Ni  Ni201  1  0.42070900  0.08135604  0.18433422  1.0
  Ni  Ni202  1  0.42070900  0.41468937  0.18433422  1.0
  Ni  Ni203  1  0.42070900  0.74802271  0.18433422  1.0
  Ni  Ni204  1  0.75404233  0.08135604  0.18433422  1.0
  Ni  Ni205  1  0.75404233  0.41468937  0.18433422  1.0
  Ni  Ni206  1  0.75404233  0.74802271  0.18433422  1.0
  Ni  Ni207  1  0.25404233  0.16468937  0.13433422  1.0
  Ni  Ni208  1  0.25404233  0.49802271  0.13433422  1.0
  Ni  Ni209  1  0.25404233  0.83135604  0.13433423  1.0
  Ni  Ni210  1  0.58737567  0.16468937  0.13433422  1.0
  Ni  Ni211  1  0.58737567  0.49802271  0.13433422  1.0
  Ni  Ni212  1  0.58737567  0.83135604  0.13433422  1.0
  Ni  Ni213  1  0.92070900  0.16468937  0.13433422  1.0
  Ni  Ni214  1  0.92070900  0.49802271  0.13433422  1.0
  Ni  Ni215  1  0.92070900  0.83135604  0.13433422  1.0
  Ni  Ni216  1  0.11390050  0.18199412  0.18959077  1.0
  Ni  Ni217  1  0.11390050  0.51532746  0.18959077  1.0
  Ni  Ni218  1  0.11390050  0.84866079  0.18959077  1.0
  Ni  Ni219  1  0.44723383  0.18199412  0.18959077  1.0
  Ni  Ni220  1  0.44723383  0.51532746  0.18959077  1.0
  Ni  Ni221  1  0.44723383  0.84866079  0.18959077  1.0
  Ni  Ni222  1  0.78056717  0.18199412  0.18959077  1.0
  Ni  Ni223  1  0.78056717  0.51532746  0.18959077  1.0
  Ni  Ni224  1  0.78056717  0.84866079  0.18959077  1.0
  Ni  Ni225  1  0.28056717  0.26532746  0.13959077  1.0
  Ni  Ni226  1  0.28056717  0.59866079  0.13959077  1.0
  Ni  Ni227  1  0.28056717  0.93199413  0.13959077  1.0
  Ni  Ni228  1  0.61390050  0.26532746  0.13959077  1.0
  Ni  Ni229  1  0.61390050  0.59866079  0.13959077  1.0
  Ni  Ni230  1  0.61390050  0.93199413  0.13959077  1.0
  Ni  Ni231  1  0.94723383  0.26532746  0.13959077  1.0
  Ni  Ni232  1  0.94723383  0.59866079  0.13959077  1.0
  Ni  Ni233  1  0.94723383  0.93199413  0.13959077  1.0
  Ni  Ni234  1  0.00000000  0.31823537  0.19094122  1.0
  Ni  Ni235  1  0.00000000  0.65156871  0.19094122  1.0
  Ni  Ni236  1  0.00000000  0.98490204  0.19094122  1.0
  Ni  Ni237  1  0.33333333  0.31823537  0.19094122  1.0
  Ni  Ni238  1  0.33333333  0.65156871  0.19094122  1.0
  Ni  Ni239  1  0.33333333  0.98490204  0.19094122  1.0
  Ni  Ni240  1  0.66666667  0.31823537  0.19094122  1.0
  Ni  Ni241  1  0.66666667  0.65156871  0.19094122  1.0
  Ni  Ni242  1  0.66666667  0.98490204  0.19094122  1.0
  Ni  Ni243  1  0.16666667  0.06823537  0.14094122  1.0
  Ni  Ni244  1  0.16666667  0.40156871  0.14094122  1.0
  Ni  Ni245  1  0.16666667  0.73490204  0.14094122  1.0
  Ni  Ni246  1  0.50000000  0.06823537  0.14094122  1.0
  Ni  Ni247  1  0.50000000  0.40156871  0.14094122  1.0
  Ni  Ni248  1  0.50000000  0.73490204  0.14094122  1.0
  Ni  Ni249  1  0.83333333  0.06823537  0.14094122  1.0
  Ni  Ni250  1  0.83333333  0.40156871  0.14094122  1.0
  Ni  Ni251  1  0.83333333  0.73490204  0.14094122  1.0
  Ni  Ni252  1  0.24595767  0.22178138  0.19754823  1.0
  Ni  Ni253  1  0.24595767  0.55511471  0.19754822  1.0
  Ni  Ni254  1  0.24595767  0.88844804  0.19754822  1.0
  Ni  Ni255  1  0.57929100  0.22178138  0.19754822  1.0
  Ni  Ni256  1  0.57929100  0.55511471  0.19754822  1.0
  Ni  Ni257  1  0.57929100  0.88844804  0.19754822  1.0
  Ni  Ni258  1  0.91262433  0.22178138  0.19754822  1.0
  Ni  Ni259  1  0.91262433  0.55511471  0.19754823  1.0
  Ni  Ni260  1  0.91262433  0.88844804  0.19754822  1.0
  Ni  Ni261  1  0.07929100  0.30511471  0.14754823  1.0
  Ni  Ni262  1  0.07929100  0.63844804  0.14754823  1.0
  Ni  Ni263  1  0.07929100  0.97178138  0.14754823  1.0
  Ni  Ni264  1  0.41262433  0.30511471  0.14754823  1.0
  Ni  Ni265  1  0.41262433  0.63844804  0.14754823  1.0
  Ni  Ni266  1  0.41262433  0.97178138  0.14754823  1.0
  Ni  Ni267  1  0.74595767  0.30511471  0.14754823  1.0
  Ni  Ni268  1  0.74595767  0.63844804  0.14754823  1.0
  Ni  Ni269  1  0.74595767  0.97178138  0.14754823  1.0
  Ni  Ni270  1  0.00000000  0.15156871  0.19094122  1.0
  Ni  Ni271  1  0.00000000  0.48490204  0.19094122  1.0
  Ni  Ni272  1  0.00000000  0.81823537  0.19094122  1.0
  Ni  Ni273  1  0.33333333  0.15156871  0.19094122  1.0
  Ni  Ni274  1  0.33333333  0.48490204  0.19094122  1.0
  Ni  Ni275  1  0.33333333  0.81823537  0.19094122  1.0
  Ni  Ni276  1  0.66666667  0.15156871  0.19094122  1.0
  Ni  Ni277  1  0.66666667  0.48490204  0.19094122  1.0
  Ni  Ni278  1  0.66666667  0.81823537  0.19094122  1.0
  Ni  Ni279  1  0.16666667  0.23490204  0.14094122  1.0
  Ni  Ni280  1  0.16666667  0.56823537  0.14094122  1.0
  Ni  Ni281  1  0.16666667  0.90156871  0.14094122  1.0
  Ni  Ni282  1  0.50000000  0.23490204  0.14094122  1.0
  Ni  Ni283  1  0.50000000  0.56823537  0.14094122  1.0
  Ni  Ni284  1  0.50000000  0.90156871  0.14094122  1.0
  Ni  Ni285  1  0.83333333  0.23490204  0.14094122  1.0
  Ni  Ni286  1  0.83333333  0.56823537  0.14094122  1.0
  Ni  Ni287  1  0.83333333  0.90156871  0.14094122  1.0
  Ni  Ni288  1  0.02652483  0.25220679  0.21850437  1.0
  Ni  Ni289  1  0.02652483  0.58554012  0.21850437  1.0
  Ni  Ni290  1  0.02652483  0.91887346  0.21850437  1.0
  Ni  Ni291  1  0.35985817  0.25220679  0.21850437  1.0
  Ni  Ni292  1  0.35985817  0.58554012  0.21850437  1.0
  Ni  Ni293  1  0.35985817  0.91887346  0.21850437  1.0
  Ni  Ni294  1  0.69319150  0.25220679  0.21850437  1.0
  Ni  Ni295  1  0.69319150  0.58554012  0.21850437  1.0
  Ni  Ni296  1  0.69319150  0.91887346  0.21850437  1.0
  Ni  Ni297  1  0.19319150  0.16887346  0.26850437  1.0
  Ni  Ni298  1  0.19319150  0.50220679  0.26850437  1.0
  Ni  Ni299  1  0.19319150  0.83554012  0.26850437  1.0
  Ni  Ni300  1  0.52652483  0.16887346  0.26850437  1.0
  Ni  Ni301  1  0.52652483  0.50220679  0.26850437  1.0
  Ni  Ni302  1  0.52652483  0.83554012  0.26850437  1.0
  Ni  Ni303  1  0.85985817  0.16887346  0.26850437  1.0
  Ni  Ni304  1  0.85985817  0.50220679  0.26850437  1.0
  Ni  Ni305  1  0.85985817  0.83554012  0.26850437  1.0
  Ni  Ni306  1  0.30680850  0.21759729  0.26337807  1.0
  Ni  Ni307  1  0.30680850  0.55093062  0.26337807  1.0
  Ni  Ni308  1  0.30680850  0.88426396  0.26337807  1.0
  Ni  Ni309  1  0.64014183  0.21759729  0.26337807  1.0
  Ni  Ni310  1  0.64014183  0.55093062  0.26337807  1.0
  Ni  Ni311  1  0.64014183  0.88426396  0.26337807  1.0
  Ni  Ni312  1  0.97347517  0.21759729  0.26337807  1.0
  Ni  Ni313  1  0.97347517  0.55093062  0.26337807  1.0
  Ni  Ni314  1  0.97347517  0.88426396  0.26337807  1.0
  Ni  Ni315  1  0.14014183  0.30093063  0.21337807  1.0
  Ni  Ni316  1  0.14014183  0.63426396  0.21337807  1.0
  Ni  Ni317  1  0.14014183  0.96759729  0.21337808  1.0
  Ni  Ni318  1  0.47347517  0.30093063  0.21337807  1.0
  Ni  Ni319  1  0.47347517  0.63426396  0.21337807  1.0
  Ni  Ni320  1  0.47347517  0.96759729  0.21337808  1.0
  Ni  Ni321  1  0.80680850  0.30093063  0.21337807  1.0
  Ni  Ni322  1  0.80680850  0.63426396  0.21337807  1.0
  Ni  Ni323  1  0.80680850  0.96759729  0.21337808  1.0
  Ni  Ni324  1  0.21943283  0.28780996  0.29229167  1.0
  Ni  Ni325  1  0.21943283  0.62114329  0.29229167  1.0
  Ni  Ni326  1  0.21943283  0.95447662  0.29229167  1.0
  Ni  Ni327  1  0.55276617  0.28780996  0.29229167  1.0
  Ni  Ni328  1  0.55276617  0.62114329  0.29229167  1.0
  Ni  Ni329  1  0.55276617  0.95447662  0.29229167  1.0
  Ni  Ni330  1  0.88609950  0.28780996  0.29229167  1.0
  Ni  Ni331  1  0.88609950  0.62114329  0.29229167  1.0
  Ni  Ni332  1  0.88609950  0.95447662  0.29229167  1.0
  Ni  Ni333  1  0.05276617  0.03780996  0.24229168  1.0
  Ni  Ni334  1  0.05276617  0.37114329  0.24229168  1.0
  Ni  Ni335  1  0.05276617  0.70447662  0.24229168  1.0
  Ni  Ni336  1  0.38609950  0.03780996  0.24229168  1.0
  Ni  Ni337  1  0.38609950  0.37114329  0.24229168  1.0
  Ni  Ni338  1  0.38609950  0.70447662  0.24229168  1.0
  Ni  Ni339  1  0.71943283  0.03780996  0.24229168  1.0
  Ni  Ni340  1  0.71943283  0.37114329  0.24229168  1.0
  Ni  Ni341  1  0.71943283  0.70447662  0.24229168  1.0
  Ni  Ni342  1  0.08737567  0.24802271  0.28433422  1.0
  Ni  Ni343  1  0.08737567  0.58135604  0.28433422  1.0
  Ni  Ni344  1  0.08737567  0.91468938  0.28433422  1.0
  Ni  Ni345  1  0.42070900  0.24802271  0.28433422  1.0
  Ni  Ni346  1  0.42070900  0.58135604  0.28433422  1.0
  Ni  Ni347  1  0.42070900  0.91468938  0.28433422  1.0
  Ni  Ni348  1  0.75404233  0.24802271  0.28433422  1.0
  Ni  Ni349  1  0.75404233  0.58135604  0.28433422  1.0
  Ni  Ni350  1  0.75404233  0.91468938  0.28433422  1.0
  Ni  Ni351  1  0.25404233  0.33135604  0.23433422  1.0
  Ni  Ni352  1  0.25404233  0.66468938  0.23433422  1.0
  Ni  Ni353  1  0.25404233  0.99802271  0.23433422  1.0
  Ni  Ni354  1  0.58737567  0.33135604  0.23433422  1.0
  Ni  Ni355  1  0.58737567  0.66468938  0.23433422  1.0
  Ni  Ni356  1  0.58737567  0.99802271  0.23433422  1.0
  Ni  Ni357  1  0.92070900  0.33135604  0.23433422  1.0
  Ni  Ni358  1  0.92070900  0.66468938  0.23433422  1.0
  Ni  Ni359  1  0.92070900  0.99802271  0.23433422  1.0
  Ni  Ni360  1  0.11390050  0.01532746  0.28959077  1.0
  Ni  Ni361  1  0.11390050  0.34866079  0.28959077  1.0
  Ni  Ni362  1  0.11390050  0.68199412  0.28959077  1.0
  Ni  Ni363  1  0.44723383  0.01532746  0.28959077  1.0
  Ni  Ni364  1  0.44723383  0.34866079  0.28959077  1.0
  Ni  Ni365  1  0.44723383  0.68199412  0.28959077  1.0
  Ni  Ni366  1  0.78056717  0.01532746  0.28959077  1.0
  Ni  Ni367  1  0.78056717  0.34866079  0.28959077  1.0
  Ni  Ni368  1  0.78056717  0.68199412  0.28959077  1.0
  Ni  Ni369  1  0.28056717  0.09866079  0.23959077  1.0
  Ni  Ni370  1  0.28056717  0.43199413  0.23959078  1.0
  Ni  Ni371  1  0.28056717  0.76532746  0.23959077  1.0
  Ni  Ni372  1  0.61390050  0.09866079  0.23959078  1.0
  Ni  Ni373  1  0.61390050  0.43199413  0.23959077  1.0
  Ni  Ni374  1  0.61390050  0.76532746  0.23959077  1.0
  Ni  Ni375  1  0.94723383  0.09866079  0.23959077  1.0
  Ni  Ni376  1  0.94723383  0.43199413  0.23959078  1.0
  Ni  Ni377  1  0.94723383  0.76532746  0.23959077  1.0
  Ni  Ni378  1  0.00000000  0.15156871  0.29094122  1.0
  Ni  Ni379  1  0.00000000  0.48490204  0.29094122  1.0
  Ni  Ni380  1  0.00000000  0.81823537  0.29094122  1.0
  Ni  Ni381  1  0.33333333  0.15156871  0.29094122  1.0
  Ni  Ni382  1  0.33333333  0.48490204  0.29094122  1.0
  Ni  Ni383  1  0.33333333  0.81823537  0.29094122  1.0
  Ni  Ni384  1  0.66666667  0.15156871  0.29094122  1.0
  Ni  Ni385  1  0.66666667  0.48490204  0.29094122  1.0
  Ni  Ni386  1  0.66666667  0.81823537  0.29094122  1.0
  Ni  Ni387  1  0.16666667  0.23490204  0.24094122  1.0
  Ni  Ni388  1  0.16666667  0.56823537  0.24094122  1.0
  Ni  Ni389  1  0.16666667  0.90156871  0.24094122  1.0
  Ni  Ni390  1  0.50000000  0.23490204  0.24094122  1.0
  Ni  Ni391  1  0.50000000  0.56823537  0.24094122  1.0
  Ni  Ni392  1  0.50000000  0.90156871  0.24094122  1.0
  Ni  Ni393  1  0.83333333  0.23490204  0.24094122  1.0
  Ni  Ni394  1  0.83333333  0.56823537  0.24094122  1.0
  Ni  Ni395  1  0.83333333  0.90156871  0.24094122  1.0
  Ni  Ni396  1  0.24595767  0.05511471  0.29754822  1.0
  Ni  Ni397  1  0.24595767  0.38844804  0.29754822  1.0
  Ni  Ni398  1  0.24595767  0.72178138  0.29754822  1.0
  Ni  Ni399  1  0.57929100  0.05511471  0.29754822  1.0
  Ni  Ni400  1  0.57929100  0.38844804  0.29754822  1.0
  Ni  Ni401  1  0.57929100  0.72178138  0.29754822  1.0
  Ni  Ni402  1  0.91262433  0.05511471  0.29754822  1.0
  Ni  Ni403  1  0.91262433  0.38844804  0.29754822  1.0
  Ni  Ni404  1  0.91262433  0.72178138  0.29754822  1.0
  Ni  Ni405  1  0.07929100  0.13844804  0.24754822  1.0
  Ni  Ni406  1  0.07929100  0.47178138  0.24754823  1.0
  Ni  Ni407  1  0.07929100  0.80511471  0.24754822  1.0
  Ni  Ni408  1  0.41262433  0.13844804  0.24754823  1.0
  Ni  Ni409  1  0.41262433  0.47178138  0.24754823  1.0
  Ni  Ni410  1  0.41262433  0.80511471  0.24754822  1.0
  Ni  Ni411  1  0.74595767  0.13844804  0.24754822  1.0
  Ni  Ni412  1  0.74595767  0.47178138  0.24754823  1.0
  Ni  Ni413  1  0.74595767  0.80511471  0.24754822  1.0
  Ni  Ni414  1  0.00000000  0.31823537  0.29094122  1.0
  Ni  Ni415  1  0.00000000  0.65156871  0.29094122  1.0
  Ni  Ni416  1  0.00000000  0.98490204  0.29094122  1.0
  Ni  Ni417  1  0.33333333  0.31823537  0.29094122  1.0
  Ni  Ni418  1  0.33333333  0.65156871  0.29094122  1.0
  Ni  Ni419  1  0.33333333  0.98490204  0.29094122  1.0
  Ni  Ni420  1  0.66666667  0.31823537  0.29094122  1.0
  Ni  Ni421  1  0.66666667  0.65156871  0.29094122  1.0
  Ni  Ni422  1  0.66666667  0.98490204  0.29094122  1.0
  Ni  Ni423  1  0.16666667  0.06823538  0.24094122  1.0
  Ni  Ni424  1  0.16666667  0.40156871  0.24094122  1.0
  Ni  Ni425  1  0.16666667  0.73490204  0.24094122  1.0
  Ni  Ni426  1  0.50000000  0.06823538  0.24094122  1.0
  Ni  Ni427  1  0.50000000  0.40156871  0.24094122  1.0
  Ni  Ni428  1  0.50000000  0.73490204  0.24094122  1.0
  Ni  Ni429  1  0.83333333  0.06823538  0.24094122  1.0
  Ni  Ni430  1  0.83333333  0.40156871  0.24094122  1.0
  Ni  Ni431  1  0.83333333  0.73490204  0.24094122  1.0
  Ni  Ni432  1  0.02652483  0.08554012  0.31850437  1.0
  Ni  Ni433  1  0.02652483  0.41887346  0.31850437  1.0
  Ni  Ni434  1  0.02652483  0.75220679  0.31850437  1.0
  Ni  Ni435  1  0.35985817  0.08554012  0.31850437  1.0
  Ni  Ni436  1  0.35985817  0.41887346  0.31850437  1.0
  Ni  Ni437  1  0.35985817  0.75220679  0.31850437  1.0
  Ni  Ni438  1  0.69319150  0.08554012  0.31850437  1.0
  Ni  Ni439  1  0.69319150  0.41887346  0.31850437  1.0
  Ni  Ni440  1  0.69319150  0.75220679  0.31850437  1.0
  Ni  Ni441  1  0.19319150  0.00220679  0.36850437  1.0
  Ni  Ni442  1  0.19319150  0.33554012  0.36850437  1.0
  Ni  Ni443  1  0.19319150  0.66887346  0.36850437  1.0
  Ni  Ni444  1  0.52652483  0.00220679  0.36850437  1.0
  Ni  Ni445  1  0.52652483  0.33554012  0.36850437  1.0
  Ni  Ni446  1  0.52652483  0.66887346  0.36850437  1.0
  Ni  Ni447  1  0.85985817  0.00220679  0.36850437  1.0
  Ni  Ni448  1  0.85985817  0.33554012  0.36850437  1.0
  Ni  Ni449  1  0.85985817  0.66887346  0.36850437  1.0
  Ni  Ni450  1  0.30680850  0.05093062  0.36337807  1.0
  Ni  Ni451  1  0.30680850  0.38426396  0.36337807  1.0
  Ni  Ni452  1  0.30680850  0.71759729  0.36337807  1.0
  Ni  Ni453  1  0.64014183  0.05093062  0.36337807  1.0
  Ni  Ni454  1  0.64014183  0.38426396  0.36337807  1.0
  Ni  Ni455  1  0.64014183  0.71759729  0.36337807  1.0
  Ni  Ni456  1  0.97347517  0.05093062  0.36337807  1.0
  Ni  Ni457  1  0.97347517  0.38426396  0.36337807  1.0
  Ni  Ni458  1  0.97347517  0.71759729  0.36337807  1.0
  Ni  Ni459  1  0.14014183  0.13426396  0.31337807  1.0
  Ni  Ni460  1  0.14014183  0.46759729  0.31337807  1.0
  Ni  Ni461  1  0.14014183  0.80093063  0.31337807  1.0
  Ni  Ni462  1  0.47347517  0.13426396  0.31337807  1.0
  Ni  Ni463  1  0.47347517  0.46759729  0.31337807  1.0
  Ni  Ni464  1  0.47347517  0.80093063  0.31337807  1.0
  Ni  Ni465  1  0.80680850  0.13426396  0.31337807  1.0
  Ni  Ni466  1  0.80680850  0.46759729  0.31337807  1.0
  Ni  Ni467  1  0.80680850  0.80093063  0.31337807  1.0
  Ni  Ni468  1  0.21943283  0.12114329  0.39229167  1.0
  Ni  Ni469  1  0.21943283  0.45447662  0.39229167  1.0
  Ni  Ni470  1  0.21943283  0.78780996  0.39229167  1.0
  Ni  Ni471  1  0.55276617  0.12114329  0.39229167  1.0
  Ni  Ni472  1  0.55276617  0.45447662  0.39229167  1.0
  Ni  Ni473  1  0.55276617  0.78780996  0.39229167  1.0
  Ni  Ni474  1  0.88609950  0.12114329  0.39229167  1.0
  Ni  Ni475  1  0.88609950  0.45447662  0.39229167  1.0
  Ni  Ni476  1  0.88609950  0.78780996  0.39229167  1.0
  Ni  Ni477  1  0.05276617  0.20447662  0.34229167  1.0
  Ni  Ni478  1  0.05276617  0.53780996  0.34229167  1.0
  Ni  Ni479  1  0.05276617  0.87114329  0.34229167  1.0
  Ni  Ni480  1  0.38609950  0.20447662  0.34229167  1.0
  Ni  Ni481  1  0.38609950  0.53780996  0.34229167  1.0
  Ni  Ni482  1  0.38609950  0.87114329  0.34229167  1.0
  Ni  Ni483  1  0.71943283  0.20447662  0.34229167  1.0
  Ni  Ni484  1  0.71943283  0.53780996  0.34229167  1.0
  Ni  Ni485  1  0.71943283  0.87114329  0.34229167  1.0
  Ni  Ni486  1  0.08737567  0.08135604  0.38433422  1.0
  Ni  Ni487  1  0.08737567  0.41468937  0.38433422  1.0
  Ni  Ni488  1  0.08737567  0.74802271  0.38433422  1.0
  Ni  Ni489  1  0.42070900  0.08135604  0.38433422  1.0
  Ni  Ni490  1  0.42070900  0.41468937  0.38433422  1.0
  Ni  Ni491  1  0.42070900  0.74802271  0.38433422  1.0
  Ni  Ni492  1  0.75404233  0.08135604  0.38433422  1.0
  Ni  Ni493  1  0.75404233  0.41468937  0.38433422  1.0
  Ni  Ni494  1  0.75404233  0.74802271  0.38433422  1.0
  Ni  Ni495  1  0.25404233  0.16468937  0.33433422  1.0
  Ni  Ni496  1  0.25404233  0.49802271  0.33433422  1.0
  Ni  Ni497  1  0.25404233  0.83135604  0.33433422  1.0
  Ni  Ni498  1  0.58737567  0.16468937  0.33433422  1.0
  Ni  Ni499  1  0.58737567  0.49802271  0.33433422  1.0
  Ni  Ni500  1  0.58737567  0.83135604  0.33433422  1.0
  Ni  Ni501  1  0.92070900  0.16468937  0.33433422  1.0
  Ni  Ni502  1  0.92070900  0.49802271  0.33433422  1.0
  Ni  Ni503  1  0.92070900  0.83135604  0.33433422  1.0
  Ni  Ni504  1  0.11390050  0.18199412  0.38959077  1.0
  Ni  Ni505  1  0.11390050  0.51532746  0.38959077  1.0
  Ni  Ni506  1  0.11390050  0.84866079  0.38959077  1.0
  Ni  Ni507  1  0.44723383  0.18199412  0.38959077  1.0
  Ni  Ni508  1  0.44723383  0.51532746  0.38959077  1.0
  Ni  Ni509  1  0.44723383  0.84866079  0.38959077  1.0
  Ni  Ni510  1  0.78056717  0.18199412  0.38959077  1.0
  Ni  Ni511  1  0.78056717  0.51532746  0.38959077  1.0
  Ni  Ni512  1  0.78056717  0.84866079  0.38959077  1.0
  Ni  Ni513  1  0.28056717  0.26532746  0.33959077  1.0
  Ni  Ni514  1  0.28056717  0.59866079  0.33959077  1.0
  Ni  Ni515  1  0.28056717  0.93199413  0.33959077  1.0
  Ni  Ni516  1  0.61390050  0.26532746  0.33959077  1.0
  Ni  Ni517  1  0.61390050  0.59866079  0.33959077  1.0
  Ni  Ni518  1  0.61390050  0.93199413  0.33959077  1.0
  Ni  Ni519  1  0.94723383  0.26532746  0.33959077  1.0
  Ni  Ni520  1  0.94723383  0.59866079  0.33959077  1.0
  Ni  Ni521  1  0.94723383  0.93199413  0.33959077  1.0
  Ni  Ni522  1  0.00000000  0.31823537  0.39094122  1.0
  Ni  Ni523  1  0.00000000  0.65156871  0.39094122  1.0
  Ni  Ni524  1  0.00000000  0.98490204  0.39094122  1.0
  Ni  Ni525  1  0.33333333  0.31823537  0.39094122  1.0
  Ni  Ni526  1  0.33333333  0.65156871  0.39094122  1.0
  Ni  Ni527  1  0.33333333  0.98490204  0.39094122  1.0
  Ni  Ni528  1  0.66666667  0.31823537  0.39094122  1.0
  Ni  Ni529  1  0.66666667  0.65156871  0.39094122  1.0
  Ni  Ni530  1  0.66666667  0.98490204  0.39094122  1.0
  Ni  Ni531  1  0.16666667  0.06823537  0.34094122  1.0
  Ni  Ni532  1  0.16666667  0.40156871  0.34094122  1.0
  Ni  Ni533  1  0.16666667  0.73490204  0.34094122  1.0
  Ni  Ni534  1  0.50000000  0.06823537  0.34094122  1.0
  Ni  Ni535  1  0.50000000  0.40156871  0.34094122  1.0
  Ni  Ni536  1  0.50000000  0.73490204  0.34094122  1.0
  Ni  Ni537  1  0.83333333  0.06823537  0.34094122  1.0
  Ni  Ni538  1  0.83333333  0.40156871  0.34094122  1.0
  Ni  Ni539  1  0.83333333  0.73490204  0.34094122  1.0
  Ni  Ni540  1  0.24595767  0.22178137  0.39754822  1.0
  Ni  Ni541  1  0.24595767  0.55511471  0.39754822  1.0
  Ni  Ni542  1  0.24595767  0.88844804  0.39754822  1.0
  Ni  Ni543  1  0.57929100  0.22178137  0.39754822  1.0
  Ni  Ni544  1  0.57929100  0.55511471  0.39754822  1.0
  Ni  Ni545  1  0.57929100  0.88844804  0.39754822  1.0
  Ni  Ni546  1  0.91262433  0.22178137  0.39754822  1.0
  Ni  Ni547  1  0.91262433  0.55511471  0.39754822  1.0
  Ni  Ni548  1  0.91262433  0.88844804  0.39754822  1.0
  Ni  Ni549  1  0.07929100  0.30511471  0.34754822  1.0
  Ni  Ni550  1  0.07929100  0.63844804  0.34754822  1.0
  Ni  Ni551  1  0.07929100  0.97178137  0.34754822  1.0
  Ni  Ni552  1  0.41262433  0.30511471  0.34754822  1.0
  Ni  Ni553  1  0.41262433  0.63844804  0.34754822  1.0
  Ni  Ni554  1  0.41262433  0.97178137  0.34754822  1.0
  Ni  Ni555  1  0.74595767  0.30511471  0.34754822  1.0
  Ni  Ni556  1  0.74595767  0.63844804  0.34754822  1.0
  Ni  Ni557  1  0.74595767  0.97178137  0.34754822  1.0
  Ni  Ni558  1  0.00000000  0.15156871  0.39094122  1.0
  Ni  Ni559  1  0.00000000  0.48490204  0.39094122  1.0
  Ni  Ni560  1  0.00000000  0.81823537  0.39094122  1.0
  Ni  Ni561  1  0.33333333  0.15156871  0.39094122  1.0
  Ni  Ni562  1  0.33333333  0.48490204  0.39094122  1.0
  Ni  Ni563  1  0.33333333  0.81823537  0.39094122  1.0
  Ni  Ni564  1  0.66666667  0.15156871  0.39094122  1.0
  Ni  Ni565  1  0.66666667  0.48490204  0.39094122  1.0
  Ni  Ni566  1  0.66666667  0.81823537  0.39094122  1.0
  Ni  Ni567  1  0.16666667  0.23490204  0.34094122  1.0
  Ni  Ni568  1  0.16666667  0.56823537  0.34094122  1.0
  Ni  Ni569  1  0.16666667  0.90156871  0.34094122  1.0
  Ni  Ni570  1  0.50000000  0.23490204  0.34094122  1.0
  Ni  Ni571  1  0.50000000  0.56823537  0.34094122  1.0
  Ni  Ni572  1  0.50000000  0.90156871  0.34094122  1.0
  Ni  Ni573  1  0.83333333  0.23490204  0.34094122  1.0
  Ni  Ni574  1  0.83333333  0.56823537  0.34094122  1.0
  Ni  Ni575  1  0.83333333  0.90156871  0.34094122  1.0
  Ti  Ti576  1  0.06615133  0.30749021  0.04591252  1.0
  Ti  Ti577  1  0.06615133  0.64082354  0.04591252  1.0
  Ti  Ti578  1  0.06615133  0.97415687  0.04591252  1.0
  Ti  Ti579  1  0.39948467  0.30749021  0.04591252  1.0
  Ti  Ti580  1  0.39948467  0.64082354  0.04591252  1.0
  Ti  Ti581  1  0.39948467  0.97415687  0.04591253  1.0
  Ti  Ti582  1  0.73281800  0.30749021  0.04591252  1.0
  Ti  Ti583  1  0.73281800  0.64082354  0.04591252  1.0
  Ti  Ti584  1  0.73281800  0.97415687  0.04591252  1.0
  Ti  Ti585  1  0.23281800  0.22415687  0.09591252  1.0
  Ti  Ti586  1  0.23281800  0.55749021  0.09591253  1.0
  Ti  Ti587  1  0.23281800  0.89082354  0.09591253  1.0
  Ti  Ti588  1  0.56615133  0.22415687  0.09591252  1.0
  Ti  Ti589  1  0.56615133  0.55749021  0.09591253  1.0
  Ti  Ti590  1  0.56615133  0.89082354  0.09591252  1.0
  Ti  Ti591  1  0.89948467  0.22415687  0.09591252  1.0
  Ti  Ti592  1  0.89948467  0.55749021  0.09591253  1.0
  Ti  Ti593  1  0.89948467  0.89082354  0.09591253  1.0
  Ti  Ti594  1  0.04382083  0.19580962  0.04266908  1.0
  Ti  Ti595  1  0.04382083  0.52914296  0.04266908  1.0
  Ti  Ti596  1  0.04382083  0.86247629  0.04266908  1.0
  Ti  Ti597  1  0.37715417  0.19580962  0.04266908  1.0
  Ti  Ti598  1  0.37715417  0.52914296  0.04266908  1.0
  Ti  Ti599  1  0.37715417  0.86247629  0.04266908  1.0
  Ti  Ti600  1  0.71048750  0.19580962  0.04266908  1.0
  Ti  Ti601  1  0.71048750  0.52914296  0.04266908  1.0
  Ti  Ti602  1  0.71048750  0.86247629  0.04266908  1.0
  Ti  Ti603  1  0.21048750  0.11247629  0.09266908  1.0
  Ti  Ti604  1  0.21048750  0.44580962  0.09266908  1.0
  Ti  Ti605  1  0.21048750  0.77914296  0.09266908  1.0
  Ti  Ti606  1  0.54382083  0.11247629  0.09266908  1.0
  Ti  Ti607  1  0.54382083  0.44580962  0.09266908  1.0
  Ti  Ti608  1  0.54382083  0.77914296  0.09266908  1.0
  Ti  Ti609  1  0.87715417  0.11247629  0.09266908  1.0
  Ti  Ti610  1  0.87715417  0.44580962  0.09266908  1.0
  Ti  Ti611  1  0.87715417  0.77914296  0.09266907  1.0
  Ti  Ti612  1  0.26718200  0.16231387  0.03596992  1.0
  Ti  Ti613  1  0.26718200  0.49564721  0.03596992  1.0
  Ti  Ti614  1  0.26718200  0.82898054  0.03596992  1.0
  Ti  Ti615  1  0.60051533  0.16231387  0.03596992  1.0
  Ti  Ti616  1  0.60051533  0.49564721  0.03596992  1.0
  Ti  Ti617  1  0.60051533  0.82898054  0.03596992  1.0
  Ti  Ti618  1  0.93384867  0.16231387  0.03596992  1.0
  Ti  Ti619  1  0.93384867  0.49564721  0.03596992  1.0
  Ti  Ti620  1  0.93384867  0.82898054  0.03596992  1.0
  Ti  Ti621  1  0.10051533  0.07898054  0.08596992  1.0
  Ti  Ti622  1  0.10051533  0.41231387  0.08596992  1.0
  Ti  Ti623  1  0.10051533  0.74564721  0.08596992  1.0
  Ti  Ti624  1  0.43384867  0.07898054  0.08596992  1.0
  Ti  Ti625  1  0.43384867  0.41231387  0.08596992  1.0
  Ti  Ti626  1  0.43384867  0.74564721  0.08596992  1.0
  Ti  Ti627  1  0.76718200  0.07898054  0.08596992  1.0
  Ti  Ti628  1  0.76718200  0.41231387  0.08596992  1.0
  Ti  Ti629  1  0.76718200  0.74564721  0.08596992  1.0
  Ti  Ti630  1  0.02233050  0.09658262  0.02282368  1.0
  Ti  Ti631  1  0.02233050  0.42991596  0.02282368  1.0
  Ti  Ti632  1  0.02233050  0.76324929  0.02282368  1.0
  Ti  Ti633  1  0.35566383  0.09658262  0.02282368  1.0
  Ti  Ti634  1  0.35566383  0.42991596  0.02282368  1.0
  Ti  Ti635  1  0.35566383  0.76324929  0.02282368  1.0
  Ti  Ti636  1  0.68899717  0.09658262  0.02282368  1.0
  Ti  Ti637  1  0.68899717  0.42991596  0.02282367  1.0
  Ti  Ti638  1  0.68899717  0.76324929  0.02282368  1.0
  Ti  Ti639  1  0.18899717  0.01324929  0.07282367  1.0
  Ti  Ti640  1  0.18899717  0.34658263  0.07282368  1.0
  Ti  Ti641  1  0.18899717  0.67991596  0.07282367  1.0
  Ti  Ti642  1  0.52233050  0.01324929  0.07282367  1.0
  Ti  Ti643  1  0.52233050  0.34658263  0.07282368  1.0
  Ti  Ti644  1  0.52233050  0.67991596  0.07282367  1.0
  Ti  Ti645  1  0.85566383  0.01324929  0.07282368  1.0
  Ti  Ti646  1  0.85566383  0.34658263  0.07282368  1.0
  Ti  Ti647  1  0.85566383  0.67991596  0.07282367  1.0
  Ti  Ti648  1  0.31100283  0.03988812  0.05905877  1.0
  Ti  Ti649  1  0.31100283  0.37322146  0.05905877  1.0
  Ti  Ti650  1  0.31100283  0.70655479  0.05905877  1.0
  Ti  Ti651  1  0.64433617  0.03988812  0.05905877  1.0
  Ti  Ti652  1  0.64433617  0.37322146  0.05905877  1.0
  Ti  Ti653  1  0.64433617  0.70655479  0.05905877  1.0
  Ti  Ti654  1  0.97766950  0.03988812  0.05905877  1.0
  Ti  Ti655  1  0.97766950  0.37322146  0.05905877  1.0
  Ti  Ti656  1  0.97766950  0.70655479  0.05905877  1.0
  Ti  Ti657  1  0.14433617  0.12322146  0.00905878  1.0
  Ti  Ti658  1  0.14433617  0.45655479  0.00905878  1.0
  Ti  Ti659  1  0.14433617  0.78988812  0.00905878  1.0
  Ti  Ti660  1  0.47766950  0.12322146  0.00905878  1.0
  Ti  Ti661  1  0.47766950  0.45655479  0.00905878  1.0
  Ti  Ti662  1  0.47766950  0.78988812  0.00905878  1.0
  Ti  Ti663  1  0.81100283  0.12322146  0.00905878  1.0
  Ti  Ti664  1  0.81100283  0.45655479  0.00905878  1.0
  Ti  Ti665  1  0.81100283  0.78988812  0.00905878  1.0
  Ti  Ti666  1  0.28951250  0.27399446  0.03921337  1.0
  Ti  Ti667  1  0.28951250  0.60732779  0.03921337  1.0
  Ti  Ti668  1  0.28951250  0.94066112  0.03921337  1.0
  Ti  Ti669  1  0.62284583  0.27399446  0.03921337  1.0
  Ti  Ti670  1  0.62284583  0.60732779  0.03921337  1.0
  Ti  Ti671  1  0.62284583  0.94066112  0.03921337  1.0
  Ti  Ti672  1  0.95617917  0.27399446  0.03921337  1.0
  Ti  Ti673  1  0.95617917  0.60732779  0.03921337  1.0
  Ti  Ti674  1  0.95617917  0.94066112  0.03921337  1.0
  Ti  Ti675  1  0.12284583  0.19066112  0.08921337  1.0
  Ti  Ti676  1  0.12284583  0.52399446  0.08921337  1.0
  Ti  Ti677  1  0.12284583  0.85732779  0.08921337  1.0
  Ti  Ti678  1  0.45617917  0.19066112  0.08921337  1.0
  Ti  Ti679  1  0.45617917  0.52399446  0.08921337  1.0
  Ti  Ti680  1  0.45617917  0.85732779  0.08921337  1.0
  Ti  Ti681  1  0.78951250  0.19066112  0.08921337  1.0
  Ti  Ti682  1  0.78951250  0.52399446  0.08921337  1.0
  Ti  Ti683  1  0.78951250  0.85732779  0.08921337  1.0
  Ti  Ti684  1  0.06615133  0.14082354  0.14591252  1.0
  Ti  Ti685  1  0.06615133  0.47415687  0.14591252  1.0
  Ti  Ti686  1  0.06615133  0.80749021  0.14591252  1.0
  Ti  Ti687  1  0.39948467  0.14082354  0.14591252  1.0
  Ti  Ti688  1  0.39948467  0.47415687  0.14591252  1.0
  Ti  Ti689  1  0.39948467  0.80749021  0.14591252  1.0
  Ti  Ti690  1  0.73281800  0.14082354  0.14591252  1.0
  Ti  Ti691  1  0.73281800  0.47415687  0.14591252  1.0
  Ti  Ti692  1  0.73281800  0.80749021  0.14591252  1.0
  Ti  Ti693  1  0.23281800  0.05749021  0.19591252  1.0
  Ti  Ti694  1  0.23281800  0.39082354  0.19591252  1.0
  Ti  Ti695  1  0.23281800  0.72415687  0.19591252  1.0
  Ti  Ti696  1  0.56615133  0.05749021  0.19591253  1.0
  Ti  Ti697  1  0.56615133  0.39082354  0.19591252  1.0
  Ti  Ti698  1  0.56615133  0.72415687  0.19591252  1.0
  Ti  Ti699  1  0.89948467  0.05749021  0.19591252  1.0
  Ti  Ti700  1  0.89948467  0.39082354  0.19591253  1.0
  Ti  Ti701  1  0.89948467  0.72415687  0.19591252  1.0
  Ti  Ti702  1  0.04382083  0.02914296  0.14266907  1.0
  Ti  Ti703  1  0.04382083  0.36247629  0.14266907  1.0
  Ti  Ti704  1  0.04382083  0.69580962  0.14266907  1.0
  Ti  Ti705  1  0.37715417  0.02914296  0.14266908  1.0
  Ti  Ti706  1  0.37715417  0.36247629  0.14266907  1.0
  Ti  Ti707  1  0.37715417  0.69580962  0.14266907  1.0
  Ti  Ti708  1  0.71048750  0.02914296  0.14266907  1.0
  Ti  Ti709  1  0.71048750  0.36247629  0.14266907  1.0
  Ti  Ti710  1  0.71048750  0.69580962  0.14266907  1.0
  Ti  Ti711  1  0.21048750  0.27914296  0.19266907  1.0
  Ti  Ti712  1  0.21048750  0.61247629  0.19266907  1.0
  Ti  Ti713  1  0.21048750  0.94580962  0.19266907  1.0
  Ti  Ti714  1  0.54382083  0.27914296  0.19266907  1.0
  Ti  Ti715  1  0.54382083  0.61247629  0.19266907  1.0
  Ti  Ti716  1  0.54382083  0.94580962  0.19266907  1.0
  Ti  Ti717  1  0.87715417  0.27914296  0.19266907  1.0
  Ti  Ti718  1  0.87715417  0.61247629  0.19266907  1.0
  Ti  Ti719  1  0.87715417  0.94580962  0.19266907  1.0
  Ti  Ti720  1  0.26718200  0.32898054  0.13596992  1.0
  Ti  Ti721  1  0.26718200  0.66231387  0.13596992  1.0
  Ti  Ti722  1  0.26718200  0.99564721  0.13596992  1.0
  Ti  Ti723  1  0.60051533  0.32898054  0.13596992  1.0
  Ti  Ti724  1  0.60051533  0.66231387  0.13596992  1.0
  Ti  Ti725  1  0.60051533  0.99564721  0.13596992  1.0
  Ti  Ti726  1  0.93384867  0.32898054  0.13596992  1.0
  Ti  Ti727  1  0.93384867  0.66231387  0.13596992  1.0
  Ti  Ti728  1  0.93384867  0.99564721  0.13596992  1.0
  Ti  Ti729  1  0.10051533  0.24564721  0.18596992  1.0
  Ti  Ti730  1  0.10051533  0.57898054  0.18596992  1.0
  Ti  Ti731  1  0.10051533  0.91231387  0.18596992  1.0
  Ti  Ti732  1  0.43384867  0.24564721  0.18596992  1.0
  Ti  Ti733  1  0.43384867  0.57898054  0.18596992  1.0
  Ti  Ti734  1  0.43384867  0.91231387  0.18596992  1.0
  Ti  Ti735  1  0.76718200  0.24564721  0.18596992  1.0
  Ti  Ti736  1  0.76718200  0.57898054  0.18596992  1.0
  Ti  Ti737  1  0.76718200  0.91231387  0.18596992  1.0
  Ti  Ti738  1  0.02233050  0.26324929  0.12282367  1.0
  Ti  Ti739  1  0.02233050  0.59658262  0.12282367  1.0
  Ti  Ti740  1  0.02233050  0.92991596  0.12282367  1.0
  Ti  Ti741  1  0.35566383  0.26324929  0.12282367  1.0
  Ti  Ti742  1  0.35566383  0.59658262  0.12282367  1.0
  Ti  Ti743  1  0.35566383  0.92991596  0.12282367  1.0
  Ti  Ti744  1  0.68899717  0.26324929  0.12282367  1.0
  Ti  Ti745  1  0.68899717  0.59658262  0.12282367  1.0
  Ti  Ti746  1  0.68899717  0.92991596  0.12282367  1.0
  Ti  Ti747  1  0.18899717  0.17991596  0.17282367  1.0
  Ti  Ti748  1  0.18899717  0.51324929  0.17282367  1.0
  Ti  Ti749  1  0.18899717  0.84658263  0.17282367  1.0
  Ti  Ti750  1  0.52233050  0.17991596  0.17282367  1.0
  Ti  Ti751  1  0.52233050  0.51324929  0.17282367  1.0
  Ti  Ti752  1  0.52233050  0.84658263  0.17282367  1.0
  Ti  Ti753  1  0.85566383  0.17991596  0.17282367  1.0
  Ti  Ti754  1  0.85566383  0.51324929  0.17282367  1.0
  Ti  Ti755  1  0.85566383  0.84658263  0.17282367  1.0
  Ti  Ti756  1  0.31100283  0.20655479  0.15905877  1.0
  Ti  Ti757  1  0.31100283  0.53988812  0.15905877  1.0
  Ti  Ti758  1  0.31100283  0.87322146  0.15905877  1.0
  Ti  Ti759  1  0.64433617  0.20655479  0.15905877  1.0
  Ti  Ti760  1  0.64433617  0.53988812  0.15905877  1.0
  Ti  Ti761  1  0.64433617  0.87322146  0.15905877  1.0
  Ti  Ti762  1  0.97766950  0.20655479  0.15905877  1.0
  Ti  Ti763  1  0.97766950  0.53988812  0.15905877  1.0
  Ti  Ti764  1  0.97766950  0.87322146  0.15905877  1.0
  Ti  Ti765  1  0.14433617  0.28988812  0.10905877  1.0
  Ti  Ti766  1  0.14433617  0.62322146  0.10905877  1.0
  Ti  Ti767  1  0.14433617  0.95655479  0.10905877  1.0
  Ti  Ti768  1  0.47766950  0.28988812  0.10905877  1.0
  Ti  Ti769  1  0.47766950  0.62322146  0.10905877  1.0
  Ti  Ti770  1  0.47766950  0.95655479  0.10905877  1.0
  Ti  Ti771  1  0.81100283  0.28988812  0.10905877  1.0
  Ti  Ti772  1  0.81100283  0.62322146  0.10905877  1.0
  Ti  Ti773  1  0.81100283  0.95655479  0.10905877  1.0
  Ti  Ti774  1  0.28951250  0.10732779  0.13921337  1.0
  Ti  Ti775  1  0.28951250  0.44066112  0.13921337  1.0
  Ti  Ti776  1  0.28951250  0.77399446  0.13921337  1.0
  Ti  Ti777  1  0.62284583  0.10732779  0.13921337  1.0
  Ti  Ti778  1  0.62284583  0.44066112  0.13921337  1.0
  Ti  Ti779  1  0.62284583  0.77399446  0.13921337  1.0
  Ti  Ti780  1  0.95617917  0.10732779  0.13921337  1.0
  Ti  Ti781  1  0.95617917  0.44066112  0.13921337  1.0
  Ti  Ti782  1  0.95617917  0.77399446  0.13921337  1.0
  Ti  Ti783  1  0.12284583  0.02399446  0.18921337  1.0
  Ti  Ti784  1  0.12284583  0.35732779  0.18921337  1.0
  Ti  Ti785  1  0.12284583  0.69066112  0.18921337  1.0
  Ti  Ti786  1  0.45617917  0.02399446  0.18921337  1.0
  Ti  Ti787  1  0.45617917  0.35732779  0.18921337  1.0
  Ti  Ti788  1  0.45617917  0.69066112  0.18921337  1.0
  Ti  Ti789  1  0.78951250  0.02399446  0.18921337  1.0
  Ti  Ti790  1  0.78951250  0.35732779  0.18921337  1.0
  Ti  Ti791  1  0.78951250  0.69066112  0.18921337  1.0
  Ti  Ti792  1  0.06615133  0.30749021  0.24591252  1.0
  Ti  Ti793  1  0.06615133  0.64082354  0.24591252  1.0
  Ti  Ti794  1  0.06615133  0.97415687  0.24591252  1.0
  Ti  Ti795  1  0.39948467  0.30749021  0.24591252  1.0
  Ti  Ti796  1  0.39948467  0.64082354  0.24591252  1.0
  Ti  Ti797  1  0.39948467  0.97415687  0.24591252  1.0
  Ti  Ti798  1  0.73281800  0.30749021  0.24591252  1.0
  Ti  Ti799  1  0.73281800  0.64082354  0.24591252  1.0
  Ti  Ti800  1  0.73281800  0.97415687  0.24591252  1.0
  Ti  Ti801  1  0.23281800  0.22415687  0.29591252  1.0
  Ti  Ti802  1  0.23281800  0.55749021  0.29591252  1.0
  Ti  Ti803  1  0.23281800  0.89082354  0.29591252  1.0
  Ti  Ti804  1  0.56615133  0.22415687  0.29591252  1.0
  Ti  Ti805  1  0.56615133  0.55749021  0.29591252  1.0
  Ti  Ti806  1  0.56615133  0.89082354  0.29591252  1.0
  Ti  Ti807  1  0.89948467  0.22415687  0.29591252  1.0
  Ti  Ti808  1  0.89948467  0.55749021  0.29591252  1.0
  Ti  Ti809  1  0.89948467  0.89082354  0.29591252  1.0
  Ti  Ti810  1  0.04382083  0.19580962  0.24266907  1.0
  Ti  Ti811  1  0.04382083  0.52914296  0.24266907  1.0
  Ti  Ti812  1  0.04382083  0.86247629  0.24266907  1.0
  Ti  Ti813  1  0.37715417  0.19580962  0.24266907  1.0
  Ti  Ti814  1  0.37715417  0.52914296  0.24266907  1.0
  Ti  Ti815  1  0.37715417  0.86247629  0.24266907  1.0
  Ti  Ti816  1  0.71048750  0.19580962  0.24266907  1.0
  Ti  Ti817  1  0.71048750  0.52914296  0.24266907  1.0
  Ti  Ti818  1  0.71048750  0.86247629  0.24266907  1.0
  Ti  Ti819  1  0.21048750  0.11247629  0.29266907  1.0
  Ti  Ti820  1  0.21048750  0.44580962  0.29266907  1.0
  Ti  Ti821  1  0.21048750  0.77914296  0.29266907  1.0
  Ti  Ti822  1  0.54382083  0.11247629  0.29266908  1.0
  Ti  Ti823  1  0.54382083  0.44580962  0.29266907  1.0
  Ti  Ti824  1  0.54382083  0.77914296  0.29266907  1.0
  Ti  Ti825  1  0.87715417  0.11247629  0.29266907  1.0
  Ti  Ti826  1  0.87715417  0.44580962  0.29266907  1.0
  Ti  Ti827  1  0.87715417  0.77914296  0.29266907  1.0
  Ti  Ti828  1  0.26718200  0.16231387  0.23596992  1.0
  Ti  Ti829  1  0.26718200  0.49564721  0.23596992  1.0
  Ti  Ti830  1  0.26718200  0.82898054  0.23596992  1.0
  Ti  Ti831  1  0.60051533  0.16231387  0.23596992  1.0
  Ti  Ti832  1  0.60051533  0.49564721  0.23596992  1.0
  Ti  Ti833  1  0.60051533  0.82898054  0.23596992  1.0
  Ti  Ti834  1  0.93384867  0.16231387  0.23596992  1.0
  Ti  Ti835  1  0.93384867  0.49564721  0.23596992  1.0
  Ti  Ti836  1  0.93384867  0.82898054  0.23596992  1.0
  Ti  Ti837  1  0.10051533  0.07898054  0.28596992  1.0
  Ti  Ti838  1  0.10051533  0.41231387  0.28596992  1.0
  Ti  Ti839  1  0.10051533  0.74564721  0.28596992  1.0
  Ti  Ti840  1  0.43384867  0.07898054  0.28596992  1.0
  Ti  Ti841  1  0.43384867  0.41231387  0.28596992  1.0
  Ti  Ti842  1  0.43384867  0.74564721  0.28596992  1.0
  Ti  Ti843  1  0.76718200  0.07898054  0.28596992  1.0
  Ti  Ti844  1  0.76718200  0.41231387  0.28596992  1.0
  Ti  Ti845  1  0.76718200  0.74564721  0.28596992  1.0
  Ti  Ti846  1  0.02233050  0.09658262  0.22282367  1.0
  Ti  Ti847  1  0.02233050  0.42991596  0.22282367  1.0
  Ti  Ti848  1  0.02233050  0.76324929  0.22282367  1.0
  Ti  Ti849  1  0.35566383  0.09658262  0.22282367  1.0
  Ti  Ti850  1  0.35566383  0.42991596  0.22282367  1.0
  Ti  Ti851  1  0.35566383  0.76324929  0.22282367  1.0
  Ti  Ti852  1  0.68899717  0.09658262  0.22282367  1.0
  Ti  Ti853  1  0.68899717  0.42991596  0.22282367  1.0
  Ti  Ti854  1  0.68899717  0.76324929  0.22282367  1.0
  Ti  Ti855  1  0.18899717  0.01324929  0.27282367  1.0
  Ti  Ti856  1  0.18899717  0.34658262  0.27282367  1.0
  Ti  Ti857  1  0.18899717  0.67991596  0.27282367  1.0
  Ti  Ti858  1  0.52233050  0.01324929  0.27282367  1.0
  Ti  Ti859  1  0.52233050  0.34658262  0.27282367  1.0
  Ti  Ti860  1  0.52233050  0.67991596  0.27282367  1.0
  Ti  Ti861  1  0.85566383  0.01324929  0.27282367  1.0
  Ti  Ti862  1  0.85566383  0.34658262  0.27282367  1.0
  Ti  Ti863  1  0.85566383  0.67991596  0.27282367  1.0
  Ti  Ti864  1  0.31100283  0.03988812  0.25905877  1.0
  Ti  Ti865  1  0.31100283  0.37322146  0.25905877  1.0
  Ti  Ti866  1  0.31100283  0.70655479  0.25905877  1.0
  Ti  Ti867  1  0.64433617  0.03988812  0.25905877  1.0
  Ti  Ti868  1  0.64433617  0.37322146  0.25905877  1.0
  Ti  Ti869  1  0.64433617  0.70655479  0.25905877  1.0
  Ti  Ti870  1  0.97766950  0.03988812  0.25905877  1.0
  Ti  Ti871  1  0.97766950  0.37322146  0.25905877  1.0
  Ti  Ti872  1  0.97766950  0.70655479  0.25905877  1.0
  Ti  Ti873  1  0.14433617  0.12322146  0.20905877  1.0
  Ti  Ti874  1  0.14433617  0.45655479  0.20905877  1.0
  Ti  Ti875  1  0.14433617  0.78988812  0.20905877  1.0
  Ti  Ti876  1  0.47766950  0.12322146  0.20905877  1.0
  Ti  Ti877  1  0.47766950  0.45655479  0.20905877  1.0
  Ti  Ti878  1  0.47766950  0.78988812  0.20905877  1.0
  Ti  Ti879  1  0.81100283  0.12322146  0.20905877  1.0
  Ti  Ti880  1  0.81100283  0.45655479  0.20905877  1.0
  Ti  Ti881  1  0.81100283  0.78988812  0.20905877  1.0
  Ti  Ti882  1  0.28951250  0.27399446  0.23921337  1.0
  Ti  Ti883  1  0.28951250  0.60732779  0.23921337  1.0
  Ti  Ti884  1  0.28951250  0.94066112  0.23921337  1.0
  Ti  Ti885  1  0.62284583  0.27399446  0.23921337  1.0
  Ti  Ti886  1  0.62284583  0.60732779  0.23921337  1.0
  Ti  Ti887  1  0.62284583  0.94066112  0.23921337  1.0
  Ti  Ti888  1  0.95617917  0.27399446  0.23921337  1.0
  Ti  Ti889  1  0.95617917  0.60732779  0.23921337  1.0
  Ti  Ti890  1  0.95617917  0.94066112  0.23921337  1.0
  Ti  Ti891  1  0.12284583  0.19066112  0.28921337  1.0
  Ti  Ti892  1  0.12284583  0.52399446  0.28921337  1.0
  Ti  Ti893  1  0.12284583  0.85732779  0.28921337  1.0
  Ti  Ti894  1  0.45617917  0.19066112  0.28921337  1.0
  Ti  Ti895  1  0.45617917  0.52399446  0.28921337  1.0
  Ti  Ti896  1  0.45617917  0.85732779  0.28921337  1.0
  Ti  Ti897  1  0.78951250  0.19066112  0.28921337  1.0
  Ti  Ti898  1  0.78951250  0.52399446  0.28921337  1.0
  Ti  Ti899  1  0.78951250  0.85732779  0.28921337  1.0
  Ti  Ti900  1  0.06615133  0.14082354  0.34591252  1.0
  Ti  Ti901  1  0.06615133  0.47415687  0.34591252  1.0
  Ti  Ti902  1  0.06615133  0.80749021  0.34591252  1.0
  Ti  Ti903  1  0.39948467  0.14082354  0.34591252  1.0
  Ti  Ti904  1  0.39948467  0.47415687  0.34591252  1.0
  Ti  Ti905  1  0.39948467  0.80749021  0.34591252  1.0
  Ti  Ti906  1  0.73281800  0.14082354  0.34591252  1.0
  Ti  Ti907  1  0.73281800  0.47415687  0.34591252  1.0
  Ti  Ti908  1  0.73281800  0.80749021  0.34591252  1.0
  Ti  Ti909  1  0.23281800  0.05749021  0.39591252  1.0
  Ti  Ti910  1  0.23281800  0.39082354  0.39591252  1.0
  Ti  Ti911  1  0.23281800  0.72415687  0.39591252  1.0
  Ti  Ti912  1  0.56615133  0.05749021  0.39591252  1.0
  Ti  Ti913  1  0.56615133  0.39082354  0.39591252  1.0
  Ti  Ti914  1  0.56615133  0.72415687  0.39591252  1.0
  Ti  Ti915  1  0.89948467  0.05749021  0.39591252  1.0
  Ti  Ti916  1  0.89948467  0.39082354  0.39591252  1.0
  Ti  Ti917  1  0.89948467  0.72415687  0.39591252  1.0
  Ti  Ti918  1  0.04382083  0.02914296  0.34266907  1.0
  Ti  Ti919  1  0.04382083  0.36247629  0.34266907  1.0
  Ti  Ti920  1  0.04382083  0.69580962  0.34266907  1.0
  Ti  Ti921  1  0.37715417  0.02914296  0.34266907  1.0
  Ti  Ti922  1  0.37715417  0.36247629  0.34266907  1.0
  Ti  Ti923  1  0.37715417  0.69580962  0.34266907  1.0
  Ti  Ti924  1  0.71048750  0.02914296  0.34266907  1.0
  Ti  Ti925  1  0.71048750  0.36247629  0.34266907  1.0
  Ti  Ti926  1  0.71048750  0.69580962  0.34266907  1.0
  Ti  Ti927  1  0.21048750  0.27914296  0.39266907  1.0
  Ti  Ti928  1  0.21048750  0.61247629  0.39266907  1.0
  Ti  Ti929  1  0.21048750  0.94580963  0.39266907  1.0
  Ti  Ti930  1  0.54382083  0.27914296  0.39266907  1.0
  Ti  Ti931  1  0.54382083  0.61247629  0.39266907  1.0
  Ti  Ti932  1  0.54382083  0.94580963  0.39266907  1.0
  Ti  Ti933  1  0.87715417  0.27914296  0.39266907  1.0
  Ti  Ti934  1  0.87715417  0.61247629  0.39266907  1.0
  Ti  Ti935  1  0.87715417  0.94580963  0.39266907  1.0
  Ti  Ti936  1  0.26718200  0.32898054  0.33596992  1.0
  Ti  Ti937  1  0.26718200  0.66231387  0.33596992  1.0
  Ti  Ti938  1  0.26718200  0.99564721  0.33596992  1.0
  Ti  Ti939  1  0.60051533  0.32898054  0.33596992  1.0
  Ti  Ti940  1  0.60051533  0.66231387  0.33596992  1.0
  Ti  Ti941  1  0.60051533  0.99564721  0.33596992  1.0
  Ti  Ti942  1  0.93384867  0.32898054  0.33596992  1.0
  Ti  Ti943  1  0.93384867  0.66231387  0.33596992  1.0
  Ti  Ti944  1  0.93384867  0.99564721  0.33596992  1.0
  Ti  Ti945  1  0.10051533  0.24564721  0.38596992  1.0
  Ti  Ti946  1  0.10051533  0.57898054  0.38596992  1.0
  Ti  Ti947  1  0.10051533  0.91231387  0.38596992  1.0
  Ti  Ti948  1  0.43384867  0.24564721  0.38596992  1.0
  Ti  Ti949  1  0.43384867  0.57898054  0.38596992  1.0
  Ti  Ti950  1  0.43384867  0.91231387  0.38596992  1.0
  Ti  Ti951  1  0.76718200  0.24564721  0.38596992  1.0
  Ti  Ti952  1  0.76718200  0.57898054  0.38596992  1.0
  Ti  Ti953  1  0.76718200  0.91231387  0.38596992  1.0
  Ti  Ti954  1  0.02233050  0.26324929  0.32282367  1.0
  Ti  Ti955  1  0.02233050  0.59658262  0.32282367  1.0
  Ti  Ti956  1  0.02233050  0.92991596  0.32282367  1.0
  Ti  Ti957  1  0.35566383  0.26324929  0.32282367  1.0
  Ti  Ti958  1  0.35566383  0.59658262  0.32282367  1.0
  Ti  Ti959  1  0.35566383  0.92991596  0.32282367  1.0
  Ti  Ti960  1  0.68899717  0.26324929  0.32282367  1.0
  Ti  Ti961  1  0.68899717  0.59658262  0.32282367  1.0
  Ti  Ti962  1  0.68899717  0.92991596  0.32282367  1.0
  Ti  Ti963  1  0.18899717  0.17991596  0.37282368  1.0
  Ti  Ti964  1  0.18899717  0.51324929  0.37282368  1.0
  Ti  Ti965  1  0.18899717  0.84658263  0.37282367  1.0
  Ti  Ti966  1  0.52233050  0.17991596  0.37282367  1.0
  Ti  Ti967  1  0.52233050  0.51324929  0.37282367  1.0
  Ti  Ti968  1  0.52233050  0.84658263  0.37282367  1.0
  Ti  Ti969  1  0.85566383  0.17991596  0.37282368  1.0
  Ti  Ti970  1  0.85566383  0.51324929  0.37282368  1.0
  Ti  Ti971  1  0.85566383  0.84658263  0.37282367  1.0
  Ti  Ti972  1  0.31100283  0.20655479  0.35905877  1.0
  Ti  Ti973  1  0.31100283  0.53988812  0.35905877  1.0
  Ti  Ti974  1  0.31100283  0.87322146  0.35905877  1.0
  Ti  Ti975  1  0.64433617  0.20655479  0.35905877  1.0
  Ti  Ti976  1  0.64433617  0.53988812  0.35905877  1.0
  Ti  Ti977  1  0.64433617  0.87322146  0.35905877  1.0
  Ti  Ti978  1  0.97766950  0.20655479  0.35905877  1.0
  Ti  Ti979  1  0.97766950  0.53988812  0.35905877  1.0
  Ti  Ti980  1  0.97766950  0.87322146  0.35905877  1.0
  Ti  Ti981  1  0.14433617  0.28988812  0.30905877  1.0
  Ti  Ti982  1  0.14433617  0.62322146  0.30905877  1.0
  Ti  Ti983  1  0.14433617  0.95655479  0.30905877  1.0
  Ti  Ti984  1  0.47766950  0.28988812  0.30905877  1.0
  Ti  Ti985  1  0.47766950  0.62322146  0.30905877  1.0
  Ti  Ti986  1  0.47766950  0.95655479  0.30905877  1.0
  Ti  Ti987  1  0.81100283  0.28988812  0.30905877  1.0
  Ti  Ti988  1  0.81100283  0.62322146  0.30905877  1.0
  Ti  Ti989  1  0.81100283  0.95655479  0.30905877  1.0
  Ti  Ti990  1  0.28951250  0.10732779  0.33921337  1.0
  Ti  Ti991  1  0.28951250  0.44066112  0.33921337  1.0
  Ti  Ti992  1  0.28951250  0.77399446  0.33921337  1.0
  Ti  Ti993  1  0.62284583  0.10732779  0.33921337  1.0
  Ti  Ti994  1  0.62284583  0.44066112  0.33921337  1.0
  Ti  Ti995  1  0.62284583  0.77399446  0.33921337  1.0
  Ti  Ti996  1  0.95617917  0.10732779  0.33921337  1.0
  Ti  Ti997  1  0.95617917  0.44066112  0.33921337  1.0
  Ti  Ti998  1  0.95617917  0.77399446  0.33921337  1.0
  Ti  Ti999  1  0.12284583  0.02399446  0.38921337  1.0
  Ti  Ti1000  1  0.12284583  0.35732779  0.38921337  1.0
  Ti  Ti1001  1  0.12284583  0.69066112  0.38921337  1.0
  Ti  Ti1002  1  0.45617917  0.02399446  0.38921337  1.0
  Ti  Ti1003  1  0.45617917  0.35732779  0.38921337  1.0
  Ti  Ti1004  1  0.45617917  0.69066112  0.38921337  1.0
  Ti  Ti1005  1  0.78951250  0.02399446  0.38921337  1.0
  Ti  Ti1006  1  0.78951250  0.35732779  0.38921337  1.0
  Ti  Ti1007  1  0.78951250  0.69066112  0.38921337  1.0
