# generated using pymatgen
data_Ti3Ni4
_symmetry_space_group_name_H-M   'P 1'
_cell_length_a   51.63956846
_cell_length_b   21.89828572
_cell_length_c   46.83304052
_cell_angle_alpha   56.94032010
_cell_angle_beta   45.30102777
_cell_angle_gamma   37.91517852
_symmetry_Int_Tables_number   1
_chemical_formula_structural   Ti3Ni4
_chemical_formula_sum   'Ti324 Ni432'
_cell_volume   23126.88160162
_cell_formula_units_Z   108
loop_
 _symmetry_equiv_pos_site_id
 _symmetry_equiv_pos_as_xyz
  1  'x, y, z'
loop_
 _atom_site_type_symbol
 _atom_site_label
 _atom_site_symmetry_multiplicity
 _atom_site_fract_x
 _atom_site_fract_y
 _atom_site_fract_z
 _atom_site_occupancy
  Ti  Ti0  1  0.18477300  0.16481800  0.09027593  1.0
  Ti  Ti1  1  0.18477300  0.49815133  0.09027593  1.0
  Ti  Ti2  1  0.18477300  0.83148467  0.09027593  1.0
  Ti  Ti3  1  0.51810633  0.16481800  0.09027593  1.0
  Ti  Ti4  1  0.51810633  0.49815133  0.09027593  1.0
  Ti  Ti5  1  0.51810633  0.83148467  0.09027593  1.0
  Ti  Ti6  1  0.85143967  0.16481800  0.09027593  1.0
  Ti  Ti7  1  0.85143967  0.49815133  0.09027593  1.0
  Ti  Ti8  1  0.85143967  0.83148467  0.09027593  1.0
  Ti  Ti9  1  0.01810633  0.16481800  0.01884736  1.0
  Ti  Ti10  1  0.01810633  0.49815133  0.01884736  1.0
  Ti  Ti11  1  0.01810633  0.83148467  0.01884736  1.0
  Ti  Ti12  1  0.35143967  0.16481800  0.01884736  1.0
  Ti  Ti13  1  0.35143967  0.49815133  0.01884736  1.0
  Ti  Ti14  1  0.35143967  0.83148467  0.01884736  1.0
  Ti  Ti15  1  0.68477300  0.16481800  0.01884736  1.0
  Ti  Ti16  1  0.68477300  0.49815133  0.01884736  1.0
  Ti  Ti17  1  0.68477300  0.83148467  0.01884736  1.0
  Ti  Ti18  1  0.24907567  0.08087367  0.00601650  1.0
  Ti  Ti19  1  0.24907567  0.41420700  0.00601650  1.0
  Ti  Ti20  1  0.24907567  0.74754033  0.00601650  1.0
  Ti  Ti21  1  0.58240900  0.08087367  0.00601650  1.0
  Ti  Ti22  1  0.58240900  0.41420700  0.00601650  1.0
  Ti  Ti23  1  0.58240900  0.74754033  0.00601650  1.0
  Ti  Ti24  1  0.91574233  0.08087367  0.00601650  1.0
  Ti  Ti25  1  0.91574233  0.41420700  0.00601650  1.0
  Ti  Ti26  1  0.91574233  0.74754033  0.00601650  1.0
  Ti  Ti27  1  0.08240900  0.08087367  0.07744507  1.0
  Ti  Ti28  1  0.08240900  0.41420700  0.07744507  1.0
  Ti  Ti29  1  0.08240900  0.74754033  0.07744507  1.0
  Ti  Ti30  1  0.41574233  0.08087367  0.07744507  1.0
  Ti  Ti31  1  0.41574233  0.41420700  0.07744507  1.0
  Ti  Ti32  1  0.41574233  0.74754033  0.07744507  1.0
  Ti  Ti33  1  0.74907567  0.08087367  0.07744507  1.0
  Ti  Ti34  1  0.74907567  0.41420700  0.07744507  1.0
  Ti  Ti35  1  0.74907567  0.74754033  0.07744507  1.0
  Ti  Ti36  1  0.31522700  0.16851533  0.10210279  1.0
  Ti  Ti37  1  0.31522700  0.50184867  0.10210279  1.0
  Ti  Ti38  1  0.31522700  0.83518200  0.10210279  1.0
  Ti  Ti39  1  0.64856033  0.16851533  0.10210279  1.0
  Ti  Ti40  1  0.64856033  0.50184867  0.10210279  1.0
  Ti  Ti41  1  0.64856033  0.83518200  0.10210279  1.0
  Ti  Ti42  1  0.98189367  0.16851533  0.10210279  1.0
  Ti  Ti43  1  0.98189367  0.50184867  0.10210279  1.0
  Ti  Ti44  1  0.98189367  0.83518200  0.10210279  1.0
  Ti  Ti45  1  0.14856033  0.16851533  0.03067421  1.0
  Ti  Ti46  1  0.14856033  0.50184867  0.03067421  1.0
  Ti  Ti47  1  0.14856033  0.83518200  0.03067421  1.0
  Ti  Ti48  1  0.48189367  0.16851533  0.03067421  1.0
  Ti  Ti49  1  0.48189367  0.50184867  0.03067421  1.0
  Ti  Ti50  1  0.48189367  0.83518200  0.03067421  1.0
  Ti  Ti51  1  0.81522700  0.16851533  0.03067421  1.0
  Ti  Ti52  1  0.81522700  0.50184867  0.03067421  1.0
  Ti  Ti53  1  0.81522700  0.83518200  0.03067421  1.0
  Ti  Ti54  1  0.29289650  0.03621267  0.06307771  1.0
  Ti  Ti55  1  0.29289650  0.36954600  0.06307771  1.0
  Ti  Ti56  1  0.29289650  0.70287933  0.06307771  1.0
  Ti  Ti57  1  0.62622983  0.03621267  0.06307771  1.0
  Ti  Ti58  1  0.62622983  0.36954600  0.06307771  1.0
  Ti  Ti59  1  0.62622983  0.70287933  0.06307771  1.0
  Ti  Ti60  1  0.95956317  0.03621267  0.06307771  1.0
  Ti  Ti61  1  0.95956317  0.36954600  0.06307771  1.0
  Ti  Ti62  1  0.95956317  0.70287933  0.06307771  1.0
  Ti  Ti63  1  0.12622983  0.03621267  0.13450629  1.0
  Ti  Ti64  1  0.12622983  0.36954600  0.13450629  1.0
  Ti  Ti65  1  0.12622983  0.70287933  0.13450629  1.0
  Ti  Ti66  1  0.45956317  0.03621267  0.13450629  1.0
  Ti  Ti67  1  0.45956317  0.36954600  0.13450629  1.0
  Ti  Ti68  1  0.45956317  0.70287933  0.13450629  1.0
  Ti  Ti69  1  0.79289650  0.03621267  0.13450629  1.0
  Ti  Ti70  1  0.79289650  0.36954600  0.13450629  1.0
  Ti  Ti71  1  0.79289650  0.70287933  0.13450629  1.0
  Ti  Ti72  1  0.20710350  0.29712067  0.12930100  1.0
  Ti  Ti73  1  0.20710350  0.63045400  0.12930100  1.0
  Ti  Ti74  1  0.20710350  0.96378733  0.12930100  1.0
  Ti  Ti75  1  0.54043683  0.29712067  0.12930100  1.0
  Ti  Ti76  1  0.54043683  0.63045400  0.12930100  1.0
  Ti  Ti77  1  0.54043683  0.96378733  0.12930100  1.0
  Ti  Ti78  1  0.87377017  0.29712067  0.12930100  1.0
  Ti  Ti79  1  0.87377017  0.63045400  0.12930100  1.0
  Ti  Ti80  1  0.87377017  0.96378733  0.12930100  1.0
  Ti  Ti81  1  0.04043683  0.29712067  0.05787243  1.0
  Ti  Ti82  1  0.04043683  0.63045400  0.05787243  1.0
  Ti  Ti83  1  0.04043683  0.96378733  0.05787243  1.0
  Ti  Ti84  1  0.37377017  0.29712067  0.05787243  1.0
  Ti  Ti85  1  0.37377017  0.63045400  0.05787243  1.0
  Ti  Ti86  1  0.37377017  0.96378733  0.05787243  1.0
  Ti  Ti87  1  0.70710350  0.29712067  0.05787243  1.0
  Ti  Ti88  1  0.70710350  0.63045400  0.05787243  1.0
  Ti  Ti89  1  0.70710350  0.96378733  0.05787243  1.0
  Ti  Ti90  1  0.25092433  0.25245967  0.04350507  1.0
  Ti  Ti91  1  0.25092433  0.58579300  0.04350507  1.0
  Ti  Ti92  1  0.25092433  0.91912633  0.04350507  1.0
  Ti  Ti93  1  0.58425767  0.25245967  0.04350507  1.0
  Ti  Ti94  1  0.58425767  0.58579300  0.04350507  1.0
  Ti  Ti95  1  0.58425767  0.91912633  0.04350507  1.0
  Ti  Ti96  1  0.91759100  0.25245967  0.04350507  1.0
  Ti  Ti97  1  0.91759100  0.58579300  0.04350507  1.0
  Ti  Ti98  1  0.91759100  0.91912633  0.04350507  1.0
  Ti  Ti99  1  0.08425767  0.25245967  0.11493364  1.0
  Ti  Ti100  1  0.08425767  0.58579300  0.11493364  1.0
  Ti  Ti101  1  0.08425767  0.91912633  0.11493364  1.0
  Ti  Ti102  1  0.41759100  0.25245967  0.11493364  1.0
  Ti  Ti103  1  0.41759100  0.58579300  0.11493364  1.0
  Ti  Ti104  1  0.41759100  0.91912633  0.11493364  1.0
  Ti  Ti105  1  0.75092433  0.25245967  0.11493364  1.0
  Ti  Ti106  1  0.75092433  0.58579300  0.11493364  1.0
  Ti  Ti107  1  0.75092433  0.91912633  0.11493364  1.0
  Ni  Ni108  1  0.20938783  0.19484133  0.11012971  1.0
  Ni  Ni109  1  0.20938783  0.52817467  0.11012971  1.0
  Ni  Ni110  1  0.20938783  0.86150800  0.11012971  1.0
  Ni  Ni111  1  0.54272117  0.19484133  0.11012971  1.0
  Ni  Ni112  1  0.54272117  0.52817467  0.11012971  1.0
  Ni  Ni113  1  0.54272117  0.86150800  0.11012971  1.0
  Ni  Ni114  1  0.87605450  0.19484133  0.11012971  1.0
  Ni  Ni115  1  0.87605450  0.52817467  0.11012971  1.0
  Ni  Ni116  1  0.87605450  0.86150800  0.11012971  1.0
  Ni  Ni117  1  0.04272117  0.19484133  0.03870114  1.0
  Ni  Ni118  1  0.04272117  0.52817467  0.03870114  1.0
  Ni  Ni119  1  0.04272117  0.86150800  0.03870114  1.0
  Ni  Ni120  1  0.37605450  0.19484133  0.03870114  1.0
  Ni  Ni121  1  0.37605450  0.52817467  0.03870114  1.0
  Ni  Ni122  1  0.37605450  0.86150800  0.03870114  1.0
  Ni  Ni123  1  0.70938783  0.19484133  0.03870114  1.0
  Ni  Ni124  1  0.70938783  0.52817467  0.03870114  1.0
  Ni  Ni125  1  0.70938783  0.86150800  0.03870114  1.0
  Ni  Ni126  1  0.29061217  0.13849200  0.08224900  1.0
  Ni  Ni127  1  0.29061217  0.47182533  0.08224900  1.0
  Ni  Ni128  1  0.29061217  0.80515867  0.08224900  1.0
  Ni  Ni129  1  0.62394550  0.13849200  0.08224900  1.0
  Ni  Ni130  1  0.62394550  0.47182533  0.08224900  1.0
  Ni  Ni131  1  0.62394550  0.80515867  0.08224900  1.0
  Ni  Ni132  1  0.95727883  0.13849200  0.08224900  1.0
  Ni  Ni133  1  0.95727883  0.47182533  0.08224900  1.0
  Ni  Ni134  1  0.95727883  0.80515867  0.08224900  1.0
  Ni  Ni135  1  0.12394550  0.13849200  0.01082043  1.0
  Ni  Ni136  1  0.12394550  0.47182533  0.01082043  1.0
  Ni  Ni137  1  0.12394550  0.80515867  0.01082043  1.0
  Ni  Ni138  1  0.45727883  0.13849200  0.01082043  1.0
  Ni  Ni139  1  0.45727883  0.47182533  0.01082043  1.0
  Ni  Ni140  1  0.45727883  0.80515867  0.01082043  1.0
  Ni  Ni141  1  0.79061217  0.13849200  0.01082043  1.0
  Ni  Ni142  1  0.79061217  0.47182533  0.01082043  1.0
  Ni  Ni143  1  0.79061217  0.80515867  0.01082043  1.0
  Ni  Ni144  1  0.32328833  0.24789100  0.11347307  1.0
  Ni  Ni145  1  0.32328833  0.58122433  0.11347307  1.0
  Ni  Ni146  1  0.32328833  0.91455767  0.11347307  1.0
  Ni  Ni147  1  0.65662167  0.24789100  0.11347307  1.0
  Ni  Ni148  1  0.65662167  0.58122433  0.11347307  1.0
  Ni  Ni149  1  0.65662167  0.91455767  0.11347307  1.0
  Ni  Ni150  1  0.98995500  0.24789100  0.11347307  1.0
  Ni  Ni151  1  0.98995500  0.58122433  0.11347307  1.0
  Ni  Ni152  1  0.98995500  0.91455767  0.11347307  1.0
  Ni  Ni153  1  0.15662167  0.24789100  0.04204450  1.0
  Ni  Ni154  1  0.15662167  0.58122433  0.04204450  1.0
  Ni  Ni155  1  0.15662167  0.91455767  0.04204450  1.0
  Ni  Ni156  1  0.48995500  0.24789100  0.04204450  1.0
  Ni  Ni157  1  0.48995500  0.58122433  0.04204450  1.0
  Ni  Ni158  1  0.48995500  0.91455767  0.04204450  1.0
  Ni  Ni159  1  0.82328833  0.24789100  0.04204450  1.0
  Ni  Ni160  1  0.82328833  0.58122433  0.04204450  1.0
  Ni  Ni161  1  0.82328833  0.91455767  0.04204450  1.0
  Ni  Ni162  1  0.23591267  0.02009000  0.12842721  1.0
  Ni  Ni163  1  0.23591267  0.35342333  0.12842721  1.0
  Ni  Ni164  1  0.23591267  0.68675667  0.12842721  1.0
  Ni  Ni165  1  0.56924600  0.02009000  0.12842721  1.0
  Ni  Ni166  1  0.56924600  0.35342333  0.12842721  1.0
  Ni  Ni167  1  0.56924600  0.68675667  0.12842721  1.0
  Ni  Ni168  1  0.90257933  0.02009000  0.12842721  1.0
  Ni  Ni169  1  0.90257933  0.35342333  0.12842721  1.0
  Ni  Ni170  1  0.90257933  0.68675667  0.12842721  1.0
  Ni  Ni171  1  0.06924600  0.02009000  0.05699864  1.0
  Ni  Ni172  1  0.06924600  0.35342333  0.05699864  1.0
  Ni  Ni173  1  0.06924600  0.68675667  0.05699864  1.0
  Ni  Ni174  1  0.40257933  0.02009000  0.05699864  1.0
  Ni  Ni175  1  0.40257933  0.35342333  0.05699864  1.0
  Ni  Ni176  1  0.40257933  0.68675667  0.05699864  1.0
  Ni  Ni177  1  0.73591267  0.02009000  0.05699864  1.0
  Ni  Ni178  1  0.73591267  0.35342333  0.05699864  1.0
  Ni  Ni179  1  0.73591267  0.68675667  0.05699864  1.0
  Ni  Ni180  1  0.17671167  0.08544233  0.07890564  1.0
  Ni  Ni181  1  0.17671167  0.41877567  0.07890564  1.0
  Ni  Ni182  1  0.17671167  0.75210900  0.07890564  1.0
  Ni  Ni183  1  0.51004500  0.08544233  0.07890564  1.0
  Ni  Ni184  1  0.51004500  0.41877567  0.07890564  1.0
  Ni  Ni185  1  0.51004500  0.75210900  0.07890564  1.0
  Ni  Ni186  1  0.84337833  0.08544233  0.07890564  1.0
  Ni  Ni187  1  0.84337833  0.41877567  0.07890564  1.0
  Ni  Ni188  1  0.84337833  0.75210900  0.07890564  1.0
  Ni  Ni189  1  0.01004500  0.08544233  0.00747707  1.0
  Ni  Ni190  1  0.01004500  0.41877567  0.00747707  1.0
  Ni  Ni191  1  0.01004500  0.75210900  0.00747707  1.0
  Ni  Ni192  1  0.34337833  0.08544233  0.00747707  1.0
  Ni  Ni193  1  0.34337833  0.41877567  0.00747707  1.0
  Ni  Ni194  1  0.34337833  0.75210900  0.00747707  1.0
  Ni  Ni195  1  0.67671167  0.08544233  0.00747707  1.0
  Ni  Ni196  1  0.67671167  0.41877567  0.00747707  1.0
  Ni  Ni197  1  0.67671167  0.75210900  0.00747707  1.0
  Ni  Ni198  1  0.16666667  0.33333333  0.06047507  1.0
  Ni  Ni199  1  0.16666667  0.66666667  0.06047507  1.0
  Ni  Ni200  1  0.16666667  1.00000000  0.06047507  1.0
  Ni  Ni201  1  0.50000000  0.33333333  0.06047507  1.0
  Ni  Ni202  1  0.50000000  0.66666667  0.06047507  1.0
  Ni  Ni203  1  0.50000000  1.00000000  0.06047507  1.0
  Ni  Ni204  1  0.83333333  0.33333333  0.06047507  1.0
  Ni  Ni205  1  0.83333333  0.66666667  0.06047507  1.0
  Ni  Ni206  1  0.83333333  1.00000000  0.06047507  1.0
  Ni  Ni207  1  0.00000000  0.00000000  0.13190364  1.0
  Ni  Ni208  1  0.00000000  0.33333333  0.13190364  1.0
  Ni  Ni209  1  0.00000000  0.66666667  0.13190364  1.0
  Ni  Ni210  1  0.33333333  0.00000000  0.13190364  1.0
  Ni  Ni211  1  0.33333333  0.33333333  0.13190364  1.0
  Ni  Ni212  1  0.33333333  0.66666667  0.13190364  1.0
  Ni  Ni213  1  0.66666667  0.00000000  0.13190364  1.0
  Ni  Ni214  1  0.66666667  0.33333333  0.13190364  1.0
  Ni  Ni215  1  0.66666667  0.66666667  0.13190364  1.0
  Ni  Ni216  1  0.26408733  0.31324333  0.06395150  1.0
  Ni  Ni217  1  0.26408733  0.64657667  0.06395150  1.0
  Ni  Ni218  1  0.26408733  0.97991000  0.06395150  1.0
  Ni  Ni219  1  0.59742067  0.31324333  0.06395150  1.0
  Ni  Ni220  1  0.59742067  0.64657667  0.06395150  1.0
  Ni  Ni221  1  0.59742067  0.97991000  0.06395150  1.0
  Ni  Ni222  1  0.93075400  0.31324333  0.06395150  1.0
  Ni  Ni223  1  0.93075400  0.64657667  0.06395150  1.0
  Ni  Ni224  1  0.93075400  0.97991000  0.06395150  1.0
  Ni  Ni225  1  0.09742067  0.31324333  0.13538007  1.0
  Ni  Ni226  1  0.09742067  0.64657667  0.13538007  1.0
  Ni  Ni227  1  0.09742067  0.97991000  0.13538007  1.0
  Ni  Ni228  1  0.43075400  0.31324333  0.13538007  1.0
  Ni  Ni229  1  0.43075400  0.64657667  0.13538007  1.0
  Ni  Ni230  1  0.43075400  0.97991000  0.13538007  1.0
  Ni  Ni231  1  0.76408733  0.31324333  0.13538007  1.0
  Ni  Ni232  1  0.76408733  0.64657667  0.13538007  1.0
  Ni  Ni233  1  0.76408733  0.97991000  0.13538007  1.0
  Ni  Ni234  1  0.25000000  0.16666667  0.02476079  1.0
  Ni  Ni235  1  0.25000000  0.50000000  0.02476079  1.0
  Ni  Ni236  1  0.25000000  0.83333333  0.02476079  1.0
  Ni  Ni237  1  0.58333333  0.16666667  0.02476079  1.0
  Ni  Ni238  1  0.58333333  0.50000000  0.02476079  1.0
  Ni  Ni239  1  0.58333333  0.83333333  0.02476079  1.0
  Ni  Ni240  1  0.91666667  0.16666667  0.02476079  1.0
  Ni  Ni241  1  0.91666667  0.50000000  0.02476079  1.0
  Ni  Ni242  1  0.91666667  0.83333333  0.02476079  1.0
  Ni  Ni243  1  0.08333333  0.16666667  0.09618936  1.0
  Ni  Ni244  1  0.08333333  0.50000000  0.09618936  1.0
  Ni  Ni245  1  0.08333333  0.83333333  0.09618936  1.0
  Ni  Ni246  1  0.41666667  0.16666667  0.09618936  1.0
  Ni  Ni247  1  0.41666667  0.50000000  0.09618936  1.0
  Ni  Ni248  1  0.41666667  0.83333333  0.09618936  1.0
  Ni  Ni249  1  0.75000000  0.16666667  0.09618936  1.0
  Ni  Ni250  1  0.75000000  0.50000000  0.09618936  1.0
  Ni  Ni251  1  0.75000000  0.83333333  0.09618936  1.0
  Ti  Ti252  1  0.18477300  0.16481800  0.23313307  1.0
  Ti  Ti253  1  0.18477300  0.49815133  0.23313307  1.0
  Ti  Ti254  1  0.18477300  0.83148467  0.23313307  1.0
  Ti  Ti255  1  0.51810633  0.16481800  0.23313307  1.0
  Ti  Ti256  1  0.51810633  0.49815133  0.23313307  1.0
  Ti  Ti257  1  0.51810633  0.83148467  0.23313307  1.0
  Ti  Ti258  1  0.85143967  0.16481800  0.23313307  1.0
  Ti  Ti259  1  0.85143967  0.49815133  0.23313307  1.0
  Ti  Ti260  1  0.85143967  0.83148467  0.23313307  1.0
  Ti  Ti261  1  0.01810633  0.16481800  0.16170450  1.0
  Ti  Ti262  1  0.01810633  0.49815133  0.16170450  1.0
  Ti  Ti263  1  0.01810633  0.83148467  0.16170450  1.0
  Ti  Ti264  1  0.35143967  0.16481800  0.16170450  1.0
  Ti  Ti265  1  0.35143967  0.49815133  0.16170450  1.0
  Ti  Ti266  1  0.35143967  0.83148467  0.16170450  1.0
  Ti  Ti267  1  0.68477300  0.16481800  0.16170450  1.0
  Ti  Ti268  1  0.68477300  0.49815133  0.16170450  1.0
  Ti  Ti269  1  0.68477300  0.83148467  0.16170450  1.0
  Ti  Ti270  1  0.24907567  0.08087367  0.14887364  1.0
  Ti  Ti271  1  0.24907567  0.41420700  0.14887364  1.0
  Ti  Ti272  1  0.24907567  0.74754033  0.14887364  1.0
  Ti  Ti273  1  0.58240900  0.08087367  0.14887364  1.0
  Ti  Ti274  1  0.58240900  0.41420700  0.14887364  1.0
  Ti  Ti275  1  0.58240900  0.74754033  0.14887364  1.0
  Ti  Ti276  1  0.91574233  0.08087367  0.14887364  1.0
  Ti  Ti277  1  0.91574233  0.41420700  0.14887364  1.0
  Ti  Ti278  1  0.91574233  0.74754033  0.14887364  1.0
  Ti  Ti279  1  0.08240900  0.08087367  0.22030221  1.0
  Ti  Ti280  1  0.08240900  0.41420700  0.22030221  1.0
  Ti  Ti281  1  0.08240900  0.74754033  0.22030221  1.0
  Ti  Ti282  1  0.41574233  0.08087367  0.22030221  1.0
  Ti  Ti283  1  0.41574233  0.41420700  0.22030221  1.0
  Ti  Ti284  1  0.41574233  0.74754033  0.22030221  1.0
  Ti  Ti285  1  0.74907567  0.08087367  0.22030221  1.0
  Ti  Ti286  1  0.74907567  0.41420700  0.22030221  1.0
  Ti  Ti287  1  0.74907567  0.74754033  0.22030221  1.0
  Ti  Ti288  1  0.31522700  0.16851533  0.24495993  1.0
  Ti  Ti289  1  0.31522700  0.50184867  0.24495993  1.0
  Ti  Ti290  1  0.31522700  0.83518200  0.24495993  1.0
  Ti  Ti291  1  0.64856033  0.16851533  0.24495993  1.0
  Ti  Ti292  1  0.64856033  0.50184867  0.24495993  1.0
  Ti  Ti293  1  0.64856033  0.83518200  0.24495993  1.0
  Ti  Ti294  1  0.98189367  0.16851533  0.24495993  1.0
  Ti  Ti295  1  0.98189367  0.50184867  0.24495993  1.0
  Ti  Ti296  1  0.98189367  0.83518200  0.24495993  1.0
  Ti  Ti297  1  0.14856033  0.16851533  0.17353136  1.0
  Ti  Ti298  1  0.14856033  0.50184867  0.17353136  1.0
  Ti  Ti299  1  0.14856033  0.83518200  0.17353136  1.0
  Ti  Ti300  1  0.48189367  0.16851533  0.17353136  1.0
  Ti  Ti301  1  0.48189367  0.50184867  0.17353136  1.0
  Ti  Ti302  1  0.48189367  0.83518200  0.17353136  1.0
  Ti  Ti303  1  0.81522700  0.16851533  0.17353136  1.0
  Ti  Ti304  1  0.81522700  0.50184867  0.17353136  1.0
  Ti  Ti305  1  0.81522700  0.83518200  0.17353136  1.0
  Ti  Ti306  1  0.29289650  0.03621267  0.20593486  1.0
  Ti  Ti307  1  0.29289650  0.36954600  0.20593486  1.0
  Ti  Ti308  1  0.29289650  0.70287933  0.20593486  1.0
  Ti  Ti309  1  0.62622983  0.03621267  0.20593486  1.0
  Ti  Ti310  1  0.62622983  0.36954600  0.20593486  1.0
  Ti  Ti311  1  0.62622983  0.70287933  0.20593486  1.0
  Ti  Ti312  1  0.95956317  0.03621267  0.20593486  1.0
  Ti  Ti313  1  0.95956317  0.36954600  0.20593486  1.0
  Ti  Ti314  1  0.95956317  0.70287933  0.20593486  1.0
  Ti  Ti315  1  0.12622983  0.03621267  0.27736343  1.0
  Ti  Ti316  1  0.12622983  0.36954600  0.27736343  1.0
  Ti  Ti317  1  0.12622983  0.70287933  0.27736343  1.0
  Ti  Ti318  1  0.45956317  0.03621267  0.27736343  1.0
  Ti  Ti319  1  0.45956317  0.36954600  0.27736343  1.0
  Ti  Ti320  1  0.45956317  0.70287933  0.27736343  1.0
  Ti  Ti321  1  0.79289650  0.03621267  0.27736343  1.0
  Ti  Ti322  1  0.79289650  0.36954600  0.27736343  1.0
  Ti  Ti323  1  0.79289650  0.70287933  0.27736343  1.0
  Ti  Ti324  1  0.20710350  0.29712067  0.27215814  1.0
  Ti  Ti325  1  0.20710350  0.63045400  0.27215814  1.0
  Ti  Ti326  1  0.20710350  0.96378733  0.27215814  1.0
  Ti  Ti327  1  0.54043683  0.29712067  0.27215814  1.0
  Ti  Ti328  1  0.54043683  0.63045400  0.27215814  1.0
  Ti  Ti329  1  0.54043683  0.96378733  0.27215814  1.0
  Ti  Ti330  1  0.87377017  0.29712067  0.27215814  1.0
  Ti  Ti331  1  0.87377017  0.63045400  0.27215814  1.0
  Ti  Ti332  1  0.87377017  0.96378733  0.27215814  1.0
  Ti  Ti333  1  0.04043683  0.29712067  0.20072957  1.0
  Ti  Ti334  1  0.04043683  0.63045400  0.20072957  1.0
  Ti  Ti335  1  0.04043683  0.96378733  0.20072957  1.0
  Ti  Ti336  1  0.37377017  0.29712067  0.20072957  1.0
  Ti  Ti337  1  0.37377017  0.63045400  0.20072957  1.0
  Ti  Ti338  1  0.37377017  0.96378733  0.20072957  1.0
  Ti  Ti339  1  0.70710350  0.29712067  0.20072957  1.0
  Ti  Ti340  1  0.70710350  0.63045400  0.20072957  1.0
  Ti  Ti341  1  0.70710350  0.96378733  0.20072957  1.0
  Ti  Ti342  1  0.25092433  0.25245967  0.18636221  1.0
  Ti  Ti343  1  0.25092433  0.58579300  0.18636221  1.0
  Ti  Ti344  1  0.25092433  0.91912633  0.18636221  1.0
  Ti  Ti345  1  0.58425767  0.25245967  0.18636221  1.0
  Ti  Ti346  1  0.58425767  0.58579300  0.18636221  1.0
  Ti  Ti347  1  0.58425767  0.91912633  0.18636221  1.0
  Ti  Ti348  1  0.91759100  0.25245967  0.18636221  1.0
  Ti  Ti349  1  0.91759100  0.58579300  0.18636221  1.0
  Ti  Ti350  1  0.91759100  0.91912633  0.18636221  1.0
  Ti  Ti351  1  0.08425767  0.25245967  0.25779079  1.0
  Ti  Ti352  1  0.08425767  0.58579300  0.25779079  1.0
  Ti  Ti353  1  0.08425767  0.91912633  0.25779079  1.0
  Ti  Ti354  1  0.41759100  0.25245967  0.25779079  1.0
  Ti  Ti355  1  0.41759100  0.58579300  0.25779079  1.0
  Ti  Ti356  1  0.41759100  0.91912633  0.25779079  1.0
  Ti  Ti357  1  0.75092433  0.25245967  0.25779079  1.0
  Ti  Ti358  1  0.75092433  0.58579300  0.25779079  1.0
  Ti  Ti359  1  0.75092433  0.91912633  0.25779079  1.0
  Ni  Ni360  1  0.20938783  0.19484133  0.25298686  1.0
  Ni  Ni361  1  0.20938783  0.52817467  0.25298686  1.0
  Ni  Ni362  1  0.20938783  0.86150800  0.25298686  1.0
  Ni  Ni363  1  0.54272117  0.19484133  0.25298686  1.0
  Ni  Ni364  1  0.54272117  0.52817467  0.25298686  1.0
  Ni  Ni365  1  0.54272117  0.86150800  0.25298686  1.0
  Ni  Ni366  1  0.87605450  0.19484133  0.25298686  1.0
  Ni  Ni367  1  0.87605450  0.52817467  0.25298686  1.0
  Ni  Ni368  1  0.87605450  0.86150800  0.25298686  1.0
  Ni  Ni369  1  0.04272117  0.19484133  0.18155829  1.0
  Ni  Ni370  1  0.04272117  0.52817467  0.18155829  1.0
  Ni  Ni371  1  0.04272117  0.86150800  0.18155829  1.0
  Ni  Ni372  1  0.37605450  0.19484133  0.18155829  1.0
  Ni  Ni373  1  0.37605450  0.52817467  0.18155829  1.0
  Ni  Ni374  1  0.37605450  0.86150800  0.18155829  1.0
  Ni  Ni375  1  0.70938783  0.19484133  0.18155829  1.0
  Ni  Ni376  1  0.70938783  0.52817467  0.18155829  1.0
  Ni  Ni377  1  0.70938783  0.86150800  0.18155829  1.0
  Ni  Ni378  1  0.29061217  0.13849200  0.22510614  1.0
  Ni  Ni379  1  0.29061217  0.47182533  0.22510614  1.0
  Ni  Ni380  1  0.29061217  0.80515867  0.22510614  1.0
  Ni  Ni381  1  0.62394550  0.13849200  0.22510614  1.0
  Ni  Ni382  1  0.62394550  0.47182533  0.22510614  1.0
  Ni  Ni383  1  0.62394550  0.80515867  0.22510614  1.0
  Ni  Ni384  1  0.95727883  0.13849200  0.22510614  1.0
  Ni  Ni385  1  0.95727883  0.47182533  0.22510614  1.0
  Ni  Ni386  1  0.95727883  0.80515867  0.22510614  1.0
  Ni  Ni387  1  0.12394550  0.13849200  0.15367757  1.0
  Ni  Ni388  1  0.12394550  0.47182533  0.15367757  1.0
  Ni  Ni389  1  0.12394550  0.80515867  0.15367757  1.0
  Ni  Ni390  1  0.45727883  0.13849200  0.15367757  1.0
  Ni  Ni391  1  0.45727883  0.47182533  0.15367757  1.0
  Ni  Ni392  1  0.45727883  0.80515867  0.15367757  1.0
  Ni  Ni393  1  0.79061217  0.13849200  0.15367757  1.0
  Ni  Ni394  1  0.79061217  0.47182533  0.15367757  1.0
  Ni  Ni395  1  0.79061217  0.80515867  0.15367757  1.0
  Ni  Ni396  1  0.32328833  0.24789100  0.25633021  1.0
  Ni  Ni397  1  0.32328833  0.58122433  0.25633021  1.0
  Ni  Ni398  1  0.32328833  0.91455767  0.25633021  1.0
  Ni  Ni399  1  0.65662167  0.24789100  0.25633021  1.0
  Ni  Ni400  1  0.65662167  0.58122433  0.25633021  1.0
  Ni  Ni401  1  0.65662167  0.91455767  0.25633021  1.0
  Ni  Ni402  1  0.98995500  0.24789100  0.25633021  1.0
  Ni  Ni403  1  0.98995500  0.58122433  0.25633021  1.0
  Ni  Ni404  1  0.98995500  0.91455767  0.25633021  1.0
  Ni  Ni405  1  0.15662167  0.24789100  0.18490164  1.0
  Ni  Ni406  1  0.15662167  0.58122433  0.18490164  1.0
  Ni  Ni407  1  0.15662167  0.91455767  0.18490164  1.0
  Ni  Ni408  1  0.48995500  0.24789100  0.18490164  1.0
  Ni  Ni409  1  0.48995500  0.58122433  0.18490164  1.0
  Ni  Ni410  1  0.48995500  0.91455767  0.18490164  1.0
  Ni  Ni411  1  0.82328833  0.24789100  0.18490164  1.0
  Ni  Ni412  1  0.82328833  0.58122433  0.18490164  1.0
  Ni  Ni413  1  0.82328833  0.91455767  0.18490164  1.0
  Ni  Ni414  1  0.23591267  0.02009000  0.27128436  1.0
  Ni  Ni415  1  0.23591267  0.35342333  0.27128436  1.0
  Ni  Ni416  1  0.23591267  0.68675667  0.27128436  1.0
  Ni  Ni417  1  0.56924600  0.02009000  0.27128436  1.0
  Ni  Ni418  1  0.56924600  0.35342333  0.27128436  1.0
  Ni  Ni419  1  0.56924600  0.68675667  0.27128436  1.0
  Ni  Ni420  1  0.90257933  0.02009000  0.27128436  1.0
  Ni  Ni421  1  0.90257933  0.35342333  0.27128436  1.0
  Ni  Ni422  1  0.90257933  0.68675667  0.27128436  1.0
  Ni  Ni423  1  0.06924600  0.02009000  0.19985579  1.0
  Ni  Ni424  1  0.06924600  0.35342333  0.19985579  1.0
  Ni  Ni425  1  0.06924600  0.68675667  0.19985579  1.0
  Ni  Ni426  1  0.40257933  0.02009000  0.19985579  1.0
  Ni  Ni427  1  0.40257933  0.35342333  0.19985579  1.0
  Ni  Ni428  1  0.40257933  0.68675667  0.19985579  1.0
  Ni  Ni429  1  0.73591267  0.02009000  0.19985579  1.0
  Ni  Ni430  1  0.73591267  0.35342333  0.19985579  1.0
  Ni  Ni431  1  0.73591267  0.68675667  0.19985579  1.0
  Ni  Ni432  1  0.17671167  0.08544233  0.22176279  1.0
  Ni  Ni433  1  0.17671167  0.41877567  0.22176279  1.0
  Ni  Ni434  1  0.17671167  0.75210900  0.22176279  1.0
  Ni  Ni435  1  0.51004500  0.08544233  0.22176279  1.0
  Ni  Ni436  1  0.51004500  0.41877567  0.22176279  1.0
  Ni  Ni437  1  0.51004500  0.75210900  0.22176279  1.0
  Ni  Ni438  1  0.84337833  0.08544233  0.22176279  1.0
  Ni  Ni439  1  0.84337833  0.41877567  0.22176279  1.0
  Ni  Ni440  1  0.84337833  0.75210900  0.22176279  1.0
  Ni  Ni441  1  0.01004500  0.08544233  0.15033421  1.0
  Ni  Ni442  1  0.01004500  0.41877567  0.15033421  1.0
  Ni  Ni443  1  0.01004500  0.75210900  0.15033421  1.0
  Ni  Ni444  1  0.34337833  0.08544233  0.15033421  1.0
  Ni  Ni445  1  0.34337833  0.41877567  0.15033421  1.0
  Ni  Ni446  1  0.34337833  0.75210900  0.15033421  1.0
  Ni  Ni447  1  0.67671167  0.08544233  0.15033421  1.0
  Ni  Ni448  1  0.67671167  0.41877567  0.15033421  1.0
  Ni  Ni449  1  0.67671167  0.75210900  0.15033421  1.0
  Ni  Ni450  1  0.16666667  0.33333333  0.20333221  1.0
  Ni  Ni451  1  0.16666667  0.66666667  0.20333221  1.0
  Ni  Ni452  1  0.16666667  1.00000000  0.20333221  1.0
  Ni  Ni453  1  0.50000000  0.33333333  0.20333221  1.0
  Ni  Ni454  1  0.50000000  0.66666667  0.20333221  1.0
  Ni  Ni455  1  0.50000000  1.00000000  0.20333221  1.0
  Ni  Ni456  1  0.83333333  0.33333333  0.20333221  1.0
  Ni  Ni457  1  0.83333333  0.66666667  0.20333221  1.0
  Ni  Ni458  1  0.83333333  1.00000000  0.20333221  1.0
  Ni  Ni459  1  0.00000000  0.00000000  0.27476079  1.0
  Ni  Ni460  1  0.00000000  0.33333333  0.27476079  1.0
  Ni  Ni461  1  0.00000000  0.66666667  0.27476079  1.0
  Ni  Ni462  1  0.33333333  0.00000000  0.27476079  1.0
  Ni  Ni463  1  0.33333333  0.33333333  0.27476079  1.0
  Ni  Ni464  1  0.33333333  0.66666667  0.27476079  1.0
  Ni  Ni465  1  0.66666667  0.00000000  0.27476079  1.0
  Ni  Ni466  1  0.66666667  0.33333333  0.27476079  1.0
  Ni  Ni467  1  0.66666667  0.66666667  0.27476079  1.0
  Ni  Ni468  1  0.26408733  0.31324333  0.20680864  1.0
  Ni  Ni469  1  0.26408733  0.64657667  0.20680864  1.0
  Ni  Ni470  1  0.26408733  0.97991000  0.20680864  1.0
  Ni  Ni471  1  0.59742067  0.31324333  0.20680864  1.0
  Ni  Ni472  1  0.59742067  0.64657667  0.20680864  1.0
  Ni  Ni473  1  0.59742067  0.97991000  0.20680864  1.0
  Ni  Ni474  1  0.93075400  0.31324333  0.20680864  1.0
  Ni  Ni475  1  0.93075400  0.64657667  0.20680864  1.0
  Ni  Ni476  1  0.93075400  0.97991000  0.20680864  1.0
  Ni  Ni477  1  0.09742067  0.31324333  0.27823721  1.0
  Ni  Ni478  1  0.09742067  0.64657667  0.27823721  1.0
  Ni  Ni479  1  0.09742067  0.97991000  0.27823721  1.0
  Ni  Ni480  1  0.43075400  0.31324333  0.27823721  1.0
  Ni  Ni481  1  0.43075400  0.64657667  0.27823721  1.0
  Ni  Ni482  1  0.43075400  0.97991000  0.27823721  1.0
  Ni  Ni483  1  0.76408733  0.31324333  0.27823721  1.0
  Ni  Ni484  1  0.76408733  0.64657667  0.27823721  1.0
  Ni  Ni485  1  0.76408733  0.97991000  0.27823721  1.0
  Ni  Ni486  1  0.25000000  0.16666667  0.16761793  1.0
  Ni  Ni487  1  0.25000000  0.50000000  0.16761793  1.0
  Ni  Ni488  1  0.25000000  0.83333333  0.16761793  1.0
  Ni  Ni489  1  0.58333333  0.16666667  0.16761793  1.0
  Ni  Ni490  1  0.58333333  0.50000000  0.16761793  1.0
  Ni  Ni491  1  0.58333333  0.83333333  0.16761793  1.0
  Ni  Ni492  1  0.91666667  0.16666667  0.16761793  1.0
  Ni  Ni493  1  0.91666667  0.50000000  0.16761793  1.0
  Ni  Ni494  1  0.91666667  0.83333333  0.16761793  1.0
  Ni  Ni495  1  0.08333333  0.16666667  0.23904650  1.0
  Ni  Ni496  1  0.08333333  0.50000000  0.23904650  1.0
  Ni  Ni497  1  0.08333333  0.83333333  0.23904650  1.0
  Ni  Ni498  1  0.41666667  0.16666667  0.23904650  1.0
  Ni  Ni499  1  0.41666667  0.50000000  0.23904650  1.0
  Ni  Ni500  1  0.41666667  0.83333333  0.23904650  1.0
  Ni  Ni501  1  0.75000000  0.16666667  0.23904650  1.0
  Ni  Ni502  1  0.75000000  0.50000000  0.23904650  1.0
  Ni  Ni503  1  0.75000000  0.83333333  0.23904650  1.0
  Ti  Ti504  1  0.18477300  0.16481800  0.37599021  1.0
  Ti  Ti505  1  0.18477300  0.49815133  0.37599021  1.0
  Ti  Ti506  1  0.18477300  0.83148467  0.37599021  1.0
  Ti  Ti507  1  0.51810633  0.16481800  0.37599021  1.0
  Ti  Ti508  1  0.51810633  0.49815133  0.37599021  1.0
  Ti  Ti509  1  0.51810633  0.83148467  0.37599021  1.0
  Ti  Ti510  1  0.85143967  0.16481800  0.37599021  1.0
  Ti  Ti511  1  0.85143967  0.49815133  0.37599021  1.0
  Ti  Ti512  1  0.85143967  0.83148467  0.37599021  1.0
  Ti  Ti513  1  0.01810633  0.16481800  0.30456164  1.0
  Ti  Ti514  1  0.01810633  0.49815133  0.30456164  1.0
  Ti  Ti515  1  0.01810633  0.83148467  0.30456164  1.0
  Ti  Ti516  1  0.35143967  0.16481800  0.30456164  1.0
  Ti  Ti517  1  0.35143967  0.49815133  0.30456164  1.0
  Ti  Ti518  1  0.35143967  0.83148467  0.30456164  1.0
  Ti  Ti519  1  0.68477300  0.16481800  0.30456164  1.0
  Ti  Ti520  1  0.68477300  0.49815133  0.30456164  1.0
  Ti  Ti521  1  0.68477300  0.83148467  0.30456164  1.0
  Ti  Ti522  1  0.24907567  0.08087367  0.29173079  1.0
  Ti  Ti523  1  0.24907567  0.41420700  0.29173079  1.0
  Ti  Ti524  1  0.24907567  0.74754033  0.29173079  1.0
  Ti  Ti525  1  0.58240900  0.08087367  0.29173079  1.0
  Ti  Ti526  1  0.58240900  0.41420700  0.29173079  1.0
  Ti  Ti527  1  0.58240900  0.74754033  0.29173079  1.0
  Ti  Ti528  1  0.91574233  0.08087367  0.29173079  1.0
  Ti  Ti529  1  0.91574233  0.41420700  0.29173079  1.0
  Ti  Ti530  1  0.91574233  0.74754033  0.29173079  1.0
  Ti  Ti531  1  0.08240900  0.08087367  0.36315936  1.0
  Ti  Ti532  1  0.08240900  0.41420700  0.36315936  1.0
  Ti  Ti533  1  0.08240900  0.74754033  0.36315936  1.0
  Ti  Ti534  1  0.41574233  0.08087367  0.36315936  1.0
  Ti  Ti535  1  0.41574233  0.41420700  0.36315936  1.0
  Ti  Ti536  1  0.41574233  0.74754033  0.36315936  1.0
  Ti  Ti537  1  0.74907567  0.08087367  0.36315936  1.0
  Ti  Ti538  1  0.74907567  0.41420700  0.36315936  1.0
  Ti  Ti539  1  0.74907567  0.74754033  0.36315936  1.0
  Ti  Ti540  1  0.31522700  0.16851533  0.38781707  1.0
  Ti  Ti541  1  0.31522700  0.50184867  0.38781707  1.0
  Ti  Ti542  1  0.31522700  0.83518200  0.38781707  1.0
  Ti  Ti543  1  0.64856033  0.16851533  0.38781707  1.0
  Ti  Ti544  1  0.64856033  0.50184867  0.38781707  1.0
  Ti  Ti545  1  0.64856033  0.83518200  0.38781707  1.0
  Ti  Ti546  1  0.98189367  0.16851533  0.38781707  1.0
  Ti  Ti547  1  0.98189367  0.50184867  0.38781707  1.0
  Ti  Ti548  1  0.98189367  0.83518200  0.38781707  1.0
  Ti  Ti549  1  0.14856033  0.16851533  0.31638850  1.0
  Ti  Ti550  1  0.14856033  0.50184867  0.31638850  1.0
  Ti  Ti551  1  0.14856033  0.83518200  0.31638850  1.0
  Ti  Ti552  1  0.48189367  0.16851533  0.31638850  1.0
  Ti  Ti553  1  0.48189367  0.50184867  0.31638850  1.0
  Ti  Ti554  1  0.48189367  0.83518200  0.31638850  1.0
  Ti  Ti555  1  0.81522700  0.16851533  0.31638850  1.0
  Ti  Ti556  1  0.81522700  0.50184867  0.31638850  1.0
  Ti  Ti557  1  0.81522700  0.83518200  0.31638850  1.0
  Ti  Ti558  1  0.29289650  0.03621267  0.34879200  1.0
  Ti  Ti559  1  0.29289650  0.36954600  0.34879200  1.0
  Ti  Ti560  1  0.29289650  0.70287933  0.34879200  1.0
  Ti  Ti561  1  0.62622983  0.03621267  0.34879200  1.0
  Ti  Ti562  1  0.62622983  0.36954600  0.34879200  1.0
  Ti  Ti563  1  0.62622983  0.70287933  0.34879200  1.0
  Ti  Ti564  1  0.95956317  0.03621267  0.34879200  1.0
  Ti  Ti565  1  0.95956317  0.36954600  0.34879200  1.0
  Ti  Ti566  1  0.95956317  0.70287933  0.34879200  1.0
  Ti  Ti567  1  0.12622983  0.03621267  0.42022057  1.0
  Ti  Ti568  1  0.12622983  0.36954600  0.42022057  1.0
  Ti  Ti569  1  0.12622983  0.70287933  0.42022057  1.0
  Ti  Ti570  1  0.45956317  0.03621267  0.42022057  1.0
  Ti  Ti571  1  0.45956317  0.36954600  0.42022057  1.0
  Ti  Ti572  1  0.45956317  0.70287933  0.42022057  1.0
  Ti  Ti573  1  0.79289650  0.03621267  0.42022057  1.0
  Ti  Ti574  1  0.79289650  0.36954600  0.42022057  1.0
  Ti  Ti575  1  0.79289650  0.70287933  0.42022057  1.0
  Ti  Ti576  1  0.20710350  0.29712067  0.41501529  1.0
  Ti  Ti577  1  0.20710350  0.63045400  0.41501529  1.0
  Ti  Ti578  1  0.20710350  0.96378733  0.41501529  1.0
  Ti  Ti579  1  0.54043683  0.29712067  0.41501529  1.0
  Ti  Ti580  1  0.54043683  0.63045400  0.41501529  1.0
  Ti  Ti581  1  0.54043683  0.96378733  0.41501529  1.0
  Ti  Ti582  1  0.87377017  0.29712067  0.41501529  1.0
  Ti  Ti583  1  0.87377017  0.63045400  0.41501529  1.0
  Ti  Ti584  1  0.87377017  0.96378733  0.41501529  1.0
  Ti  Ti585  1  0.04043683  0.29712067  0.34358671  1.0
  Ti  Ti586  1  0.04043683  0.63045400  0.34358671  1.0
  Ti  Ti587  1  0.04043683  0.96378733  0.34358671  1.0
  Ti  Ti588  1  0.37377017  0.29712067  0.34358671  1.0
  Ti  Ti589  1  0.37377017  0.63045400  0.34358671  1.0
  Ti  Ti590  1  0.37377017  0.96378733  0.34358671  1.0
  Ti  Ti591  1  0.70710350  0.29712067  0.34358671  1.0
  Ti  Ti592  1  0.70710350  0.63045400  0.34358671  1.0
  Ti  Ti593  1  0.70710350  0.96378733  0.34358671  1.0
  Ti  Ti594  1  0.25092433  0.25245967  0.32921936  1.0
  Ti  Ti595  1  0.25092433  0.58579300  0.32921936  1.0
  Ti  Ti596  1  0.25092433  0.91912633  0.32921936  1.0
  Ti  Ti597  1  0.58425767  0.25245967  0.32921936  1.0
  Ti  Ti598  1  0.58425767  0.58579300  0.32921936  1.0
  Ti  Ti599  1  0.58425767  0.91912633  0.32921936  1.0
  Ti  Ti600  1  0.91759100  0.25245967  0.32921936  1.0
  Ti  Ti601  1  0.91759100  0.58579300  0.32921936  1.0
  Ti  Ti602  1  0.91759100  0.91912633  0.32921936  1.0
  Ti  Ti603  1  0.08425767  0.25245967  0.40064793  1.0
  Ti  Ti604  1  0.08425767  0.58579300  0.40064793  1.0
  Ti  Ti605  1  0.08425767  0.91912633  0.40064793  1.0
  Ti  Ti606  1  0.41759100  0.25245967  0.40064793  1.0
  Ti  Ti607  1  0.41759100  0.58579300  0.40064793  1.0
  Ti  Ti608  1  0.41759100  0.91912633  0.40064793  1.0
  Ti  Ti609  1  0.75092433  0.25245967  0.40064793  1.0
  Ti  Ti610  1  0.75092433  0.58579300  0.40064793  1.0
  Ti  Ti611  1  0.75092433  0.91912633  0.40064793  1.0
  Ni  Ni612  1  0.20938783  0.19484133  0.39584400  1.0
  Ni  Ni613  1  0.20938783  0.52817467  0.39584400  1.0
  Ni  Ni614  1  0.20938783  0.86150800  0.39584400  1.0
  Ni  Ni615  1  0.54272117  0.19484133  0.39584400  1.0
  Ni  Ni616  1  0.54272117  0.52817467  0.39584400  1.0
  Ni  Ni617  1  0.54272117  0.86150800  0.39584400  1.0
  Ni  Ni618  1  0.87605450  0.19484133  0.39584400  1.0
  Ni  Ni619  1  0.87605450  0.52817467  0.39584400  1.0
  Ni  Ni620  1  0.87605450  0.86150800  0.39584400  1.0
  Ni  Ni621  1  0.04272117  0.19484133  0.32441543  1.0
  Ni  Ni622  1  0.04272117  0.52817467  0.32441543  1.0
  Ni  Ni623  1  0.04272117  0.86150800  0.32441543  1.0
  Ni  Ni624  1  0.37605450  0.19484133  0.32441543  1.0
  Ni  Ni625  1  0.37605450  0.52817467  0.32441543  1.0
  Ni  Ni626  1  0.37605450  0.86150800  0.32441543  1.0
  Ni  Ni627  1  0.70938783  0.19484133  0.32441543  1.0
  Ni  Ni628  1  0.70938783  0.52817467  0.32441543  1.0
  Ni  Ni629  1  0.70938783  0.86150800  0.32441543  1.0
  Ni  Ni630  1  0.29061217  0.13849200  0.36796329  1.0
  Ni  Ni631  1  0.29061217  0.47182533  0.36796329  1.0
  Ni  Ni632  1  0.29061217  0.80515867  0.36796329  1.0
  Ni  Ni633  1  0.62394550  0.13849200  0.36796329  1.0
  Ni  Ni634  1  0.62394550  0.47182533  0.36796329  1.0
  Ni  Ni635  1  0.62394550  0.80515867  0.36796329  1.0
  Ni  Ni636  1  0.95727883  0.13849200  0.36796329  1.0
  Ni  Ni637  1  0.95727883  0.47182533  0.36796329  1.0
  Ni  Ni638  1  0.95727883  0.80515867  0.36796329  1.0
  Ni  Ni639  1  0.12394550  0.13849200  0.29653471  1.0
  Ni  Ni640  1  0.12394550  0.47182533  0.29653471  1.0
  Ni  Ni641  1  0.12394550  0.80515867  0.29653471  1.0
  Ni  Ni642  1  0.45727883  0.13849200  0.29653471  1.0
  Ni  Ni643  1  0.45727883  0.47182533  0.29653471  1.0
  Ni  Ni644  1  0.45727883  0.80515867  0.29653471  1.0
  Ni  Ni645  1  0.79061217  0.13849200  0.29653471  1.0
  Ni  Ni646  1  0.79061217  0.47182533  0.29653471  1.0
  Ni  Ni647  1  0.79061217  0.80515867  0.29653471  1.0
  Ni  Ni648  1  0.32328833  0.24789100  0.39918736  1.0
  Ni  Ni649  1  0.32328833  0.58122433  0.39918736  1.0
  Ni  Ni650  1  0.32328833  0.91455767  0.39918736  1.0
  Ni  Ni651  1  0.65662167  0.24789100  0.39918736  1.0
  Ni  Ni652  1  0.65662167  0.58122433  0.39918736  1.0
  Ni  Ni653  1  0.65662167  0.91455767  0.39918736  1.0
  Ni  Ni654  1  0.98995500  0.24789100  0.39918736  1.0
  Ni  Ni655  1  0.98995500  0.58122433  0.39918736  1.0
  Ni  Ni656  1  0.98995500  0.91455767  0.39918736  1.0
  Ni  Ni657  1  0.15662167  0.24789100  0.32775879  1.0
  Ni  Ni658  1  0.15662167  0.58122433  0.32775879  1.0
  Ni  Ni659  1  0.15662167  0.91455767  0.32775879  1.0
  Ni  Ni660  1  0.48995500  0.24789100  0.32775879  1.0
  Ni  Ni661  1  0.48995500  0.58122433  0.32775879  1.0
  Ni  Ni662  1  0.48995500  0.91455767  0.32775879  1.0
  Ni  Ni663  1  0.82328833  0.24789100  0.32775879  1.0
  Ni  Ni664  1  0.82328833  0.58122433  0.32775879  1.0
  Ni  Ni665  1  0.82328833  0.91455767  0.32775879  1.0
  Ni  Ni666  1  0.23591267  0.02009000  0.41414150  1.0
  Ni  Ni667  1  0.23591267  0.35342333  0.41414150  1.0
  Ni  Ni668  1  0.23591267  0.68675667  0.41414150  1.0
  Ni  Ni669  1  0.56924600  0.02009000  0.41414150  1.0
  Ni  Ni670  1  0.56924600  0.35342333  0.41414150  1.0
  Ni  Ni671  1  0.56924600  0.68675667  0.41414150  1.0
  Ni  Ni672  1  0.90257933  0.02009000  0.41414150  1.0
  Ni  Ni673  1  0.90257933  0.35342333  0.41414150  1.0
  Ni  Ni674  1  0.90257933  0.68675667  0.41414150  1.0
  Ni  Ni675  1  0.06924600  0.02009000  0.34271293  1.0
  Ni  Ni676  1  0.06924600  0.35342333  0.34271293  1.0
  Ni  Ni677  1  0.06924600  0.68675667  0.34271293  1.0
  Ni  Ni678  1  0.40257933  0.02009000  0.34271293  1.0
  Ni  Ni679  1  0.40257933  0.35342333  0.34271293  1.0
  Ni  Ni680  1  0.40257933  0.68675667  0.34271293  1.0
  Ni  Ni681  1  0.73591267  0.02009000  0.34271293  1.0
  Ni  Ni682  1  0.73591267  0.35342333  0.34271293  1.0
  Ni  Ni683  1  0.73591267  0.68675667  0.34271293  1.0
  Ni  Ni684  1  0.17671167  0.08544233  0.36461993  1.0
  Ni  Ni685  1  0.17671167  0.41877567  0.36461993  1.0
  Ni  Ni686  1  0.17671167  0.75210900  0.36461993  1.0
  Ni  Ni687  1  0.51004500  0.08544233  0.36461993  1.0
  Ni  Ni688  1  0.51004500  0.41877567  0.36461993  1.0
  Ni  Ni689  1  0.51004500  0.75210900  0.36461993  1.0
  Ni  Ni690  1  0.84337833  0.08544233  0.36461993  1.0
  Ni  Ni691  1  0.84337833  0.41877567  0.36461993  1.0
  Ni  Ni692  1  0.84337833  0.75210900  0.36461993  1.0
  Ni  Ni693  1  0.01004500  0.08544233  0.29319136  1.0
  Ni  Ni694  1  0.01004500  0.41877567  0.29319136  1.0
  Ni  Ni695  1  0.01004500  0.75210900  0.29319136  1.0
  Ni  Ni696  1  0.34337833  0.08544233  0.29319136  1.0
  Ni  Ni697  1  0.34337833  0.41877567  0.29319136  1.0
  Ni  Ni698  1  0.34337833  0.75210900  0.29319136  1.0
  Ni  Ni699  1  0.67671167  0.08544233  0.29319136  1.0
  Ni  Ni700  1  0.67671167  0.41877567  0.29319136  1.0
  Ni  Ni701  1  0.67671167  0.75210900  0.29319136  1.0
  Ni  Ni702  1  0.16666667  0.33333333  0.34618936  1.0
  Ni  Ni703  1  0.16666667  0.66666667  0.34618936  1.0
  Ni  Ni704  1  0.16666667  1.00000000  0.34618936  1.0
  Ni  Ni705  1  0.50000000  0.33333333  0.34618936  1.0
  Ni  Ni706  1  0.50000000  0.66666667  0.34618936  1.0
  Ni  Ni707  1  0.50000000  1.00000000  0.34618936  1.0
  Ni  Ni708  1  0.83333333  0.33333333  0.34618936  1.0
  Ni  Ni709  1  0.83333333  0.66666667  0.34618936  1.0
  Ni  Ni710  1  0.83333333  1.00000000  0.34618936  1.0
  Ni  Ni711  1  0.00000000  0.00000000  0.41761793  1.0
  Ni  Ni712  1  0.00000000  0.33333333  0.41761793  1.0
  Ni  Ni713  1  0.00000000  0.66666667  0.41761793  1.0
  Ni  Ni714  1  0.33333333  0.00000000  0.41761793  1.0
  Ni  Ni715  1  0.33333333  0.33333333  0.41761793  1.0
  Ni  Ni716  1  0.33333333  0.66666667  0.41761793  1.0
  Ni  Ni717  1  0.66666667  0.00000000  0.41761793  1.0
  Ni  Ni718  1  0.66666667  0.33333333  0.41761793  1.0
  Ni  Ni719  1  0.66666667  0.66666667  0.41761793  1.0
  Ni  Ni720  1  0.26408733  0.31324333  0.34966579  1.0
  Ni  Ni721  1  0.26408733  0.64657667  0.34966579  1.0
  Ni  Ni722  1  0.26408733  0.97991000  0.34966579  1.0
  Ni  Ni723  1  0.59742067  0.31324333  0.34966579  1.0
  Ni  Ni724  1  0.59742067  0.64657667  0.34966579  1.0
  Ni  Ni725  1  0.59742067  0.97991000  0.34966579  1.0
  Ni  Ni726  1  0.93075400  0.31324333  0.34966579  1.0
  Ni  Ni727  1  0.93075400  0.64657667  0.34966579  1.0
  Ni  Ni728  1  0.93075400  0.97991000  0.34966579  1.0
  Ni  Ni729  1  0.09742067  0.31324333  0.42109436  1.0
  Ni  Ni730  1  0.09742067  0.64657667  0.42109436  1.0
  Ni  Ni731  1  0.09742067  0.97991000  0.42109436  1.0
  Ni  Ni732  1  0.43075400  0.31324333  0.42109436  1.0
  Ni  Ni733  1  0.43075400  0.64657667  0.42109436  1.0
  Ni  Ni734  1  0.43075400  0.97991000  0.42109436  1.0
  Ni  Ni735  1  0.76408733  0.31324333  0.42109436  1.0
  Ni  Ni736  1  0.76408733  0.64657667  0.42109436  1.0
  Ni  Ni737  1  0.76408733  0.97991000  0.42109436  1.0
  Ni  Ni738  1  0.25000000  0.16666667  0.31047507  1.0
  Ni  Ni739  1  0.25000000  0.50000000  0.31047507  1.0
  Ni  Ni740  1  0.25000000  0.83333333  0.31047507  1.0
  Ni  Ni741  1  0.58333333  0.16666667  0.31047507  1.0
  Ni  Ni742  1  0.58333333  0.50000000  0.31047507  1.0
  Ni  Ni743  1  0.58333333  0.83333333  0.31047507  1.0
  Ni  Ni744  1  0.91666667  0.16666667  0.31047507  1.0
  Ni  Ni745  1  0.91666667  0.50000000  0.31047507  1.0
  Ni  Ni746  1  0.91666667  0.83333333  0.31047507  1.0
  Ni  Ni747  1  0.08333333  0.16666667  0.38190364  1.0
  Ni  Ni748  1  0.08333333  0.50000000  0.38190364  1.0
  Ni  Ni749  1  0.08333333  0.83333333  0.38190364  1.0
  Ni  Ni750  1  0.41666667  0.16666667  0.38190364  1.0
  Ni  Ni751  1  0.41666667  0.50000000  0.38190364  1.0
  Ni  Ni752  1  0.41666667  0.83333333  0.38190364  1.0
  Ni  Ni753  1  0.75000000  0.16666667  0.38190364  1.0
  Ni  Ni754  1  0.75000000  0.50000000  0.38190364  1.0
  Ni  Ni755  1  0.75000000  0.83333333  0.38190364  1.0
