# generated using pymatgen
data_TiNi
_symmetry_space_group_name_H-M   'P 1'
_cell_length_a   26.12637653
_cell_length_b   59.56106296
_cell_length_c   72.26586520
_cell_angle_alpha   34.14009981
_cell_angle_beta   90.00000000
_cell_angle_gamma   63.98231213
_symmetry_Int_Tables_number   1
_chemical_formula_structural   TiNi
_chemical_formula_sum   'Ti576 Ni576'
_cell_volume   39367.48613635
_cell_formula_units_Z   576
loop_
 _symmetry_equiv_pos_site_id
 _symmetry_equiv_pos_as_xyz
  1  'x, y, z'
loop_
 _atom_site_type_symbol
 _atom_site_label
 _atom_site_symmetry_multiplicity
 _atom_site_fract_x
 _atom_site_fract_y
 _atom_site_fract_z
 _atom_site_occupancy
  Ti  Ti0  1  0.24272000  0.25728000  0.02062400  1.0
  Ti  Ti1  1  0.24272000  0.59061333  0.02062400  1.0
  Ti  Ti2  1  0.24272000  0.92394667  0.02062400  1.0
  Ti  Ti3  1  0.57605333  0.25728000  0.02062400  1.0
  Ti  Ti4  1  0.57605333  0.59061333  0.02062400  1.0
  Ti  Ti5  1  0.57605333  0.92394667  0.02062400  1.0
  Ti  Ti6  1  0.90938667  0.25728000  0.02062400  1.0
  Ti  Ti7  1  0.90938667  0.59061333  0.02062400  1.0
  Ti  Ti8  1  0.90938667  0.92394667  0.02062400  1.0
  Ti  Ti9  1  0.24272000  0.09061333  0.07062400  1.0
  Ti  Ti10  1  0.24272000  0.42394667  0.07062400  1.0
  Ti  Ti11  1  0.24272000  0.75728000  0.07062400  1.0
  Ti  Ti12  1  0.57605333  0.09061333  0.07062400  1.0
  Ti  Ti13  1  0.57605333  0.42394667  0.07062400  1.0
  Ti  Ti14  1  0.57605333  0.75728000  0.07062400  1.0
  Ti  Ti15  1  0.90938667  0.09061333  0.07062400  1.0
  Ti  Ti16  1  0.90938667  0.42394667  0.07062400  1.0
  Ti  Ti17  1  0.90938667  0.75728000  0.07062400  1.0
  Ti  Ti18  1  0.09061333  0.07605333  0.07499200  1.0
  Ti  Ti19  1  0.09061333  0.40938667  0.07499200  1.0
  Ti  Ti20  1  0.09061333  0.74272000  0.07499200  1.0
  Ti  Ti21  1  0.42394667  0.07605333  0.07499200  1.0
  Ti  Ti22  1  0.42394667  0.40938667  0.07499200  1.0
  Ti  Ti23  1  0.42394667  0.74272000  0.07499200  1.0
  Ti  Ti24  1  0.75728000  0.07605333  0.07499200  1.0
  Ti  Ti25  1  0.75728000  0.40938667  0.07499200  1.0
  Ti  Ti26  1  0.75728000  0.74272000  0.07499200  1.0
  Ti  Ti27  1  0.09061333  0.24272000  0.02499200  1.0
  Ti  Ti28  1  0.09061333  0.57605333  0.02499200  1.0
  Ti  Ti29  1  0.09061333  0.90938667  0.02499200  1.0
  Ti  Ti30  1  0.42394667  0.24272000  0.02499200  1.0
  Ti  Ti31  1  0.42394667  0.57605333  0.02499200  1.0
  Ti  Ti32  1  0.42394667  0.90938667  0.02499200  1.0
  Ti  Ti33  1  0.75728000  0.24272000  0.02499200  1.0
  Ti  Ti34  1  0.75728000  0.57605333  0.02499200  1.0
  Ti  Ti35  1  0.75728000  0.90938667  0.02499200  1.0
  Ti  Ti36  1  0.08333333  0.00000000  0.04780800  1.0
  Ti  Ti37  1  0.08333333  0.33333333  0.04780800  1.0
  Ti  Ti38  1  0.08333333  0.66666667  0.04780800  1.0
  Ti  Ti39  1  0.41666667  0.00000000  0.04780800  1.0
  Ti  Ti40  1  0.41666667  0.33333333  0.04780800  1.0
  Ti  Ti41  1  0.41666667  0.66666667  0.04780800  1.0
  Ti  Ti42  1  0.75000000  0.00000000  0.04780800  1.0
  Ti  Ti43  1  0.75000000  0.33333333  0.04780800  1.0
  Ti  Ti44  1  0.75000000  0.66666667  0.04780800  1.0
  Ti  Ti45  1  0.08333333  0.16666667  0.09780800  1.0
  Ti  Ti46  1  0.08333333  0.50000000  0.09780800  1.0
  Ti  Ti47  1  0.08333333  0.83333333  0.09780800  1.0
  Ti  Ti48  1  0.41666667  0.16666667  0.09780800  1.0
  Ti  Ti49  1  0.41666667  0.50000000  0.09780800  1.0
  Ti  Ti50  1  0.41666667  0.83333333  0.09780800  1.0
  Ti  Ti51  1  0.75000000  0.16666667  0.09780800  1.0
  Ti  Ti52  1  0.75000000  0.50000000  0.09780800  1.0
  Ti  Ti53  1  0.75000000  0.83333333  0.09780800  1.0
  Ti  Ti54  1  0.25000000  0.00000000  0.04780800  1.0
  Ti  Ti55  1  0.25000000  0.33333333  0.04780800  1.0
  Ti  Ti56  1  0.25000000  0.66666667  0.04780800  1.0
  Ti  Ti57  1  0.58333333  0.00000000  0.04780800  1.0
  Ti  Ti58  1  0.58333333  0.33333333  0.04780800  1.0
  Ti  Ti59  1  0.58333333  0.66666667  0.04780800  1.0
  Ti  Ti60  1  0.91666667  0.00000000  0.04780800  1.0
  Ti  Ti61  1  0.91666667  0.33333333  0.04780800  1.0
  Ti  Ti62  1  0.91666667  0.66666667  0.04780800  1.0
  Ti  Ti63  1  0.25000000  0.16666667  0.09780800  1.0
  Ti  Ti64  1  0.25000000  0.50000000  0.09780800  1.0
  Ti  Ti65  1  0.25000000  0.83333333  0.09780800  1.0
  Ti  Ti66  1  0.58333333  0.16666667  0.09780800  1.0
  Ti  Ti67  1  0.58333333  0.50000000  0.09780800  1.0
  Ti  Ti68  1  0.58333333  0.83333333  0.09780800  1.0
  Ti  Ti69  1  0.91666667  0.16666667  0.09780800  1.0
  Ti  Ti70  1  0.91666667  0.50000000  0.09780800  1.0
  Ti  Ti71  1  0.91666667  0.83333333  0.09780800  1.0
  Ti  Ti72  1  0.16666667  0.08333333  0.02280800  1.0
  Ti  Ti73  1  0.16666667  0.41666667  0.02280800  1.0
  Ti  Ti74  1  0.16666667  0.75000000  0.02280800  1.0
  Ti  Ti75  1  0.50000000  0.08333333  0.02280800  1.0
  Ti  Ti76  1  0.50000000  0.41666667  0.02280800  1.0
  Ti  Ti77  1  0.50000000  0.75000000  0.02280800  1.0
  Ti  Ti78  1  0.83333333  0.08333333  0.02280800  1.0
  Ti  Ti79  1  0.83333333  0.41666667  0.02280800  1.0
  Ti  Ti80  1  0.83333333  0.75000000  0.02280800  1.0
  Ti  Ti81  1  0.16666667  0.25000000  0.07280800  1.0
  Ti  Ti82  1  0.16666667  0.58333333  0.07280800  1.0
  Ti  Ti83  1  0.16666667  0.91666667  0.07280800  1.0
  Ti  Ti84  1  0.50000000  0.25000000  0.07280800  1.0
  Ti  Ti85  1  0.50000000  0.58333333  0.07280800  1.0
  Ti  Ti86  1  0.50000000  0.91666667  0.07280800  1.0
  Ti  Ti87  1  0.83333333  0.25000000  0.07280800  1.0
  Ti  Ti88  1  0.83333333  0.58333333  0.07280800  1.0
  Ti  Ti89  1  0.83333333  0.91666667  0.07280800  1.0
  Ti  Ti90  1  0.00000000  0.08333333  0.02280800  1.0
  Ti  Ti91  1  0.00000000  0.41666667  0.02280800  1.0
  Ti  Ti92  1  1.00000000  0.75000000  0.02280800  1.0
  Ti  Ti93  1  0.33333333  0.08333333  0.02280800  1.0
  Ti  Ti94  1  0.33333333  0.41666667  0.02280800  1.0
  Ti  Ti95  1  0.33333333  0.75000000  0.02280800  1.0
  Ti  Ti96  1  0.66666667  0.08333333  0.02280800  1.0
  Ti  Ti97  1  0.66666667  0.41666667  0.02280800  1.0
  Ti  Ti98  1  0.66666667  0.75000000  0.02280800  1.0
  Ti  Ti99  1  0.00000000  0.25000000  0.07280800  1.0
  Ti  Ti100  1  0.00000000  0.58333333  0.07280800  1.0
  Ti  Ti101  1  1.00000000  0.91666667  0.07280800  1.0
  Ti  Ti102  1  0.33333333  0.25000000  0.07280800  1.0
  Ti  Ti103  1  0.33333333  0.58333333  0.07280800  1.0
  Ti  Ti104  1  0.33333333  0.91666667  0.07280800  1.0
  Ti  Ti105  1  0.66666667  0.25000000  0.07280800  1.0
  Ti  Ti106  1  0.66666667  0.58333333  0.07280800  1.0
  Ti  Ti107  1  0.66666667  0.91666667  0.07280800  1.0
  Ti  Ti108  1  0.16666667  0.00000000  0.09780800  1.0
  Ti  Ti109  1  0.16666667  0.33333333  0.09780800  1.0
  Ti  Ti110  1  0.16666667  0.66666667  0.09780800  1.0
  Ti  Ti111  1  0.50000000  0.00000000  0.09780800  1.0
  Ti  Ti112  1  0.50000000  0.33333333  0.09780800  1.0
  Ti  Ti113  1  0.50000000  0.66666667  0.09780800  1.0
  Ti  Ti114  1  0.83333333  0.00000000  0.09780800  1.0
  Ti  Ti115  1  0.83333333  0.33333333  0.09780800  1.0
  Ti  Ti116  1  0.83333333  0.66666667  0.09780800  1.0
  Ti  Ti117  1  0.16666667  0.16666667  0.04780800  1.0
  Ti  Ti118  1  0.16666667  0.50000000  0.04780800  1.0
  Ti  Ti119  1  0.16666667  0.83333333  0.04780800  1.0
  Ti  Ti120  1  0.50000000  0.16666667  0.04780800  1.0
  Ti  Ti121  1  0.50000000  0.50000000  0.04780800  1.0
  Ti  Ti122  1  0.50000000  0.83333333  0.04780800  1.0
  Ti  Ti123  1  0.83333333  0.16666667  0.04780800  1.0
  Ti  Ti124  1  0.83333333  0.50000000  0.04780800  1.0
  Ti  Ti125  1  0.83333333  0.83333333  0.04780800  1.0
  Ti  Ti126  1  0.00000000  0.16666667  0.04780800  1.0
  Ti  Ti127  1  0.00000000  0.50000000  0.04780800  1.0
  Ti  Ti128  1  1.00000000  0.83333333  0.04780800  1.0
  Ti  Ti129  1  0.33333333  0.16666667  0.04780800  1.0
  Ti  Ti130  1  0.33333333  0.50000000  0.04780800  1.0
  Ti  Ti131  1  0.33333333  0.83333333  0.04780800  1.0
  Ti  Ti132  1  0.66666667  0.16666667  0.04780800  1.0
  Ti  Ti133  1  0.66666667  0.50000000  0.04780800  1.0
  Ti  Ti134  1  0.66666667  0.83333333  0.04780800  1.0
  Ti  Ti135  1  0.00000000  0.00000000  0.09780800  1.0
  Ti  Ti136  1  0.00000000  0.33333333  0.09780800  1.0
  Ti  Ti137  1  0.00000000  0.66666667  0.09780800  1.0
  Ti  Ti138  1  0.33333333  0.00000000  0.09780800  1.0
  Ti  Ti139  1  0.33333333  0.33333333  0.09780800  1.0
  Ti  Ti140  1  0.33333333  0.66666667  0.09780800  1.0
  Ti  Ti141  1  0.66666667  0.00000000  0.09780800  1.0
  Ti  Ti142  1  0.66666667  0.33333333  0.09780800  1.0
  Ti  Ti143  1  0.66666667  0.66666667  0.09780800  1.0
  Ni  Ni144  1  0.03156133  0.13510533  0.00219200  1.0
  Ni  Ni145  1  0.03156133  0.46843867  0.00219200  1.0
  Ni  Ni146  1  0.03156133  0.80177200  0.00219200  1.0
  Ni  Ni147  1  0.36489467  0.13510533  0.00219200  1.0
  Ni  Ni148  1  0.36489467  0.46843867  0.00219200  1.0
  Ni  Ni149  1  0.36489467  0.80177200  0.00219200  1.0
  Ni  Ni150  1  0.69822800  0.13510533  0.00219200  1.0
  Ni  Ni151  1  0.69822800  0.46843867  0.00219200  1.0
  Ni  Ni152  1  0.69822800  0.80177200  0.00219200  1.0
  Ni  Ni153  1  0.03156133  0.30177200  0.05219200  1.0
  Ni  Ni154  1  0.03156133  0.63510533  0.05219200  1.0
  Ni  Ni155  1  0.03156133  0.96843867  0.05219200  1.0
  Ni  Ni156  1  0.36489467  0.30177200  0.05219200  1.0
  Ni  Ni157  1  0.36489467  0.63510533  0.05219200  1.0
  Ni  Ni158  1  0.36489467  0.96843867  0.05219200  1.0
  Ni  Ni159  1  0.69822800  0.30177200  0.05219200  1.0
  Ni  Ni160  1  0.69822800  0.63510533  0.05219200  1.0
  Ni  Ni161  1  0.69822800  0.96843867  0.05219200  1.0
  Ni  Ni162  1  0.21517600  0.28482400  0.06744520  1.0
  Ni  Ni163  1  0.21517600  0.61815733  0.06744520  1.0
  Ni  Ni164  1  0.21517600  0.95149067  0.06744520  1.0
  Ni  Ni165  1  0.54850933  0.28482400  0.06744520  1.0
  Ni  Ni166  1  0.54850933  0.61815733  0.06744520  1.0
  Ni  Ni167  1  0.54850933  0.95149067  0.06744520  1.0
  Ni  Ni168  1  0.88184267  0.28482400  0.06744520  1.0
  Ni  Ni169  1  0.88184267  0.61815733  0.06744520  1.0
  Ni  Ni170  1  0.88184267  0.95149067  0.06744520  1.0
  Ni  Ni171  1  0.21517600  0.11815733  0.01744520  1.0
  Ni  Ni172  1  0.21517600  0.45149067  0.01744520  1.0
  Ni  Ni173  1  0.21517600  0.78482400  0.01744520  1.0
  Ni  Ni174  1  0.54850933  0.11815733  0.01744520  1.0
  Ni  Ni175  1  0.54850933  0.45149067  0.01744520  1.0
  Ni  Ni176  1  0.54850933  0.78482400  0.01744520  1.0
  Ni  Ni177  1  0.88184267  0.11815733  0.01744520  1.0
  Ni  Ni178  1  0.88184267  0.45149067  0.01744520  1.0
  Ni  Ni179  1  0.88184267  0.78482400  0.01744520  1.0
  Ni  Ni180  1  0.21517600  0.04329800  0.08481860  1.0
  Ni  Ni181  1  0.21517600  0.37663133  0.08481860  1.0
  Ni  Ni182  1  0.21517600  0.70996467  0.08481860  1.0
  Ni  Ni183  1  0.54850933  0.04329800  0.08481860  1.0
  Ni  Ni184  1  0.54850933  0.37663133  0.08481860  1.0
  Ni  Ni185  1  0.54850933  0.70996467  0.08481860  1.0
  Ni  Ni186  1  0.88184267  0.04329800  0.08481860  1.0
  Ni  Ni187  1  0.88184267  0.37663133  0.08481860  1.0
  Ni  Ni188  1  0.88184267  0.70996467  0.08481860  1.0
  Ni  Ni189  1  0.21517600  0.20996467  0.03481860  1.0
  Ni  Ni190  1  0.21517600  0.54329800  0.03481860  1.0
  Ni  Ni191  1  0.21517600  0.87663133  0.03481860  1.0
  Ni  Ni192  1  0.54850933  0.20996467  0.03481860  1.0
  Ni  Ni193  1  0.54850933  0.54329800  0.03481860  1.0
  Ni  Ni194  1  0.54850933  0.87663133  0.03481860  1.0
  Ni  Ni195  1  0.88184267  0.20996467  0.03481860  1.0
  Ni  Ni196  1  0.88184267  0.54329800  0.03481860  1.0
  Ni  Ni197  1  0.88184267  0.87663133  0.03481860  1.0
  Ni  Ni198  1  0.03156133  0.04329800  0.08481860  1.0
  Ni  Ni199  1  0.03156133  0.37663133  0.08481860  1.0
  Ni  Ni200  1  0.03156133  0.70996467  0.08481860  1.0
  Ni  Ni201  1  0.36489467  0.04329800  0.08481860  1.0
  Ni  Ni202  1  0.36489467  0.37663133  0.08481860  1.0
  Ni  Ni203  1  0.36489467  0.70996467  0.08481860  1.0
  Ni  Ni204  1  0.69822800  0.04329800  0.08481860  1.0
  Ni  Ni205  1  0.69822800  0.37663133  0.08481860  1.0
  Ni  Ni206  1  0.69822800  0.70996467  0.08481860  1.0
  Ni  Ni207  1  0.03156133  0.20996467  0.03481860  1.0
  Ni  Ni208  1  0.03156133  0.54329800  0.03481860  1.0
  Ni  Ni209  1  0.03156133  0.87663133  0.03481860  1.0
  Ni  Ni210  1  0.36489467  0.20996467  0.03481860  1.0
  Ni  Ni211  1  0.36489467  0.54329800  0.03481860  1.0
  Ni  Ni212  1  0.36489467  0.87663133  0.03481860  1.0
  Ni  Ni213  1  0.69822800  0.20996467  0.03481860  1.0
  Ni  Ni214  1  0.69822800  0.54329800  0.03481860  1.0
  Ni  Ni215  1  0.69822800  0.87663133  0.03481860  1.0
  Ni  Ni216  1  0.30177200  0.19822800  0.09342400  1.0
  Ni  Ni217  1  0.30177200  0.53156133  0.09342400  1.0
  Ni  Ni218  1  0.30177200  0.86489467  0.09342400  1.0
  Ni  Ni219  1  0.63510533  0.19822800  0.09342400  1.0
  Ni  Ni220  1  0.63510533  0.53156133  0.09342400  1.0
  Ni  Ni221  1  0.63510533  0.86489467  0.09342400  1.0
  Ni  Ni222  1  0.96843867  0.19822800  0.09342400  1.0
  Ni  Ni223  1  0.96843867  0.53156133  0.09342400  1.0
  Ni  Ni224  1  0.96843867  0.86489467  0.09342400  1.0
  Ni  Ni225  1  0.30177200  0.03156133  0.04342400  1.0
  Ni  Ni226  1  0.30177200  0.36489467  0.04342400  1.0
  Ni  Ni227  1  0.30177200  0.69822800  0.04342400  1.0
  Ni  Ni228  1  0.63510533  0.03156133  0.04342400  1.0
  Ni  Ni229  1  0.63510533  0.36489467  0.04342400  1.0
  Ni  Ni230  1  0.63510533  0.69822800  0.04342400  1.0
  Ni  Ni231  1  0.96843867  0.03156133  0.04342400  1.0
  Ni  Ni232  1  0.96843867  0.36489467  0.04342400  1.0
  Ni  Ni233  1  0.96843867  0.69822800  0.04342400  1.0
  Ni  Ni234  1  0.11815733  0.04850933  0.02817080  1.0
  Ni  Ni235  1  0.11815733  0.38184267  0.02817080  1.0
  Ni  Ni236  1  0.11815733  0.71517600  0.02817080  1.0
  Ni  Ni237  1  0.45149067  0.04850933  0.02817080  1.0
  Ni  Ni238  1  0.45149067  0.38184267  0.02817080  1.0
  Ni  Ni239  1  0.45149067  0.71517600  0.02817080  1.0
  Ni  Ni240  1  0.78482400  0.04850933  0.02817080  1.0
  Ni  Ni241  1  0.78482400  0.38184267  0.02817080  1.0
  Ni  Ni242  1  0.78482400  0.71517600  0.02817080  1.0
  Ni  Ni243  1  0.11815733  0.21517600  0.07817080  1.0
  Ni  Ni244  1  0.11815733  0.54850933  0.07817080  1.0
  Ni  Ni245  1  0.11815733  0.88184267  0.07817080  1.0
  Ni  Ni246  1  0.45149067  0.21517600  0.07817080  1.0
  Ni  Ni247  1  0.45149067  0.54850933  0.07817080  1.0
  Ni  Ni248  1  0.45149067  0.88184267  0.07817080  1.0
  Ni  Ni249  1  0.78482400  0.21517600  0.07817080  1.0
  Ni  Ni250  1  0.78482400  0.54850933  0.07817080  1.0
  Ni  Ni251  1  0.78482400  0.88184267  0.07817080  1.0
  Ni  Ni252  1  0.11815733  0.29003533  0.01079740  1.0
  Ni  Ni253  1  0.11815733  0.62336867  0.01079740  1.0
  Ni  Ni254  1  0.11815733  0.95670200  0.01079740  1.0
  Ni  Ni255  1  0.45149067  0.29003533  0.01079740  1.0
  Ni  Ni256  1  0.45149067  0.62336867  0.01079740  1.0
  Ni  Ni257  1  0.45149067  0.95670200  0.01079740  1.0
  Ni  Ni258  1  0.78482400  0.29003533  0.01079740  1.0
  Ni  Ni259  1  0.78482400  0.62336867  0.01079740  1.0
  Ni  Ni260  1  0.78482400  0.95670200  0.01079740  1.0
  Ni  Ni261  1  0.11815733  0.12336867  0.06079740  1.0
  Ni  Ni262  1  0.11815733  0.45670200  0.06079740  1.0
  Ni  Ni263  1  0.11815733  0.79003533  0.06079740  1.0
  Ni  Ni264  1  0.45149067  0.12336867  0.06079740  1.0
  Ni  Ni265  1  0.45149067  0.45670200  0.06079740  1.0
  Ni  Ni266  1  0.45149067  0.79003533  0.06079740  1.0
  Ni  Ni267  1  0.78482400  0.12336867  0.06079740  1.0
  Ni  Ni268  1  0.78482400  0.45670200  0.06079740  1.0
  Ni  Ni269  1  0.78482400  0.79003533  0.06079740  1.0
  Ni  Ni270  1  0.30177200  0.29003533  0.01079740  1.0
  Ni  Ni271  1  0.30177200  0.62336867  0.01079740  1.0
  Ni  Ni272  1  0.30177200  0.95670200  0.01079740  1.0
  Ni  Ni273  1  0.63510533  0.29003533  0.01079740  1.0
  Ni  Ni274  1  0.63510533  0.62336867  0.01079740  1.0
  Ni  Ni275  1  0.63510533  0.95670200  0.01079740  1.0
  Ni  Ni276  1  0.96843867  0.29003533  0.01079740  1.0
  Ni  Ni277  1  0.96843867  0.62336867  0.01079740  1.0
  Ni  Ni278  1  0.96843867  0.95670200  0.01079740  1.0
  Ni  Ni279  1  0.30177200  0.12336867  0.06079740  1.0
  Ni  Ni280  1  0.30177200  0.45670200  0.06079740  1.0
  Ni  Ni281  1  0.30177200  0.79003533  0.06079740  1.0
  Ni  Ni282  1  0.63510533  0.12336867  0.06079740  1.0
  Ni  Ni283  1  0.63510533  0.45670200  0.06079740  1.0
  Ni  Ni284  1  0.63510533  0.79003533  0.06079740  1.0
  Ni  Ni285  1  0.96843867  0.12336867  0.06079740  1.0
  Ni  Ni286  1  0.96843867  0.45670200  0.06079740  1.0
  Ni  Ni287  1  0.96843867  0.79003533  0.06079740  1.0
  Ti  Ti288  1  0.24272000  0.25728000  0.12062400  1.0
  Ti  Ti289  1  0.24272000  0.59061333  0.12062400  1.0
  Ti  Ti290  1  0.24272000  0.92394667  0.12062400  1.0
  Ti  Ti291  1  0.57605333  0.25728000  0.12062400  1.0
  Ti  Ti292  1  0.57605333  0.59061333  0.12062400  1.0
  Ti  Ti293  1  0.57605333  0.92394667  0.12062400  1.0
  Ti  Ti294  1  0.90938667  0.25728000  0.12062400  1.0
  Ti  Ti295  1  0.90938667  0.59061333  0.12062400  1.0
  Ti  Ti296  1  0.90938667  0.92394667  0.12062400  1.0
  Ti  Ti297  1  0.24272000  0.09061333  0.17062400  1.0
  Ti  Ti298  1  0.24272000  0.42394667  0.17062400  1.0
  Ti  Ti299  1  0.24272000  0.75728000  0.17062400  1.0
  Ti  Ti300  1  0.57605333  0.09061333  0.17062400  1.0
  Ti  Ti301  1  0.57605333  0.42394667  0.17062400  1.0
  Ti  Ti302  1  0.57605333  0.75728000  0.17062400  1.0
  Ti  Ti303  1  0.90938667  0.09061333  0.17062400  1.0
  Ti  Ti304  1  0.90938667  0.42394667  0.17062400  1.0
  Ti  Ti305  1  0.90938667  0.75728000  0.17062400  1.0
  Ti  Ti306  1  0.09061333  0.07605333  0.17499200  1.0
  Ti  Ti307  1  0.09061333  0.40938667  0.17499200  1.0
  Ti  Ti308  1  0.09061333  0.74272000  0.17499200  1.0
  Ti  Ti309  1  0.42394667  0.07605333  0.17499200  1.0
  Ti  Ti310  1  0.42394667  0.40938667  0.17499200  1.0
  Ti  Ti311  1  0.42394667  0.74272000  0.17499200  1.0
  Ti  Ti312  1  0.75728000  0.07605333  0.17499200  1.0
  Ti  Ti313  1  0.75728000  0.40938667  0.17499200  1.0
  Ti  Ti314  1  0.75728000  0.74272000  0.17499200  1.0
  Ti  Ti315  1  0.09061333  0.24272000  0.12499200  1.0
  Ti  Ti316  1  0.09061333  0.57605333  0.12499200  1.0
  Ti  Ti317  1  0.09061333  0.90938667  0.12499200  1.0
  Ti  Ti318  1  0.42394667  0.24272000  0.12499200  1.0
  Ti  Ti319  1  0.42394667  0.57605333  0.12499200  1.0
  Ti  Ti320  1  0.42394667  0.90938667  0.12499200  1.0
  Ti  Ti321  1  0.75728000  0.24272000  0.12499200  1.0
  Ti  Ti322  1  0.75728000  0.57605333  0.12499200  1.0
  Ti  Ti323  1  0.75728000  0.90938667  0.12499200  1.0
  Ti  Ti324  1  0.08333333  0.00000000  0.14780800  1.0
  Ti  Ti325  1  0.08333333  0.33333333  0.14780800  1.0
  Ti  Ti326  1  0.08333333  0.66666667  0.14780800  1.0
  Ti  Ti327  1  0.41666667  0.00000000  0.14780800  1.0
  Ti  Ti328  1  0.41666667  0.33333333  0.14780800  1.0
  Ti  Ti329  1  0.41666667  0.66666667  0.14780800  1.0
  Ti  Ti330  1  0.75000000  0.00000000  0.14780800  1.0
  Ti  Ti331  1  0.75000000  0.33333333  0.14780800  1.0
  Ti  Ti332  1  0.75000000  0.66666667  0.14780800  1.0
  Ti  Ti333  1  0.08333333  0.16666667  0.19780800  1.0
  Ti  Ti334  1  0.08333333  0.50000000  0.19780800  1.0
  Ti  Ti335  1  0.08333333  0.83333333  0.19780800  1.0
  Ti  Ti336  1  0.41666667  0.16666667  0.19780800  1.0
  Ti  Ti337  1  0.41666667  0.50000000  0.19780800  1.0
  Ti  Ti338  1  0.41666667  0.83333333  0.19780800  1.0
  Ti  Ti339  1  0.75000000  0.16666667  0.19780800  1.0
  Ti  Ti340  1  0.75000000  0.50000000  0.19780800  1.0
  Ti  Ti341  1  0.75000000  0.83333333  0.19780800  1.0
  Ti  Ti342  1  0.25000000  0.00000000  0.14780800  1.0
  Ti  Ti343  1  0.25000000  0.33333333  0.14780800  1.0
  Ti  Ti344  1  0.25000000  0.66666667  0.14780800  1.0
  Ti  Ti345  1  0.58333333  0.00000000  0.14780800  1.0
  Ti  Ti346  1  0.58333333  0.33333333  0.14780800  1.0
  Ti  Ti347  1  0.58333333  0.66666667  0.14780800  1.0
  Ti  Ti348  1  0.91666667  0.00000000  0.14780800  1.0
  Ti  Ti349  1  0.91666667  0.33333333  0.14780800  1.0
  Ti  Ti350  1  0.91666667  0.66666667  0.14780800  1.0
  Ti  Ti351  1  0.25000000  0.16666667  0.19780800  1.0
  Ti  Ti352  1  0.25000000  0.50000000  0.19780800  1.0
  Ti  Ti353  1  0.25000000  0.83333333  0.19780800  1.0
  Ti  Ti354  1  0.58333333  0.16666667  0.19780800  1.0
  Ti  Ti355  1  0.58333333  0.50000000  0.19780800  1.0
  Ti  Ti356  1  0.58333333  0.83333333  0.19780800  1.0
  Ti  Ti357  1  0.91666667  0.16666667  0.19780800  1.0
  Ti  Ti358  1  0.91666667  0.50000000  0.19780800  1.0
  Ti  Ti359  1  0.91666667  0.83333333  0.19780800  1.0
  Ti  Ti360  1  0.16666667  0.08333333  0.12280800  1.0
  Ti  Ti361  1  0.16666667  0.41666667  0.12280800  1.0
  Ti  Ti362  1  0.16666667  0.75000000  0.12280800  1.0
  Ti  Ti363  1  0.50000000  0.08333333  0.12280800  1.0
  Ti  Ti364  1  0.50000000  0.41666667  0.12280800  1.0
  Ti  Ti365  1  0.50000000  0.75000000  0.12280800  1.0
  Ti  Ti366  1  0.83333333  0.08333333  0.12280800  1.0
  Ti  Ti367  1  0.83333333  0.41666667  0.12280800  1.0
  Ti  Ti368  1  0.83333333  0.75000000  0.12280800  1.0
  Ti  Ti369  1  0.16666667  0.25000000  0.17280800  1.0
  Ti  Ti370  1  0.16666667  0.58333333  0.17280800  1.0
  Ti  Ti371  1  0.16666667  0.91666667  0.17280800  1.0
  Ti  Ti372  1  0.50000000  0.25000000  0.17280800  1.0
  Ti  Ti373  1  0.50000000  0.58333333  0.17280800  1.0
  Ti  Ti374  1  0.50000000  0.91666667  0.17280800  1.0
  Ti  Ti375  1  0.83333333  0.25000000  0.17280800  1.0
  Ti  Ti376  1  0.83333333  0.58333333  0.17280800  1.0
  Ti  Ti377  1  0.83333333  0.91666667  0.17280800  1.0
  Ti  Ti378  1  0.00000000  0.08333333  0.12280800  1.0
  Ti  Ti379  1  0.00000000  0.41666667  0.12280800  1.0
  Ti  Ti380  1  1.00000000  0.75000000  0.12280800  1.0
  Ti  Ti381  1  0.33333333  0.08333333  0.12280800  1.0
  Ti  Ti382  1  0.33333333  0.41666667  0.12280800  1.0
  Ti  Ti383  1  0.33333333  0.75000000  0.12280800  1.0
  Ti  Ti384  1  0.66666667  0.08333333  0.12280800  1.0
  Ti  Ti385  1  0.66666667  0.41666667  0.12280800  1.0
  Ti  Ti386  1  0.66666667  0.75000000  0.12280800  1.0
  Ti  Ti387  1  0.00000000  0.25000000  0.17280800  1.0
  Ti  Ti388  1  0.00000000  0.58333333  0.17280800  1.0
  Ti  Ti389  1  1.00000000  0.91666667  0.17280800  1.0
  Ti  Ti390  1  0.33333333  0.25000000  0.17280800  1.0
  Ti  Ti391  1  0.33333333  0.58333333  0.17280800  1.0
  Ti  Ti392  1  0.33333333  0.91666667  0.17280800  1.0
  Ti  Ti393  1  0.66666667  0.25000000  0.17280800  1.0
  Ti  Ti394  1  0.66666667  0.58333333  0.17280800  1.0
  Ti  Ti395  1  0.66666667  0.91666667  0.17280800  1.0
  Ti  Ti396  1  0.16666667  0.00000000  0.19780800  1.0
  Ti  Ti397  1  0.16666667  0.33333333  0.19780800  1.0
  Ti  Ti398  1  0.16666667  0.66666667  0.19780800  1.0
  Ti  Ti399  1  0.50000000  0.00000000  0.19780800  1.0
  Ti  Ti400  1  0.50000000  0.33333333  0.19780800  1.0
  Ti  Ti401  1  0.50000000  0.66666667  0.19780800  1.0
  Ti  Ti402  1  0.83333333  0.00000000  0.19780800  1.0
  Ti  Ti403  1  0.83333333  0.33333333  0.19780800  1.0
  Ti  Ti404  1  0.83333333  0.66666667  0.19780800  1.0
  Ti  Ti405  1  0.16666667  0.16666667  0.14780800  1.0
  Ti  Ti406  1  0.16666667  0.50000000  0.14780800  1.0
  Ti  Ti407  1  0.16666667  0.83333333  0.14780800  1.0
  Ti  Ti408  1  0.50000000  0.16666667  0.14780800  1.0
  Ti  Ti409  1  0.50000000  0.50000000  0.14780800  1.0
  Ti  Ti410  1  0.50000000  0.83333333  0.14780800  1.0
  Ti  Ti411  1  0.83333333  0.16666667  0.14780800  1.0
  Ti  Ti412  1  0.83333333  0.50000000  0.14780800  1.0
  Ti  Ti413  1  0.83333333  0.83333333  0.14780800  1.0
  Ti  Ti414  1  0.00000000  0.16666667  0.14780800  1.0
  Ti  Ti415  1  0.00000000  0.50000000  0.14780800  1.0
  Ti  Ti416  1  1.00000000  0.83333333  0.14780800  1.0
  Ti  Ti417  1  0.33333333  0.16666667  0.14780800  1.0
  Ti  Ti418  1  0.33333333  0.50000000  0.14780800  1.0
  Ti  Ti419  1  0.33333333  0.83333333  0.14780800  1.0
  Ti  Ti420  1  0.66666667  0.16666667  0.14780800  1.0
  Ti  Ti421  1  0.66666667  0.50000000  0.14780800  1.0
  Ti  Ti422  1  0.66666667  0.83333333  0.14780800  1.0
  Ti  Ti423  1  0.00000000  0.00000000  0.19780800  1.0
  Ti  Ti424  1  0.00000000  0.33333333  0.19780800  1.0
  Ti  Ti425  1  0.00000000  0.66666667  0.19780800  1.0
  Ti  Ti426  1  0.33333333  0.00000000  0.19780800  1.0
  Ti  Ti427  1  0.33333333  0.33333333  0.19780800  1.0
  Ti  Ti428  1  0.33333333  0.66666667  0.19780800  1.0
  Ti  Ti429  1  0.66666667  0.00000000  0.19780800  1.0
  Ti  Ti430  1  0.66666667  0.33333333  0.19780800  1.0
  Ti  Ti431  1  0.66666667  0.66666667  0.19780800  1.0
  Ni  Ni432  1  0.03156133  0.13510533  0.10219200  1.0
  Ni  Ni433  1  0.03156133  0.46843867  0.10219200  1.0
  Ni  Ni434  1  0.03156133  0.80177200  0.10219200  1.0
  Ni  Ni435  1  0.36489467  0.13510533  0.10219200  1.0
  Ni  Ni436  1  0.36489467  0.46843867  0.10219200  1.0
  Ni  Ni437  1  0.36489467  0.80177200  0.10219200  1.0
  Ni  Ni438  1  0.69822800  0.13510533  0.10219200  1.0
  Ni  Ni439  1  0.69822800  0.46843867  0.10219200  1.0
  Ni  Ni440  1  0.69822800  0.80177200  0.10219200  1.0
  Ni  Ni441  1  0.03156133  0.30177200  0.15219200  1.0
  Ni  Ni442  1  0.03156133  0.63510533  0.15219200  1.0
  Ni  Ni443  1  0.03156133  0.96843867  0.15219200  1.0
  Ni  Ni444  1  0.36489467  0.30177200  0.15219200  1.0
  Ni  Ni445  1  0.36489467  0.63510533  0.15219200  1.0
  Ni  Ni446  1  0.36489467  0.96843867  0.15219200  1.0
  Ni  Ni447  1  0.69822800  0.30177200  0.15219200  1.0
  Ni  Ni448  1  0.69822800  0.63510533  0.15219200  1.0
  Ni  Ni449  1  0.69822800  0.96843867  0.15219200  1.0
  Ni  Ni450  1  0.21517600  0.28482400  0.16744520  1.0
  Ni  Ni451  1  0.21517600  0.61815733  0.16744520  1.0
  Ni  Ni452  1  0.21517600  0.95149067  0.16744520  1.0
  Ni  Ni453  1  0.54850933  0.28482400  0.16744520  1.0
  Ni  Ni454  1  0.54850933  0.61815733  0.16744520  1.0
  Ni  Ni455  1  0.54850933  0.95149067  0.16744520  1.0
  Ni  Ni456  1  0.88184267  0.28482400  0.16744520  1.0
  Ni  Ni457  1  0.88184267  0.61815733  0.16744520  1.0
  Ni  Ni458  1  0.88184267  0.95149067  0.16744520  1.0
  Ni  Ni459  1  0.21517600  0.11815733  0.11744520  1.0
  Ni  Ni460  1  0.21517600  0.45149067  0.11744520  1.0
  Ni  Ni461  1  0.21517600  0.78482400  0.11744520  1.0
  Ni  Ni462  1  0.54850933  0.11815733  0.11744520  1.0
  Ni  Ni463  1  0.54850933  0.45149067  0.11744520  1.0
  Ni  Ni464  1  0.54850933  0.78482400  0.11744520  1.0
  Ni  Ni465  1  0.88184267  0.11815733  0.11744520  1.0
  Ni  Ni466  1  0.88184267  0.45149067  0.11744520  1.0
  Ni  Ni467  1  0.88184267  0.78482400  0.11744520  1.0
  Ni  Ni468  1  0.21517600  0.04329800  0.18481860  1.0
  Ni  Ni469  1  0.21517600  0.37663133  0.18481860  1.0
  Ni  Ni470  1  0.21517600  0.70996467  0.18481860  1.0
  Ni  Ni471  1  0.54850933  0.04329800  0.18481860  1.0
  Ni  Ni472  1  0.54850933  0.37663133  0.18481860  1.0
  Ni  Ni473  1  0.54850933  0.70996467  0.18481860  1.0
  Ni  Ni474  1  0.88184267  0.04329800  0.18481860  1.0
  Ni  Ni475  1  0.88184267  0.37663133  0.18481860  1.0
  Ni  Ni476  1  0.88184267  0.70996467  0.18481860  1.0
  Ni  Ni477  1  0.21517600  0.20996467  0.13481860  1.0
  Ni  Ni478  1  0.21517600  0.54329800  0.13481860  1.0
  Ni  Ni479  1  0.21517600  0.87663133  0.13481860  1.0
  Ni  Ni480  1  0.54850933  0.20996467  0.13481860  1.0
  Ni  Ni481  1  0.54850933  0.54329800  0.13481860  1.0
  Ni  Ni482  1  0.54850933  0.87663133  0.13481860  1.0
  Ni  Ni483  1  0.88184267  0.20996467  0.13481860  1.0
  Ni  Ni484  1  0.88184267  0.54329800  0.13481860  1.0
  Ni  Ni485  1  0.88184267  0.87663133  0.13481860  1.0
  Ni  Ni486  1  0.03156133  0.04329800  0.18481860  1.0
  Ni  Ni487  1  0.03156133  0.37663133  0.18481860  1.0
  Ni  Ni488  1  0.03156133  0.70996467  0.18481860  1.0
  Ni  Ni489  1  0.36489467  0.04329800  0.18481860  1.0
  Ni  Ni490  1  0.36489467  0.37663133  0.18481860  1.0
  Ni  Ni491  1  0.36489467  0.70996467  0.18481860  1.0
  Ni  Ni492  1  0.69822800  0.04329800  0.18481860  1.0
  Ni  Ni493  1  0.69822800  0.37663133  0.18481860  1.0
  Ni  Ni494  1  0.69822800  0.70996467  0.18481860  1.0
  Ni  Ni495  1  0.03156133  0.20996467  0.13481860  1.0
  Ni  Ni496  1  0.03156133  0.54329800  0.13481860  1.0
  Ni  Ni497  1  0.03156133  0.87663133  0.13481860  1.0
  Ni  Ni498  1  0.36489467  0.20996467  0.13481860  1.0
  Ni  Ni499  1  0.36489467  0.54329800  0.13481860  1.0
  Ni  Ni500  1  0.36489467  0.87663133  0.13481860  1.0
  Ni  Ni501  1  0.69822800  0.20996467  0.13481860  1.0
  Ni  Ni502  1  0.69822800  0.54329800  0.13481860  1.0
  Ni  Ni503  1  0.69822800  0.87663133  0.13481860  1.0
  Ni  Ni504  1  0.30177200  0.19822800  0.19342400  1.0
  Ni  Ni505  1  0.30177200  0.53156133  0.19342400  1.0
  Ni  Ni506  1  0.30177200  0.86489467  0.19342400  1.0
  Ni  Ni507  1  0.63510533  0.19822800  0.19342400  1.0
  Ni  Ni508  1  0.63510533  0.53156133  0.19342400  1.0
  Ni  Ni509  1  0.63510533  0.86489467  0.19342400  1.0
  Ni  Ni510  1  0.96843867  0.19822800  0.19342400  1.0
  Ni  Ni511  1  0.96843867  0.53156133  0.19342400  1.0
  Ni  Ni512  1  0.96843867  0.86489467  0.19342400  1.0
  Ni  Ni513  1  0.30177200  0.03156133  0.14342400  1.0
  Ni  Ni514  1  0.30177200  0.36489467  0.14342400  1.0
  Ni  Ni515  1  0.30177200  0.69822800  0.14342400  1.0
  Ni  Ni516  1  0.63510533  0.03156133  0.14342400  1.0
  Ni  Ni517  1  0.63510533  0.36489467  0.14342400  1.0
  Ni  Ni518  1  0.63510533  0.69822800  0.14342400  1.0
  Ni  Ni519  1  0.96843867  0.03156133  0.14342400  1.0
  Ni  Ni520  1  0.96843867  0.36489467  0.14342400  1.0
  Ni  Ni521  1  0.96843867  0.69822800  0.14342400  1.0
  Ni  Ni522  1  0.11815733  0.04850933  0.12817080  1.0
  Ni  Ni523  1  0.11815733  0.38184267  0.12817080  1.0
  Ni  Ni524  1  0.11815733  0.71517600  0.12817080  1.0
  Ni  Ni525  1  0.45149067  0.04850933  0.12817080  1.0
  Ni  Ni526  1  0.45149067  0.38184267  0.12817080  1.0
  Ni  Ni527  1  0.45149067  0.71517600  0.12817080  1.0
  Ni  Ni528  1  0.78482400  0.04850933  0.12817080  1.0
  Ni  Ni529  1  0.78482400  0.38184267  0.12817080  1.0
  Ni  Ni530  1  0.78482400  0.71517600  0.12817080  1.0
  Ni  Ni531  1  0.11815733  0.21517600  0.17817080  1.0
  Ni  Ni532  1  0.11815733  0.54850933  0.17817080  1.0
  Ni  Ni533  1  0.11815733  0.88184267  0.17817080  1.0
  Ni  Ni534  1  0.45149067  0.21517600  0.17817080  1.0
  Ni  Ni535  1  0.45149067  0.54850933  0.17817080  1.0
  Ni  Ni536  1  0.45149067  0.88184267  0.17817080  1.0
  Ni  Ni537  1  0.78482400  0.21517600  0.17817080  1.0
  Ni  Ni538  1  0.78482400  0.54850933  0.17817080  1.0
  Ni  Ni539  1  0.78482400  0.88184267  0.17817080  1.0
  Ni  Ni540  1  0.11815733  0.29003533  0.11079740  1.0
  Ni  Ni541  1  0.11815733  0.62336867  0.11079740  1.0
  Ni  Ni542  1  0.11815733  0.95670200  0.11079740  1.0
  Ni  Ni543  1  0.45149067  0.29003533  0.11079740  1.0
  Ni  Ni544  1  0.45149067  0.62336867  0.11079740  1.0
  Ni  Ni545  1  0.45149067  0.95670200  0.11079740  1.0
  Ni  Ni546  1  0.78482400  0.29003533  0.11079740  1.0
  Ni  Ni547  1  0.78482400  0.62336867  0.11079740  1.0
  Ni  Ni548  1  0.78482400  0.95670200  0.11079740  1.0
  Ni  Ni549  1  0.11815733  0.12336867  0.16079740  1.0
  Ni  Ni550  1  0.11815733  0.45670200  0.16079740  1.0
  Ni  Ni551  1  0.11815733  0.79003533  0.16079740  1.0
  Ni  Ni552  1  0.45149067  0.12336867  0.16079740  1.0
  Ni  Ni553  1  0.45149067  0.45670200  0.16079740  1.0
  Ni  Ni554  1  0.45149067  0.79003533  0.16079740  1.0
  Ni  Ni555  1  0.78482400  0.12336867  0.16079740  1.0
  Ni  Ni556  1  0.78482400  0.45670200  0.16079740  1.0
  Ni  Ni557  1  0.78482400  0.79003533  0.16079740  1.0
  Ni  Ni558  1  0.30177200  0.29003533  0.11079740  1.0
  Ni  Ni559  1  0.30177200  0.62336867  0.11079740  1.0
  Ni  Ni560  1  0.30177200  0.95670200  0.11079740  1.0
  Ni  Ni561  1  0.63510533  0.29003533  0.11079740  1.0
  Ni  Ni562  1  0.63510533  0.62336867  0.11079740  1.0
  Ni  Ni563  1  0.63510533  0.95670200  0.11079740  1.0
  Ni  Ni564  1  0.96843867  0.29003533  0.11079740  1.0
  Ni  Ni565  1  0.96843867  0.62336867  0.11079740  1.0
  Ni  Ni566  1  0.96843867  0.95670200  0.11079740  1.0
  Ni  Ni567  1  0.30177200  0.12336867  0.16079740  1.0
  Ni  Ni568  1  0.30177200  0.45670200  0.16079740  1.0
  Ni  Ni569  1  0.30177200  0.79003533  0.16079740  1.0
  Ni  Ni570  1  0.63510533  0.12336867  0.16079740  1.0
  Ni  Ni571  1  0.63510533  0.45670200  0.16079740  1.0
  Ni  Ni572  1  0.63510533  0.79003533  0.16079740  1.0
  Ni  Ni573  1  0.96843867  0.12336867  0.16079740  1.0
  Ni  Ni574  1  0.96843867  0.45670200  0.16079740  1.0
  Ni  Ni575  1  0.96843867  0.79003533  0.16079740  1.0
  Ti  Ti576  1  0.24272000  0.25728000  0.22062400  1.0
  Ti  Ti577  1  0.24272000  0.59061333  0.22062400  1.0
  Ti  Ti578  1  0.24272000  0.92394667  0.22062400  1.0
  Ti  Ti579  1  0.57605333  0.25728000  0.22062400  1.0
  Ti  Ti580  1  0.57605333  0.59061333  0.22062400  1.0
  Ti  Ti581  1  0.57605333  0.92394667  0.22062400  1.0
  Ti  Ti582  1  0.90938667  0.25728000  0.22062400  1.0
  Ti  Ti583  1  0.90938667  0.59061333  0.22062400  1.0
  Ti  Ti584  1  0.90938667  0.92394667  0.22062400  1.0
  Ti  Ti585  1  0.24272000  0.09061333  0.27062400  1.0
  Ti  Ti586  1  0.24272000  0.42394667  0.27062400  1.0
  Ti  Ti587  1  0.24272000  0.75728000  0.27062400  1.0
  Ti  Ti588  1  0.57605333  0.09061333  0.27062400  1.0
  Ti  Ti589  1  0.57605333  0.42394667  0.27062400  1.0
  Ti  Ti590  1  0.57605333  0.75728000  0.27062400  1.0
  Ti  Ti591  1  0.90938667  0.09061333  0.27062400  1.0
  Ti  Ti592  1  0.90938667  0.42394667  0.27062400  1.0
  Ti  Ti593  1  0.90938667  0.75728000  0.27062400  1.0
  Ti  Ti594  1  0.09061333  0.07605333  0.27499200  1.0
  Ti  Ti595  1  0.09061333  0.40938667  0.27499200  1.0
  Ti  Ti596  1  0.09061333  0.74272000  0.27499200  1.0
  Ti  Ti597  1  0.42394667  0.07605333  0.27499200  1.0
  Ti  Ti598  1  0.42394667  0.40938667  0.27499200  1.0
  Ti  Ti599  1  0.42394667  0.74272000  0.27499200  1.0
  Ti  Ti600  1  0.75728000  0.07605333  0.27499200  1.0
  Ti  Ti601  1  0.75728000  0.40938667  0.27499200  1.0
  Ti  Ti602  1  0.75728000  0.74272000  0.27499200  1.0
  Ti  Ti603  1  0.09061333  0.24272000  0.22499200  1.0
  Ti  Ti604  1  0.09061333  0.57605333  0.22499200  1.0
  Ti  Ti605  1  0.09061333  0.90938667  0.22499200  1.0
  Ti  Ti606  1  0.42394667  0.24272000  0.22499200  1.0
  Ti  Ti607  1  0.42394667  0.57605333  0.22499200  1.0
  Ti  Ti608  1  0.42394667  0.90938667  0.22499200  1.0
  Ti  Ti609  1  0.75728000  0.24272000  0.22499200  1.0
  Ti  Ti610  1  0.75728000  0.57605333  0.22499200  1.0
  Ti  Ti611  1  0.75728000  0.90938667  0.22499200  1.0
  Ti  Ti612  1  0.08333333  0.00000000  0.24780800  1.0
  Ti  Ti613  1  0.08333333  0.33333333  0.24780800  1.0
  Ti  Ti614  1  0.08333333  0.66666667  0.24780800  1.0
  Ti  Ti615  1  0.41666667  0.00000000  0.24780800  1.0
  Ti  Ti616  1  0.41666667  0.33333333  0.24780800  1.0
  Ti  Ti617  1  0.41666667  0.66666667  0.24780800  1.0
  Ti  Ti618  1  0.75000000  0.00000000  0.24780800  1.0
  Ti  Ti619  1  0.75000000  0.33333333  0.24780800  1.0
  Ti  Ti620  1  0.75000000  0.66666667  0.24780800  1.0
  Ti  Ti621  1  0.08333333  0.16666667  0.29780800  1.0
  Ti  Ti622  1  0.08333333  0.50000000  0.29780800  1.0
  Ti  Ti623  1  0.08333333  0.83333333  0.29780800  1.0
  Ti  Ti624  1  0.41666667  0.16666667  0.29780800  1.0
  Ti  Ti625  1  0.41666667  0.50000000  0.29780800  1.0
  Ti  Ti626  1  0.41666667  0.83333333  0.29780800  1.0
  Ti  Ti627  1  0.75000000  0.16666667  0.29780800  1.0
  Ti  Ti628  1  0.75000000  0.50000000  0.29780800  1.0
  Ti  Ti629  1  0.75000000  0.83333333  0.29780800  1.0
  Ti  Ti630  1  0.25000000  0.00000000  0.24780800  1.0
  Ti  Ti631  1  0.25000000  0.33333333  0.24780800  1.0
  Ti  Ti632  1  0.25000000  0.66666667  0.24780800  1.0
  Ti  Ti633  1  0.58333333  0.00000000  0.24780800  1.0
  Ti  Ti634  1  0.58333333  0.33333333  0.24780800  1.0
  Ti  Ti635  1  0.58333333  0.66666667  0.24780800  1.0
  Ti  Ti636  1  0.91666667  0.00000000  0.24780800  1.0
  Ti  Ti637  1  0.91666667  0.33333333  0.24780800  1.0
  Ti  Ti638  1  0.91666667  0.66666667  0.24780800  1.0
  Ti  Ti639  1  0.25000000  0.16666667  0.29780800  1.0
  Ti  Ti640  1  0.25000000  0.50000000  0.29780800  1.0
  Ti  Ti641  1  0.25000000  0.83333333  0.29780800  1.0
  Ti  Ti642  1  0.58333333  0.16666667  0.29780800  1.0
  Ti  Ti643  1  0.58333333  0.50000000  0.29780800  1.0
  Ti  Ti644  1  0.58333333  0.83333333  0.29780800  1.0
  Ti  Ti645  1  0.91666667  0.16666667  0.29780800  1.0
  Ti  Ti646  1  0.91666667  0.50000000  0.29780800  1.0
  Ti  Ti647  1  0.91666667  0.83333333  0.29780800  1.0
  Ti  Ti648  1  0.16666667  0.08333333  0.22280800  1.0
  Ti  Ti649  1  0.16666667  0.41666667  0.22280800  1.0
  Ti  Ti650  1  0.16666667  0.75000000  0.22280800  1.0
  Ti  Ti651  1  0.50000000  0.08333333  0.22280800  1.0
  Ti  Ti652  1  0.50000000  0.41666667  0.22280800  1.0
  Ti  Ti653  1  0.50000000  0.75000000  0.22280800  1.0
  Ti  Ti654  1  0.83333333  0.08333333  0.22280800  1.0
  Ti  Ti655  1  0.83333333  0.41666667  0.22280800  1.0
  Ti  Ti656  1  0.83333333  0.75000000  0.22280800  1.0
  Ti  Ti657  1  0.16666667  0.25000000  0.27280800  1.0
  Ti  Ti658  1  0.16666667  0.58333333  0.27280800  1.0
  Ti  Ti659  1  0.16666667  0.91666667  0.27280800  1.0
  Ti  Ti660  1  0.50000000  0.25000000  0.27280800  1.0
  Ti  Ti661  1  0.50000000  0.58333333  0.27280800  1.0
  Ti  Ti662  1  0.50000000  0.91666667  0.27280800  1.0
  Ti  Ti663  1  0.83333333  0.25000000  0.27280800  1.0
  Ti  Ti664  1  0.83333333  0.58333333  0.27280800  1.0
  Ti  Ti665  1  0.83333333  0.91666667  0.27280800  1.0
  Ti  Ti666  1  0.00000000  0.08333333  0.22280800  1.0
  Ti  Ti667  1  0.00000000  0.41666667  0.22280800  1.0
  Ti  Ti668  1  1.00000000  0.75000000  0.22280800  1.0
  Ti  Ti669  1  0.33333333  0.08333333  0.22280800  1.0
  Ti  Ti670  1  0.33333333  0.41666667  0.22280800  1.0
  Ti  Ti671  1  0.33333333  0.75000000  0.22280800  1.0
  Ti  Ti672  1  0.66666667  0.08333333  0.22280800  1.0
  Ti  Ti673  1  0.66666667  0.41666667  0.22280800  1.0
  Ti  Ti674  1  0.66666667  0.75000000  0.22280800  1.0
  Ti  Ti675  1  0.00000000  0.25000000  0.27280800  1.0
  Ti  Ti676  1  0.00000000  0.58333333  0.27280800  1.0
  Ti  Ti677  1  1.00000000  0.91666667  0.27280800  1.0
  Ti  Ti678  1  0.33333333  0.25000000  0.27280800  1.0
  Ti  Ti679  1  0.33333333  0.58333333  0.27280800  1.0
  Ti  Ti680  1  0.33333333  0.91666667  0.27280800  1.0
  Ti  Ti681  1  0.66666667  0.25000000  0.27280800  1.0
  Ti  Ti682  1  0.66666667  0.58333333  0.27280800  1.0
  Ti  Ti683  1  0.66666667  0.91666667  0.27280800  1.0
  Ti  Ti684  1  0.16666667  0.00000000  0.29780800  1.0
  Ti  Ti685  1  0.16666667  0.33333333  0.29780800  1.0
  Ti  Ti686  1  0.16666667  0.66666667  0.29780800  1.0
  Ti  Ti687  1  0.50000000  0.00000000  0.29780800  1.0
  Ti  Ti688  1  0.50000000  0.33333333  0.29780800  1.0
  Ti  Ti689  1  0.50000000  0.66666667  0.29780800  1.0
  Ti  Ti690  1  0.83333333  0.00000000  0.29780800  1.0
  Ti  Ti691  1  0.83333333  0.33333333  0.29780800  1.0
  Ti  Ti692  1  0.83333333  0.66666667  0.29780800  1.0
  Ti  Ti693  1  0.16666667  0.16666667  0.24780800  1.0
  Ti  Ti694  1  0.16666667  0.50000000  0.24780800  1.0
  Ti  Ti695  1  0.16666667  0.83333333  0.24780800  1.0
  Ti  Ti696  1  0.50000000  0.16666667  0.24780800  1.0
  Ti  Ti697  1  0.50000000  0.50000000  0.24780800  1.0
  Ti  Ti698  1  0.50000000  0.83333333  0.24780800  1.0
  Ti  Ti699  1  0.83333333  0.16666667  0.24780800  1.0
  Ti  Ti700  1  0.83333333  0.50000000  0.24780800  1.0
  Ti  Ti701  1  0.83333333  0.83333333  0.24780800  1.0
  Ti  Ti702  1  0.00000000  0.16666667  0.24780800  1.0
  Ti  Ti703  1  0.00000000  0.50000000  0.24780800  1.0
  Ti  Ti704  1  1.00000000  0.83333333  0.24780800  1.0
  Ti  Ti705  1  0.33333333  0.16666667  0.24780800  1.0
  Ti  Ti706  1  0.33333333  0.50000000  0.24780800  1.0
  Ti  Ti707  1  0.33333333  0.83333333  0.24780800  1.0
  Ti  Ti708  1  0.66666667  0.16666667  0.24780800  1.0
  Ti  Ti709  1  0.66666667  0.50000000  0.24780800  1.0
  Ti  Ti710  1  0.66666667  0.83333333  0.24780800  1.0
  Ti  Ti711  1  0.00000000  0.00000000  0.29780800  1.0
  Ti  Ti712  1  0.00000000  0.33333333  0.29780800  1.0
  Ti  Ti713  1  0.00000000  0.66666667  0.29780800  1.0
  Ti  Ti714  1  0.33333333  0.00000000  0.29780800  1.0
  Ti  Ti715  1  0.33333333  0.33333333  0.29780800  1.0
  Ti  Ti716  1  0.33333333  0.66666667  0.29780800  1.0
  Ti  Ti717  1  0.66666667  0.00000000  0.29780800  1.0
  Ti  Ti718  1  0.66666667  0.33333333  0.29780800  1.0
  Ti  Ti719  1  0.66666667  0.66666667  0.29780800  1.0
  Ni  Ni720  1  0.03156133  0.13510533  0.20219200  1.0
  Ni  Ni721  1  0.03156133  0.46843867  0.20219200  1.0
  Ni  Ni722  1  0.03156133  0.80177200  0.20219200  1.0
  Ni  Ni723  1  0.36489467  0.13510533  0.20219200  1.0
  Ni  Ni724  1  0.36489467  0.46843867  0.20219200  1.0
  Ni  Ni725  1  0.36489467  0.80177200  0.20219200  1.0
  Ni  Ni726  1  0.69822800  0.13510533  0.20219200  1.0
  Ni  Ni727  1  0.69822800  0.46843867  0.20219200  1.0
  Ni  Ni728  1  0.69822800  0.80177200  0.20219200  1.0
  Ni  Ni729  1  0.03156133  0.30177200  0.25219200  1.0
  Ni  Ni730  1  0.03156133  0.63510533  0.25219200  1.0
  Ni  Ni731  1  0.03156133  0.96843867  0.25219200  1.0
  Ni  Ni732  1  0.36489467  0.30177200  0.25219200  1.0
  Ni  Ni733  1  0.36489467  0.63510533  0.25219200  1.0
  Ni  Ni734  1  0.36489467  0.96843867  0.25219200  1.0
  Ni  Ni735  1  0.69822800  0.30177200  0.25219200  1.0
  Ni  Ni736  1  0.69822800  0.63510533  0.25219200  1.0
  Ni  Ni737  1  0.69822800  0.96843867  0.25219200  1.0
  Ni  Ni738  1  0.21517600  0.28482400  0.26744520  1.0
  Ni  Ni739  1  0.21517600  0.61815733  0.26744520  1.0
  Ni  Ni740  1  0.21517600  0.95149067  0.26744520  1.0
  Ni  Ni741  1  0.54850933  0.28482400  0.26744520  1.0
  Ni  Ni742  1  0.54850933  0.61815733  0.26744520  1.0
  Ni  Ni743  1  0.54850933  0.95149067  0.26744520  1.0
  Ni  Ni744  1  0.88184267  0.28482400  0.26744520  1.0
  Ni  Ni745  1  0.88184267  0.61815733  0.26744520  1.0
  Ni  Ni746  1  0.88184267  0.95149067  0.26744520  1.0
  Ni  Ni747  1  0.21517600  0.11815733  0.21744520  1.0
  Ni  Ni748  1  0.21517600  0.45149067  0.21744520  1.0
  Ni  Ni749  1  0.21517600  0.78482400  0.21744520  1.0
  Ni  Ni750  1  0.54850933  0.11815733  0.21744520  1.0
  Ni  Ni751  1  0.54850933  0.45149067  0.21744520  1.0
  Ni  Ni752  1  0.54850933  0.78482400  0.21744520  1.0
  Ni  Ni753  1  0.88184267  0.11815733  0.21744520  1.0
  Ni  Ni754  1  0.88184267  0.45149067  0.21744520  1.0
  Ni  Ni755  1  0.88184267  0.78482400  0.21744520  1.0
  Ni  Ni756  1  0.21517600  0.04329800  0.28481860  1.0
  Ni  Ni757  1  0.21517600  0.37663133  0.28481860  1.0
  Ni  Ni758  1  0.21517600  0.70996467  0.28481860  1.0
  Ni  Ni759  1  0.54850933  0.04329800  0.28481860  1.0
  Ni  Ni760  1  0.54850933  0.37663133  0.28481860  1.0
  Ni  Ni761  1  0.54850933  0.70996467  0.28481860  1.0
  Ni  Ni762  1  0.88184267  0.04329800  0.28481860  1.0
  Ni  Ni763  1  0.88184267  0.37663133  0.28481860  1.0
  Ni  Ni764  1  0.88184267  0.70996467  0.28481860  1.0
  Ni  Ni765  1  0.21517600  0.20996467  0.23481860  1.0
  Ni  Ni766  1  0.21517600  0.54329800  0.23481860  1.0
  Ni  Ni767  1  0.21517600  0.87663133  0.23481860  1.0
  Ni  Ni768  1  0.54850933  0.20996467  0.23481860  1.0
  Ni  Ni769  1  0.54850933  0.54329800  0.23481860  1.0
  Ni  Ni770  1  0.54850933  0.87663133  0.23481860  1.0
  Ni  Ni771  1  0.88184267  0.20996467  0.23481860  1.0
  Ni  Ni772  1  0.88184267  0.54329800  0.23481860  1.0
  Ni  Ni773  1  0.88184267  0.87663133  0.23481860  1.0
  Ni  Ni774  1  0.03156133  0.04329800  0.28481860  1.0
  Ni  Ni775  1  0.03156133  0.37663133  0.28481860  1.0
  Ni  Ni776  1  0.03156133  0.70996467  0.28481860  1.0
  Ni  Ni777  1  0.36489467  0.04329800  0.28481860  1.0
  Ni  Ni778  1  0.36489467  0.37663133  0.28481860  1.0
  Ni  Ni779  1  0.36489467  0.70996467  0.28481860  1.0
  Ni  Ni780  1  0.69822800  0.04329800  0.28481860  1.0
  Ni  Ni781  1  0.69822800  0.37663133  0.28481860  1.0
  Ni  Ni782  1  0.69822800  0.70996467  0.28481860  1.0
  Ni  Ni783  1  0.03156133  0.20996467  0.23481860  1.0
  Ni  Ni784  1  0.03156133  0.54329800  0.23481860  1.0
  Ni  Ni785  1  0.03156133  0.87663133  0.23481860  1.0
  Ni  Ni786  1  0.36489467  0.20996467  0.23481860  1.0
  Ni  Ni787  1  0.36489467  0.54329800  0.23481860  1.0
  Ni  Ni788  1  0.36489467  0.87663133  0.23481860  1.0
  Ni  Ni789  1  0.69822800  0.20996467  0.23481860  1.0
  Ni  Ni790  1  0.69822800  0.54329800  0.23481860  1.0
  Ni  Ni791  1  0.69822800  0.87663133  0.23481860  1.0
  Ni  Ni792  1  0.30177200  0.19822800  0.29342400  1.0
  Ni  Ni793  1  0.30177200  0.53156133  0.29342400  1.0
  Ni  Ni794  1  0.30177200  0.86489467  0.29342400  1.0
  Ni  Ni795  1  0.63510533  0.19822800  0.29342400  1.0
  Ni  Ni796  1  0.63510533  0.53156133  0.29342400  1.0
  Ni  Ni797  1  0.63510533  0.86489467  0.29342400  1.0
  Ni  Ni798  1  0.96843867  0.19822800  0.29342400  1.0
  Ni  Ni799  1  0.96843867  0.53156133  0.29342400  1.0
  Ni  Ni800  1  0.96843867  0.86489467  0.29342400  1.0
  Ni  Ni801  1  0.30177200  0.03156133  0.24342400  1.0
  Ni  Ni802  1  0.30177200  0.36489467  0.24342400  1.0
  Ni  Ni803  1  0.30177200  0.69822800  0.24342400  1.0
  Ni  Ni804  1  0.63510533  0.03156133  0.24342400  1.0
  Ni  Ni805  1  0.63510533  0.36489467  0.24342400  1.0
  Ni  Ni806  1  0.63510533  0.69822800  0.24342400  1.0
  Ni  Ni807  1  0.96843867  0.03156133  0.24342400  1.0
  Ni  Ni808  1  0.96843867  0.36489467  0.24342400  1.0
  Ni  Ni809  1  0.96843867  0.69822800  0.24342400  1.0
  Ni  Ni810  1  0.11815733  0.04850933  0.22817080  1.0
  Ni  Ni811  1  0.11815733  0.38184267  0.22817080  1.0
  Ni  Ni812  1  0.11815733  0.71517600  0.22817080  1.0
  Ni  Ni813  1  0.45149067  0.04850933  0.22817080  1.0
  Ni  Ni814  1  0.45149067  0.38184267  0.22817080  1.0
  Ni  Ni815  1  0.45149067  0.71517600  0.22817080  1.0
  Ni  Ni816  1  0.78482400  0.04850933  0.22817080  1.0
  Ni  Ni817  1  0.78482400  0.38184267  0.22817080  1.0
  Ni  Ni818  1  0.78482400  0.71517600  0.22817080  1.0
  Ni  Ni819  1  0.11815733  0.21517600  0.27817080  1.0
  Ni  Ni820  1  0.11815733  0.54850933  0.27817080  1.0
  Ni  Ni821  1  0.11815733  0.88184267  0.27817080  1.0
  Ni  Ni822  1  0.45149067  0.21517600  0.27817080  1.0
  Ni  Ni823  1  0.45149067  0.54850933  0.27817080  1.0
  Ni  Ni824  1  0.45149067  0.88184267  0.27817080  1.0
  Ni  Ni825  1  0.78482400  0.21517600  0.27817080  1.0
  Ni  Ni826  1  0.78482400  0.54850933  0.27817080  1.0
  Ni  Ni827  1  0.78482400  0.88184267  0.27817080  1.0
  Ni  Ni828  1  0.11815733  0.29003533  0.21079740  1.0
  Ni  Ni829  1  0.11815733  0.62336867  0.21079740  1.0
  Ni  Ni830  1  0.11815733  0.95670200  0.21079740  1.0
  Ni  Ni831  1  0.45149067  0.29003533  0.21079740  1.0
  Ni  Ni832  1  0.45149067  0.62336867  0.21079740  1.0
  Ni  Ni833  1  0.45149067  0.95670200  0.21079740  1.0
  Ni  Ni834  1  0.78482400  0.29003533  0.21079740  1.0
  Ni  Ni835  1  0.78482400  0.62336867  0.21079740  1.0
  Ni  Ni836  1  0.78482400  0.95670200  0.21079740  1.0
  Ni  Ni837  1  0.11815733  0.12336867  0.26079740  1.0
  Ni  Ni838  1  0.11815733  0.45670200  0.26079740  1.0
  Ni  Ni839  1  0.11815733  0.79003533  0.26079740  1.0
  Ni  Ni840  1  0.45149067  0.12336867  0.26079740  1.0
  Ni  Ni841  1  0.45149067  0.45670200  0.26079740  1.0
  Ni  Ni842  1  0.45149067  0.79003533  0.26079740  1.0
  Ni  Ni843  1  0.78482400  0.12336867  0.26079740  1.0
  Ni  Ni844  1  0.78482400  0.45670200  0.26079740  1.0
  Ni  Ni845  1  0.78482400  0.79003533  0.26079740  1.0
  Ni  Ni846  1  0.30177200  0.29003533  0.21079740  1.0
  Ni  Ni847  1  0.30177200  0.62336867  0.21079740  1.0
  Ni  Ni848  1  0.30177200  0.95670200  0.21079740  1.0
  Ni  Ni849  1  0.63510533  0.29003533  0.21079740  1.0
  Ni  Ni850  1  0.63510533  0.62336867  0.21079740  1.0
  Ni  Ni851  1  0.63510533  0.95670200  0.21079740  1.0
  Ni  Ni852  1  0.96843867  0.29003533  0.21079740  1.0
  Ni  Ni853  1  0.96843867  0.62336867  0.21079740  1.0
  Ni  Ni854  1  0.96843867  0.95670200  0.21079740  1.0
  Ni  Ni855  1  0.30177200  0.12336867  0.26079740  1.0
  Ni  Ni856  1  0.30177200  0.45670200  0.26079740  1.0
  Ni  Ni857  1  0.30177200  0.79003533  0.26079740  1.0
  Ni  Ni858  1  0.63510533  0.12336867  0.26079740  1.0
  Ni  Ni859  1  0.63510533  0.45670200  0.26079740  1.0
  Ni  Ni860  1  0.63510533  0.79003533  0.26079740  1.0
  Ni  Ni861  1  0.96843867  0.12336867  0.26079740  1.0
  Ni  Ni862  1  0.96843867  0.45670200  0.26079740  1.0
  Ni  Ni863  1  0.96843867  0.79003533  0.26079740  1.0
  Ti  Ti864  1  0.24272000  0.25728000  0.32062400  1.0
  Ti  Ti865  1  0.24272000  0.59061333  0.32062400  1.0
  Ti  Ti866  1  0.24272000  0.92394667  0.32062400  1.0
  Ti  Ti867  1  0.57605333  0.25728000  0.32062400  1.0
  Ti  Ti868  1  0.57605333  0.59061333  0.32062400  1.0
  Ti  Ti869  1  0.57605333  0.92394667  0.32062400  1.0
  Ti  Ti870  1  0.90938667  0.25728000  0.32062400  1.0
  Ti  Ti871  1  0.90938667  0.59061333  0.32062400  1.0
  Ti  Ti872  1  0.90938667  0.92394667  0.32062400  1.0
  Ti  Ti873  1  0.24272000  0.09061333  0.37062400  1.0
  Ti  Ti874  1  0.24272000  0.42394667  0.37062400  1.0
  Ti  Ti875  1  0.24272000  0.75728000  0.37062400  1.0
  Ti  Ti876  1  0.57605333  0.09061333  0.37062400  1.0
  Ti  Ti877  1  0.57605333  0.42394667  0.37062400  1.0
  Ti  Ti878  1  0.57605333  0.75728000  0.37062400  1.0
  Ti  Ti879  1  0.90938667  0.09061333  0.37062400  1.0
  Ti  Ti880  1  0.90938667  0.42394667  0.37062400  1.0
  Ti  Ti881  1  0.90938667  0.75728000  0.37062400  1.0
  Ti  Ti882  1  0.09061333  0.07605333  0.37499200  1.0
  Ti  Ti883  1  0.09061333  0.40938667  0.37499200  1.0
  Ti  Ti884  1  0.09061333  0.74272000  0.37499200  1.0
  Ti  Ti885  1  0.42394667  0.07605333  0.37499200  1.0
  Ti  Ti886  1  0.42394667  0.40938667  0.37499200  1.0
  Ti  Ti887  1  0.42394667  0.74272000  0.37499200  1.0
  Ti  Ti888  1  0.75728000  0.07605333  0.37499200  1.0
  Ti  Ti889  1  0.75728000  0.40938667  0.37499200  1.0
  Ti  Ti890  1  0.75728000  0.74272000  0.37499200  1.0
  Ti  Ti891  1  0.09061333  0.24272000  0.32499200  1.0
  Ti  Ti892  1  0.09061333  0.57605333  0.32499200  1.0
  Ti  Ti893  1  0.09061333  0.90938667  0.32499200  1.0
  Ti  Ti894  1  0.42394667  0.24272000  0.32499200  1.0
  Ti  Ti895  1  0.42394667  0.57605333  0.32499200  1.0
  Ti  Ti896  1  0.42394667  0.90938667  0.32499200  1.0
  Ti  Ti897  1  0.75728000  0.24272000  0.32499200  1.0
  Ti  Ti898  1  0.75728000  0.57605333  0.32499200  1.0
  Ti  Ti899  1  0.75728000  0.90938667  0.32499200  1.0
  Ti  Ti900  1  0.08333333  0.00000000  0.34780800  1.0
  Ti  Ti901  1  0.08333333  0.33333333  0.34780800  1.0
  Ti  Ti902  1  0.08333333  0.66666667  0.34780800  1.0
  Ti  Ti903  1  0.41666667  0.00000000  0.34780800  1.0
  Ti  Ti904  1  0.41666667  0.33333333  0.34780800  1.0
  Ti  Ti905  1  0.41666667  0.66666667  0.34780800  1.0
  Ti  Ti906  1  0.75000000  0.00000000  0.34780800  1.0
  Ti  Ti907  1  0.75000000  0.33333333  0.34780800  1.0
  Ti  Ti908  1  0.75000000  0.66666667  0.34780800  1.0
  Ti  Ti909  1  0.08333333  0.16666667  0.39780800  1.0
  Ti  Ti910  1  0.08333333  0.50000000  0.39780800  1.0
  Ti  Ti911  1  0.08333333  0.83333333  0.39780800  1.0
  Ti  Ti912  1  0.41666667  0.16666667  0.39780800  1.0
  Ti  Ti913  1  0.41666667  0.50000000  0.39780800  1.0
  Ti  Ti914  1  0.41666667  0.83333333  0.39780800  1.0
  Ti  Ti915  1  0.75000000  0.16666667  0.39780800  1.0
  Ti  Ti916  1  0.75000000  0.50000000  0.39780800  1.0
  Ti  Ti917  1  0.75000000  0.83333333  0.39780800  1.0
  Ti  Ti918  1  0.25000000  0.00000000  0.34780800  1.0
  Ti  Ti919  1  0.25000000  0.33333333  0.34780800  1.0
  Ti  Ti920  1  0.25000000  0.66666667  0.34780800  1.0
  Ti  Ti921  1  0.58333333  0.00000000  0.34780800  1.0
  Ti  Ti922  1  0.58333333  0.33333333  0.34780800  1.0
  Ti  Ti923  1  0.58333333  0.66666667  0.34780800  1.0
  Ti  Ti924  1  0.91666667  0.00000000  0.34780800  1.0
  Ti  Ti925  1  0.91666667  0.33333333  0.34780800  1.0
  Ti  Ti926  1  0.91666667  0.66666667  0.34780800  1.0
  Ti  Ti927  1  0.25000000  0.16666667  0.39780800  1.0
  Ti  Ti928  1  0.25000000  0.50000000  0.39780800  1.0
  Ti  Ti929  1  0.25000000  0.83333333  0.39780800  1.0
  Ti  Ti930  1  0.58333333  0.16666667  0.39780800  1.0
  Ti  Ti931  1  0.58333333  0.50000000  0.39780800  1.0
  Ti  Ti932  1  0.58333333  0.83333333  0.39780800  1.0
  Ti  Ti933  1  0.91666667  0.16666667  0.39780800  1.0
  Ti  Ti934  1  0.91666667  0.50000000  0.39780800  1.0
  Ti  Ti935  1  0.91666667  0.83333333  0.39780800  1.0
  Ti  Ti936  1  0.16666667  0.08333333  0.32280800  1.0
  Ti  Ti937  1  0.16666667  0.41666667  0.32280800  1.0
  Ti  Ti938  1  0.16666667  0.75000000  0.32280800  1.0
  Ti  Ti939  1  0.50000000  0.08333333  0.32280800  1.0
  Ti  Ti940  1  0.50000000  0.41666667  0.32280800  1.0
  Ti  Ti941  1  0.50000000  0.75000000  0.32280800  1.0
  Ti  Ti942  1  0.83333333  0.08333333  0.32280800  1.0
  Ti  Ti943  1  0.83333333  0.41666667  0.32280800  1.0
  Ti  Ti944  1  0.83333333  0.75000000  0.32280800  1.0
  Ti  Ti945  1  0.16666667  0.25000000  0.37280800  1.0
  Ti  Ti946  1  0.16666667  0.58333333  0.37280800  1.0
  Ti  Ti947  1  0.16666667  0.91666667  0.37280800  1.0
  Ti  Ti948  1  0.50000000  0.25000000  0.37280800  1.0
  Ti  Ti949  1  0.50000000  0.58333333  0.37280800  1.0
  Ti  Ti950  1  0.50000000  0.91666667  0.37280800  1.0
  Ti  Ti951  1  0.83333333  0.25000000  0.37280800  1.0
  Ti  Ti952  1  0.83333333  0.58333333  0.37280800  1.0
  Ti  Ti953  1  0.83333333  0.91666667  0.37280800  1.0
  Ti  Ti954  1  0.00000000  0.08333333  0.32280800  1.0
  Ti  Ti955  1  0.00000000  0.41666667  0.32280800  1.0
  Ti  Ti956  1  1.00000000  0.75000000  0.32280800  1.0
  Ti  Ti957  1  0.33333333  0.08333333  0.32280800  1.0
  Ti  Ti958  1  0.33333333  0.41666667  0.32280800  1.0
  Ti  Ti959  1  0.33333333  0.75000000  0.32280800  1.0
  Ti  Ti960  1  0.66666667  0.08333333  0.32280800  1.0
  Ti  Ti961  1  0.66666667  0.41666667  0.32280800  1.0
  Ti  Ti962  1  0.66666667  0.75000000  0.32280800  1.0
  Ti  Ti963  1  0.00000000  0.25000000  0.37280800  1.0
  Ti  Ti964  1  0.00000000  0.58333333  0.37280800  1.0
  Ti  Ti965  1  1.00000000  0.91666667  0.37280800  1.0
  Ti  Ti966  1  0.33333333  0.25000000  0.37280800  1.0
  Ti  Ti967  1  0.33333333  0.58333333  0.37280800  1.0
  Ti  Ti968  1  0.33333333  0.91666667  0.37280800  1.0
  Ti  Ti969  1  0.66666667  0.25000000  0.37280800  1.0
  Ti  Ti970  1  0.66666667  0.58333333  0.37280800  1.0
  Ti  Ti971  1  0.66666667  0.91666667  0.37280800  1.0
  Ti  Ti972  1  0.16666667  0.00000000  0.39780800  1.0
  Ti  Ti973  1  0.16666667  0.33333333  0.39780800  1.0
  Ti  Ti974  1  0.16666667  0.66666667  0.39780800  1.0
  Ti  Ti975  1  0.50000000  0.00000000  0.39780800  1.0
  Ti  Ti976  1  0.50000000  0.33333333  0.39780800  1.0
  Ti  Ti977  1  0.50000000  0.66666667  0.39780800  1.0
  Ti  Ti978  1  0.83333333  0.00000000  0.39780800  1.0
  Ti  Ti979  1  0.83333333  0.33333333  0.39780800  1.0
  Ti  Ti980  1  0.83333333  0.66666667  0.39780800  1.0
  Ti  Ti981  1  0.16666667  0.16666667  0.34780800  1.0
  Ti  Ti982  1  0.16666667  0.50000000  0.34780800  1.0
  Ti  Ti983  1  0.16666667  0.83333333  0.34780800  1.0
  Ti  Ti984  1  0.50000000  0.16666667  0.34780800  1.0
  Ti  Ti985  1  0.50000000  0.50000000  0.34780800  1.0
  Ti  Ti986  1  0.50000000  0.83333333  0.34780800  1.0
  Ti  Ti987  1  0.83333333  0.16666667  0.34780800  1.0
  Ti  Ti988  1  0.83333333  0.50000000  0.34780800  1.0
  Ti  Ti989  1  0.83333333  0.83333333  0.34780800  1.0
  Ti  Ti990  1  0.00000000  0.16666667  0.34780800  1.0
  Ti  Ti991  1  0.00000000  0.50000000  0.34780800  1.0
  Ti  Ti992  1  1.00000000  0.83333333  0.34780800  1.0
  Ti  Ti993  1  0.33333333  0.16666667  0.34780800  1.0
  Ti  Ti994  1  0.33333333  0.50000000  0.34780800  1.0
  Ti  Ti995  1  0.33333333  0.83333333  0.34780800  1.0
  Ti  Ti996  1  0.66666667  0.16666667  0.34780800  1.0
  Ti  Ti997  1  0.66666667  0.50000000  0.34780800  1.0
  Ti  Ti998  1  0.66666667  0.83333333  0.34780800  1.0
  Ti  Ti999  1  0.00000000  0.00000000  0.39780800  1.0
  Ti  Ti1000  1  0.00000000  0.33333333  0.39780800  1.0
  Ti  Ti1001  1  0.00000000  0.66666667  0.39780800  1.0
  Ti  Ti1002  1  0.33333333  0.00000000  0.39780800  1.0
  Ti  Ti1003  1  0.33333333  0.33333333  0.39780800  1.0
  Ti  Ti1004  1  0.33333333  0.66666667  0.39780800  1.0
  Ti  Ti1005  1  0.66666667  0.00000000  0.39780800  1.0
  Ti  Ti1006  1  0.66666667  0.33333333  0.39780800  1.0
  Ti  Ti1007  1  0.66666667  0.66666667  0.39780800  1.0
  Ni  Ni1008  1  0.03156133  0.13510533  0.30219200  1.0
  Ni  Ni1009  1  0.03156133  0.46843867  0.30219200  1.0
  Ni  Ni1010  1  0.03156133  0.80177200  0.30219200  1.0
  Ni  Ni1011  1  0.36489467  0.13510533  0.30219200  1.0
  Ni  Ni1012  1  0.36489467  0.46843867  0.30219200  1.0
  Ni  Ni1013  1  0.36489467  0.80177200  0.30219200  1.0
  Ni  Ni1014  1  0.69822800  0.13510533  0.30219200  1.0
  Ni  Ni1015  1  0.69822800  0.46843867  0.30219200  1.0
  Ni  Ni1016  1  0.69822800  0.80177200  0.30219200  1.0
  Ni  Ni1017  1  0.03156133  0.30177200  0.35219200  1.0
  Ni  Ni1018  1  0.03156133  0.63510533  0.35219200  1.0
  Ni  Ni1019  1  0.03156133  0.96843867  0.35219200  1.0
  Ni  Ni1020  1  0.36489467  0.30177200  0.35219200  1.0
  Ni  Ni1021  1  0.36489467  0.63510533  0.35219200  1.0
  Ni  Ni1022  1  0.36489467  0.96843867  0.35219200  1.0
  Ni  Ni1023  1  0.69822800  0.30177200  0.35219200  1.0
  Ni  Ni1024  1  0.69822800  0.63510533  0.35219200  1.0
  Ni  Ni1025  1  0.69822800  0.96843867  0.35219200  1.0
  Ni  Ni1026  1  0.21517600  0.28482400  0.36744520  1.0
  Ni  Ni1027  1  0.21517600  0.61815733  0.36744520  1.0
  Ni  Ni1028  1  0.21517600  0.95149067  0.36744520  1.0
  Ni  Ni1029  1  0.54850933  0.28482400  0.36744520  1.0
  Ni  Ni1030  1  0.54850933  0.61815733  0.36744520  1.0
  Ni  Ni1031  1  0.54850933  0.95149067  0.36744520  1.0
  Ni  Ni1032  1  0.88184267  0.28482400  0.36744520  1.0
  Ni  Ni1033  1  0.88184267  0.61815733  0.36744520  1.0
  Ni  Ni1034  1  0.88184267  0.95149067  0.36744520  1.0
  Ni  Ni1035  1  0.21517600  0.11815733  0.31744520  1.0
  Ni  Ni1036  1  0.21517600  0.45149067  0.31744520  1.0
  Ni  Ni1037  1  0.21517600  0.78482400  0.31744520  1.0
  Ni  Ni1038  1  0.54850933  0.11815733  0.31744520  1.0
  Ni  Ni1039  1  0.54850933  0.45149067  0.31744520  1.0
  Ni  Ni1040  1  0.54850933  0.78482400  0.31744520  1.0
  Ni  Ni1041  1  0.88184267  0.11815733  0.31744520  1.0
  Ni  Ni1042  1  0.88184267  0.45149067  0.31744520  1.0
  Ni  Ni1043  1  0.88184267  0.78482400  0.31744520  1.0
  Ni  Ni1044  1  0.21517600  0.04329800  0.38481860  1.0
  Ni  Ni1045  1  0.21517600  0.37663133  0.38481860  1.0
  Ni  Ni1046  1  0.21517600  0.70996467  0.38481860  1.0
  Ni  Ni1047  1  0.54850933  0.04329800  0.38481860  1.0
  Ni  Ni1048  1  0.54850933  0.37663133  0.38481860  1.0
  Ni  Ni1049  1  0.54850933  0.70996467  0.38481860  1.0
  Ni  Ni1050  1  0.88184267  0.04329800  0.38481860  1.0
  Ni  Ni1051  1  0.88184267  0.37663133  0.38481860  1.0
  Ni  Ni1052  1  0.88184267  0.70996467  0.38481860  1.0
  Ni  Ni1053  1  0.21517600  0.20996467  0.33481860  1.0
  Ni  Ni1054  1  0.21517600  0.54329800  0.33481860  1.0
  Ni  Ni1055  1  0.21517600  0.87663133  0.33481860  1.0
  Ni  Ni1056  1  0.54850933  0.20996467  0.33481860  1.0
  Ni  Ni1057  1  0.54850933  0.54329800  0.33481860  1.0
  Ni  Ni1058  1  0.54850933  0.87663133  0.33481860  1.0
  Ni  Ni1059  1  0.88184267  0.20996467  0.33481860  1.0
  Ni  Ni1060  1  0.88184267  0.54329800  0.33481860  1.0
  Ni  Ni1061  1  0.88184267  0.87663133  0.33481860  1.0
  Ni  Ni1062  1  0.03156133  0.04329800  0.38481860  1.0
  Ni  Ni1063  1  0.03156133  0.37663133  0.38481860  1.0
  Ni  Ni1064  1  0.03156133  0.70996467  0.38481860  1.0
  Ni  Ni1065  1  0.36489467  0.04329800  0.38481860  1.0
  Ni  Ni1066  1  0.36489467  0.37663133  0.38481860  1.0
  Ni  Ni1067  1  0.36489467  0.70996467  0.38481860  1.0
  Ni  Ni1068  1  0.69822800  0.04329800  0.38481860  1.0
  Ni  Ni1069  1  0.69822800  0.37663133  0.38481860  1.0
  Ni  Ni1070  1  0.69822800  0.70996467  0.38481860  1.0
  Ni  Ni1071  1  0.03156133  0.20996467  0.33481860  1.0
  Ni  Ni1072  1  0.03156133  0.54329800  0.33481860  1.0
  Ni  Ni1073  1  0.03156133  0.87663133  0.33481860  1.0
  Ni  Ni1074  1  0.36489467  0.20996467  0.33481860  1.0
  Ni  Ni1075  1  0.36489467  0.54329800  0.33481860  1.0
  Ni  Ni1076  1  0.36489467  0.87663133  0.33481860  1.0
  Ni  Ni1077  1  0.69822800  0.20996467  0.33481860  1.0
  Ni  Ni1078  1  0.69822800  0.54329800  0.33481860  1.0
  Ni  Ni1079  1  0.69822800  0.87663133  0.33481860  1.0
  Ni  Ni1080  1  0.30177200  0.19822800  0.39342400  1.0
  Ni  Ni1081  1  0.30177200  0.53156133  0.39342400  1.0
  Ni  Ni1082  1  0.30177200  0.86489467  0.39342400  1.0
  Ni  Ni1083  1  0.63510533  0.19822800  0.39342400  1.0
  Ni  Ni1084  1  0.63510533  0.53156133  0.39342400  1.0
  Ni  Ni1085  1  0.63510533  0.86489467  0.39342400  1.0
  Ni  Ni1086  1  0.96843867  0.19822800  0.39342400  1.0
  Ni  Ni1087  1  0.96843867  0.53156133  0.39342400  1.0
  Ni  Ni1088  1  0.96843867  0.86489467  0.39342400  1.0
  Ni  Ni1089  1  0.30177200  0.03156133  0.34342400  1.0
  Ni  Ni1090  1  0.30177200  0.36489467  0.34342400  1.0
  Ni  Ni1091  1  0.30177200  0.69822800  0.34342400  1.0
  Ni  Ni1092  1  0.63510533  0.03156133  0.34342400  1.0
  Ni  Ni1093  1  0.63510533  0.36489467  0.34342400  1.0
  Ni  Ni1094  1  0.63510533  0.69822800  0.34342400  1.0
  Ni  Ni1095  1  0.96843867  0.03156133  0.34342400  1.0
  Ni  Ni1096  1  0.96843867  0.36489467  0.34342400  1.0
  Ni  Ni1097  1  0.96843867  0.69822800  0.34342400  1.0
  Ni  Ni1098  1  0.11815733  0.04850933  0.32817080  1.0
  Ni  Ni1099  1  0.11815733  0.38184267  0.32817080  1.0
  Ni  Ni1100  1  0.11815733  0.71517600  0.32817080  1.0
  Ni  Ni1101  1  0.45149067  0.04850933  0.32817080  1.0
  Ni  Ni1102  1  0.45149067  0.38184267  0.32817080  1.0
  Ni  Ni1103  1  0.45149067  0.71517600  0.32817080  1.0
  Ni  Ni1104  1  0.78482400  0.04850933  0.32817080  1.0
  Ni  Ni1105  1  0.78482400  0.38184267  0.32817080  1.0
  Ni  Ni1106  1  0.78482400  0.71517600  0.32817080  1.0
  Ni  Ni1107  1  0.11815733  0.21517600  0.37817080  1.0
  Ni  Ni1108  1  0.11815733  0.54850933  0.37817080  1.0
  Ni  Ni1109  1  0.11815733  0.88184267  0.37817080  1.0
  Ni  Ni1110  1  0.45149067  0.21517600  0.37817080  1.0
  Ni  Ni1111  1  0.45149067  0.54850933  0.37817080  1.0
  Ni  Ni1112  1  0.45149067  0.88184267  0.37817080  1.0
  Ni  Ni1113  1  0.78482400  0.21517600  0.37817080  1.0
  Ni  Ni1114  1  0.78482400  0.54850933  0.37817080  1.0
  Ni  Ni1115  1  0.78482400  0.88184267  0.37817080  1.0
  Ni  Ni1116  1  0.11815733  0.29003533  0.31079740  1.0
  Ni  Ni1117  1  0.11815733  0.62336867  0.31079740  1.0
  Ni  Ni1118  1  0.11815733  0.95670200  0.31079740  1.0
  Ni  Ni1119  1  0.45149067  0.29003533  0.31079740  1.0
  Ni  Ni1120  1  0.45149067  0.62336867  0.31079740  1.0
  Ni  Ni1121  1  0.45149067  0.95670200  0.31079740  1.0
  Ni  Ni1122  1  0.78482400  0.29003533  0.31079740  1.0
  Ni  Ni1123  1  0.78482400  0.62336867  0.31079740  1.0
  Ni  Ni1124  1  0.78482400  0.95670200  0.31079740  1.0
  Ni  Ni1125  1  0.11815733  0.12336867  0.36079740  1.0
  Ni  Ni1126  1  0.11815733  0.45670200  0.36079740  1.0
  Ni  Ni1127  1  0.11815733  0.79003533  0.36079740  1.0
  Ni  Ni1128  1  0.45149067  0.12336867  0.36079740  1.0
  Ni  Ni1129  1  0.45149067  0.45670200  0.36079740  1.0
  Ni  Ni1130  1  0.45149067  0.79003533  0.36079740  1.0
  Ni  Ni1131  1  0.78482400  0.12336867  0.36079740  1.0
  Ni  Ni1132  1  0.78482400  0.45670200  0.36079740  1.0
  Ni  Ni1133  1  0.78482400  0.79003533  0.36079740  1.0
  Ni  Ni1134  1  0.30177200  0.29003533  0.31079740  1.0
  Ni  Ni1135  1  0.30177200  0.62336867  0.31079740  1.0
  Ni  Ni1136  1  0.30177200  0.95670200  0.31079740  1.0
  Ni  Ni1137  1  0.63510533  0.29003533  0.31079740  1.0
  Ni  Ni1138  1  0.63510533  0.62336867  0.31079740  1.0
  Ni  Ni1139  1  0.63510533  0.95670200  0.31079740  1.0
  Ni  Ni1140  1  0.96843867  0.29003533  0.31079740  1.0
  Ni  Ni1141  1  0.96843867  0.62336867  0.31079740  1.0
  Ni  Ni1142  1  0.96843867  0.95670200  0.31079740  1.0
  Ni  Ni1143  1  0.30177200  0.12336867  0.36079740  1.0
  Ni  Ni1144  1  0.30177200  0.45670200  0.36079740  1.0
  Ni  Ni1145  1  0.30177200  0.79003533  0.36079740  1.0
  Ni  Ni1146  1  0.63510533  0.12336867  0.36079740  1.0
  Ni  Ni1147  1  0.63510533  0.45670200  0.36079740  1.0
  Ni  Ni1148  1  0.63510533  0.79003533  0.36079740  1.0
  Ni  Ni1149  1  0.96843867  0.12336867  0.36079740  1.0
  Ni  Ni1150  1  0.96843867  0.45670200  0.36079740  1.0
  Ni  Ni1151  1  0.96843867  0.79003533  0.36079740  1.0
