# generated using pymatgen
data_TiNi
_symmetry_space_group_name_H-M   'P 1'
_cell_length_a   28.62783711
_cell_length_b   40.87862565
_cell_length_c   27.13026900
_cell_angle_alpha   81.51676770
_cell_angle_beta   81.51098022
_cell_angle_gamma   70.76246821
_symmetry_Int_Tables_number   1
_chemical_formula_structural   TiNi
_chemical_formula_sum   'Ti432 Ni432'
_cell_volume   29481.66546866
_cell_formula_units_Z   432
loop_
 _symmetry_equiv_pos_site_id
 _symmetry_equiv_pos_as_xyz
  1  'x, y, z'
loop_
 _atom_site_type_symbol
 _atom_site_label
 _atom_site_symmetry_multiplicity
 _atom_site_fract_x
 _atom_site_fract_y
 _atom_site_fract_z
 _atom_site_occupancy
  Ni  Ni0  1  0.21915843  0.02827567  0.96369223  1.0
  Ni  Ni1  1  0.21915842  0.36160900  0.96369222  1.0
  Ni  Ni2  1  0.21915842  0.69494233  0.96369223  1.0
  Ni  Ni3  1  0.55249176  0.02827567  0.96369222  1.0
  Ni  Ni4  1  0.55249176  0.36160900  0.96369222  1.0
  Ni  Ni5  1  0.55249176  0.69494233  0.96369222  1.0
  Ni  Ni6  1  0.88582509  0.02827567  0.96369222  1.0
  Ni  Ni7  1  0.88582509  0.36160900  0.96369222  1.0
  Ni  Ni8  1  0.88582509  0.69494233  0.96369222  1.0
  Ni  Ni9  1  0.06915842  0.02827567  0.91369222  1.0
  Ni  Ni10  1  0.06915842  0.36160900  0.91369223  1.0
  Ni  Ni11  1  0.06915842  0.69494233  0.91369222  1.0
  Ni  Ni12  1  0.40249176  0.02827567  0.91369222  1.0
  Ni  Ni13  1  0.40249176  0.36160900  0.91369222  1.0
  Ni  Ni14  1  0.40249176  0.69494233  0.91369222  1.0
  Ni  Ni15  1  0.73582509  0.02827567  0.91369223  1.0
  Ni  Ni16  1  0.73582509  0.36160900  0.91369222  1.0
  Ni  Ni17  1  0.73582509  0.69494233  0.91369222  1.0
  Ni  Ni18  1  0.17038913  0.13923267  0.94695212  1.0
  Ni  Ni19  1  0.17038913  0.47256600  0.94695213  1.0
  Ni  Ni20  1  0.17038913  0.80589933  0.94695212  1.0
  Ni  Ni21  1  0.50372246  0.13923267  0.94695212  1.0
  Ni  Ni22  1  0.50372246  0.47256600  0.94695212  1.0
  Ni  Ni23  1  0.50372246  0.80589933  0.94695212  1.0
  Ni  Ni24  1  0.83705579  0.13923267  0.94695213  1.0
  Ni  Ni25  1  0.83705579  0.47256600  0.94695213  1.0
  Ni  Ni26  1  0.83705579  0.80589933  0.94695212  1.0
  Ni  Ni27  1  0.32038913  0.13923267  0.99695213  1.0
  Ni  Ni28  1  0.32038913  0.47256600  0.99695212  1.0
  Ni  Ni29  1  0.32038912  0.80589933  0.99695213  1.0
  Ni  Ni30  1  0.65372246  0.13923267  0.99695212  1.0
  Ni  Ni31  1  0.65372246  0.47256600  0.99695212  1.0
  Ni  Ni32  1  0.65372246  0.80589933  0.99695212  1.0
  Ni  Ni33  1  0.98705579  0.13923267  0.99695212  1.0
  Ni  Ni34  1  0.98705579  0.47256600  0.99695212  1.0
  Ni  Ni35  1  0.98705579  0.80589933  0.99695212  1.0
  Ni  Ni36  1  0.11451399  0.25080033  0.93558752  1.0
  Ni  Ni37  1  0.11451399  0.58413367  0.93558752  1.0
  Ni  Ni38  1  0.11451399  0.91746700  0.93558752  1.0
  Ni  Ni39  1  0.44784733  0.25080033  0.93558752  1.0
  Ni  Ni40  1  0.44784733  0.58413367  0.93558752  1.0
  Ni  Ni41  1  0.44784732  0.91746700  0.93558752  1.0
  Ni  Ni42  1  0.78118066  0.25080033  0.93558752  1.0
  Ni  Ni43  1  0.78118066  0.58413367  0.93558752  1.0
  Ni  Ni44  1  0.78118066  0.91746700  0.93558752  1.0
  Ni  Ni45  1  0.26451399  0.25080033  0.98558753  1.0
  Ni  Ni46  1  0.26451399  0.58413367  0.98558753  1.0
  Ni  Ni47  1  0.26451399  0.91746700  0.98558752  1.0
  Ni  Ni48  1  0.59784733  0.25080033  0.98558753  1.0
  Ni  Ni49  1  0.59784733  0.58413367  0.98558753  1.0
  Ni  Ni50  1  0.59784733  0.91746700  0.98558753  1.0
  Ni  Ni51  1  0.93118066  0.25080033  0.98558753  1.0
  Ni  Ni52  1  0.93118066  0.58413367  0.98558752  1.0
  Ni  Ni53  1  0.93118066  0.91746700  0.98558753  1.0
  Ni  Ni54  1  0.14597653  0.30505767  0.94090292  1.0
  Ni  Ni55  1  0.14597653  0.63839100  0.94090293  1.0
  Ni  Ni56  1  0.14597653  0.97172433  0.94090293  1.0
  Ni  Ni57  1  0.47930986  0.30505767  0.94090292  1.0
  Ni  Ni58  1  0.47930986  0.63839100  0.94090292  1.0
  Ni  Ni59  1  0.47930986  0.97172433  0.94090293  1.0
  Ni  Ni60  1  0.81264319  0.30505767  0.94090293  1.0
  Ni  Ni61  1  0.81264319  0.63839100  0.94090292  1.0
  Ni  Ni62  1  0.81264319  0.97172433  0.94090293  1.0
  Ni  Ni63  1  0.29597653  0.30505767  0.99090293  1.0
  Ni  Ni64  1  0.29597653  0.63839100  0.99090292  1.0
  Ni  Ni65  1  0.29597653  0.97172433  0.99090293  1.0
  Ni  Ni66  1  0.62930986  0.30505767  0.99090292  1.0
  Ni  Ni67  1  0.62930986  0.63839100  0.99090293  1.0
  Ni  Ni68  1  0.62930986  0.97172433  0.99090293  1.0
  Ni  Ni69  1  0.96264319  0.30505767  0.99090292  1.0
  Ni  Ni70  1  0.96264319  0.63839100  0.99090293  1.0
  Ni  Ni71  1  0.96264319  0.97172433  0.99090292  1.0
  Ni  Ni72  1  0.19474583  0.19410067  0.95764302  1.0
  Ni  Ni73  1  0.19474583  0.52743400  0.95764302  1.0
  Ni  Ni74  1  0.19474583  0.86076733  0.95764302  1.0
  Ni  Ni75  1  0.52807916  0.19410067  0.95764302  1.0
  Ni  Ni76  1  0.52807916  0.52743400  0.95764302  1.0
  Ni  Ni77  1  0.52807916  0.86076733  0.95764302  1.0
  Ni  Ni78  1  0.86141249  0.19410067  0.95764302  1.0
  Ni  Ni79  1  0.86141249  0.52743400  0.95764303  1.0
  Ni  Ni80  1  0.86141249  0.86076733  0.95764302  1.0
  Ni  Ni81  1  0.04474582  0.19410067  0.90764303  1.0
  Ni  Ni82  1  0.04474583  0.52743400  0.90764303  1.0
  Ni  Ni83  1  0.04474582  0.86076733  0.90764303  1.0
  Ni  Ni84  1  0.37807916  0.19410067  0.90764303  1.0
  Ni  Ni85  1  0.37807916  0.52743400  0.90764303  1.0
  Ni  Ni86  1  0.37807916  0.86076733  0.90764303  1.0
  Ni  Ni87  1  0.71141249  0.19410067  0.90764303  1.0
  Ni  Ni88  1  0.71141249  0.52743400  0.90764303  1.0
  Ni  Ni89  1  0.71141249  0.86076733  0.90764303  1.0
  Ni  Ni90  1  0.25062096  0.08253300  0.96900762  1.0
  Ni  Ni91  1  0.25062096  0.41586633  0.96900763  1.0
  Ni  Ni92  1  0.25062096  0.74919967  0.96900762  1.0
  Ni  Ni93  1  0.58395429  0.08253300  0.96900762  1.0
  Ni  Ni94  1  0.58395429  0.41586633  0.96900763  1.0
  Ni  Ni95  1  0.58395429  0.74919967  0.96900763  1.0
  Ni  Ni96  1  0.91728763  0.08253300  0.96900763  1.0
  Ni  Ni97  1  0.91728763  0.41586633  0.96900762  1.0
  Ni  Ni98  1  0.91728763  0.74919967  0.96900763  1.0
  Ni  Ni99  1  0.10062096  0.08253300  0.91900762  1.0
  Ni  Ni100  1  0.10062096  0.41586633  0.91900762  1.0
  Ni  Ni101  1  0.10062096  0.74919967  0.91900763  1.0
  Ni  Ni102  1  0.43395429  0.08253300  0.91900762  1.0
  Ni  Ni103  1  0.43395429  0.41586633  0.91900762  1.0
  Ni  Ni104  1  0.43395429  0.74919967  0.91900762  1.0
  Ni  Ni105  1  0.76728763  0.08253300  0.91900763  1.0
  Ni  Ni106  1  0.76728763  0.41586633  0.91900763  1.0
  Ni  Ni107  1  0.76728763  0.74919967  0.91900762  1.0
  Ni  Ni108  1  0.25249176  0.02827567  0.86369222  1.0
  Ni  Ni109  1  0.25249176  0.36160900  0.86369222  1.0
  Ni  Ni110  1  0.25249176  0.69494233  0.86369222  1.0
  Ni  Ni111  1  0.58582509  0.02827567  0.86369222  1.0
  Ni  Ni112  1  0.58582509  0.36160900  0.86369222  1.0
  Ni  Ni113  1  0.58582509  0.69494233  0.86369222  1.0
  Ni  Ni114  1  0.91915843  0.02827567  0.86369223  1.0
  Ni  Ni115  1  0.91915843  0.36160900  0.86369222  1.0
  Ni  Ni116  1  0.91915843  0.69494233  0.86369222  1.0
  Ni  Ni117  1  0.10249176  0.02827567  0.81369222  1.0
  Ni  Ni118  1  0.10249176  0.36160900  0.81369222  1.0
  Ni  Ni119  1  0.10249176  0.69494233  0.81369222  1.0
  Ni  Ni120  1  0.43582509  0.02827567  0.81369222  1.0
  Ni  Ni121  1  0.43582509  0.36160900  0.81369222  1.0
  Ni  Ni122  1  0.43582509  0.69494233  0.81369222  1.0
  Ni  Ni123  1  0.76915843  0.02827567  0.81369222  1.0
  Ni  Ni124  1  0.76915842  0.36160900  0.81369223  1.0
  Ni  Ni125  1  0.76915843  0.69494233  0.81369222  1.0
  Ni  Ni126  1  0.20372246  0.13923267  0.84695213  1.0
  Ni  Ni127  1  0.20372246  0.47256600  0.84695213  1.0
  Ni  Ni128  1  0.20372246  0.80589933  0.84695213  1.0
  Ni  Ni129  1  0.53705579  0.13923267  0.84695213  1.0
  Ni  Ni130  1  0.53705579  0.47256600  0.84695213  1.0
  Ni  Ni131  1  0.53705579  0.80589933  0.84695213  1.0
  Ni  Ni132  1  0.87038913  0.13923267  0.84695213  1.0
  Ni  Ni133  1  0.87038913  0.47256600  0.84695213  1.0
  Ni  Ni134  1  0.87038912  0.80589933  0.84695213  1.0
  Ni  Ni135  1  0.02038913  0.13923267  0.89695212  1.0
  Ni  Ni136  1  0.02038913  0.47256600  0.89695212  1.0
  Ni  Ni137  1  0.02038913  0.80589933  0.89695212  1.0
  Ni  Ni138  1  0.35372246  0.13923267  0.89695212  1.0
  Ni  Ni139  1  0.35372246  0.47256600  0.89695213  1.0
  Ni  Ni140  1  0.35372246  0.80589933  0.89695212  1.0
  Ni  Ni141  1  0.68705579  0.13923267  0.89695213  1.0
  Ni  Ni142  1  0.68705579  0.47256600  0.89695212  1.0
  Ni  Ni143  1  0.68705579  0.80589933  0.89695213  1.0
  Ni  Ni144  1  0.14784733  0.25080033  0.83558752  1.0
  Ni  Ni145  1  0.14784732  0.58413367  0.83558752  1.0
  Ni  Ni146  1  0.14784732  0.91746700  0.83558752  1.0
  Ni  Ni147  1  0.48118066  0.25080033  0.83558752  1.0
  Ni  Ni148  1  0.48118066  0.58413367  0.83558752  1.0
  Ni  Ni149  1  0.48118066  0.91746700  0.83558752  1.0
  Ni  Ni150  1  0.81451399  0.25080033  0.83558752  1.0
  Ni  Ni151  1  0.81451399  0.58413367  0.83558753  1.0
  Ni  Ni152  1  0.81451399  0.91746700  0.83558752  1.0
  Ni  Ni153  1  0.29784733  0.25080033  0.88558752  1.0
  Ni  Ni154  1  0.29784733  0.58413367  0.88558752  1.0
  Ni  Ni155  1  0.29784733  0.91746700  0.88558752  1.0
  Ni  Ni156  1  0.63118066  0.25080033  0.88558752  1.0
  Ni  Ni157  1  0.63118066  0.58413367  0.88558752  1.0
  Ni  Ni158  1  0.63118066  0.91746700  0.88558752  1.0
  Ni  Ni159  1  0.96451399  0.25080033  0.88558752  1.0
  Ni  Ni160  1  0.96451399  0.58413367  0.88558752  1.0
  Ni  Ni161  1  0.96451399  0.91746700  0.88558752  1.0
  Ni  Ni162  1  0.17930986  0.30505767  0.84090293  1.0
  Ni  Ni163  1  0.17930986  0.63839100  0.84090293  1.0
  Ni  Ni164  1  0.17930986  0.97172433  0.84090293  1.0
  Ni  Ni165  1  0.51264319  0.30505767  0.84090292  1.0
  Ni  Ni166  1  0.51264319  0.63839100  0.84090293  1.0
  Ni  Ni167  1  0.51264319  0.97172433  0.84090292  1.0
  Ni  Ni168  1  0.84597652  0.30505767  0.84090293  1.0
  Ni  Ni169  1  0.84597653  0.63839100  0.84090293  1.0
  Ni  Ni170  1  0.84597653  0.97172433  0.84090292  1.0
  Ni  Ni171  1  0.32930986  0.30505767  0.89090293  1.0
  Ni  Ni172  1  0.32930986  0.63839100  0.89090292  1.0
  Ni  Ni173  1  0.32930986  0.97172433  0.89090293  1.0
  Ni  Ni174  1  0.66264319  0.30505767  0.89090292  1.0
  Ni  Ni175  1  0.66264319  0.63839100  0.89090292  1.0
  Ni  Ni176  1  0.66264319  0.97172433  0.89090293  1.0
  Ni  Ni177  1  0.99597653  0.30505767  0.89090292  1.0
  Ni  Ni178  1  0.99597653  0.63839100  0.89090293  1.0
  Ni  Ni179  1  0.99597653  0.97172433  0.89090292  1.0
  Ni  Ni180  1  0.22807916  0.19410067  0.85764303  1.0
  Ni  Ni181  1  0.22807916  0.52743400  0.85764303  1.0
  Ni  Ni182  1  0.22807916  0.86076733  0.85764303  1.0
  Ni  Ni183  1  0.56141249  0.19410067  0.85764303  1.0
  Ni  Ni184  1  0.56141249  0.52743400  0.85764303  1.0
  Ni  Ni185  1  0.56141249  0.86076733  0.85764302  1.0
  Ni  Ni186  1  0.89474582  0.19410067  0.85764303  1.0
  Ni  Ni187  1  0.89474583  0.52743400  0.85764303  1.0
  Ni  Ni188  1  0.89474582  0.86076733  0.85764303  1.0
  Ni  Ni189  1  0.07807916  0.19410067  0.80764303  1.0
  Ni  Ni190  1  0.07807916  0.52743400  0.80764302  1.0
  Ni  Ni191  1  0.07807916  0.86076733  0.80764303  1.0
  Ni  Ni192  1  0.41141249  0.19410067  0.80764302  1.0
  Ni  Ni193  1  0.41141249  0.52743400  0.80764302  1.0
  Ni  Ni194  1  0.41141249  0.86076733  0.80764302  1.0
  Ni  Ni195  1  0.74474583  0.19410067  0.80764302  1.0
  Ni  Ni196  1  0.74474582  0.52743400  0.80764303  1.0
  Ni  Ni197  1  0.74474582  0.86076733  0.80764302  1.0
  Ni  Ni198  1  0.28395429  0.08253300  0.86900762  1.0
  Ni  Ni199  1  0.28395429  0.41586633  0.86900762  1.0
  Ni  Ni200  1  0.28395429  0.74919967  0.86900762  1.0
  Ni  Ni201  1  0.61728763  0.08253300  0.86900762  1.0
  Ni  Ni202  1  0.61728763  0.41586633  0.86900762  1.0
  Ni  Ni203  1  0.61728763  0.74919967  0.86900763  1.0
  Ni  Ni204  1  0.95062096  0.08253300  0.86900762  1.0
  Ni  Ni205  1  0.95062096  0.41586633  0.86900762  1.0
  Ni  Ni206  1  0.95062096  0.74919967  0.86900762  1.0
  Ni  Ni207  1  0.13395429  0.08253300  0.81900762  1.0
  Ni  Ni208  1  0.13395429  0.41586633  0.81900762  1.0
  Ni  Ni209  1  0.13395429  0.74919967  0.81900763  1.0
  Ni  Ni210  1  0.46728762  0.08253300  0.81900762  1.0
  Ni  Ni211  1  0.46728763  0.41586633  0.81900762  1.0
  Ni  Ni212  1  0.46728763  0.74919967  0.81900762  1.0
  Ni  Ni213  1  0.80062096  0.08253300  0.81900763  1.0
  Ni  Ni214  1  0.80062096  0.41586633  0.81900762  1.0
  Ni  Ni215  1  0.80062096  0.74919967  0.81900762  1.0
  Ni  Ni216  1  0.28582509  0.02827567  0.76369223  1.0
  Ni  Ni217  1  0.28582509  0.36160900  0.76369223  1.0
  Ni  Ni218  1  0.28582509  0.69494233  0.76369223  1.0
  Ni  Ni219  1  0.61915842  0.02827567  0.76369222  1.0
  Ni  Ni220  1  0.61915843  0.36160900  0.76369222  1.0
  Ni  Ni221  1  0.61915842  0.69494233  0.76369223  1.0
  Ni  Ni222  1  0.95249176  0.02827567  0.76369223  1.0
  Ni  Ni223  1  0.95249176  0.36160900  0.76369223  1.0
  Ni  Ni224  1  0.95249176  0.69494233  0.76369223  1.0
  Ni  Ni225  1  0.13582509  0.02827567  0.71369223  1.0
  Ni  Ni226  1  0.13582509  0.36160900  0.71369223  1.0
  Ni  Ni227  1  0.13582509  0.69494233  0.71369223  1.0
  Ni  Ni228  1  0.46915843  0.02827567  0.71369222  1.0
  Ni  Ni229  1  0.46915843  0.36160900  0.71369222  1.0
  Ni  Ni230  1  0.46915843  0.69494233  0.71369222  1.0
  Ni  Ni231  1  0.80249176  0.02827567  0.71369223  1.0
  Ni  Ni232  1  0.80249176  0.36160900  0.71369222  1.0
  Ni  Ni233  1  0.80249176  0.69494233  0.71369223  1.0
  Ni  Ni234  1  0.23705579  0.13923267  0.74695212  1.0
  Ni  Ni235  1  0.23705579  0.47256600  0.74695212  1.0
  Ni  Ni236  1  0.23705579  0.80589933  0.74695212  1.0
  Ni  Ni237  1  0.57038913  0.13923267  0.74695212  1.0
  Ni  Ni238  1  0.57038913  0.47256600  0.74695212  1.0
  Ni  Ni239  1  0.57038913  0.80589933  0.74695212  1.0
  Ni  Ni240  1  0.90372246  0.13923267  0.74695212  1.0
  Ni  Ni241  1  0.90372246  0.47256600  0.74695212  1.0
  Ni  Ni242  1  0.90372246  0.80589933  0.74695212  1.0
  Ni  Ni243  1  0.05372246  0.13923267  0.79695212  1.0
  Ni  Ni244  1  0.05372246  0.47256600  0.79695212  1.0
  Ni  Ni245  1  0.05372246  0.80589933  0.79695213  1.0
  Ni  Ni246  1  0.38705579  0.13923267  0.79695213  1.0
  Ni  Ni247  1  0.38705579  0.47256600  0.79695213  1.0
  Ni  Ni248  1  0.38705579  0.80589933  0.79695212  1.0
  Ni  Ni249  1  0.72038913  0.13923267  0.79695213  1.0
  Ni  Ni250  1  0.72038913  0.47256600  0.79695212  1.0
  Ni  Ni251  1  0.72038913  0.80589933  0.79695213  1.0
  Ni  Ni252  1  0.18118066  0.25080033  0.73558753  1.0
  Ni  Ni253  1  0.18118066  0.58413367  0.73558753  1.0
  Ni  Ni254  1  0.18118066  0.91746700  0.73558753  1.0
  Ni  Ni255  1  0.51451399  0.25080033  0.73558753  1.0
  Ni  Ni256  1  0.51451399  0.58413367  0.73558753  1.0
  Ni  Ni257  1  0.51451399  0.91746700  0.73558753  1.0
  Ni  Ni258  1  0.84784733  0.25080033  0.73558753  1.0
  Ni  Ni259  1  0.84784732  0.58413367  0.73558752  1.0
  Ni  Ni260  1  0.84784733  0.91746700  0.73558753  1.0
  Ni  Ni261  1  0.33118066  0.25080033  0.78558752  1.0
  Ni  Ni262  1  0.33118066  0.58413367  0.78558752  1.0
  Ni  Ni263  1  0.33118066  0.91746700  0.78558752  1.0
  Ni  Ni264  1  0.66451399  0.25080033  0.78558752  1.0
  Ni  Ni265  1  0.66451399  0.58413367  0.78558753  1.0
  Ni  Ni266  1  0.66451399  0.91746700  0.78558752  1.0
  Ni  Ni267  1  0.99784732  0.25080033  0.78558752  1.0
  Ni  Ni268  1  0.99784732  0.58413367  0.78558752  1.0
  Ni  Ni269  1  0.99784733  0.91746700  0.78558753  1.0
  Ni  Ni270  1  0.21264319  0.30505767  0.74090293  1.0
  Ni  Ni271  1  0.21264319  0.63839100  0.74090293  1.0
  Ni  Ni272  1  0.21264319  0.97172433  0.74090293  1.0
  Ni  Ni273  1  0.54597653  0.30505767  0.74090293  1.0
  Ni  Ni274  1  0.54597653  0.63839100  0.74090293  1.0
  Ni  Ni275  1  0.54597653  0.97172433  0.74090293  1.0
  Ni  Ni276  1  0.87930986  0.30505767  0.74090293  1.0
  Ni  Ni277  1  0.87930986  0.63839100  0.74090292  1.0
  Ni  Ni278  1  0.87930986  0.97172433  0.74090293  1.0
  Ni  Ni279  1  0.02930986  0.30505767  0.79090292  1.0
  Ni  Ni280  1  0.02930986  0.63839100  0.79090292  1.0
  Ni  Ni281  1  0.02930986  0.97172433  0.79090292  1.0
  Ni  Ni282  1  0.36264319  0.30505767  0.79090292  1.0
  Ni  Ni283  1  0.36264319  0.63839100  0.79090292  1.0
  Ni  Ni284  1  0.36264319  0.97172433  0.79090292  1.0
  Ni  Ni285  1  0.69597653  0.30505767  0.79090292  1.0
  Ni  Ni286  1  0.69597653  0.63839100  0.79090292  1.0
  Ni  Ni287  1  0.69597653  0.97172433  0.79090292  1.0
  Ni  Ni288  1  0.26141249  0.19410067  0.75764303  1.0
  Ni  Ni289  1  0.26141249  0.52743400  0.75764303  1.0
  Ni  Ni290  1  0.26141249  0.86076733  0.75764303  1.0
  Ni  Ni291  1  0.59474582  0.19410067  0.75764303  1.0
  Ni  Ni292  1  0.59474583  0.52743400  0.75764303  1.0
  Ni  Ni293  1  0.59474582  0.86076733  0.75764303  1.0
  Ni  Ni294  1  0.92807916  0.19410067  0.75764303  1.0
  Ni  Ni295  1  0.92807916  0.52743400  0.75764303  1.0
  Ni  Ni296  1  0.92807916  0.86076733  0.75764303  1.0
  Ni  Ni297  1  0.11141249  0.19410067  0.70764302  1.0
  Ni  Ni298  1  0.11141249  0.52743400  0.70764302  1.0
  Ni  Ni299  1  0.11141249  0.86076733  0.70764302  1.0
  Ni  Ni300  1  0.44474582  0.19410067  0.70764302  1.0
  Ni  Ni301  1  0.44474582  0.52743400  0.70764302  1.0
  Ni  Ni302  1  0.44474583  0.86076733  0.70764302  1.0
  Ni  Ni303  1  0.77807916  0.19410067  0.70764303  1.0
  Ni  Ni304  1  0.77807916  0.52743400  0.70764302  1.0
  Ni  Ni305  1  0.77807916  0.86076733  0.70764302  1.0
  Ni  Ni306  1  0.31728763  0.08253300  0.76900762  1.0
  Ni  Ni307  1  0.31728763  0.41586633  0.76900762  1.0
  Ni  Ni308  1  0.31728763  0.74919967  0.76900762  1.0
  Ni  Ni309  1  0.65062096  0.08253300  0.76900762  1.0
  Ni  Ni310  1  0.65062096  0.41586633  0.76900762  1.0
  Ni  Ni311  1  0.65062096  0.74919967  0.76900762  1.0
  Ni  Ni312  1  0.98395429  0.08253300  0.76900762  1.0
  Ni  Ni313  1  0.98395429  0.41586633  0.76900762  1.0
  Ni  Ni314  1  0.98395429  0.74919967  0.76900762  1.0
  Ni  Ni315  1  0.16728763  0.08253300  0.71900763  1.0
  Ni  Ni316  1  0.16728762  0.41586633  0.71900763  1.0
  Ni  Ni317  1  0.16728762  0.74919967  0.71900763  1.0
  Ni  Ni318  1  0.50062096  0.08253300  0.71900763  1.0
  Ni  Ni319  1  0.50062096  0.41586633  0.71900763  1.0
  Ni  Ni320  1  0.50062096  0.74919967  0.71900763  1.0
  Ni  Ni321  1  0.83395429  0.08253300  0.71900763  1.0
  Ni  Ni322  1  0.83395429  0.41586633  0.71900762  1.0
  Ni  Ni323  1  0.83395429  0.74919967  0.71900763  1.0
  Ni  Ni324  1  0.31915843  0.02827567  0.66369222  1.0
  Ni  Ni325  1  0.31915843  0.36160900  0.66369222  1.0
  Ni  Ni326  1  0.31915842  0.69494233  0.66369223  1.0
  Ni  Ni327  1  0.65249176  0.02827567  0.66369222  1.0
  Ni  Ni328  1  0.65249176  0.36160900  0.66369222  1.0
  Ni  Ni329  1  0.65249176  0.69494233  0.66369222  1.0
  Ni  Ni330  1  0.98582509  0.02827567  0.66369223  1.0
  Ni  Ni331  1  0.98582509  0.36160900  0.66369222  1.0
  Ni  Ni332  1  0.98582509  0.69494233  0.66369222  1.0
  Ni  Ni333  1  0.16915843  0.02827567  0.61369222  1.0
  Ni  Ni334  1  0.16915843  0.36160900  0.61369222  1.0
  Ni  Ni335  1  0.16915843  0.69494233  0.61369222  1.0
  Ni  Ni336  1  0.50249176  0.02827567  0.61369222  1.0
  Ni  Ni337  1  0.50249176  0.36160900  0.61369222  1.0
  Ni  Ni338  1  0.50249176  0.69494233  0.61369222  1.0
  Ni  Ni339  1  0.83582509  0.02827567  0.61369222  1.0
  Ni  Ni340  1  0.83582509  0.36160900  0.61369222  1.0
  Ni  Ni341  1  0.83582509  0.69494233  0.61369222  1.0
  Ni  Ni342  1  0.27038913  0.13923267  0.64695212  1.0
  Ni  Ni343  1  0.27038913  0.47256600  0.64695212  1.0
  Ni  Ni344  1  0.27038913  0.80589933  0.64695212  1.0
  Ni  Ni345  1  0.60372246  0.13923267  0.64695212  1.0
  Ni  Ni346  1  0.60372246  0.47256600  0.64695212  1.0
  Ni  Ni347  1  0.60372246  0.80589933  0.64695212  1.0
  Ni  Ni348  1  0.93705579  0.13923267  0.64695213  1.0
  Ni  Ni349  1  0.93705579  0.47256600  0.64695212  1.0
  Ni  Ni350  1  0.93705579  0.80589933  0.64695213  1.0
  Ni  Ni351  1  0.08705579  0.13923267  0.69695213  1.0
  Ni  Ni352  1  0.08705579  0.47256600  0.69695213  1.0
  Ni  Ni353  1  0.08705579  0.80589933  0.69695213  1.0
  Ni  Ni354  1  0.42038913  0.13923267  0.69695212  1.0
  Ni  Ni355  1  0.42038913  0.47256600  0.69695212  1.0
  Ni  Ni356  1  0.42038913  0.80589933  0.69695213  1.0
  Ni  Ni357  1  0.75372246  0.13923267  0.69695213  1.0
  Ni  Ni358  1  0.75372246  0.47256600  0.69695213  1.0
  Ni  Ni359  1  0.75372246  0.80589933  0.69695212  1.0
  Ni  Ni360  1  0.21451399  0.25080033  0.63558753  1.0
  Ni  Ni361  1  0.21451399  0.58413367  0.63558753  1.0
  Ni  Ni362  1  0.21451399  0.91746700  0.63558753  1.0
  Ni  Ni363  1  0.54784733  0.25080033  0.63558753  1.0
  Ni  Ni364  1  0.54784732  0.58413367  0.63558753  1.0
  Ni  Ni365  1  0.54784732  0.91746700  0.63558753  1.0
  Ni  Ni366  1  0.88118066  0.25080033  0.63558753  1.0
  Ni  Ni367  1  0.88118066  0.58413367  0.63558752  1.0
  Ni  Ni368  1  0.88118066  0.91746700  0.63558753  1.0
  Ni  Ni369  1  0.03118066  0.25080033  0.68558753  1.0
  Ni  Ni370  1  0.03118066  0.58413367  0.68558753  1.0
  Ni  Ni371  1  0.03118066  0.91746700  0.68558753  1.0
  Ni  Ni372  1  0.36451399  0.25080033  0.68558753  1.0
  Ni  Ni373  1  0.36451399  0.58413367  0.68558753  1.0
  Ni  Ni374  1  0.36451399  0.91746700  0.68558753  1.0
  Ni  Ni375  1  0.69784733  0.25080033  0.68558753  1.0
  Ni  Ni376  1  0.69784733  0.58413367  0.68558753  1.0
  Ni  Ni377  1  0.69784733  0.91746700  0.68558753  1.0
  Ni  Ni378  1  0.24597653  0.30505767  0.64090293  1.0
  Ni  Ni379  1  0.24597653  0.63839100  0.64090293  1.0
  Ni  Ni380  1  0.24597653  0.97172433  0.64090293  1.0
  Ni  Ni381  1  0.57930986  0.30505767  0.64090292  1.0
  Ni  Ni382  1  0.57930986  0.63839100  0.64090292  1.0
  Ni  Ni383  1  0.57930986  0.97172433  0.64090292  1.0
  Ni  Ni384  1  0.91264319  0.30505767  0.64090293  1.0
  Ni  Ni385  1  0.91264319  0.63839100  0.64090293  1.0
  Ni  Ni386  1  0.91264319  0.97172433  0.64090292  1.0
  Ni  Ni387  1  0.06264319  0.30505767  0.69090293  1.0
  Ni  Ni388  1  0.06264319  0.63839100  0.69090293  1.0
  Ni  Ni389  1  0.06264319  0.97172433  0.69090293  1.0
  Ni  Ni390  1  0.39597653  0.30505767  0.69090293  1.0
  Ni  Ni391  1  0.39597653  0.63839100  0.69090293  1.0
  Ni  Ni392  1  0.39597653  0.97172433  0.69090293  1.0
  Ni  Ni393  1  0.72930986  0.30505767  0.69090293  1.0
  Ni  Ni394  1  0.72930986  0.63839100  0.69090292  1.0
  Ni  Ni395  1  0.72930986  0.97172433  0.69090292  1.0
  Ni  Ni396  1  0.29474583  0.19410067  0.65764303  1.0
  Ni  Ni397  1  0.29474583  0.52743400  0.65764303  1.0
  Ni  Ni398  1  0.29474583  0.86076733  0.65764303  1.0
  Ni  Ni399  1  0.62807916  0.19410067  0.65764303  1.0
  Ni  Ni400  1  0.62807916  0.52743400  0.65764303  1.0
  Ni  Ni401  1  0.62807916  0.86076733  0.65764303  1.0
  Ni  Ni402  1  0.96141249  0.19410067  0.65764303  1.0
  Ni  Ni403  1  0.96141249  0.52743400  0.65764303  1.0
  Ni  Ni404  1  0.96141249  0.86076733  0.65764303  1.0
  Ni  Ni405  1  0.14474582  0.19410067  0.60764303  1.0
  Ni  Ni406  1  0.14474582  0.52743400  0.60764303  1.0
  Ni  Ni407  1  0.14474582  0.86076733  0.60764303  1.0
  Ni  Ni408  1  0.47807916  0.19410067  0.60764302  1.0
  Ni  Ni409  1  0.47807916  0.52743400  0.60764302  1.0
  Ni  Ni410  1  0.47807916  0.86076733  0.60764302  1.0
  Ni  Ni411  1  0.81141249  0.19410067  0.60764303  1.0
  Ni  Ni412  1  0.81141249  0.52743400  0.60764303  1.0
  Ni  Ni413  1  0.81141249  0.86076733  0.60764302  1.0
  Ni  Ni414  1  0.01728763  0.08253300  0.66900762  1.0
  Ni  Ni415  1  0.01728763  0.41586633  0.66900762  1.0
  Ni  Ni416  1  0.01728762  0.74919967  0.66900762  1.0
  Ni  Ni417  1  0.35062096  0.08253300  0.66900762  1.0
  Ni  Ni418  1  0.35062096  0.41586633  0.66900762  1.0
  Ni  Ni419  1  0.35062096  0.74919967  0.66900762  1.0
  Ni  Ni420  1  0.68395429  0.08253300  0.66900762  1.0
  Ni  Ni421  1  0.68395429  0.41586633  0.66900762  1.0
  Ni  Ni422  1  0.68395429  0.74919967  0.66900762  1.0
  Ni  Ni423  1  0.20062096  0.08253300  0.61900762  1.0
  Ni  Ni424  1  0.20062096  0.41586633  0.61900762  1.0
  Ni  Ni425  1  0.20062096  0.74919967  0.61900763  1.0
  Ni  Ni426  1  0.53395429  0.08253300  0.61900762  1.0
  Ni  Ni427  1  0.53395429  0.41586633  0.61900762  1.0
  Ni  Ni428  1  0.53395429  0.74919967  0.61900762  1.0
  Ni  Ni429  1  0.86728763  0.08253300  0.61900763  1.0
  Ni  Ni430  1  0.86728763  0.41586633  0.61900762  1.0
  Ni  Ni431  1  0.86728763  0.74919967  0.61900763  1.0
  Ti  Ti432  1  0.05607709  0.30586133  0.97434122  1.0
  Ti  Ti433  1  0.05607709  0.63919467  0.97434123  1.0
  Ti  Ti434  1  0.05607709  0.97252800  0.97434122  1.0
  Ti  Ti435  1  0.38941043  0.30586133  0.97434122  1.0
  Ti  Ti436  1  0.38941043  0.63919467  0.97434122  1.0
  Ti  Ti437  1  0.38941043  0.97252800  0.97434122  1.0
  Ti  Ti438  1  0.72274376  0.30586133  0.97434123  1.0
  Ti  Ti439  1  0.72274376  0.63919467  0.97434123  1.0
  Ti  Ti440  1  0.72274376  0.97252800  0.97434122  1.0
  Ti  Ti441  1  0.23941043  0.30586133  0.92434123  1.0
  Ti  Ti442  1  0.23941043  0.63919467  0.92434123  1.0
  Ti  Ti443  1  0.23941042  0.97252800  0.92434123  1.0
  Ti  Ti444  1  0.57274376  0.30586133  0.92434122  1.0
  Ti  Ti445  1  0.57274376  0.63919467  0.92434123  1.0
  Ti  Ti446  1  0.57274376  0.97252800  0.92434123  1.0
  Ti  Ti447  1  0.90607709  0.30586133  0.92434123  1.0
  Ti  Ti448  1  0.90607709  0.63919467  0.92434123  1.0
  Ti  Ti449  1  0.90607709  0.97252800  0.92434123  1.0
  Ti  Ti450  1  0.30905786  0.02747200  0.93025393  1.0
  Ti  Ti451  1  0.30905786  0.36080533  0.93025392  1.0
  Ti  Ti452  1  0.30905786  0.69413867  0.93025393  1.0
  Ti  Ti453  1  0.64239119  0.02747200  0.93025392  1.0
  Ti  Ti454  1  0.64239119  0.36080533  0.93025392  1.0
  Ti  Ti455  1  0.64239119  0.69413867  0.93025393  1.0
  Ti  Ti456  1  0.97572453  0.02747200  0.93025393  1.0
  Ti  Ti457  1  0.97572453  0.36080533  0.93025392  1.0
  Ti  Ti458  1  0.97572453  0.69413867  0.93025393  1.0
  Ti  Ti459  1  0.12572452  0.02747200  0.98025392  1.0
  Ti  Ti460  1  0.12572452  0.36080533  0.98025392  1.0
  Ti  Ti461  1  0.12572452  0.69413867  0.98025392  1.0
  Ti  Ti462  1  0.45905786  0.02747200  0.98025392  1.0
  Ti  Ti463  1  0.45905786  0.36080533  0.98025392  1.0
  Ti  Ti464  1  0.45905786  0.69413867  0.98025392  1.0
  Ti  Ti465  1  0.79239119  0.02747200  0.98025392  1.0
  Ti  Ti466  1  0.79239119  0.36080533  0.98025392  1.0
  Ti  Ti467  1  0.79239119  0.69413867  0.98025392  1.0
  Ti  Ti468  1  0.20397658  0.24960533  0.90154727  1.0
  Ti  Ti469  1  0.20397658  0.58293867  0.90154727  1.0
  Ti  Ti470  1  0.20397657  0.91627200  0.90154728  1.0
  Ti  Ti471  1  0.53730991  0.24960533  0.90154728  1.0
  Ti  Ti472  1  0.53730991  0.58293867  0.90154727  1.0
  Ti  Ti473  1  0.53730991  0.91627200  0.90154728  1.0
  Ti  Ti474  1  0.87064324  0.24960533  0.90154727  1.0
  Ti  Ti475  1  0.87064324  0.58293867  0.90154728  1.0
  Ti  Ti476  1  0.87064324  0.91627200  0.90154728  1.0
  Ti  Ti477  1  0.02064324  0.24960533  0.95154727  1.0
  Ti  Ti478  1  0.02064324  0.58293867  0.95154728  1.0
  Ti  Ti479  1  0.02064324  0.91627200  0.95154727  1.0
  Ti  Ti480  1  0.35397657  0.24960533  0.95154727  1.0
  Ti  Ti481  1  0.35397658  0.58293867  0.95154727  1.0
  Ti  Ti482  1  0.35397658  0.91627200  0.95154727  1.0
  Ti  Ti483  1  0.68730991  0.24960533  0.95154728  1.0
  Ti  Ti484  1  0.68730991  0.58293867  0.95154728  1.0
  Ti  Ti485  1  0.68730991  0.91627200  0.95154727  1.0
  Ti  Ti486  1  0.26088801  0.13830333  0.91243297  1.0
  Ti  Ti487  1  0.26088801  0.47163667  0.91243298  1.0
  Ti  Ti488  1  0.26088801  0.80497000  0.91243297  1.0
  Ti  Ti489  1  0.59422134  0.13830333  0.91243297  1.0
  Ti  Ti490  1  0.59422134  0.47163667  0.91243298  1.0
  Ti  Ti491  1  0.59422134  0.80497000  0.91243298  1.0
  Ti  Ti492  1  0.92755468  0.13830333  0.91243298  1.0
  Ti  Ti493  1  0.92755468  0.47163667  0.91243297  1.0
  Ti  Ti494  1  0.92755468  0.80497000  0.91243298  1.0
  Ti  Ti495  1  0.07755468  0.13830333  0.96243297  1.0
  Ti  Ti496  1  0.07755468  0.47163667  0.96243297  1.0
  Ti  Ti497  1  0.07755467  0.80497000  0.96243298  1.0
  Ti  Ti498  1  0.41088801  0.13830333  0.96243297  1.0
  Ti  Ti499  1  0.41088801  0.47163667  0.96243298  1.0
  Ti  Ti500  1  0.41088801  0.80497000  0.96243298  1.0
  Ti  Ti501  1  0.74422134  0.13830333  0.96243298  1.0
  Ti  Ti502  1  0.74422134  0.47163667  0.96243298  1.0
  Ti  Ti503  1  0.74422134  0.80497000  0.96243298  1.0
  Ti  Ti504  1  0.10424694  0.19503000  0.99216217  1.0
  Ti  Ti505  1  0.10424694  0.52836333  0.99216218  1.0
  Ti  Ti506  1  0.10424694  0.86169667  0.99216218  1.0
  Ti  Ti507  1  0.43758027  0.19503000  0.99216217  1.0
  Ti  Ti508  1  0.43758027  0.52836333  0.99216218  1.0
  Ti  Ti509  1  0.43758028  0.86169667  0.99216217  1.0
  Ti  Ti510  1  0.77091361  0.19503000  0.99216218  1.0
  Ti  Ti511  1  0.77091361  0.52836333  0.99216218  1.0
  Ti  Ti512  1  0.77091361  0.86169667  0.99216217  1.0
  Ti  Ti513  1  0.28758028  0.19503000  0.94216217  1.0
  Ti  Ti514  1  0.28758028  0.52836333  0.94216217  1.0
  Ti  Ti515  1  0.28758028  0.86169667  0.94216217  1.0
  Ti  Ti516  1  0.62091361  0.19503000  0.94216217  1.0
  Ti  Ti517  1  0.62091361  0.52836333  0.94216217  1.0
  Ti  Ti518  1  0.62091361  0.86169667  0.94216217  1.0
  Ti  Ti519  1  0.95424694  0.19503000  0.94216217  1.0
  Ti  Ti520  1  0.95424694  0.52836333  0.94216217  1.0
  Ti  Ti521  1  0.95424694  0.86169667  0.94216217  1.0
  Ti  Ti522  1  0.19449171  0.08372800  0.90304788  1.0
  Ti  Ti523  1  0.19449171  0.41706133  0.90304788  1.0
  Ti  Ti524  1  0.19449171  0.75039467  0.90304788  1.0
  Ti  Ti525  1  0.52782504  0.08372800  0.90304788  1.0
  Ti  Ti526  1  0.52782504  0.41706133  0.90304787  1.0
  Ti  Ti527  1  0.52782504  0.75039467  0.90304788  1.0
  Ti  Ti528  1  0.86115838  0.08372800  0.90304788  1.0
  Ti  Ti529  1  0.86115838  0.41706133  0.90304788  1.0
  Ti  Ti530  1  0.86115838  0.75039467  0.90304788  1.0
  Ti  Ti531  1  0.01115838  0.08372800  0.95304787  1.0
  Ti  Ti532  1  0.01115837  0.41706133  0.95304787  1.0
  Ti  Ti533  1  0.01115838  0.75039467  0.95304787  1.0
  Ti  Ti534  1  0.34449171  0.08372800  0.95304787  1.0
  Ti  Ti535  1  0.34449171  0.41706133  0.95304787  1.0
  Ti  Ti536  1  0.34449171  0.75039467  0.95304787  1.0
  Ti  Ti537  1  0.67782504  0.08372800  0.95304787  1.0
  Ti  Ti538  1  0.67782504  0.41706133  0.95304788  1.0
  Ti  Ti539  1  0.67782504  0.75039467  0.95304787  1.0
  Ti  Ti540  1  0.08941043  0.30586133  0.87434122  1.0
  Ti  Ti541  1  0.08941043  0.63919467  0.87434122  1.0
  Ti  Ti542  1  0.08941043  0.97252800  0.87434123  1.0
  Ti  Ti543  1  0.42274376  0.30586133  0.87434122  1.0
  Ti  Ti544  1  0.42274376  0.63919467  0.87434122  1.0
  Ti  Ti545  1  0.42274376  0.97252800  0.87434122  1.0
  Ti  Ti546  1  0.75607709  0.30586133  0.87434122  1.0
  Ti  Ti547  1  0.75607709  0.63919467  0.87434123  1.0
  Ti  Ti548  1  0.75607709  0.97252800  0.87434122  1.0
  Ti  Ti549  1  0.27274376  0.30586133  0.82434122  1.0
  Ti  Ti550  1  0.27274376  0.63919467  0.82434122  1.0
  Ti  Ti551  1  0.27274376  0.97252800  0.82434122  1.0
  Ti  Ti552  1  0.60607709  0.30586133  0.82434122  1.0
  Ti  Ti553  1  0.60607709  0.63919467  0.82434122  1.0
  Ti  Ti554  1  0.60607709  0.97252800  0.82434122  1.0
  Ti  Ti555  1  0.93941043  0.30586133  0.82434122  1.0
  Ti  Ti556  1  0.93941043  0.63919467  0.82434122  1.0
  Ti  Ti557  1  0.93941043  0.97252800  0.82434122  1.0
  Ti  Ti558  1  0.00905786  0.02747200  0.83025392  1.0
  Ti  Ti559  1  0.00905786  0.36080533  0.83025392  1.0
  Ti  Ti560  1  0.00905786  0.69413867  0.83025392  1.0
  Ti  Ti561  1  0.34239119  0.02747200  0.83025392  1.0
  Ti  Ti562  1  0.34239119  0.36080533  0.83025392  1.0
  Ti  Ti563  1  0.34239119  0.69413867  0.83025392  1.0
  Ti  Ti564  1  0.67572452  0.02747200  0.83025393  1.0
  Ti  Ti565  1  0.67572453  0.36080533  0.83025392  1.0
  Ti  Ti566  1  0.67572452  0.69413867  0.83025393  1.0
  Ti  Ti567  1  0.15905786  0.02747200  0.88025392  1.0
  Ti  Ti568  1  0.15905786  0.36080533  0.88025392  1.0
  Ti  Ti569  1  0.15905786  0.69413867  0.88025392  1.0
  Ti  Ti570  1  0.49239119  0.02747200  0.88025392  1.0
  Ti  Ti571  1  0.49239119  0.36080533  0.88025392  1.0
  Ti  Ti572  1  0.49239119  0.69413867  0.88025392  1.0
  Ti  Ti573  1  0.82572453  0.02747200  0.88025392  1.0
  Ti  Ti574  1  0.82572453  0.36080533  0.88025392  1.0
  Ti  Ti575  1  0.82572453  0.69413867  0.88025392  1.0
  Ti  Ti576  1  0.23730991  0.24960533  0.80154728  1.0
  Ti  Ti577  1  0.23730991  0.58293867  0.80154728  1.0
  Ti  Ti578  1  0.23730991  0.91627200  0.80154728  1.0
  Ti  Ti579  1  0.57064324  0.24960533  0.80154728  1.0
  Ti  Ti580  1  0.57064324  0.58293867  0.80154727  1.0
  Ti  Ti581  1  0.57064324  0.91627200  0.80154728  1.0
  Ti  Ti582  1  0.90397658  0.24960533  0.80154728  1.0
  Ti  Ti583  1  0.90397658  0.58293867  0.80154728  1.0
  Ti  Ti584  1  0.90397658  0.91627200  0.80154727  1.0
  Ti  Ti585  1  0.05397657  0.24960533  0.85154727  1.0
  Ti  Ti586  1  0.05397658  0.58293867  0.85154727  1.0
  Ti  Ti587  1  0.05397658  0.91627200  0.85154727  1.0
  Ti  Ti588  1  0.38730991  0.24960533  0.85154728  1.0
  Ti  Ti589  1  0.38730991  0.58293867  0.85154728  1.0
  Ti  Ti590  1  0.38730991  0.91627200  0.85154727  1.0
  Ti  Ti591  1  0.72064324  0.24960533  0.85154728  1.0
  Ti  Ti592  1  0.72064324  0.58293867  0.85154727  1.0
  Ti  Ti593  1  0.72064324  0.91627200  0.85154728  1.0
  Ti  Ti594  1  0.29422134  0.13830333  0.81243298  1.0
  Ti  Ti595  1  0.29422134  0.47163667  0.81243298  1.0
  Ti  Ti596  1  0.29422134  0.80497000  0.81243297  1.0
  Ti  Ti597  1  0.62755468  0.13830333  0.81243298  1.0
  Ti  Ti598  1  0.62755468  0.47163667  0.81243298  1.0
  Ti  Ti599  1  0.62755468  0.80497000  0.81243297  1.0
  Ti  Ti600  1  0.96088801  0.13830333  0.81243298  1.0
  Ti  Ti601  1  0.96088801  0.47163667  0.81243297  1.0
  Ti  Ti602  1  0.96088801  0.80497000  0.81243298  1.0
  Ti  Ti603  1  0.11088801  0.13830333  0.86243297  1.0
  Ti  Ti604  1  0.11088801  0.47163667  0.86243297  1.0
  Ti  Ti605  1  0.11088801  0.80497000  0.86243297  1.0
  Ti  Ti606  1  0.44422134  0.13830333  0.86243297  1.0
  Ti  Ti607  1  0.44422134  0.47163667  0.86243297  1.0
  Ti  Ti608  1  0.44422134  0.80497000  0.86243297  1.0
  Ti  Ti609  1  0.77755468  0.13830333  0.86243297  1.0
  Ti  Ti610  1  0.77755468  0.47163667  0.86243297  1.0
  Ti  Ti611  1  0.77755468  0.80497000  0.86243297  1.0
  Ti  Ti612  1  0.13758028  0.19503000  0.89216217  1.0
  Ti  Ti613  1  0.13758028  0.52836333  0.89216217  1.0
  Ti  Ti614  1  0.13758027  0.86169667  0.89216217  1.0
  Ti  Ti615  1  0.47091361  0.19503000  0.89216217  1.0
  Ti  Ti616  1  0.47091361  0.52836333  0.89216217  1.0
  Ti  Ti617  1  0.47091361  0.86169667  0.89216217  1.0
  Ti  Ti618  1  0.80424694  0.19503000  0.89216217  1.0
  Ti  Ti619  1  0.80424694  0.52836333  0.89216218  1.0
  Ti  Ti620  1  0.80424694  0.86169667  0.89216217  1.0
  Ti  Ti621  1  0.32091361  0.19503000  0.84216218  1.0
  Ti  Ti622  1  0.32091361  0.52836333  0.84216218  1.0
  Ti  Ti623  1  0.32091361  0.86169667  0.84216218  1.0
  Ti  Ti624  1  0.65424694  0.19503000  0.84216218  1.0
  Ti  Ti625  1  0.65424694  0.52836333  0.84216218  1.0
  Ti  Ti626  1  0.65424694  0.86169667  0.84216218  1.0
  Ti  Ti627  1  0.98758028  0.19503000  0.84216218  1.0
  Ti  Ti628  1  0.98758028  0.52836333  0.84216218  1.0
  Ti  Ti629  1  0.98758028  0.86169667  0.84216218  1.0
  Ti  Ti630  1  0.22782504  0.08372800  0.80304788  1.0
  Ti  Ti631  1  0.22782504  0.41706133  0.80304788  1.0
  Ti  Ti632  1  0.22782504  0.75039467  0.80304788  1.0
  Ti  Ti633  1  0.56115838  0.08372800  0.80304788  1.0
  Ti  Ti634  1  0.56115838  0.41706133  0.80304788  1.0
  Ti  Ti635  1  0.56115838  0.75039467  0.80304788  1.0
  Ti  Ti636  1  0.89449171  0.08372800  0.80304788  1.0
  Ti  Ti637  1  0.89449171  0.41706133  0.80304788  1.0
  Ti  Ti638  1  0.89449171  0.75039467  0.80304787  1.0
  Ti  Ti639  1  0.04449171  0.08372800  0.85304787  1.0
  Ti  Ti640  1  0.04449171  0.41706133  0.85304787  1.0
  Ti  Ti641  1  0.04449171  0.75039467  0.85304788  1.0
  Ti  Ti642  1  0.37782504  0.08372800  0.85304787  1.0
  Ti  Ti643  1  0.37782504  0.41706133  0.85304787  1.0
  Ti  Ti644  1  0.37782504  0.75039467  0.85304788  1.0
  Ti  Ti645  1  0.71115837  0.08372800  0.85304788  1.0
  Ti  Ti646  1  0.71115838  0.41706133  0.85304788  1.0
  Ti  Ti647  1  0.71115837  0.75039467  0.85304787  1.0
  Ti  Ti648  1  0.12274376  0.30586133  0.77434123  1.0
  Ti  Ti649  1  0.12274376  0.63919467  0.77434123  1.0
  Ti  Ti650  1  0.12274376  0.97252800  0.77434123  1.0
  Ti  Ti651  1  0.45607709  0.30586133  0.77434123  1.0
  Ti  Ti652  1  0.45607709  0.63919467  0.77434123  1.0
  Ti  Ti653  1  0.45607709  0.97252800  0.77434123  1.0
  Ti  Ti654  1  0.78941043  0.30586133  0.77434123  1.0
  Ti  Ti655  1  0.78941043  0.63919467  0.77434122  1.0
  Ti  Ti656  1  0.78941043  0.97252800  0.77434123  1.0
  Ti  Ti657  1  0.30607709  0.30586133  0.72434122  1.0
  Ti  Ti658  1  0.30607709  0.63919467  0.72434122  1.0
  Ti  Ti659  1  0.30607709  0.97252800  0.72434122  1.0
  Ti  Ti660  1  0.63941043  0.30586133  0.72434122  1.0
  Ti  Ti661  1  0.63941043  0.63919467  0.72434122  1.0
  Ti  Ti662  1  0.63941043  0.97252800  0.72434122  1.0
  Ti  Ti663  1  0.97274376  0.30586133  0.72434122  1.0
  Ti  Ti664  1  0.97274376  0.63919467  0.72434122  1.0
  Ti  Ti665  1  0.97274376  0.97252800  0.72434122  1.0
  Ti  Ti666  1  0.04239119  0.02747200  0.73025392  1.0
  Ti  Ti667  1  0.04239119  0.36080533  0.73025392  1.0
  Ti  Ti668  1  0.04239119  0.69413867  0.73025392  1.0
  Ti  Ti669  1  0.37572453  0.02747200  0.73025392  1.0
  Ti  Ti670  1  0.37572453  0.36080533  0.73025392  1.0
  Ti  Ti671  1  0.37572453  0.69413867  0.73025392  1.0
  Ti  Ti672  1  0.70905786  0.02747200  0.73025392  1.0
  Ti  Ti673  1  0.70905786  0.36080533  0.73025392  1.0
  Ti  Ti674  1  0.70905786  0.69413867  0.73025392  1.0
  Ti  Ti675  1  0.19239119  0.02747200  0.78025393  1.0
  Ti  Ti676  1  0.19239119  0.36080533  0.78025393  1.0
  Ti  Ti677  1  0.19239119  0.69413867  0.78025393  1.0
  Ti  Ti678  1  0.52572452  0.02747200  0.78025392  1.0
  Ti  Ti679  1  0.52572452  0.36080533  0.78025393  1.0
  Ti  Ti680  1  0.52572452  0.69413867  0.78025392  1.0
  Ti  Ti681  1  0.85905786  0.02747200  0.78025393  1.0
  Ti  Ti682  1  0.85905786  0.36080533  0.78025393  1.0
  Ti  Ti683  1  0.85905786  0.69413867  0.78025392  1.0
  Ti  Ti684  1  0.27064324  0.24960533  0.70154727  1.0
  Ti  Ti685  1  0.27064324  0.58293867  0.70154727  1.0
  Ti  Ti686  1  0.27064324  0.91627200  0.70154728  1.0
  Ti  Ti687  1  0.60397658  0.24960533  0.70154727  1.0
  Ti  Ti688  1  0.60397658  0.58293867  0.70154727  1.0
  Ti  Ti689  1  0.60397658  0.91627200  0.70154727  1.0
  Ti  Ti690  1  0.93730991  0.24960533  0.70154728  1.0
  Ti  Ti691  1  0.93730991  0.58293867  0.70154727  1.0
  Ti  Ti692  1  0.93730991  0.91627200  0.70154727  1.0
  Ti  Ti693  1  0.08730991  0.24960533  0.75154727  1.0
  Ti  Ti694  1  0.08730991  0.58293867  0.75154728  1.0
  Ti  Ti695  1  0.08730991  0.91627200  0.75154728  1.0
  Ti  Ti696  1  0.42064324  0.24960533  0.75154727  1.0
  Ti  Ti697  1  0.42064324  0.58293867  0.75154727  1.0
  Ti  Ti698  1  0.42064324  0.91627200  0.75154727  1.0
  Ti  Ti699  1  0.75397657  0.24960533  0.75154728  1.0
  Ti  Ti700  1  0.75397658  0.58293867  0.75154727  1.0
  Ti  Ti701  1  0.75397658  0.91627200  0.75154728  1.0
  Ti  Ti702  1  0.32755468  0.13830333  0.71243298  1.0
  Ti  Ti703  1  0.32755468  0.47163667  0.71243298  1.0
  Ti  Ti704  1  0.32755468  0.80497000  0.71243298  1.0
  Ti  Ti705  1  0.66088801  0.13830333  0.71243298  1.0
  Ti  Ti706  1  0.66088801  0.47163667  0.71243298  1.0
  Ti  Ti707  1  0.66088801  0.80497000  0.71243298  1.0
  Ti  Ti708  1  0.99422134  0.13830333  0.71243298  1.0
  Ti  Ti709  1  0.99422134  0.47163667  0.71243298  1.0
  Ti  Ti710  1  0.99422134  0.80497000  0.71243298  1.0
  Ti  Ti711  1  0.14422134  0.13830333  0.76243297  1.0
  Ti  Ti712  1  0.14422134  0.47163667  0.76243297  1.0
  Ti  Ti713  1  0.14422134  0.80497000  0.76243297  1.0
  Ti  Ti714  1  0.47755468  0.13830333  0.76243297  1.0
  Ti  Ti715  1  0.47755468  0.47163667  0.76243297  1.0
  Ti  Ti716  1  0.47755467  0.80497000  0.76243297  1.0
  Ti  Ti717  1  0.81088801  0.13830333  0.76243298  1.0
  Ti  Ti718  1  0.81088801  0.47163667  0.76243297  1.0
  Ti  Ti719  1  0.81088801  0.80497000  0.76243297  1.0
  Ti  Ti720  1  0.17091361  0.19503000  0.79216217  1.0
  Ti  Ti721  1  0.17091361  0.52836333  0.79216217  1.0
  Ti  Ti722  1  0.17091361  0.86169667  0.79216217  1.0
  Ti  Ti723  1  0.50424694  0.19503000  0.79216217  1.0
  Ti  Ti724  1  0.50424694  0.52836333  0.79216217  1.0
  Ti  Ti725  1  0.50424694  0.86169667  0.79216217  1.0
  Ti  Ti726  1  0.83758027  0.19503000  0.79216218  1.0
  Ti  Ti727  1  0.83758028  0.52836333  0.79216217  1.0
  Ti  Ti728  1  0.83758028  0.86169667  0.79216217  1.0
  Ti  Ti729  1  0.02091361  0.19503000  0.74216218  1.0
  Ti  Ti730  1  0.02091361  0.52836333  0.74216218  1.0
  Ti  Ti731  1  0.02091361  0.86169667  0.74216218  1.0
  Ti  Ti732  1  0.35424694  0.19503000  0.74216218  1.0
  Ti  Ti733  1  0.35424694  0.52836333  0.74216218  1.0
  Ti  Ti734  1  0.35424694  0.86169667  0.74216218  1.0
  Ti  Ti735  1  0.68758028  0.19503000  0.74216218  1.0
  Ti  Ti736  1  0.68758028  0.52836333  0.74216218  1.0
  Ti  Ti737  1  0.68758028  0.86169667  0.74216218  1.0
  Ti  Ti738  1  0.26115838  0.08372800  0.70304787  1.0
  Ti  Ti739  1  0.26115838  0.41706133  0.70304787  1.0
  Ti  Ti740  1  0.26115838  0.75039467  0.70304787  1.0
  Ti  Ti741  1  0.59449171  0.08372800  0.70304787  1.0
  Ti  Ti742  1  0.59449171  0.41706133  0.70304787  1.0
  Ti  Ti743  1  0.59449171  0.75039467  0.70304787  1.0
  Ti  Ti744  1  0.92782504  0.08372800  0.70304787  1.0
  Ti  Ti745  1  0.92782504  0.41706133  0.70304787  1.0
  Ti  Ti746  1  0.92782504  0.75039467  0.70304787  1.0
  Ti  Ti747  1  0.07782504  0.08372800  0.75304788  1.0
  Ti  Ti748  1  0.07782504  0.41706133  0.75304788  1.0
  Ti  Ti749  1  0.07782504  0.75039467  0.75304788  1.0
  Ti  Ti750  1  0.41115838  0.08372800  0.75304788  1.0
  Ti  Ti751  1  0.41115838  0.41706133  0.75304788  1.0
  Ti  Ti752  1  0.41115837  0.75039467  0.75304788  1.0
  Ti  Ti753  1  0.74449171  0.08372800  0.75304788  1.0
  Ti  Ti754  1  0.74449171  0.41706133  0.75304787  1.0
  Ti  Ti755  1  0.74449171  0.75039467  0.75304788  1.0
  Ti  Ti756  1  0.15607709  0.30586133  0.67434123  1.0
  Ti  Ti757  1  0.15607709  0.63919467  0.67434123  1.0
  Ti  Ti758  1  0.15607709  0.97252800  0.67434123  1.0
  Ti  Ti759  1  0.48941043  0.30586133  0.67434123  1.0
  Ti  Ti760  1  0.48941043  0.63919467  0.67434123  1.0
  Ti  Ti761  1  0.48941043  0.97252800  0.67434123  1.0
  Ti  Ti762  1  0.82274376  0.30586133  0.67434123  1.0
  Ti  Ti763  1  0.82274376  0.63919467  0.67434123  1.0
  Ti  Ti764  1  0.82274376  0.97252800  0.67434123  1.0
  Ti  Ti765  1  0.00607709  0.30586133  0.62434122  1.0
  Ti  Ti766  1  0.00607709  0.63919467  0.62434122  1.0
  Ti  Ti767  1  0.00607709  0.97252800  0.62434122  1.0
  Ti  Ti768  1  0.33941043  0.30586133  0.62434122  1.0
  Ti  Ti769  1  0.33941043  0.63919467  0.62434122  1.0
  Ti  Ti770  1  0.33941043  0.97252800  0.62434122  1.0
  Ti  Ti771  1  0.67274376  0.30586133  0.62434122  1.0
  Ti  Ti772  1  0.67274376  0.63919467  0.62434122  1.0
  Ti  Ti773  1  0.67274376  0.97252800  0.62434122  1.0
  Ti  Ti774  1  0.07572453  0.02747200  0.63025392  1.0
  Ti  Ti775  1  0.07572453  0.36080533  0.63025392  1.0
  Ti  Ti776  1  0.07572453  0.69413867  0.63025392  1.0
  Ti  Ti777  1  0.40905786  0.02747200  0.63025392  1.0
  Ti  Ti778  1  0.40905786  0.36080533  0.63025392  1.0
  Ti  Ti779  1  0.40905786  0.69413867  0.63025392  1.0
  Ti  Ti780  1  0.74239119  0.02747200  0.63025392  1.0
  Ti  Ti781  1  0.74239119  0.36080533  0.63025392  1.0
  Ti  Ti782  1  0.74239119  0.69413867  0.63025392  1.0
  Ti  Ti783  1  0.22572452  0.02747200  0.68025393  1.0
  Ti  Ti784  1  0.22572452  0.36080533  0.68025393  1.0
  Ti  Ti785  1  0.22572453  0.69413867  0.68025393  1.0
  Ti  Ti786  1  0.55905786  0.02747200  0.68025392  1.0
  Ti  Ti787  1  0.55905786  0.36080533  0.68025392  1.0
  Ti  Ti788  1  0.55905786  0.69413867  0.68025392  1.0
  Ti  Ti789  1  0.89239119  0.02747200  0.68025393  1.0
  Ti  Ti790  1  0.89239119  0.36080533  0.68025392  1.0
  Ti  Ti791  1  0.89239119  0.69413867  0.68025393  1.0
  Ti  Ti792  1  0.30397658  0.24960533  0.60154728  1.0
  Ti  Ti793  1  0.30397657  0.58293867  0.60154728  1.0
  Ti  Ti794  1  0.30397658  0.91627200  0.60154728  1.0
  Ti  Ti795  1  0.63730991  0.24960533  0.60154728  1.0
  Ti  Ti796  1  0.63730991  0.58293867  0.60154727  1.0
  Ti  Ti797  1  0.63730991  0.91627200  0.60154728  1.0
  Ti  Ti798  1  0.97064324  0.24960533  0.60154728  1.0
  Ti  Ti799  1  0.97064324  0.58293867  0.60154727  1.0
  Ti  Ti800  1  0.97064324  0.91627200  0.60154728  1.0
  Ti  Ti801  1  0.12064324  0.24960533  0.65154728  1.0
  Ti  Ti802  1  0.12064324  0.58293867  0.65154728  1.0
  Ti  Ti803  1  0.12064324  0.91627200  0.65154728  1.0
  Ti  Ti804  1  0.45397657  0.24960533  0.65154728  1.0
  Ti  Ti805  1  0.45397658  0.58293867  0.65154728  1.0
  Ti  Ti806  1  0.45397657  0.91627200  0.65154728  1.0
  Ti  Ti807  1  0.78730991  0.24960533  0.65154728  1.0
  Ti  Ti808  1  0.78730991  0.58293867  0.65154728  1.0
  Ti  Ti809  1  0.78730991  0.91627200  0.65154728  1.0
  Ti  Ti810  1  0.02755468  0.13830333  0.61243298  1.0
  Ti  Ti811  1  0.02755468  0.47163667  0.61243298  1.0
  Ti  Ti812  1  0.02755468  0.80497000  0.61243298  1.0
  Ti  Ti813  1  0.36088801  0.13830333  0.61243298  1.0
  Ti  Ti814  1  0.36088801  0.47163667  0.61243298  1.0
  Ti  Ti815  1  0.36088801  0.80497000  0.61243298  1.0
  Ti  Ti816  1  0.69422134  0.13830333  0.61243298  1.0
  Ti  Ti817  1  0.69422134  0.47163667  0.61243298  1.0
  Ti  Ti818  1  0.69422134  0.80497000  0.61243297  1.0
  Ti  Ti819  1  0.17755467  0.13830333  0.66243297  1.0
  Ti  Ti820  1  0.17755468  0.47163667  0.66243297  1.0
  Ti  Ti821  1  0.17755468  0.80497000  0.66243297  1.0
  Ti  Ti822  1  0.51088801  0.13830333  0.66243297  1.0
  Ti  Ti823  1  0.51088801  0.47163667  0.66243297  1.0
  Ti  Ti824  1  0.51088801  0.80497000  0.66243297  1.0
  Ti  Ti825  1  0.84422134  0.13830333  0.66243297  1.0
  Ti  Ti826  1  0.84422134  0.47163667  0.66243297  1.0
  Ti  Ti827  1  0.84422134  0.80497000  0.66243297  1.0
  Ti  Ti828  1  0.20424694  0.19503000  0.69216217  1.0
  Ti  Ti829  1  0.20424694  0.52836333  0.69216217  1.0
  Ti  Ti830  1  0.20424694  0.86169667  0.69216217  1.0
  Ti  Ti831  1  0.53758027  0.19503000  0.69216217  1.0
  Ti  Ti832  1  0.53758028  0.52836333  0.69216217  1.0
  Ti  Ti833  1  0.53758027  0.86169667  0.69216217  1.0
  Ti  Ti834  1  0.87091361  0.19503000  0.69216217  1.0
  Ti  Ti835  1  0.87091361  0.52836333  0.69216217  1.0
  Ti  Ti836  1  0.87091361  0.86169667  0.69216217  1.0
  Ti  Ti837  1  0.05424694  0.19503000  0.64216218  1.0
  Ti  Ti838  1  0.05424694  0.52836333  0.64216218  1.0
  Ti  Ti839  1  0.05424694  0.86169667  0.64216218  1.0
  Ti  Ti840  1  0.38758028  0.19503000  0.64216218  1.0
  Ti  Ti841  1  0.38758027  0.52836333  0.64216218  1.0
  Ti  Ti842  1  0.38758028  0.86169667  0.64216218  1.0
  Ti  Ti843  1  0.72091361  0.19503000  0.64216218  1.0
  Ti  Ti844  1  0.72091361  0.52836333  0.64216217  1.0
  Ti  Ti845  1  0.72091361  0.86169667  0.64216218  1.0
  Ti  Ti846  1  0.29449171  0.08372800  0.60304788  1.0
  Ti  Ti847  1  0.29449171  0.41706133  0.60304788  1.0
  Ti  Ti848  1  0.29449171  0.75039467  0.60304788  1.0
  Ti  Ti849  1  0.62782504  0.08372800  0.60304788  1.0
  Ti  Ti850  1  0.62782504  0.41706133  0.60304788  1.0
  Ti  Ti851  1  0.62782504  0.75039467  0.60304788  1.0
  Ti  Ti852  1  0.96115838  0.08372800  0.60304788  1.0
  Ti  Ti853  1  0.96115838  0.41706133  0.60304788  1.0
  Ti  Ti854  1  0.96115837  0.75039467  0.60304788  1.0
  Ti  Ti855  1  0.11115838  0.08372800  0.65304787  1.0
  Ti  Ti856  1  0.11115838  0.41706133  0.65304787  1.0
  Ti  Ti857  1  0.11115838  0.75039467  0.65304787  1.0
  Ti  Ti858  1  0.44449171  0.08372800  0.65304787  1.0
  Ti  Ti859  1  0.44449171  0.41706133  0.65304787  1.0
  Ti  Ti860  1  0.44449171  0.75039467  0.65304787  1.0
  Ti  Ti861  1  0.77782504  0.08372800  0.65304788  1.0
  Ti  Ti862  1  0.77782504  0.41706133  0.65304787  1.0
  Ti  Ti863  1  0.77782504  0.75039467  0.65304788  1.0
