# generated using pymatgen
data_TiNi3
_symmetry_space_group_name_H-M   'P 1'
_cell_length_a   24.93468300
_cell_length_b   40.44692608
_cell_length_c   40.76666960
_cell_angle_alpha   139.10660535
_cell_angle_beta   90.00000000
_cell_angle_gamma   90.00000000
_symmetry_Int_Tables_number   1
_chemical_formula_structural   TiNi3
_chemical_formula_sum   'Ti216 Ni648'
_cell_volume   26915.73312477
_cell_formula_units_Z   216
loop_
 _symmetry_equiv_pos_site_id
 _symmetry_equiv_pos_as_xyz
  1  'x, y, z'
loop_
 _atom_site_type_symbol
 _atom_site_label
 _atom_site_symmetry_multiplicity
 _atom_site_fract_x
 _atom_site_fract_y
 _atom_site_fract_z
 _atom_site_occupancy
  Ti  Ti0  1  0.25000000  0.05555556  0.09974557  1.0
  Ti  Ti1  1  0.25000000  0.38888889  0.09974557  1.0
  Ti  Ti2  1  0.25000000  0.72222222  0.09974557  1.0
  Ti  Ti3  1  0.58333333  0.05555556  0.09974557  1.0
  Ti  Ti4  1  0.58333333  0.38888889  0.09974557  1.0
  Ti  Ti5  1  0.58333333  0.72222222  0.09974557  1.0
  Ti  Ti6  1  0.91666667  0.05555556  0.09974557  1.0
  Ti  Ti7  1  0.91666667  0.38888889  0.09974557  1.0
  Ti  Ti8  1  0.91666667  0.72222222  0.09974557  1.0
  Ti  Ti9  1  0.25000000  0.22222222  0.03724557  1.0
  Ti  Ti10  1  0.25000000  0.55555556  0.03724557  1.0
  Ti  Ti11  1  0.25000000  0.88888889  0.03724557  1.0
  Ti  Ti12  1  0.58333333  0.22222222  0.03724557  1.0
  Ti  Ti13  1  0.58333333  0.55555556  0.03724557  1.0
  Ti  Ti14  1  0.58333333  0.88888889  0.03724557  1.0
  Ti  Ti15  1  0.91666667  0.22222222  0.03724557  1.0
  Ti  Ti16  1  0.91666667  0.55555556  0.03724557  1.0
  Ti  Ti17  1  0.91666667  0.88888889  0.03724557  1.0
  Ti  Ti18  1  0.08333333  0.11111111  0.07891224  1.0
  Ti  Ti19  1  0.08333333  0.44444444  0.07891224  1.0
  Ti  Ti20  1  0.08333333  0.77777778  0.07891224  1.0
  Ti  Ti21  1  0.41666667  0.11111111  0.07891224  1.0
  Ti  Ti22  1  0.41666667  0.44444444  0.07891224  1.0
  Ti  Ti23  1  0.41666667  0.77777778  0.07891224  1.0
  Ti  Ti24  1  0.75000000  0.11111111  0.07891224  1.0
  Ti  Ti25  1  0.75000000  0.44444444  0.07891224  1.0
  Ti  Ti26  1  0.75000000  0.77777778  0.07891224  1.0
  Ti  Ti27  1  0.08333333  0.27777778  0.01641224  1.0
  Ti  Ti28  1  0.08333333  0.61111111  0.01641224  1.0
  Ti  Ti29  1  0.08333333  0.94444444  0.01641224  1.0
  Ti  Ti30  1  0.41666667  0.27777778  0.01641224  1.0
  Ti  Ti31  1  0.41666667  0.61111111  0.01641224  1.0
  Ti  Ti32  1  0.41666667  0.94444444  0.01641224  1.0
  Ti  Ti33  1  0.75000000  0.27777778  0.01641224  1.0
  Ti  Ti34  1  0.75000000  0.61111111  0.01641224  1.0
  Ti  Ti35  1  0.75000000  0.94444444  0.01641224  1.0
  Ti  Ti36  1  0.00000000  0.16666667  0.05807891  1.0
  Ti  Ti37  1  0.00000000  0.50000000  0.05807891  1.0
  Ti  Ti38  1  0.00000000  0.83333333  0.05807891  1.0
  Ti  Ti39  1  0.33333333  0.16666667  0.05807891  1.0
  Ti  Ti40  1  0.33333333  0.50000000  0.05807891  1.0
  Ti  Ti41  1  0.33333333  0.83333333  0.05807891  1.0
  Ti  Ti42  1  0.66666667  0.16666667  0.05807891  1.0
  Ti  Ti43  1  0.66666667  0.50000000  0.05807891  1.0
  Ti  Ti44  1  0.66666667  0.83333333  0.05807891  1.0
  Ti  Ti45  1  0.00000000  0.00000000  0.12057891  1.0
  Ti  Ti46  1  0.00000000  0.33333333  0.12057891  1.0
  Ti  Ti47  1  0.00000000  0.66666667  0.12057891  1.0
  Ti  Ti48  1  0.33333333  0.00000000  0.12057891  1.0
  Ti  Ti49  1  0.33333333  0.33333333  0.12057891  1.0
  Ti  Ti50  1  0.33333333  0.66666667  0.12057891  1.0
  Ti  Ti51  1  0.66666667  0.00000000  0.12057891  1.0
  Ti  Ti52  1  0.66666667  0.33333333  0.12057891  1.0
  Ti  Ti53  1  0.66666667  0.66666667  0.12057891  1.0
  Ti  Ti54  1  0.16666667  0.16666667  0.05807891  1.0
  Ti  Ti55  1  0.16666667  0.50000000  0.05807891  1.0
  Ti  Ti56  1  0.16666667  0.83333333  0.05807891  1.0
  Ti  Ti57  1  0.50000000  0.16666667  0.05807891  1.0
  Ti  Ti58  1  0.50000000  0.50000000  0.05807891  1.0
  Ti  Ti59  1  0.50000000  0.83333333  0.05807891  1.0
  Ti  Ti60  1  0.83333333  0.16666667  0.05807891  1.0
  Ti  Ti61  1  0.83333333  0.50000000  0.05807891  1.0
  Ti  Ti62  1  0.83333333  0.83333333  0.05807891  1.0
  Ti  Ti63  1  0.16666667  0.00000000  0.12057891  1.0
  Ti  Ti64  1  0.16666667  0.33333333  0.12057891  1.0
  Ti  Ti65  1  0.16666667  0.66666667  0.12057891  1.0
  Ti  Ti66  1  0.50000000  0.00000000  0.12057891  1.0
  Ti  Ti67  1  0.50000000  0.33333333  0.12057891  1.0
  Ti  Ti68  1  0.50000000  0.66666667  0.12057891  1.0
  Ti  Ti69  1  0.83333333  0.00000000  0.12057891  1.0
  Ti  Ti70  1  0.83333333  0.33333333  0.12057891  1.0
  Ti  Ti71  1  0.83333333  0.66666667  0.12057891  1.0
  Ni  Ni72  1  0.16666667  0.16666667  0.12057891  1.0
  Ni  Ni73  1  0.16666667  0.50000000  0.12057891  1.0
  Ni  Ni74  1  0.16666667  0.83333333  0.12057891  1.0
  Ni  Ni75  1  0.50000000  0.16666667  0.12057891  1.0
  Ni  Ni76  1  0.50000000  0.50000000  0.12057891  1.0
  Ni  Ni77  1  0.50000000  0.83333333  0.12057891  1.0
  Ni  Ni78  1  0.83333333  0.16666667  0.12057891  1.0
  Ni  Ni79  1  0.83333333  0.50000000  0.12057891  1.0
  Ni  Ni80  1  0.83333333  0.83333333  0.12057891  1.0
  Ni  Ni81  1  0.16666667  0.00000000  0.05807891  1.0
  Ni  Ni82  1  0.16666667  0.33333333  0.05807891  1.0
  Ni  Ni83  1  0.16666667  0.66666667  0.05807891  1.0
  Ni  Ni84  1  0.50000000  0.00000000  0.05807891  1.0
  Ni  Ni85  1  0.50000000  0.33333333  0.05807891  1.0
  Ni  Ni86  1  0.50000000  0.66666667  0.05807891  1.0
  Ni  Ni87  1  0.83333333  0.00000000  0.05807891  1.0
  Ni  Ni88  1  0.83333333  0.33333333  0.05807891  1.0
  Ni  Ni89  1  0.83333333  0.66666667  0.05807891  1.0
  Ni  Ni90  1  0.00000000  0.08333333  0.02682891  1.0
  Ni  Ni91  1  0.00000000  0.41666667  0.02682891  1.0
  Ni  Ni92  1  0.00000000  0.75000000  0.02682891  1.0
  Ni  Ni93  1  0.33333333  0.08333333  0.02682891  1.0
  Ni  Ni94  1  0.33333333  0.41666667  0.02682891  1.0
  Ni  Ni95  1  0.33333333  0.75000000  0.02682891  1.0
  Ni  Ni96  1  0.66666667  0.08333333  0.02682891  1.0
  Ni  Ni97  1  0.66666667  0.41666667  0.02682891  1.0
  Ni  Ni98  1  0.66666667  0.75000000  0.02682891  1.0
  Ni  Ni99  1  0.00000000  0.25000000  0.08932891  1.0
  Ni  Ni100  1  0.00000000  0.58333333  0.08932891  1.0
  Ni  Ni101  1  0.00000000  0.91666667  0.08932891  1.0
  Ni  Ni102  1  0.33333333  0.25000000  0.08932891  1.0
  Ni  Ni103  1  0.33333333  0.58333333  0.08932891  1.0
  Ni  Ni104  1  0.33333333  0.91666667  0.08932891  1.0
  Ni  Ni105  1  0.66666667  0.25000000  0.08932891  1.0
  Ni  Ni106  1  0.66666667  0.58333333  0.08932891  1.0
  Ni  Ni107  1  0.66666667  0.91666667  0.08932891  1.0
  Ni  Ni108  1  0.08333333  0.02861750  0.04923672  1.0
  Ni  Ni109  1  0.08333333  0.36195083  0.04923672  1.0
  Ni  Ni110  1  0.08333333  0.69528417  0.04923672  1.0
  Ni  Ni111  1  0.41666667  0.02861750  0.04923672  1.0
  Ni  Ni112  1  0.41666667  0.36195083  0.04923672  1.0
  Ni  Ni113  1  0.41666667  0.69528417  0.04923672  1.0
  Ni  Ni114  1  0.75000000  0.02861750  0.04923672  1.0
  Ni  Ni115  1  0.75000000  0.36195083  0.04923672  1.0
  Ni  Ni116  1  0.75000000  0.69528417  0.04923672  1.0
  Ni  Ni117  1  0.08333333  0.19528417  0.11173672  1.0
  Ni  Ni118  1  0.08333333  0.52861750  0.11173672  1.0
  Ni  Ni119  1  0.08333333  0.86195083  0.11173672  1.0
  Ni  Ni120  1  0.41666667  0.19528417  0.11173672  1.0
  Ni  Ni121  1  0.41666667  0.52861750  0.11173672  1.0
  Ni  Ni122  1  0.41666667  0.86195083  0.11173672  1.0
  Ni  Ni123  1  0.75000000  0.19528417  0.11173672  1.0
  Ni  Ni124  1  0.75000000  0.52861750  0.11173672  1.0
  Ni  Ni125  1  0.75000000  0.86195083  0.11173672  1.0
  Ni  Ni126  1  0.25000000  0.05723500  0.03850516  1.0
  Ni  Ni127  1  0.25000000  0.39056833  0.03850516  1.0
  Ni  Ni128  1  0.25000000  0.72390167  0.03850516  1.0
  Ni  Ni129  1  0.58333333  0.05723500  0.03850516  1.0
  Ni  Ni130  1  0.58333333  0.39056833  0.03850516  1.0
  Ni  Ni131  1  0.58333333  0.72390167  0.03850516  1.0
  Ni  Ni132  1  0.91666667  0.05723500  0.03850516  1.0
  Ni  Ni133  1  0.91666667  0.39056833  0.03850516  1.0
  Ni  Ni134  1  0.91666667  0.72390167  0.03850516  1.0
  Ni  Ni135  1  0.25000000  0.22390167  0.10100516  1.0
  Ni  Ni136  1  0.25000000  0.55723500  0.10100516  1.0
  Ni  Ni137  1  0.25000000  0.89056833  0.10100516  1.0
  Ni  Ni138  1  0.58333333  0.22390167  0.10100516  1.0
  Ni  Ni139  1  0.58333333  0.55723500  0.10100516  1.0
  Ni  Ni140  1  0.58333333  0.89056833  0.10100516  1.0
  Ni  Ni141  1  0.91666667  0.22390167  0.10100516  1.0
  Ni  Ni142  1  0.91666667  0.55723500  0.10100516  1.0
  Ni  Ni143  1  0.91666667  0.89056833  0.10100516  1.0
  Ni  Ni144  1  0.25000000  0.13804917  0.06881047  1.0
  Ni  Ni145  1  0.25000000  0.47138250  0.06881047  1.0
  Ni  Ni146  1  0.25000000  0.80471583  0.06881047  1.0
  Ni  Ni147  1  0.58333333  0.13804917  0.06881047  1.0
  Ni  Ni148  1  0.58333333  0.47138250  0.06881047  1.0
  Ni  Ni149  1  0.58333333  0.80471583  0.06881047  1.0
  Ni  Ni150  1  0.91666667  0.13804917  0.06881047  1.0
  Ni  Ni151  1  0.91666667  0.47138250  0.06881047  1.0
  Ni  Ni152  1  0.91666667  0.80471583  0.06881047  1.0
  Ni  Ni153  1  0.25000000  0.30471583  0.00631047  1.0
  Ni  Ni154  1  0.25000000  0.63804917  0.00631047  1.0
  Ni  Ni155  1  0.25000000  0.97138250  0.00631047  1.0
  Ni  Ni156  1  0.58333333  0.30471583  0.00631047  1.0
  Ni  Ni157  1  0.58333333  0.63804917  0.00631047  1.0
  Ni  Ni158  1  0.58333333  0.97138250  0.00631047  1.0
  Ni  Ni159  1  0.91666667  0.30471583  0.00631047  1.0
  Ni  Ni160  1  0.91666667  0.63804917  0.00631047  1.0
  Ni  Ni161  1  0.91666667  0.97138250  0.00631047  1.0
  Ni  Ni162  1  0.08333333  0.02861750  0.10984734  1.0
  Ni  Ni163  1  0.08333333  0.36195083  0.10984734  1.0
  Ni  Ni164  1  0.08333333  0.69528417  0.10984734  1.0
  Ni  Ni165  1  0.41666667  0.02861750  0.10984734  1.0
  Ni  Ni166  1  0.41666667  0.36195083  0.10984734  1.0
  Ni  Ni167  1  0.41666667  0.69528417  0.10984734  1.0
  Ni  Ni168  1  0.75000000  0.02861750  0.10984734  1.0
  Ni  Ni169  1  0.75000000  0.36195083  0.10984734  1.0
  Ni  Ni170  1  0.75000000  0.69528417  0.10984734  1.0
  Ni  Ni171  1  0.08333333  0.19528417  0.04734734  1.0
  Ni  Ni172  1  0.08333333  0.52861750  0.04734734  1.0
  Ni  Ni173  1  0.08333333  0.86195083  0.04734734  1.0
  Ni  Ni174  1  0.41666667  0.19528417  0.04734734  1.0
  Ni  Ni175  1  0.41666667  0.52861750  0.04734734  1.0
  Ni  Ni176  1  0.41666667  0.86195083  0.04734734  1.0
  Ni  Ni177  1  0.75000000  0.19528417  0.04734734  1.0
  Ni  Ni178  1  0.75000000  0.52861750  0.04734734  1.0
  Ni  Ni179  1  0.75000000  0.86195083  0.04734734  1.0
  Ni  Ni180  1  0.08333333  0.10943167  0.01515266  1.0
  Ni  Ni181  1  0.08333333  0.44276500  0.01515266  1.0
  Ni  Ni182  1  0.08333333  0.77609833  0.01515266  1.0
  Ni  Ni183  1  0.41666667  0.10943167  0.01515266  1.0
  Ni  Ni184  1  0.41666667  0.44276500  0.01515266  1.0
  Ni  Ni185  1  0.41666667  0.77609833  0.01515266  1.0
  Ni  Ni186  1  0.75000000  0.10943167  0.01515266  1.0
  Ni  Ni187  1  0.75000000  0.44276500  0.01515266  1.0
  Ni  Ni188  1  0.75000000  0.77609833  0.01515266  1.0
  Ni  Ni189  1  0.08333333  0.27609833  0.07765266  1.0
  Ni  Ni190  1  0.08333333  0.60943167  0.07765266  1.0
  Ni  Ni191  1  0.08333333  0.94276500  0.07765266  1.0
  Ni  Ni192  1  0.41666667  0.27609833  0.07765266  1.0
  Ni  Ni193  1  0.41666667  0.60943167  0.07765266  1.0
  Ni  Ni194  1  0.41666667  0.94276500  0.07765266  1.0
  Ni  Ni195  1  0.75000000  0.27609833  0.07765266  1.0
  Ni  Ni196  1  0.75000000  0.60943167  0.07765266  1.0
  Ni  Ni197  1  0.75000000  0.94276500  0.07765266  1.0
  Ni  Ni198  1  0.25000000  0.13804917  0.00442109  1.0
  Ni  Ni199  1  0.25000000  0.47138250  0.00442109  1.0
  Ni  Ni200  1  0.25000000  0.80471583  0.00442109  1.0
  Ni  Ni201  1  0.58333333  0.13804917  0.00442109  1.0
  Ni  Ni202  1  0.58333333  0.47138250  0.00442109  1.0
  Ni  Ni203  1  0.58333333  0.80471583  0.00442109  1.0
  Ni  Ni204  1  0.91666667  0.13804917  0.00442109  1.0
  Ni  Ni205  1  0.91666667  0.47138250  0.00442109  1.0
  Ni  Ni206  1  0.91666667  0.80471583  0.00442109  1.0
  Ni  Ni207  1  0.25000000  0.30471583  0.06692109  1.0
  Ni  Ni208  1  0.25000000  0.63804917  0.06692109  1.0
  Ni  Ni209  1  0.25000000  0.97138250  0.06692109  1.0
  Ni  Ni210  1  0.58333333  0.30471583  0.06692109  1.0
  Ni  Ni211  1  0.58333333  0.63804917  0.06692109  1.0
  Ni  Ni212  1  0.58333333  0.97138250  0.06692109  1.0
  Ni  Ni213  1  0.91666667  0.30471583  0.06692109  1.0
  Ni  Ni214  1  0.91666667  0.63804917  0.06692109  1.0
  Ni  Ni215  1  0.91666667  0.97138250  0.06692109  1.0
  Ni  Ni216  1  0.16666667  0.08333333  0.08932891  1.0
  Ni  Ni217  1  0.16666667  0.41666667  0.08932891  1.0
  Ni  Ni218  1  0.16666667  0.75000000  0.08932891  1.0
  Ni  Ni219  1  0.50000000  0.08333333  0.08932891  1.0
  Ni  Ni220  1  0.50000000  0.41666667  0.08932891  1.0
  Ni  Ni221  1  0.50000000  0.75000000  0.08932891  1.0
  Ni  Ni222  1  0.83333333  0.08333333  0.08932891  1.0
  Ni  Ni223  1  0.83333333  0.41666667  0.08932891  1.0
  Ni  Ni224  1  0.83333333  0.75000000  0.08932891  1.0
  Ni  Ni225  1  0.16666667  0.25000000  0.02682891  1.0
  Ni  Ni226  1  0.16666667  0.58333333  0.02682891  1.0
  Ni  Ni227  1  0.16666667  0.91666667  0.02682891  1.0
  Ni  Ni228  1  0.50000000  0.25000000  0.02682891  1.0
  Ni  Ni229  1  0.50000000  0.58333333  0.02682891  1.0
  Ni  Ni230  1  0.50000000  0.91666667  0.02682891  1.0
  Ni  Ni231  1  0.83333333  0.25000000  0.02682891  1.0
  Ni  Ni232  1  0.83333333  0.58333333  0.02682891  1.0
  Ni  Ni233  1  0.83333333  0.91666667  0.02682891  1.0
  Ni  Ni234  1  0.00000000  0.08333333  0.08932891  1.0
  Ni  Ni235  1  0.00000000  0.41666667  0.08932891  1.0
  Ni  Ni236  1  0.00000000  0.75000000  0.08932891  1.0
  Ni  Ni237  1  0.33333333  0.08333333  0.08932891  1.0
  Ni  Ni238  1  0.33333333  0.41666667  0.08932891  1.0
  Ni  Ni239  1  0.33333333  0.75000000  0.08932891  1.0
  Ni  Ni240  1  0.66666667  0.08333333  0.08932891  1.0
  Ni  Ni241  1  0.66666667  0.41666667  0.08932891  1.0
  Ni  Ni242  1  0.66666667  0.75000000  0.08932891  1.0
  Ni  Ni243  1  0.00000000  0.25000000  0.02682891  1.0
  Ni  Ni244  1  0.00000000  0.58333333  0.02682891  1.0
  Ni  Ni245  1  0.00000000  0.91666667  0.02682891  1.0
  Ni  Ni246  1  0.33333333  0.25000000  0.02682891  1.0
  Ni  Ni247  1  0.33333333  0.58333333  0.02682891  1.0
  Ni  Ni248  1  0.33333333  0.91666667  0.02682891  1.0
  Ni  Ni249  1  0.66666667  0.25000000  0.02682891  1.0
  Ni  Ni250  1  0.66666667  0.58333333  0.02682891  1.0
  Ni  Ni251  1  0.66666667  0.91666667  0.02682891  1.0
  Ni  Ni252  1  0.00000000  0.16666667  0.12057891  1.0
  Ni  Ni253  1  0.00000000  0.50000000  0.12057891  1.0
  Ni  Ni254  1  0.00000000  0.83333333  0.12057891  1.0
  Ni  Ni255  1  0.33333333  0.16666667  0.12057891  1.0
  Ni  Ni256  1  0.33333333  0.50000000  0.12057891  1.0
  Ni  Ni257  1  0.33333333  0.83333333  0.12057891  1.0
  Ni  Ni258  1  0.66666667  0.16666667  0.12057891  1.0
  Ni  Ni259  1  0.66666667  0.50000000  0.12057891  1.0
  Ni  Ni260  1  0.66666667  0.83333333  0.12057891  1.0
  Ni  Ni261  1  0.00000000  0.00000000  0.05807891  1.0
  Ni  Ni262  1  0.00000000  0.33333333  0.05807891  1.0
  Ni  Ni263  1  0.00000000  0.66666667  0.05807891  1.0
  Ni  Ni264  1  0.33333333  0.00000000  0.05807891  1.0
  Ni  Ni265  1  0.33333333  0.33333333  0.05807891  1.0
  Ni  Ni266  1  0.33333333  0.66666667  0.05807891  1.0
  Ni  Ni267  1  0.66666667  0.00000000  0.05807891  1.0
  Ni  Ni268  1  0.66666667  0.33333333  0.05807891  1.0
  Ni  Ni269  1  0.66666667  0.66666667  0.05807891  1.0
  Ni  Ni270  1  0.16666667  0.08333333  0.02682891  1.0
  Ni  Ni271  1  0.16666667  0.41666667  0.02682891  1.0
  Ni  Ni272  1  0.16666667  0.75000000  0.02682891  1.0
  Ni  Ni273  1  0.50000000  0.08333333  0.02682891  1.0
  Ni  Ni274  1  0.50000000  0.41666667  0.02682891  1.0
  Ni  Ni275  1  0.50000000  0.75000000  0.02682891  1.0
  Ni  Ni276  1  0.83333333  0.08333333  0.02682891  1.0
  Ni  Ni277  1  0.83333333  0.41666667  0.02682891  1.0
  Ni  Ni278  1  0.83333333  0.75000000  0.02682891  1.0
  Ni  Ni279  1  0.16666667  0.25000000  0.08932891  1.0
  Ni  Ni280  1  0.16666667  0.58333333  0.08932891  1.0
  Ni  Ni281  1  0.16666667  0.91666667  0.08932891  1.0
  Ni  Ni282  1  0.50000000  0.25000000  0.08932891  1.0
  Ni  Ni283  1  0.50000000  0.58333333  0.08932891  1.0
  Ni  Ni284  1  0.50000000  0.91666667  0.08932891  1.0
  Ni  Ni285  1  0.83333333  0.25000000  0.08932891  1.0
  Ni  Ni286  1  0.83333333  0.58333333  0.08932891  1.0
  Ni  Ni287  1  0.83333333  0.91666667  0.08932891  1.0
  Ti  Ti288  1  0.25000000  0.05555556  0.22474557  1.0
  Ti  Ti289  1  0.25000000  0.38888889  0.22474557  1.0
  Ti  Ti290  1  0.25000000  0.72222222  0.22474557  1.0
  Ti  Ti291  1  0.58333333  0.05555556  0.22474557  1.0
  Ti  Ti292  1  0.58333333  0.38888889  0.22474557  1.0
  Ti  Ti293  1  0.58333333  0.72222222  0.22474557  1.0
  Ti  Ti294  1  0.91666667  0.05555556  0.22474557  1.0
  Ti  Ti295  1  0.91666667  0.38888889  0.22474557  1.0
  Ti  Ti296  1  0.91666667  0.72222222  0.22474557  1.0
  Ti  Ti297  1  0.25000000  0.22222222  0.16224557  1.0
  Ti  Ti298  1  0.25000000  0.55555556  0.16224557  1.0
  Ti  Ti299  1  0.25000000  0.88888889  0.16224557  1.0
  Ti  Ti300  1  0.58333333  0.22222222  0.16224557  1.0
  Ti  Ti301  1  0.58333333  0.55555556  0.16224557  1.0
  Ti  Ti302  1  0.58333333  0.88888889  0.16224557  1.0
  Ti  Ti303  1  0.91666667  0.22222222  0.16224557  1.0
  Ti  Ti304  1  0.91666667  0.55555556  0.16224557  1.0
  Ti  Ti305  1  0.91666667  0.88888889  0.16224557  1.0
  Ti  Ti306  1  0.08333333  0.11111111  0.20391224  1.0
  Ti  Ti307  1  0.08333333  0.44444444  0.20391224  1.0
  Ti  Ti308  1  0.08333333  0.77777778  0.20391224  1.0
  Ti  Ti309  1  0.41666667  0.11111111  0.20391224  1.0
  Ti  Ti310  1  0.41666667  0.44444444  0.20391224  1.0
  Ti  Ti311  1  0.41666667  0.77777778  0.20391224  1.0
  Ti  Ti312  1  0.75000000  0.11111111  0.20391224  1.0
  Ti  Ti313  1  0.75000000  0.44444444  0.20391224  1.0
  Ti  Ti314  1  0.75000000  0.77777778  0.20391224  1.0
  Ti  Ti315  1  0.08333333  0.27777778  0.14141224  1.0
  Ti  Ti316  1  0.08333333  0.61111111  0.14141224  1.0
  Ti  Ti317  1  0.08333333  0.94444444  0.14141224  1.0
  Ti  Ti318  1  0.41666667  0.27777778  0.14141224  1.0
  Ti  Ti319  1  0.41666667  0.61111111  0.14141224  1.0
  Ti  Ti320  1  0.41666667  0.94444444  0.14141224  1.0
  Ti  Ti321  1  0.75000000  0.27777778  0.14141224  1.0
  Ti  Ti322  1  0.75000000  0.61111111  0.14141224  1.0
  Ti  Ti323  1  0.75000000  0.94444444  0.14141224  1.0
  Ti  Ti324  1  0.00000000  0.16666667  0.18307891  1.0
  Ti  Ti325  1  0.00000000  0.50000000  0.18307891  1.0
  Ti  Ti326  1  0.00000000  0.83333333  0.18307891  1.0
  Ti  Ti327  1  0.33333333  0.16666667  0.18307891  1.0
  Ti  Ti328  1  0.33333333  0.50000000  0.18307891  1.0
  Ti  Ti329  1  0.33333333  0.83333333  0.18307891  1.0
  Ti  Ti330  1  0.66666667  0.16666667  0.18307891  1.0
  Ti  Ti331  1  0.66666667  0.50000000  0.18307891  1.0
  Ti  Ti332  1  0.66666667  0.83333333  0.18307891  1.0
  Ti  Ti333  1  0.00000000  0.00000000  0.24557891  1.0
  Ti  Ti334  1  0.00000000  0.33333333  0.24557891  1.0
  Ti  Ti335  1  0.00000000  0.66666667  0.24557891  1.0
  Ti  Ti336  1  0.33333333  0.00000000  0.24557891  1.0
  Ti  Ti337  1  0.33333333  0.33333333  0.24557891  1.0
  Ti  Ti338  1  0.33333333  0.66666667  0.24557891  1.0
  Ti  Ti339  1  0.66666667  0.00000000  0.24557891  1.0
  Ti  Ti340  1  0.66666667  0.33333333  0.24557891  1.0
  Ti  Ti341  1  0.66666667  0.66666667  0.24557891  1.0
  Ti  Ti342  1  0.16666667  0.16666667  0.18307891  1.0
  Ti  Ti343  1  0.16666667  0.50000000  0.18307891  1.0
  Ti  Ti344  1  0.16666667  0.83333333  0.18307891  1.0
  Ti  Ti345  1  0.50000000  0.16666667  0.18307891  1.0
  Ti  Ti346  1  0.50000000  0.50000000  0.18307891  1.0
  Ti  Ti347  1  0.50000000  0.83333333  0.18307891  1.0
  Ti  Ti348  1  0.83333333  0.16666667  0.18307891  1.0
  Ti  Ti349  1  0.83333333  0.50000000  0.18307891  1.0
  Ti  Ti350  1  0.83333333  0.83333333  0.18307891  1.0
  Ti  Ti351  1  0.16666667  0.00000000  0.24557891  1.0
  Ti  Ti352  1  0.16666667  0.33333333  0.24557891  1.0
  Ti  Ti353  1  0.16666667  0.66666667  0.24557891  1.0
  Ti  Ti354  1  0.50000000  0.00000000  0.24557891  1.0
  Ti  Ti355  1  0.50000000  0.33333333  0.24557891  1.0
  Ti  Ti356  1  0.50000000  0.66666667  0.24557891  1.0
  Ti  Ti357  1  0.83333333  0.00000000  0.24557891  1.0
  Ti  Ti358  1  0.83333333  0.33333333  0.24557891  1.0
  Ti  Ti359  1  0.83333333  0.66666667  0.24557891  1.0
  Ni  Ni360  1  0.16666667  0.16666667  0.24557891  1.0
  Ni  Ni361  1  0.16666667  0.50000000  0.24557891  1.0
  Ni  Ni362  1  0.16666667  0.83333333  0.24557891  1.0
  Ni  Ni363  1  0.50000000  0.16666667  0.24557891  1.0
  Ni  Ni364  1  0.50000000  0.50000000  0.24557891  1.0
  Ni  Ni365  1  0.50000000  0.83333333  0.24557891  1.0
  Ni  Ni366  1  0.83333333  0.16666667  0.24557891  1.0
  Ni  Ni367  1  0.83333333  0.50000000  0.24557891  1.0
  Ni  Ni368  1  0.83333333  0.83333333  0.24557891  1.0
  Ni  Ni369  1  0.16666667  0.00000000  0.18307891  1.0
  Ni  Ni370  1  0.16666667  0.33333333  0.18307891  1.0
  Ni  Ni371  1  0.16666667  0.66666667  0.18307891  1.0
  Ni  Ni372  1  0.50000000  0.00000000  0.18307891  1.0
  Ni  Ni373  1  0.50000000  0.33333333  0.18307891  1.0
  Ni  Ni374  1  0.50000000  0.66666667  0.18307891  1.0
  Ni  Ni375  1  0.83333333  0.00000000  0.18307891  1.0
  Ni  Ni376  1  0.83333333  0.33333333  0.18307891  1.0
  Ni  Ni377  1  0.83333333  0.66666667  0.18307891  1.0
  Ni  Ni378  1  0.00000000  0.08333333  0.15182891  1.0
  Ni  Ni379  1  0.00000000  0.41666667  0.15182891  1.0
  Ni  Ni380  1  0.00000000  0.75000000  0.15182891  1.0
  Ni  Ni381  1  0.33333333  0.08333333  0.15182891  1.0
  Ni  Ni382  1  0.33333333  0.41666667  0.15182891  1.0
  Ni  Ni383  1  0.33333333  0.75000000  0.15182891  1.0
  Ni  Ni384  1  0.66666667  0.08333333  0.15182891  1.0
  Ni  Ni385  1  0.66666667  0.41666667  0.15182891  1.0
  Ni  Ni386  1  0.66666667  0.75000000  0.15182891  1.0
  Ni  Ni387  1  0.00000000  0.25000000  0.21432891  1.0
  Ni  Ni388  1  0.00000000  0.58333333  0.21432891  1.0
  Ni  Ni389  1  0.00000000  0.91666667  0.21432891  1.0
  Ni  Ni390  1  0.33333333  0.25000000  0.21432891  1.0
  Ni  Ni391  1  0.33333333  0.58333333  0.21432891  1.0
  Ni  Ni392  1  0.33333333  0.91666667  0.21432891  1.0
  Ni  Ni393  1  0.66666667  0.25000000  0.21432891  1.0
  Ni  Ni394  1  0.66666667  0.58333333  0.21432891  1.0
  Ni  Ni395  1  0.66666667  0.91666667  0.21432891  1.0
  Ni  Ni396  1  0.08333333  0.02861750  0.17423672  1.0
  Ni  Ni397  1  0.08333333  0.36195083  0.17423672  1.0
  Ni  Ni398  1  0.08333333  0.69528417  0.17423672  1.0
  Ni  Ni399  1  0.41666667  0.02861750  0.17423672  1.0
  Ni  Ni400  1  0.41666667  0.36195083  0.17423672  1.0
  Ni  Ni401  1  0.41666667  0.69528417  0.17423672  1.0
  Ni  Ni402  1  0.75000000  0.02861750  0.17423672  1.0
  Ni  Ni403  1  0.75000000  0.36195083  0.17423672  1.0
  Ni  Ni404  1  0.75000000  0.69528417  0.17423672  1.0
  Ni  Ni405  1  0.08333333  0.19528417  0.23673672  1.0
  Ni  Ni406  1  0.08333333  0.52861750  0.23673672  1.0
  Ni  Ni407  1  0.08333333  0.86195083  0.23673672  1.0
  Ni  Ni408  1  0.41666667  0.19528417  0.23673672  1.0
  Ni  Ni409  1  0.41666667  0.52861750  0.23673672  1.0
  Ni  Ni410  1  0.41666667  0.86195083  0.23673672  1.0
  Ni  Ni411  1  0.75000000  0.19528417  0.23673672  1.0
  Ni  Ni412  1  0.75000000  0.52861750  0.23673672  1.0
  Ni  Ni413  1  0.75000000  0.86195083  0.23673672  1.0
  Ni  Ni414  1  0.25000000  0.05723500  0.16350516  1.0
  Ni  Ni415  1  0.25000000  0.39056833  0.16350516  1.0
  Ni  Ni416  1  0.25000000  0.72390167  0.16350516  1.0
  Ni  Ni417  1  0.58333333  0.05723500  0.16350516  1.0
  Ni  Ni418  1  0.58333333  0.39056833  0.16350516  1.0
  Ni  Ni419  1  0.58333333  0.72390167  0.16350516  1.0
  Ni  Ni420  1  0.91666667  0.05723500  0.16350516  1.0
  Ni  Ni421  1  0.91666667  0.39056833  0.16350516  1.0
  Ni  Ni422  1  0.91666667  0.72390167  0.16350516  1.0
  Ni  Ni423  1  0.25000000  0.22390167  0.22600516  1.0
  Ni  Ni424  1  0.25000000  0.55723500  0.22600516  1.0
  Ni  Ni425  1  0.25000000  0.89056833  0.22600516  1.0
  Ni  Ni426  1  0.58333333  0.22390167  0.22600516  1.0
  Ni  Ni427  1  0.58333333  0.55723500  0.22600516  1.0
  Ni  Ni428  1  0.58333333  0.89056833  0.22600516  1.0
  Ni  Ni429  1  0.91666667  0.22390167  0.22600516  1.0
  Ni  Ni430  1  0.91666667  0.55723500  0.22600516  1.0
  Ni  Ni431  1  0.91666667  0.89056833  0.22600516  1.0
  Ni  Ni432  1  0.25000000  0.13804917  0.19381047  1.0
  Ni  Ni433  1  0.25000000  0.47138250  0.19381047  1.0
  Ni  Ni434  1  0.25000000  0.80471583  0.19381047  1.0
  Ni  Ni435  1  0.58333333  0.13804917  0.19381047  1.0
  Ni  Ni436  1  0.58333333  0.47138250  0.19381047  1.0
  Ni  Ni437  1  0.58333333  0.80471583  0.19381047  1.0
  Ni  Ni438  1  0.91666667  0.13804917  0.19381047  1.0
  Ni  Ni439  1  0.91666667  0.47138250  0.19381047  1.0
  Ni  Ni440  1  0.91666667  0.80471583  0.19381047  1.0
  Ni  Ni441  1  0.25000000  0.30471583  0.13131047  1.0
  Ni  Ni442  1  0.25000000  0.63804917  0.13131047  1.0
  Ni  Ni443  1  0.25000000  0.97138250  0.13131047  1.0
  Ni  Ni444  1  0.58333333  0.30471583  0.13131047  1.0
  Ni  Ni445  1  0.58333333  0.63804917  0.13131047  1.0
  Ni  Ni446  1  0.58333333  0.97138250  0.13131047  1.0
  Ni  Ni447  1  0.91666667  0.30471583  0.13131047  1.0
  Ni  Ni448  1  0.91666667  0.63804917  0.13131047  1.0
  Ni  Ni449  1  0.91666667  0.97138250  0.13131047  1.0
  Ni  Ni450  1  0.08333333  0.02861750  0.23484734  1.0
  Ni  Ni451  1  0.08333333  0.36195083  0.23484734  1.0
  Ni  Ni452  1  0.08333333  0.69528417  0.23484734  1.0
  Ni  Ni453  1  0.41666667  0.02861750  0.23484734  1.0
  Ni  Ni454  1  0.41666667  0.36195083  0.23484734  1.0
  Ni  Ni455  1  0.41666667  0.69528417  0.23484734  1.0
  Ni  Ni456  1  0.75000000  0.02861750  0.23484734  1.0
  Ni  Ni457  1  0.75000000  0.36195083  0.23484734  1.0
  Ni  Ni458  1  0.75000000  0.69528417  0.23484734  1.0
  Ni  Ni459  1  0.08333333  0.19528417  0.17234734  1.0
  Ni  Ni460  1  0.08333333  0.52861750  0.17234734  1.0
  Ni  Ni461  1  0.08333333  0.86195083  0.17234734  1.0
  Ni  Ni462  1  0.41666667  0.19528417  0.17234734  1.0
  Ni  Ni463  1  0.41666667  0.52861750  0.17234734  1.0
  Ni  Ni464  1  0.41666667  0.86195083  0.17234734  1.0
  Ni  Ni465  1  0.75000000  0.19528417  0.17234734  1.0
  Ni  Ni466  1  0.75000000  0.52861750  0.17234734  1.0
  Ni  Ni467  1  0.75000000  0.86195083  0.17234734  1.0
  Ni  Ni468  1  0.08333333  0.10943167  0.14015266  1.0
  Ni  Ni469  1  0.08333333  0.44276500  0.14015266  1.0
  Ni  Ni470  1  0.08333333  0.77609833  0.14015266  1.0
  Ni  Ni471  1  0.41666667  0.10943167  0.14015266  1.0
  Ni  Ni472  1  0.41666667  0.44276500  0.14015266  1.0
  Ni  Ni473  1  0.41666667  0.77609833  0.14015266  1.0
  Ni  Ni474  1  0.75000000  0.10943167  0.14015266  1.0
  Ni  Ni475  1  0.75000000  0.44276500  0.14015266  1.0
  Ni  Ni476  1  0.75000000  0.77609833  0.14015266  1.0
  Ni  Ni477  1  0.08333333  0.27609833  0.20265266  1.0
  Ni  Ni478  1  0.08333333  0.60943167  0.20265266  1.0
  Ni  Ni479  1  0.08333333  0.94276500  0.20265266  1.0
  Ni  Ni480  1  0.41666667  0.27609833  0.20265266  1.0
  Ni  Ni481  1  0.41666667  0.60943167  0.20265266  1.0
  Ni  Ni482  1  0.41666667  0.94276500  0.20265266  1.0
  Ni  Ni483  1  0.75000000  0.27609833  0.20265266  1.0
  Ni  Ni484  1  0.75000000  0.60943167  0.20265266  1.0
  Ni  Ni485  1  0.75000000  0.94276500  0.20265266  1.0
  Ni  Ni486  1  0.25000000  0.13804917  0.12942109  1.0
  Ni  Ni487  1  0.25000000  0.47138250  0.12942109  1.0
  Ni  Ni488  1  0.25000000  0.80471583  0.12942109  1.0
  Ni  Ni489  1  0.58333333  0.13804917  0.12942109  1.0
  Ni  Ni490  1  0.58333333  0.47138250  0.12942109  1.0
  Ni  Ni491  1  0.58333333  0.80471583  0.12942109  1.0
  Ni  Ni492  1  0.91666667  0.13804917  0.12942109  1.0
  Ni  Ni493  1  0.91666667  0.47138250  0.12942109  1.0
  Ni  Ni494  1  0.91666667  0.80471583  0.12942109  1.0
  Ni  Ni495  1  0.25000000  0.30471583  0.19192109  1.0
  Ni  Ni496  1  0.25000000  0.63804917  0.19192109  1.0
  Ni  Ni497  1  0.25000000  0.97138250  0.19192109  1.0
  Ni  Ni498  1  0.58333333  0.30471583  0.19192109  1.0
  Ni  Ni499  1  0.58333333  0.63804917  0.19192109  1.0
  Ni  Ni500  1  0.58333333  0.97138250  0.19192109  1.0
  Ni  Ni501  1  0.91666667  0.30471583  0.19192109  1.0
  Ni  Ni502  1  0.91666667  0.63804917  0.19192109  1.0
  Ni  Ni503  1  0.91666667  0.97138250  0.19192109  1.0
  Ni  Ni504  1  0.16666667  0.08333333  0.21432891  1.0
  Ni  Ni505  1  0.16666667  0.41666667  0.21432891  1.0
  Ni  Ni506  1  0.16666667  0.75000000  0.21432891  1.0
  Ni  Ni507  1  0.50000000  0.08333333  0.21432891  1.0
  Ni  Ni508  1  0.50000000  0.41666667  0.21432891  1.0
  Ni  Ni509  1  0.50000000  0.75000000  0.21432891  1.0
  Ni  Ni510  1  0.83333333  0.08333333  0.21432891  1.0
  Ni  Ni511  1  0.83333333  0.41666667  0.21432891  1.0
  Ni  Ni512  1  0.83333333  0.75000000  0.21432891  1.0
  Ni  Ni513  1  0.16666667  0.25000000  0.15182891  1.0
  Ni  Ni514  1  0.16666667  0.58333333  0.15182891  1.0
  Ni  Ni515  1  0.16666667  0.91666667  0.15182891  1.0
  Ni  Ni516  1  0.50000000  0.25000000  0.15182891  1.0
  Ni  Ni517  1  0.50000000  0.58333333  0.15182891  1.0
  Ni  Ni518  1  0.50000000  0.91666667  0.15182891  1.0
  Ni  Ni519  1  0.83333333  0.25000000  0.15182891  1.0
  Ni  Ni520  1  0.83333333  0.58333333  0.15182891  1.0
  Ni  Ni521  1  0.83333333  0.91666667  0.15182891  1.0
  Ni  Ni522  1  0.00000000  0.08333333  0.21432891  1.0
  Ni  Ni523  1  0.00000000  0.41666667  0.21432891  1.0
  Ni  Ni524  1  0.00000000  0.75000000  0.21432891  1.0
  Ni  Ni525  1  0.33333333  0.08333333  0.21432891  1.0
  Ni  Ni526  1  0.33333333  0.41666667  0.21432891  1.0
  Ni  Ni527  1  0.33333333  0.75000000  0.21432891  1.0
  Ni  Ni528  1  0.66666667  0.08333333  0.21432891  1.0
  Ni  Ni529  1  0.66666667  0.41666667  0.21432891  1.0
  Ni  Ni530  1  0.66666667  0.75000000  0.21432891  1.0
  Ni  Ni531  1  0.00000000  0.25000000  0.15182891  1.0
  Ni  Ni532  1  0.00000000  0.58333333  0.15182891  1.0
  Ni  Ni533  1  0.00000000  0.91666667  0.15182891  1.0
  Ni  Ni534  1  0.33333333  0.25000000  0.15182891  1.0
  Ni  Ni535  1  0.33333333  0.58333333  0.15182891  1.0
  Ni  Ni536  1  0.33333333  0.91666667  0.15182891  1.0
  Ni  Ni537  1  0.66666667  0.25000000  0.15182891  1.0
  Ni  Ni538  1  0.66666667  0.58333333  0.15182891  1.0
  Ni  Ni539  1  0.66666667  0.91666667  0.15182891  1.0
  Ni  Ni540  1  0.00000000  0.16666667  0.24557891  1.0
  Ni  Ni541  1  0.00000000  0.50000000  0.24557891  1.0
  Ni  Ni542  1  0.00000000  0.83333333  0.24557891  1.0
  Ni  Ni543  1  0.33333333  0.16666667  0.24557891  1.0
  Ni  Ni544  1  0.33333333  0.50000000  0.24557891  1.0
  Ni  Ni545  1  0.33333333  0.83333333  0.24557891  1.0
  Ni  Ni546  1  0.66666667  0.16666667  0.24557891  1.0
  Ni  Ni547  1  0.66666667  0.50000000  0.24557891  1.0
  Ni  Ni548  1  0.66666667  0.83333333  0.24557891  1.0
  Ni  Ni549  1  0.00000000  0.00000000  0.18307891  1.0
  Ni  Ni550  1  0.00000000  0.33333333  0.18307891  1.0
  Ni  Ni551  1  0.00000000  0.66666667  0.18307891  1.0
  Ni  Ni552  1  0.33333333  0.00000000  0.18307891  1.0
  Ni  Ni553  1  0.33333333  0.33333333  0.18307891  1.0
  Ni  Ni554  1  0.33333333  0.66666667  0.18307891  1.0
  Ni  Ni555  1  0.66666667  0.00000000  0.18307891  1.0
  Ni  Ni556  1  0.66666667  0.33333333  0.18307891  1.0
  Ni  Ni557  1  0.66666667  0.66666667  0.18307891  1.0
  Ni  Ni558  1  0.16666667  0.08333333  0.15182891  1.0
  Ni  Ni559  1  0.16666667  0.41666667  0.15182891  1.0
  Ni  Ni560  1  0.16666667  0.75000000  0.15182891  1.0
  Ni  Ni561  1  0.50000000  0.08333333  0.15182891  1.0
  Ni  Ni562  1  0.50000000  0.41666667  0.15182891  1.0
  Ni  Ni563  1  0.50000000  0.75000000  0.15182891  1.0
  Ni  Ni564  1  0.83333333  0.08333333  0.15182891  1.0
  Ni  Ni565  1  0.83333333  0.41666667  0.15182891  1.0
  Ni  Ni566  1  0.83333333  0.75000000  0.15182891  1.0
  Ni  Ni567  1  0.16666667  0.25000000  0.21432891  1.0
  Ni  Ni568  1  0.16666667  0.58333333  0.21432891  1.0
  Ni  Ni569  1  0.16666667  0.91666667  0.21432891  1.0
  Ni  Ni570  1  0.50000000  0.25000000  0.21432891  1.0
  Ni  Ni571  1  0.50000000  0.58333333  0.21432891  1.0
  Ni  Ni572  1  0.50000000  0.91666667  0.21432891  1.0
  Ni  Ni573  1  0.83333333  0.25000000  0.21432891  1.0
  Ni  Ni574  1  0.83333333  0.58333333  0.21432891  1.0
  Ni  Ni575  1  0.83333333  0.91666667  0.21432891  1.0
  Ti  Ti576  1  0.25000000  0.05555556  0.34974557  1.0
  Ti  Ti577  1  0.25000000  0.38888889  0.34974557  1.0
  Ti  Ti578  1  0.25000000  0.72222222  0.34974557  1.0
  Ti  Ti579  1  0.58333333  0.05555556  0.34974557  1.0
  Ti  Ti580  1  0.58333333  0.38888889  0.34974557  1.0
  Ti  Ti581  1  0.58333333  0.72222222  0.34974557  1.0
  Ti  Ti582  1  0.91666667  0.05555556  0.34974557  1.0
  Ti  Ti583  1  0.91666667  0.38888889  0.34974557  1.0
  Ti  Ti584  1  0.91666667  0.72222222  0.34974557  1.0
  Ti  Ti585  1  0.25000000  0.22222222  0.28724557  1.0
  Ti  Ti586  1  0.25000000  0.55555556  0.28724557  1.0
  Ti  Ti587  1  0.25000000  0.88888889  0.28724557  1.0
  Ti  Ti588  1  0.58333333  0.22222222  0.28724557  1.0
  Ti  Ti589  1  0.58333333  0.55555556  0.28724557  1.0
  Ti  Ti590  1  0.58333333  0.88888889  0.28724557  1.0
  Ti  Ti591  1  0.91666667  0.22222222  0.28724557  1.0
  Ti  Ti592  1  0.91666667  0.55555556  0.28724557  1.0
  Ti  Ti593  1  0.91666667  0.88888889  0.28724557  1.0
  Ti  Ti594  1  0.08333333  0.11111111  0.32891224  1.0
  Ti  Ti595  1  0.08333333  0.44444444  0.32891224  1.0
  Ti  Ti596  1  0.08333333  0.77777778  0.32891224  1.0
  Ti  Ti597  1  0.41666667  0.11111111  0.32891224  1.0
  Ti  Ti598  1  0.41666667  0.44444444  0.32891224  1.0
  Ti  Ti599  1  0.41666667  0.77777778  0.32891224  1.0
  Ti  Ti600  1  0.75000000  0.11111111  0.32891224  1.0
  Ti  Ti601  1  0.75000000  0.44444444  0.32891224  1.0
  Ti  Ti602  1  0.75000000  0.77777778  0.32891224  1.0
  Ti  Ti603  1  0.08333333  0.27777778  0.26641224  1.0
  Ti  Ti604  1  0.08333333  0.61111111  0.26641224  1.0
  Ti  Ti605  1  0.08333333  0.94444444  0.26641224  1.0
  Ti  Ti606  1  0.41666667  0.27777778  0.26641224  1.0
  Ti  Ti607  1  0.41666667  0.61111111  0.26641224  1.0
  Ti  Ti608  1  0.41666667  0.94444444  0.26641224  1.0
  Ti  Ti609  1  0.75000000  0.27777778  0.26641224  1.0
  Ti  Ti610  1  0.75000000  0.61111111  0.26641224  1.0
  Ti  Ti611  1  0.75000000  0.94444444  0.26641224  1.0
  Ti  Ti612  1  0.00000000  0.16666667  0.30807891  1.0
  Ti  Ti613  1  0.00000000  0.50000000  0.30807891  1.0
  Ti  Ti614  1  0.00000000  0.83333333  0.30807891  1.0
  Ti  Ti615  1  0.33333333  0.16666667  0.30807891  1.0
  Ti  Ti616  1  0.33333333  0.50000000  0.30807891  1.0
  Ti  Ti617  1  0.33333333  0.83333333  0.30807891  1.0
  Ti  Ti618  1  0.66666667  0.16666667  0.30807891  1.0
  Ti  Ti619  1  0.66666667  0.50000000  0.30807891  1.0
  Ti  Ti620  1  0.66666667  0.83333333  0.30807891  1.0
  Ti  Ti621  1  0.00000000  0.00000000  0.37057891  1.0
  Ti  Ti622  1  0.00000000  0.33333333  0.37057891  1.0
  Ti  Ti623  1  0.00000000  0.66666667  0.37057891  1.0
  Ti  Ti624  1  0.33333333  0.00000000  0.37057891  1.0
  Ti  Ti625  1  0.33333333  0.33333333  0.37057891  1.0
  Ti  Ti626  1  0.33333333  0.66666667  0.37057891  1.0
  Ti  Ti627  1  0.66666667  0.00000000  0.37057891  1.0
  Ti  Ti628  1  0.66666667  0.33333333  0.37057891  1.0
  Ti  Ti629  1  0.66666667  0.66666667  0.37057891  1.0
  Ti  Ti630  1  0.16666667  0.16666667  0.30807891  1.0
  Ti  Ti631  1  0.16666667  0.50000000  0.30807891  1.0
  Ti  Ti632  1  0.16666667  0.83333333  0.30807891  1.0
  Ti  Ti633  1  0.50000000  0.16666667  0.30807891  1.0
  Ti  Ti634  1  0.50000000  0.50000000  0.30807891  1.0
  Ti  Ti635  1  0.50000000  0.83333333  0.30807891  1.0
  Ti  Ti636  1  0.83333333  0.16666667  0.30807891  1.0
  Ti  Ti637  1  0.83333333  0.50000000  0.30807891  1.0
  Ti  Ti638  1  0.83333333  0.83333333  0.30807891  1.0
  Ti  Ti639  1  0.16666667  0.00000000  0.37057891  1.0
  Ti  Ti640  1  0.16666667  0.33333333  0.37057891  1.0
  Ti  Ti641  1  0.16666667  0.66666667  0.37057891  1.0
  Ti  Ti642  1  0.50000000  0.00000000  0.37057891  1.0
  Ti  Ti643  1  0.50000000  0.33333333  0.37057891  1.0
  Ti  Ti644  1  0.50000000  0.66666667  0.37057891  1.0
  Ti  Ti645  1  0.83333333  0.00000000  0.37057891  1.0
  Ti  Ti646  1  0.83333333  0.33333333  0.37057891  1.0
  Ti  Ti647  1  0.83333333  0.66666667  0.37057891  1.0
  Ni  Ni648  1  0.16666667  0.16666667  0.37057891  1.0
  Ni  Ni649  1  0.16666667  0.50000000  0.37057891  1.0
  Ni  Ni650  1  0.16666667  0.83333333  0.37057891  1.0
  Ni  Ni651  1  0.50000000  0.16666667  0.37057891  1.0
  Ni  Ni652  1  0.50000000  0.50000000  0.37057891  1.0
  Ni  Ni653  1  0.50000000  0.83333333  0.37057891  1.0
  Ni  Ni654  1  0.83333333  0.16666667  0.37057891  1.0
  Ni  Ni655  1  0.83333333  0.50000000  0.37057891  1.0
  Ni  Ni656  1  0.83333333  0.83333333  0.37057891  1.0
  Ni  Ni657  1  0.16666667  0.00000000  0.30807891  1.0
  Ni  Ni658  1  0.16666667  0.33333333  0.30807891  1.0
  Ni  Ni659  1  0.16666667  0.66666667  0.30807891  1.0
  Ni  Ni660  1  0.50000000  0.00000000  0.30807891  1.0
  Ni  Ni661  1  0.50000000  0.33333333  0.30807891  1.0
  Ni  Ni662  1  0.50000000  0.66666667  0.30807891  1.0
  Ni  Ni663  1  0.83333333  0.00000000  0.30807891  1.0
  Ni  Ni664  1  0.83333333  0.33333333  0.30807891  1.0
  Ni  Ni665  1  0.83333333  0.66666667  0.30807891  1.0
  Ni  Ni666  1  0.00000000  0.08333333  0.27682891  1.0
  Ni  Ni667  1  0.00000000  0.41666667  0.27682891  1.0
  Ni  Ni668  1  0.00000000  0.75000000  0.27682891  1.0
  Ni  Ni669  1  0.33333333  0.08333333  0.27682891  1.0
  Ni  Ni670  1  0.33333333  0.41666667  0.27682891  1.0
  Ni  Ni671  1  0.33333333  0.75000000  0.27682891  1.0
  Ni  Ni672  1  0.66666667  0.08333333  0.27682891  1.0
  Ni  Ni673  1  0.66666667  0.41666667  0.27682891  1.0
  Ni  Ni674  1  0.66666667  0.75000000  0.27682891  1.0
  Ni  Ni675  1  0.00000000  0.25000000  0.33932891  1.0
  Ni  Ni676  1  0.00000000  0.58333333  0.33932891  1.0
  Ni  Ni677  1  0.00000000  0.91666667  0.33932891  1.0
  Ni  Ni678  1  0.33333333  0.25000000  0.33932891  1.0
  Ni  Ni679  1  0.33333333  0.58333333  0.33932891  1.0
  Ni  Ni680  1  0.33333333  0.91666667  0.33932891  1.0
  Ni  Ni681  1  0.66666667  0.25000000  0.33932891  1.0
  Ni  Ni682  1  0.66666667  0.58333333  0.33932891  1.0
  Ni  Ni683  1  0.66666667  0.91666667  0.33932891  1.0
  Ni  Ni684  1  0.08333333  0.02861750  0.29923672  1.0
  Ni  Ni685  1  0.08333333  0.36195083  0.29923672  1.0
  Ni  Ni686  1  0.08333333  0.69528417  0.29923672  1.0
  Ni  Ni687  1  0.41666667  0.02861750  0.29923672  1.0
  Ni  Ni688  1  0.41666667  0.36195083  0.29923672  1.0
  Ni  Ni689  1  0.41666667  0.69528417  0.29923672  1.0
  Ni  Ni690  1  0.75000000  0.02861750  0.29923672  1.0
  Ni  Ni691  1  0.75000000  0.36195083  0.29923672  1.0
  Ni  Ni692  1  0.75000000  0.69528417  0.29923672  1.0
  Ni  Ni693  1  0.08333333  0.19528417  0.36173672  1.0
  Ni  Ni694  1  0.08333333  0.52861750  0.36173672  1.0
  Ni  Ni695  1  0.08333333  0.86195083  0.36173672  1.0
  Ni  Ni696  1  0.41666667  0.19528417  0.36173672  1.0
  Ni  Ni697  1  0.41666667  0.52861750  0.36173672  1.0
  Ni  Ni698  1  0.41666667  0.86195083  0.36173672  1.0
  Ni  Ni699  1  0.75000000  0.19528417  0.36173672  1.0
  Ni  Ni700  1  0.75000000  0.52861750  0.36173672  1.0
  Ni  Ni701  1  0.75000000  0.86195083  0.36173672  1.0
  Ni  Ni702  1  0.25000000  0.05723500  0.28850516  1.0
  Ni  Ni703  1  0.25000000  0.39056833  0.28850516  1.0
  Ni  Ni704  1  0.25000000  0.72390167  0.28850516  1.0
  Ni  Ni705  1  0.58333333  0.05723500  0.28850516  1.0
  Ni  Ni706  1  0.58333333  0.39056833  0.28850516  1.0
  Ni  Ni707  1  0.58333333  0.72390167  0.28850516  1.0
  Ni  Ni708  1  0.91666667  0.05723500  0.28850516  1.0
  Ni  Ni709  1  0.91666667  0.39056833  0.28850516  1.0
  Ni  Ni710  1  0.91666667  0.72390167  0.28850516  1.0
  Ni  Ni711  1  0.25000000  0.22390167  0.35100516  1.0
  Ni  Ni712  1  0.25000000  0.55723500  0.35100516  1.0
  Ni  Ni713  1  0.25000000  0.89056833  0.35100516  1.0
  Ni  Ni714  1  0.58333333  0.22390167  0.35100516  1.0
  Ni  Ni715  1  0.58333333  0.55723500  0.35100516  1.0
  Ni  Ni716  1  0.58333333  0.89056833  0.35100516  1.0
  Ni  Ni717  1  0.91666667  0.22390167  0.35100516  1.0
  Ni  Ni718  1  0.91666667  0.55723500  0.35100516  1.0
  Ni  Ni719  1  0.91666667  0.89056833  0.35100516  1.0
  Ni  Ni720  1  0.25000000  0.13804917  0.31881047  1.0
  Ni  Ni721  1  0.25000000  0.47138250  0.31881047  1.0
  Ni  Ni722  1  0.25000000  0.80471583  0.31881047  1.0
  Ni  Ni723  1  0.58333333  0.13804917  0.31881047  1.0
  Ni  Ni724  1  0.58333333  0.47138250  0.31881047  1.0
  Ni  Ni725  1  0.58333333  0.80471583  0.31881047  1.0
  Ni  Ni726  1  0.91666667  0.13804917  0.31881047  1.0
  Ni  Ni727  1  0.91666667  0.47138250  0.31881047  1.0
  Ni  Ni728  1  0.91666667  0.80471583  0.31881047  1.0
  Ni  Ni729  1  0.25000000  0.30471583  0.25631047  1.0
  Ni  Ni730  1  0.25000000  0.63804917  0.25631047  1.0
  Ni  Ni731  1  0.25000000  0.97138250  0.25631047  1.0
  Ni  Ni732  1  0.58333333  0.30471583  0.25631047  1.0
  Ni  Ni733  1  0.58333333  0.63804917  0.25631047  1.0
  Ni  Ni734  1  0.58333333  0.97138250  0.25631047  1.0
  Ni  Ni735  1  0.91666667  0.30471583  0.25631047  1.0
  Ni  Ni736  1  0.91666667  0.63804917  0.25631047  1.0
  Ni  Ni737  1  0.91666667  0.97138250  0.25631047  1.0
  Ni  Ni738  1  0.08333333  0.02861750  0.35984734  1.0
  Ni  Ni739  1  0.08333333  0.36195083  0.35984734  1.0
  Ni  Ni740  1  0.08333333  0.69528417  0.35984734  1.0
  Ni  Ni741  1  0.41666667  0.02861750  0.35984734  1.0
  Ni  Ni742  1  0.41666667  0.36195083  0.35984734  1.0
  Ni  Ni743  1  0.41666667  0.69528417  0.35984734  1.0
  Ni  Ni744  1  0.75000000  0.02861750  0.35984734  1.0
  Ni  Ni745  1  0.75000000  0.36195083  0.35984734  1.0
  Ni  Ni746  1  0.75000000  0.69528417  0.35984734  1.0
  Ni  Ni747  1  0.08333333  0.19528417  0.29734734  1.0
  Ni  Ni748  1  0.08333333  0.52861750  0.29734734  1.0
  Ni  Ni749  1  0.08333333  0.86195083  0.29734734  1.0
  Ni  Ni750  1  0.41666667  0.19528417  0.29734734  1.0
  Ni  Ni751  1  0.41666667  0.52861750  0.29734734  1.0
  Ni  Ni752  1  0.41666667  0.86195083  0.29734734  1.0
  Ni  Ni753  1  0.75000000  0.19528417  0.29734734  1.0
  Ni  Ni754  1  0.75000000  0.52861750  0.29734734  1.0
  Ni  Ni755  1  0.75000000  0.86195083  0.29734734  1.0
  Ni  Ni756  1  0.08333333  0.10943167  0.26515266  1.0
  Ni  Ni757  1  0.08333333  0.44276500  0.26515266  1.0
  Ni  Ni758  1  0.08333333  0.77609833  0.26515266  1.0
  Ni  Ni759  1  0.41666667  0.10943167  0.26515266  1.0
  Ni  Ni760  1  0.41666667  0.44276500  0.26515266  1.0
  Ni  Ni761  1  0.41666667  0.77609833  0.26515266  1.0
  Ni  Ni762  1  0.75000000  0.10943167  0.26515266  1.0
  Ni  Ni763  1  0.75000000  0.44276500  0.26515266  1.0
  Ni  Ni764  1  0.75000000  0.77609833  0.26515266  1.0
  Ni  Ni765  1  0.08333333  0.27609833  0.32765266  1.0
  Ni  Ni766  1  0.08333333  0.60943167  0.32765266  1.0
  Ni  Ni767  1  0.08333333  0.94276500  0.32765266  1.0
  Ni  Ni768  1  0.41666667  0.27609833  0.32765266  1.0
  Ni  Ni769  1  0.41666667  0.60943167  0.32765266  1.0
  Ni  Ni770  1  0.41666667  0.94276500  0.32765266  1.0
  Ni  Ni771  1  0.75000000  0.27609833  0.32765266  1.0
  Ni  Ni772  1  0.75000000  0.60943167  0.32765266  1.0
  Ni  Ni773  1  0.75000000  0.94276500  0.32765266  1.0
  Ni  Ni774  1  0.25000000  0.13804917  0.25442109  1.0
  Ni  Ni775  1  0.25000000  0.47138250  0.25442109  1.0
  Ni  Ni776  1  0.25000000  0.80471583  0.25442109  1.0
  Ni  Ni777  1  0.58333333  0.13804917  0.25442109  1.0
  Ni  Ni778  1  0.58333333  0.47138250  0.25442109  1.0
  Ni  Ni779  1  0.58333333  0.80471583  0.25442109  1.0
  Ni  Ni780  1  0.91666667  0.13804917  0.25442109  1.0
  Ni  Ni781  1  0.91666667  0.47138250  0.25442109  1.0
  Ni  Ni782  1  0.91666667  0.80471583  0.25442109  1.0
  Ni  Ni783  1  0.25000000  0.30471583  0.31692109  1.0
  Ni  Ni784  1  0.25000000  0.63804917  0.31692109  1.0
  Ni  Ni785  1  0.25000000  0.97138250  0.31692109  1.0
  Ni  Ni786  1  0.58333333  0.30471583  0.31692109  1.0
  Ni  Ni787  1  0.58333333  0.63804917  0.31692109  1.0
  Ni  Ni788  1  0.58333333  0.97138250  0.31692109  1.0
  Ni  Ni789  1  0.91666667  0.30471583  0.31692109  1.0
  Ni  Ni790  1  0.91666667  0.63804917  0.31692109  1.0
  Ni  Ni791  1  0.91666667  0.97138250  0.31692109  1.0
  Ni  Ni792  1  0.16666667  0.08333333  0.33932891  1.0
  Ni  Ni793  1  0.16666667  0.41666667  0.33932891  1.0
  Ni  Ni794  1  0.16666667  0.75000000  0.33932891  1.0
  Ni  Ni795  1  0.50000000  0.08333333  0.33932891  1.0
  Ni  Ni796  1  0.50000000  0.41666667  0.33932891  1.0
  Ni  Ni797  1  0.50000000  0.75000000  0.33932891  1.0
  Ni  Ni798  1  0.83333333  0.08333333  0.33932891  1.0
  Ni  Ni799  1  0.83333333  0.41666667  0.33932891  1.0
  Ni  Ni800  1  0.83333333  0.75000000  0.33932891  1.0
  Ni  Ni801  1  0.16666667  0.25000000  0.27682891  1.0
  Ni  Ni802  1  0.16666667  0.58333333  0.27682891  1.0
  Ni  Ni803  1  0.16666667  0.91666667  0.27682891  1.0
  Ni  Ni804  1  0.50000000  0.25000000  0.27682891  1.0
  Ni  Ni805  1  0.50000000  0.58333333  0.27682891  1.0
  Ni  Ni806  1  0.50000000  0.91666667  0.27682891  1.0
  Ni  Ni807  1  0.83333333  0.25000000  0.27682891  1.0
  Ni  Ni808  1  0.83333333  0.58333333  0.27682891  1.0
  Ni  Ni809  1  0.83333333  0.91666667  0.27682891  1.0
  Ni  Ni810  1  0.00000000  0.08333333  0.33932891  1.0
  Ni  Ni811  1  0.00000000  0.41666667  0.33932891  1.0
  Ni  Ni812  1  0.00000000  0.75000000  0.33932891  1.0
  Ni  Ni813  1  0.33333333  0.08333333  0.33932891  1.0
  Ni  Ni814  1  0.33333333  0.41666667  0.33932891  1.0
  Ni  Ni815  1  0.33333333  0.75000000  0.33932891  1.0
  Ni  Ni816  1  0.66666667  0.08333333  0.33932891  1.0
  Ni  Ni817  1  0.66666667  0.41666667  0.33932891  1.0
  Ni  Ni818  1  0.66666667  0.75000000  0.33932891  1.0
  Ni  Ni819  1  0.00000000  0.25000000  0.27682891  1.0
  Ni  Ni820  1  0.00000000  0.58333333  0.27682891  1.0
  Ni  Ni821  1  0.00000000  0.91666667  0.27682891  1.0
  Ni  Ni822  1  0.33333333  0.25000000  0.27682891  1.0
  Ni  Ni823  1  0.33333333  0.58333333  0.27682891  1.0
  Ni  Ni824  1  0.33333333  0.91666667  0.27682891  1.0
  Ni  Ni825  1  0.66666667  0.25000000  0.27682891  1.0
  Ni  Ni826  1  0.66666667  0.58333333  0.27682891  1.0
  Ni  Ni827  1  0.66666667  0.91666667  0.27682891  1.0
  Ni  Ni828  1  0.00000000  0.16666667  0.37057891  1.0
  Ni  Ni829  1  0.00000000  0.50000000  0.37057891  1.0
  Ni  Ni830  1  0.00000000  0.83333333  0.37057891  1.0
  Ni  Ni831  1  0.33333333  0.16666667  0.37057891  1.0
  Ni  Ni832  1  0.33333333  0.50000000  0.37057891  1.0
  Ni  Ni833  1  0.33333333  0.83333333  0.37057891  1.0
  Ni  Ni834  1  0.66666667  0.16666667  0.37057891  1.0
  Ni  Ni835  1  0.66666667  0.50000000  0.37057891  1.0
  Ni  Ni836  1  0.66666667  0.83333333  0.37057891  1.0
  Ni  Ni837  1  0.00000000  0.00000000  0.30807891  1.0
  Ni  Ni838  1  0.00000000  0.33333333  0.30807891  1.0
  Ni  Ni839  1  0.00000000  0.66666667  0.30807891  1.0
  Ni  Ni840  1  0.33333333  0.00000000  0.30807891  1.0
  Ni  Ni841  1  0.33333333  0.33333333  0.30807891  1.0
  Ni  Ni842  1  0.33333333  0.66666667  0.30807891  1.0
  Ni  Ni843  1  0.66666667  0.00000000  0.30807891  1.0
  Ni  Ni844  1  0.66666667  0.33333333  0.30807891  1.0
  Ni  Ni845  1  0.66666667  0.66666667  0.30807891  1.0
  Ni  Ni846  1  0.16666667  0.08333333  0.27682891  1.0
  Ni  Ni847  1  0.16666667  0.41666667  0.27682891  1.0
  Ni  Ni848  1  0.16666667  0.75000000  0.27682891  1.0
  Ni  Ni849  1  0.50000000  0.08333333  0.27682891  1.0
  Ni  Ni850  1  0.50000000  0.41666667  0.27682891  1.0
  Ni  Ni851  1  0.50000000  0.75000000  0.27682891  1.0
  Ni  Ni852  1  0.83333333  0.08333333  0.27682891  1.0
  Ni  Ni853  1  0.83333333  0.41666667  0.27682891  1.0
  Ni  Ni854  1  0.83333333  0.75000000  0.27682891  1.0
  Ni  Ni855  1  0.16666667  0.25000000  0.33932891  1.0
  Ni  Ni856  1  0.16666667  0.58333333  0.33932891  1.0
  Ni  Ni857  1  0.16666667  0.91666667  0.33932891  1.0
  Ni  Ni858  1  0.50000000  0.25000000  0.33932891  1.0
  Ni  Ni859  1  0.50000000  0.58333333  0.33932891  1.0
  Ni  Ni860  1  0.50000000  0.91666667  0.33932891  1.0
  Ni  Ni861  1  0.83333333  0.25000000  0.33932891  1.0
  Ni  Ni862  1  0.83333333  0.58333333  0.33932891  1.0
  Ni  Ni863  1  0.83333333  0.91666667  0.33932891  1.0
