# generated using pymatgen
data_TiNi
_symmetry_space_group_name_H-M   'P 1'
_cell_length_a   22.54431435
_cell_length_b   41.77662253
_cell_length_c   42.21362250
_cell_angle_alpha   88.04469144
_cell_angle_beta   46.59036526
_cell_angle_gamma   71.98040355
_symmetry_Int_Tables_number   1
_chemical_formula_structural   TiNi
_chemical_formula_sum   'Ti432 Ni432'
_cell_volume   26533.49892179
_cell_formula_units_Z   432
loop_
 _symmetry_equiv_pos_site_id
 _symmetry_equiv_pos_as_xyz
  1  'x, y, z'
loop_
 _atom_site_type_symbol
 _atom_site_label
 _atom_site_symmetry_multiplicity
 _atom_site_fract_x
 _atom_site_fract_y
 _atom_site_fract_z
 _atom_site_occupancy
  Ti  Ti0  1  0.04288400  0.02747200  0.07429100  1.0
  Ti  Ti1  1  0.04288400  0.36080533  0.07429100  1.0
  Ti  Ti2  1  0.04288400  0.69413867  0.07429100  1.0
  Ti  Ti3  1  0.37621733  0.02747200  0.07429100  1.0
  Ti  Ti4  1  0.37621733  0.36080533  0.07429100  1.0
  Ti  Ti5  1  0.37621733  0.69413867  0.07429100  1.0
  Ti  Ti6  1  0.70955067  0.02747200  0.07429100  1.0
  Ti  Ti7  1  0.70955067  0.36080533  0.07429100  1.0
  Ti  Ti8  1  0.70955067  0.69413867  0.07429100  1.0
  Ti  Ti9  1  0.20955067  0.02747200  0.01873544  1.0
  Ti  Ti10  1  0.20955067  0.36080533  0.01873544  1.0
  Ti  Ti11  1  0.20955067  0.69413867  0.01873544  1.0
  Ti  Ti12  1  0.54288400  0.02747200  0.01873544  1.0
  Ti  Ti13  1  0.54288400  0.36080533  0.01873544  1.0
  Ti  Ti14  1  0.54288400  0.69413867  0.01873544  1.0
  Ti  Ti15  1  0.87621733  0.02747200  0.01873544  1.0
  Ti  Ti16  1  0.87621733  0.36080533  0.01873544  1.0
  Ti  Ti17  1  0.87621733  0.69413867  0.01873544  1.0
  Ti  Ti18  1  0.12378267  0.30586133  0.09237567  1.0
  Ti  Ti19  1  0.12378267  0.63919467  0.09237567  1.0
  Ti  Ti20  1  0.12378267  0.97252800  0.09237567  1.0
  Ti  Ti21  1  0.45711600  0.30586133  0.09237567  1.0
  Ti  Ti22  1  0.45711600  0.63919467  0.09237567  1.0
  Ti  Ti23  1  0.45711600  0.97252800  0.09237567  1.0
  Ti  Ti24  1  0.79044933  0.30586133  0.09237567  1.0
  Ti  Ti25  1  0.79044933  0.63919467  0.09237567  1.0
  Ti  Ti26  1  0.79044933  0.97252800  0.09237567  1.0
  Ti  Ti27  1  0.29044933  0.30586133  0.03682011  1.0
  Ti  Ti28  1  0.29044933  0.63919467  0.03682011  1.0
  Ti  Ti29  1  0.29044933  0.97252800  0.03682011  1.0
  Ti  Ti30  1  0.62378267  0.30586133  0.03682011  1.0
  Ti  Ti31  1  0.62378267  0.63919467  0.03682011  1.0
  Ti  Ti32  1  0.62378267  0.97252800  0.03682011  1.0
  Ti  Ti33  1  0.95711600  0.30586133  0.03682011  1.0
  Ti  Ti34  1  0.95711600  0.63919467  0.03682011  1.0
  Ti  Ti35  1  0.95711600  0.97252800  0.03682011  1.0
  Ti  Ti36  1  0.00310200  0.08372800  0.02388044  1.0
  Ti  Ti37  1  0.00310200  0.41706133  0.02388044  1.0
  Ti  Ti38  1  0.00310200  0.75039467  0.02388044  1.0
  Ti  Ti39  1  0.33643533  0.08372800  0.02388044  1.0
  Ti  Ti40  1  0.33643533  0.41706133  0.02388044  1.0
  Ti  Ti41  1  0.33643533  0.75039467  0.02388044  1.0
  Ti  Ti42  1  0.66976867  0.08372800  0.02388044  1.0
  Ti  Ti43  1  0.66976867  0.41706133  0.02388044  1.0
  Ti  Ti44  1  0.66976867  0.75039467  0.02388044  1.0
  Ti  Ti45  1  0.16976867  0.08372800  0.07943600  1.0
  Ti  Ti46  1  0.16976867  0.41706133  0.07943600  1.0
  Ti  Ti47  1  0.16976867  0.75039467  0.07943600  1.0
  Ti  Ti48  1  0.50310200  0.08372800  0.07943600  1.0
  Ti  Ti49  1  0.50310200  0.41706133  0.07943600  1.0
  Ti  Ti50  1  0.50310200  0.75039467  0.07943600  1.0
  Ti  Ti51  1  0.83643533  0.08372800  0.07943600  1.0
  Ti  Ti52  1  0.83643533  0.41706133  0.07943600  1.0
  Ti  Ti53  1  0.83643533  0.75039467  0.07943600  1.0
  Ti  Ti54  1  0.23726050  0.19503000  0.05367939  1.0
  Ti  Ti55  1  0.23726050  0.52836333  0.05367939  1.0
  Ti  Ti56  1  0.23726050  0.86169667  0.05367939  1.0
  Ti  Ti57  1  0.57059383  0.19503000  0.05367939  1.0
  Ti  Ti58  1  0.57059383  0.52836333  0.05367939  1.0
  Ti  Ti59  1  0.57059383  0.86169667  0.05367939  1.0
  Ti  Ti60  1  0.90392717  0.19503000  0.05367939  1.0
  Ti  Ti61  1  0.90392717  0.52836333  0.05367939  1.0
  Ti  Ti62  1  0.90392717  0.86169667  0.05367939  1.0
  Ti  Ti63  1  0.07059383  0.19503000  0.10923494  1.0
  Ti  Ti64  1  0.07059383  0.52836333  0.10923494  1.0
  Ti  Ti65  1  0.07059383  0.86169667  0.10923494  1.0
  Ti  Ti66  1  0.40392717  0.19503000  0.10923494  1.0
  Ti  Ti67  1  0.40392717  0.52836333  0.10923494  1.0
  Ti  Ti68  1  0.40392717  0.86169667  0.10923494  1.0
  Ti  Ti69  1  0.73726050  0.19503000  0.10923494  1.0
  Ti  Ti70  1  0.73726050  0.52836333  0.10923494  1.0
  Ti  Ti71  1  0.73726050  0.86169667  0.10923494  1.0
  Ti  Ti72  1  0.26273950  0.13830333  0.00187617  1.0
  Ti  Ti73  1  0.26273950  0.47163667  0.00187617  1.0
  Ti  Ti74  1  0.26273950  0.80497000  0.00187617  1.0
  Ti  Ti75  1  0.59607283  0.13830333  0.00187617  1.0
  Ti  Ti76  1  0.59607283  0.47163667  0.00187617  1.0
  Ti  Ti77  1  0.59607283  0.80497000  0.00187617  1.0
  Ti  Ti78  1  0.92940617  0.13830333  0.00187617  1.0
  Ti  Ti79  1  0.92940617  0.47163667  0.00187617  1.0
  Ti  Ti80  1  0.92940617  0.80497000  0.00187617  1.0
  Ti  Ti81  1  0.09607283  0.13830333  0.05743172  1.0
  Ti  Ti82  1  0.09607283  0.47163667  0.05743172  1.0
  Ti  Ti83  1  0.09607283  0.80497000  0.05743172  1.0
  Ti  Ti84  1  0.42940617  0.13830333  0.05743172  1.0
  Ti  Ti85  1  0.42940617  0.47163667  0.05743172  1.0
  Ti  Ti86  1  0.42940617  0.80497000  0.05743172  1.0
  Ti  Ti87  1  0.76273950  0.13830333  0.05743172  1.0
  Ti  Ti88  1  0.76273950  0.47163667  0.05743172  1.0
  Ti  Ti89  1  0.76273950  0.80497000  0.05743172  1.0
  Ti  Ti90  1  0.16356467  0.24960533  0.03167511  1.0
  Ti  Ti91  1  0.16356467  0.58293867  0.03167511  1.0
  Ti  Ti92  1  0.16356467  0.91627200  0.03167511  1.0
  Ti  Ti93  1  0.49689800  0.24960533  0.03167511  1.0
  Ti  Ti94  1  0.49689800  0.58293867  0.03167511  1.0
  Ti  Ti95  1  0.49689800  0.91627200  0.03167511  1.0
  Ti  Ti96  1  0.83023133  0.24960533  0.03167511  1.0
  Ti  Ti97  1  0.83023133  0.58293867  0.03167511  1.0
  Ti  Ti98  1  0.83023133  0.91627200  0.03167511  1.0
  Ti  Ti99  1  0.33023133  0.24960533  0.08723067  1.0
  Ti  Ti100  1  0.33023133  0.58293867  0.08723067  1.0
  Ti  Ti101  1  0.33023133  0.91627200  0.08723067  1.0
  Ti  Ti102  1  0.66356467  0.24960533  0.08723067  1.0
  Ti  Ti103  1  0.66356467  0.58293867  0.08723067  1.0
  Ti  Ti104  1  0.66356467  0.91627200  0.08723067  1.0
  Ti  Ti105  1  0.99689800  0.24960533  0.08723067  1.0
  Ti  Ti106  1  0.99689800  0.58293867  0.08723067  1.0
  Ti  Ti107  1  0.99689800  0.91627200  0.08723067  1.0
  Ni  Ni108  1  0.02947917  0.30505767  0.06493339  1.0
  Ni  Ni109  1  0.02947917  0.63839100  0.06493339  1.0
  Ni  Ni110  1  0.02947917  0.97172433  0.06493339  1.0
  Ni  Ni111  1  0.36281250  0.30505767  0.06493339  1.0
  Ni  Ni112  1  0.36281250  0.63839100  0.06493339  1.0
  Ni  Ni113  1  0.36281250  0.97172433  0.06493339  1.0
  Ni  Ni114  1  0.69614583  0.30505767  0.06493339  1.0
  Ni  Ni115  1  0.69614583  0.63839100  0.06493339  1.0
  Ni  Ni116  1  0.69614583  0.97172433  0.06493339  1.0
  Ni  Ni117  1  0.19614583  0.30505767  0.00937783  1.0
  Ni  Ni118  1  0.19614583  0.63839100  0.00937783  1.0
  Ni  Ni119  1  0.19614583  0.97172433  0.00937783  1.0
  Ni  Ni120  1  0.52947917  0.30505767  0.00937783  1.0
  Ni  Ni121  1  0.52947917  0.63839100  0.00937783  1.0
  Ni  Ni122  1  0.52947917  0.97172433  0.00937783  1.0
  Ni  Ni123  1  0.86281250  0.30505767  0.00937783  1.0
  Ni  Ni124  1  0.86281250  0.63839100  0.00937783  1.0
  Ni  Ni125  1  0.86281250  0.97172433  0.00937783  1.0
  Ni  Ni126  1  0.14116167  0.19410067  0.02695311  1.0
  Ni  Ni127  1  0.14116167  0.52743400  0.02695311  1.0
  Ni  Ni128  1  0.14116167  0.86076733  0.02695311  1.0
  Ni  Ni129  1  0.47449500  0.19410067  0.02695311  1.0
  Ni  Ni130  1  0.47449500  0.52743400  0.02695311  1.0
  Ni  Ni131  1  0.47449500  0.86076733  0.02695311  1.0
  Ni  Ni132  1  0.80782833  0.19410067  0.02695311  1.0
  Ni  Ni133  1  0.80782833  0.52743400  0.02695311  1.0
  Ni  Ni134  1  0.80782833  0.86076733  0.02695311  1.0
  Ni  Ni135  1  0.30782833  0.19410067  0.08250867  1.0
  Ni  Ni136  1  0.30782833  0.52743400  0.08250867  1.0
  Ni  Ni137  1  0.30782833  0.86076733  0.08250867  1.0
  Ni  Ni138  1  0.64116167  0.19410067  0.08250867  1.0
  Ni  Ni139  1  0.64116167  0.52743400  0.08250867  1.0
  Ni  Ni140  1  0.64116167  0.86076733  0.08250867  1.0
  Ni  Ni141  1  0.97449500  0.19410067  0.08250867  1.0
  Ni  Ni142  1  0.97449500  0.52743400  0.08250867  1.0
  Ni  Ni143  1  0.97449500  0.86076733  0.08250867  1.0
  Ni  Ni144  1  0.07517200  0.08253300  0.05153600  1.0
  Ni  Ni145  1  0.07517200  0.41586633  0.05153600  1.0
  Ni  Ni146  1  0.07517200  0.74919967  0.05153600  1.0
  Ni  Ni147  1  0.40850533  0.08253300  0.05153600  1.0
  Ni  Ni148  1  0.40850533  0.41586633  0.05153600  1.0
  Ni  Ni149  1  0.40850533  0.74919967  0.05153600  1.0
  Ni  Ni150  1  0.74183867  0.08253300  0.05153600  1.0
  Ni  Ni151  1  0.74183867  0.41586633  0.05153600  1.0
  Ni  Ni152  1  0.74183867  0.74919967  0.05153600  1.0
  Ni  Ni153  1  0.24183867  0.08253300  0.10709156  1.0
  Ni  Ni154  1  0.24183867  0.41586633  0.10709156  1.0
  Ni  Ni155  1  0.24183867  0.74919967  0.10709156  1.0
  Ni  Ni156  1  0.57517200  0.08253300  0.10709156  1.0
  Ni  Ni157  1  0.57517200  0.41586633  0.10709156  1.0
  Ni  Ni158  1  0.57517200  0.74919967  0.10709156  1.0
  Ni  Ni159  1  0.90850533  0.08253300  0.10709156  1.0
  Ni  Ni160  1  0.90850533  0.41586633  0.10709156  1.0
  Ni  Ni161  1  0.90850533  0.74919967  0.10709156  1.0
  Ni  Ni162  1  0.13718750  0.02827567  0.10173328  1.0
  Ni  Ni163  1  0.13718750  0.36160900  0.10173328  1.0
  Ni  Ni164  1  0.13718750  0.69494233  0.10173328  1.0
  Ni  Ni165  1  0.47052083  0.02827567  0.10173328  1.0
  Ni  Ni166  1  0.47052083  0.36160900  0.10173328  1.0
  Ni  Ni167  1  0.47052083  0.69494233  0.10173328  1.0
  Ni  Ni168  1  0.80385417  0.02827567  0.10173328  1.0
  Ni  Ni169  1  0.80385417  0.36160900  0.10173328  1.0
  Ni  Ni170  1  0.80385417  0.69494233  0.10173328  1.0
  Ni  Ni171  1  0.30385417  0.02827567  0.04617772  1.0
  Ni  Ni172  1  0.30385417  0.36160900  0.04617772  1.0
  Ni  Ni173  1  0.30385417  0.69494233  0.04617772  1.0
  Ni  Ni174  1  0.63718750  0.02827567  0.04617772  1.0
  Ni  Ni175  1  0.63718750  0.36160900  0.04617772  1.0
  Ni  Ni176  1  0.63718750  0.69494233  0.04617772  1.0
  Ni  Ni177  1  0.97052083  0.02827567  0.04617772  1.0
  Ni  Ni178  1  0.97052083  0.36160900  0.04617772  1.0
  Ni  Ni179  1  0.97052083  0.69494233  0.04617772  1.0
  Ni  Ni180  1  0.02550500  0.13923267  0.02860244  1.0
  Ni  Ni181  1  0.02550500  0.47256600  0.02860244  1.0
  Ni  Ni182  1  0.02550500  0.80589933  0.02860244  1.0
  Ni  Ni183  1  0.35883833  0.13923267  0.02860244  1.0
  Ni  Ni184  1  0.35883833  0.47256600  0.02860244  1.0
  Ni  Ni185  1  0.35883833  0.80589933  0.02860244  1.0
  Ni  Ni186  1  0.69217167  0.13923267  0.02860244  1.0
  Ni  Ni187  1  0.69217167  0.47256600  0.02860244  1.0
  Ni  Ni188  1  0.69217167  0.80589933  0.02860244  1.0
  Ni  Ni189  1  0.19217167  0.13923267  0.08415800  1.0
  Ni  Ni190  1  0.19217167  0.47256600  0.08415800  1.0
  Ni  Ni191  1  0.19217167  0.80589933  0.08415800  1.0
  Ni  Ni192  1  0.52550500  0.13923267  0.08415800  1.0
  Ni  Ni193  1  0.52550500  0.47256600  0.08415800  1.0
  Ni  Ni194  1  0.52550500  0.80589933  0.08415800  1.0
  Ni  Ni195  1  0.85883833  0.13923267  0.08415800  1.0
  Ni  Ni196  1  0.85883833  0.47256600  0.08415800  1.0
  Ni  Ni197  1  0.85883833  0.80589933  0.08415800  1.0
  Ni  Ni198  1  0.09149467  0.25080033  0.00401956  1.0
  Ni  Ni199  1  0.09149467  0.58413367  0.00401956  1.0
  Ni  Ni200  1  0.09149467  0.91746700  0.00401956  1.0
  Ni  Ni201  1  0.42482800  0.25080033  0.00401956  1.0
  Ni  Ni202  1  0.42482800  0.58413367  0.00401956  1.0
  Ni  Ni203  1  0.42482800  0.91746700  0.00401956  1.0
  Ni  Ni204  1  0.75816133  0.25080033  0.00401956  1.0
  Ni  Ni205  1  0.75816133  0.58413367  0.00401956  1.0
  Ni  Ni206  1  0.75816133  0.91746700  0.00401956  1.0
  Ni  Ni207  1  0.25816133  0.25080033  0.05957511  1.0
  Ni  Ni208  1  0.25816133  0.58413367  0.05957511  1.0
  Ni  Ni209  1  0.25816133  0.91746700  0.05957511  1.0
  Ni  Ni210  1  0.59149467  0.25080033  0.05957511  1.0
  Ni  Ni211  1  0.59149467  0.58413367  0.05957511  1.0
  Ni  Ni212  1  0.59149467  0.91746700  0.05957511  1.0
  Ni  Ni213  1  0.92482800  0.25080033  0.05957511  1.0
  Ni  Ni214  1  0.92482800  0.58413367  0.05957511  1.0
  Ni  Ni215  1  0.92482800  0.91746700  0.05957511  1.0
  Ti  Ti216  1  0.04288400  0.02747200  0.18540211  1.0
  Ti  Ti217  1  0.04288400  0.36080533  0.18540211  1.0
  Ti  Ti218  1  0.04288400  0.69413867  0.18540211  1.0
  Ti  Ti219  1  0.37621733  0.02747200  0.18540211  1.0
  Ti  Ti220  1  0.37621733  0.36080533  0.18540211  1.0
  Ti  Ti221  1  0.37621733  0.69413867  0.18540211  1.0
  Ti  Ti222  1  0.70955067  0.02747200  0.18540211  1.0
  Ti  Ti223  1  0.70955067  0.36080533  0.18540211  1.0
  Ti  Ti224  1  0.70955067  0.69413867  0.18540211  1.0
  Ti  Ti225  1  0.20955067  0.02747200  0.12984656  1.0
  Ti  Ti226  1  0.20955067  0.36080533  0.12984656  1.0
  Ti  Ti227  1  0.20955067  0.69413867  0.12984656  1.0
  Ti  Ti228  1  0.54288400  0.02747200  0.12984656  1.0
  Ti  Ti229  1  0.54288400  0.36080533  0.12984656  1.0
  Ti  Ti230  1  0.54288400  0.69413867  0.12984656  1.0
  Ti  Ti231  1  0.87621733  0.02747200  0.12984656  1.0
  Ti  Ti232  1  0.87621733  0.36080533  0.12984656  1.0
  Ti  Ti233  1  0.87621733  0.69413867  0.12984656  1.0
  Ti  Ti234  1  0.12378267  0.30586133  0.20348678  1.0
  Ti  Ti235  1  0.12378267  0.63919467  0.20348678  1.0
  Ti  Ti236  1  0.12378267  0.97252800  0.20348678  1.0
  Ti  Ti237  1  0.45711600  0.30586133  0.20348678  1.0
  Ti  Ti238  1  0.45711600  0.63919467  0.20348678  1.0
  Ti  Ti239  1  0.45711600  0.97252800  0.20348678  1.0
  Ti  Ti240  1  0.79044933  0.30586133  0.20348678  1.0
  Ti  Ti241  1  0.79044933  0.63919467  0.20348678  1.0
  Ti  Ti242  1  0.79044933  0.97252800  0.20348678  1.0
  Ti  Ti243  1  0.29044933  0.30586133  0.14793122  1.0
  Ti  Ti244  1  0.29044933  0.63919467  0.14793122  1.0
  Ti  Ti245  1  0.29044933  0.97252800  0.14793122  1.0
  Ti  Ti246  1  0.62378267  0.30586133  0.14793122  1.0
  Ti  Ti247  1  0.62378267  0.63919467  0.14793122  1.0
  Ti  Ti248  1  0.62378267  0.97252800  0.14793122  1.0
  Ti  Ti249  1  0.95711600  0.30586133  0.14793122  1.0
  Ti  Ti250  1  0.95711600  0.63919467  0.14793122  1.0
  Ti  Ti251  1  0.95711600  0.97252800  0.14793122  1.0
  Ti  Ti252  1  0.00310200  0.08372800  0.13499156  1.0
  Ti  Ti253  1  0.00310200  0.41706133  0.13499156  1.0
  Ti  Ti254  1  0.00310200  0.75039467  0.13499156  1.0
  Ti  Ti255  1  0.33643533  0.08372800  0.13499156  1.0
  Ti  Ti256  1  0.33643533  0.41706133  0.13499156  1.0
  Ti  Ti257  1  0.33643533  0.75039467  0.13499156  1.0
  Ti  Ti258  1  0.66976867  0.08372800  0.13499156  1.0
  Ti  Ti259  1  0.66976867  0.41706133  0.13499156  1.0
  Ti  Ti260  1  0.66976867  0.75039467  0.13499156  1.0
  Ti  Ti261  1  0.16976867  0.08372800  0.19054711  1.0
  Ti  Ti262  1  0.16976867  0.41706133  0.19054711  1.0
  Ti  Ti263  1  0.16976867  0.75039467  0.19054711  1.0
  Ti  Ti264  1  0.50310200  0.08372800  0.19054711  1.0
  Ti  Ti265  1  0.50310200  0.41706133  0.19054711  1.0
  Ti  Ti266  1  0.50310200  0.75039467  0.19054711  1.0
  Ti  Ti267  1  0.83643533  0.08372800  0.19054711  1.0
  Ti  Ti268  1  0.83643533  0.41706133  0.19054711  1.0
  Ti  Ti269  1  0.83643533  0.75039467  0.19054711  1.0
  Ti  Ti270  1  0.23726050  0.19503000  0.16479050  1.0
  Ti  Ti271  1  0.23726050  0.52836333  0.16479050  1.0
  Ti  Ti272  1  0.23726050  0.86169667  0.16479050  1.0
  Ti  Ti273  1  0.57059383  0.19503000  0.16479050  1.0
  Ti  Ti274  1  0.57059383  0.52836333  0.16479050  1.0
  Ti  Ti275  1  0.57059383  0.86169667  0.16479050  1.0
  Ti  Ti276  1  0.90392717  0.19503000  0.16479050  1.0
  Ti  Ti277  1  0.90392717  0.52836333  0.16479050  1.0
  Ti  Ti278  1  0.90392717  0.86169667  0.16479050  1.0
  Ti  Ti279  1  0.07059383  0.19503000  0.22034606  1.0
  Ti  Ti280  1  0.07059383  0.52836333  0.22034606  1.0
  Ti  Ti281  1  0.07059383  0.86169667  0.22034606  1.0
  Ti  Ti282  1  0.40392717  0.19503000  0.22034606  1.0
  Ti  Ti283  1  0.40392717  0.52836333  0.22034606  1.0
  Ti  Ti284  1  0.40392717  0.86169667  0.22034606  1.0
  Ti  Ti285  1  0.73726050  0.19503000  0.22034606  1.0
  Ti  Ti286  1  0.73726050  0.52836333  0.22034606  1.0
  Ti  Ti287  1  0.73726050  0.86169667  0.22034606  1.0
  Ti  Ti288  1  0.26273950  0.13830333  0.11298728  1.0
  Ti  Ti289  1  0.26273950  0.47163667  0.11298728  1.0
  Ti  Ti290  1  0.26273950  0.80497000  0.11298728  1.0
  Ti  Ti291  1  0.59607283  0.13830333  0.11298728  1.0
  Ti  Ti292  1  0.59607283  0.47163667  0.11298728  1.0
  Ti  Ti293  1  0.59607283  0.80497000  0.11298728  1.0
  Ti  Ti294  1  0.92940617  0.13830333  0.11298728  1.0
  Ti  Ti295  1  0.92940617  0.47163667  0.11298728  1.0
  Ti  Ti296  1  0.92940617  0.80497000  0.11298728  1.0
  Ti  Ti297  1  0.09607283  0.13830333  0.16854283  1.0
  Ti  Ti298  1  0.09607283  0.47163667  0.16854283  1.0
  Ti  Ti299  1  0.09607283  0.80497000  0.16854283  1.0
  Ti  Ti300  1  0.42940617  0.13830333  0.16854283  1.0
  Ti  Ti301  1  0.42940617  0.47163667  0.16854283  1.0
  Ti  Ti302  1  0.42940617  0.80497000  0.16854283  1.0
  Ti  Ti303  1  0.76273950  0.13830333  0.16854283  1.0
  Ti  Ti304  1  0.76273950  0.47163667  0.16854283  1.0
  Ti  Ti305  1  0.76273950  0.80497000  0.16854283  1.0
  Ti  Ti306  1  0.16356467  0.24960533  0.14278622  1.0
  Ti  Ti307  1  0.16356467  0.58293867  0.14278622  1.0
  Ti  Ti308  1  0.16356467  0.91627200  0.14278622  1.0
  Ti  Ti309  1  0.49689800  0.24960533  0.14278622  1.0
  Ti  Ti310  1  0.49689800  0.58293867  0.14278622  1.0
  Ti  Ti311  1  0.49689800  0.91627200  0.14278622  1.0
  Ti  Ti312  1  0.83023133  0.24960533  0.14278622  1.0
  Ti  Ti313  1  0.83023133  0.58293867  0.14278622  1.0
  Ti  Ti314  1  0.83023133  0.91627200  0.14278622  1.0
  Ti  Ti315  1  0.33023133  0.24960533  0.19834178  1.0
  Ti  Ti316  1  0.33023133  0.58293867  0.19834178  1.0
  Ti  Ti317  1  0.33023133  0.91627200  0.19834178  1.0
  Ti  Ti318  1  0.66356467  0.24960533  0.19834178  1.0
  Ti  Ti319  1  0.66356467  0.58293867  0.19834178  1.0
  Ti  Ti320  1  0.66356467  0.91627200  0.19834178  1.0
  Ti  Ti321  1  0.99689800  0.24960533  0.19834178  1.0
  Ti  Ti322  1  0.99689800  0.58293867  0.19834178  1.0
  Ti  Ti323  1  0.99689800  0.91627200  0.19834178  1.0
  Ni  Ni324  1  0.02947917  0.30505767  0.17604450  1.0
  Ni  Ni325  1  0.02947917  0.63839100  0.17604450  1.0
  Ni  Ni326  1  0.02947917  0.97172433  0.17604450  1.0
  Ni  Ni327  1  0.36281250  0.30505767  0.17604450  1.0
  Ni  Ni328  1  0.36281250  0.63839100  0.17604450  1.0
  Ni  Ni329  1  0.36281250  0.97172433  0.17604450  1.0
  Ni  Ni330  1  0.69614583  0.30505767  0.17604450  1.0
  Ni  Ni331  1  0.69614583  0.63839100  0.17604450  1.0
  Ni  Ni332  1  0.69614583  0.97172433  0.17604450  1.0
  Ni  Ni333  1  0.19614583  0.30505767  0.12048894  1.0
  Ni  Ni334  1  0.19614583  0.63839100  0.12048894  1.0
  Ni  Ni335  1  0.19614583  0.97172433  0.12048894  1.0
  Ni  Ni336  1  0.52947917  0.30505767  0.12048894  1.0
  Ni  Ni337  1  0.52947917  0.63839100  0.12048894  1.0
  Ni  Ni338  1  0.52947917  0.97172433  0.12048894  1.0
  Ni  Ni339  1  0.86281250  0.30505767  0.12048894  1.0
  Ni  Ni340  1  0.86281250  0.63839100  0.12048894  1.0
  Ni  Ni341  1  0.86281250  0.97172433  0.12048894  1.0
  Ni  Ni342  1  0.14116167  0.19410067  0.13806422  1.0
  Ni  Ni343  1  0.14116167  0.52743400  0.13806422  1.0
  Ni  Ni344  1  0.14116167  0.86076733  0.13806422  1.0
  Ni  Ni345  1  0.47449500  0.19410067  0.13806422  1.0
  Ni  Ni346  1  0.47449500  0.52743400  0.13806422  1.0
  Ni  Ni347  1  0.47449500  0.86076733  0.13806422  1.0
  Ni  Ni348  1  0.80782833  0.19410067  0.13806422  1.0
  Ni  Ni349  1  0.80782833  0.52743400  0.13806422  1.0
  Ni  Ni350  1  0.80782833  0.86076733  0.13806422  1.0
  Ni  Ni351  1  0.30782833  0.19410067  0.19361978  1.0
  Ni  Ni352  1  0.30782833  0.52743400  0.19361978  1.0
  Ni  Ni353  1  0.30782833  0.86076733  0.19361978  1.0
  Ni  Ni354  1  0.64116167  0.19410067  0.19361978  1.0
  Ni  Ni355  1  0.64116167  0.52743400  0.19361978  1.0
  Ni  Ni356  1  0.64116167  0.86076733  0.19361978  1.0
  Ni  Ni357  1  0.97449500  0.19410067  0.19361978  1.0
  Ni  Ni358  1  0.97449500  0.52743400  0.19361978  1.0
  Ni  Ni359  1  0.97449500  0.86076733  0.19361978  1.0
  Ni  Ni360  1  0.07517200  0.08253300  0.16264711  1.0
  Ni  Ni361  1  0.07517200  0.41586633  0.16264711  1.0
  Ni  Ni362  1  0.07517200  0.74919967  0.16264711  1.0
  Ni  Ni363  1  0.40850533  0.08253300  0.16264711  1.0
  Ni  Ni364  1  0.40850533  0.41586633  0.16264711  1.0
  Ni  Ni365  1  0.40850533  0.74919967  0.16264711  1.0
  Ni  Ni366  1  0.74183867  0.08253300  0.16264711  1.0
  Ni  Ni367  1  0.74183867  0.41586633  0.16264711  1.0
  Ni  Ni368  1  0.74183867  0.74919967  0.16264711  1.0
  Ni  Ni369  1  0.24183867  0.08253300  0.21820267  1.0
  Ni  Ni370  1  0.24183867  0.41586633  0.21820267  1.0
  Ni  Ni371  1  0.24183867  0.74919967  0.21820267  1.0
  Ni  Ni372  1  0.57517200  0.08253300  0.21820267  1.0
  Ni  Ni373  1  0.57517200  0.41586633  0.21820267  1.0
  Ni  Ni374  1  0.57517200  0.74919967  0.21820267  1.0
  Ni  Ni375  1  0.90850533  0.08253300  0.21820267  1.0
  Ni  Ni376  1  0.90850533  0.41586633  0.21820267  1.0
  Ni  Ni377  1  0.90850533  0.74919967  0.21820267  1.0
  Ni  Ni378  1  0.13718750  0.02827567  0.21284439  1.0
  Ni  Ni379  1  0.13718750  0.36160900  0.21284439  1.0
  Ni  Ni380  1  0.13718750  0.69494233  0.21284439  1.0
  Ni  Ni381  1  0.47052083  0.02827567  0.21284439  1.0
  Ni  Ni382  1  0.47052083  0.36160900  0.21284439  1.0
  Ni  Ni383  1  0.47052083  0.69494233  0.21284439  1.0
  Ni  Ni384  1  0.80385417  0.02827567  0.21284439  1.0
  Ni  Ni385  1  0.80385417  0.36160900  0.21284439  1.0
  Ni  Ni386  1  0.80385417  0.69494233  0.21284439  1.0
  Ni  Ni387  1  0.30385417  0.02827567  0.15728883  1.0
  Ni  Ni388  1  0.30385417  0.36160900  0.15728883  1.0
  Ni  Ni389  1  0.30385417  0.69494233  0.15728883  1.0
  Ni  Ni390  1  0.63718750  0.02827567  0.15728883  1.0
  Ni  Ni391  1  0.63718750  0.36160900  0.15728883  1.0
  Ni  Ni392  1  0.63718750  0.69494233  0.15728883  1.0
  Ni  Ni393  1  0.97052083  0.02827567  0.15728883  1.0
  Ni  Ni394  1  0.97052083  0.36160900  0.15728883  1.0
  Ni  Ni395  1  0.97052083  0.69494233  0.15728883  1.0
  Ni  Ni396  1  0.02550500  0.13923267  0.13971356  1.0
  Ni  Ni397  1  0.02550500  0.47256600  0.13971356  1.0
  Ni  Ni398  1  0.02550500  0.80589933  0.13971356  1.0
  Ni  Ni399  1  0.35883833  0.13923267  0.13971356  1.0
  Ni  Ni400  1  0.35883833  0.47256600  0.13971356  1.0
  Ni  Ni401  1  0.35883833  0.80589933  0.13971356  1.0
  Ni  Ni402  1  0.69217167  0.13923267  0.13971356  1.0
  Ni  Ni403  1  0.69217167  0.47256600  0.13971356  1.0
  Ni  Ni404  1  0.69217167  0.80589933  0.13971356  1.0
  Ni  Ni405  1  0.19217167  0.13923267  0.19526911  1.0
  Ni  Ni406  1  0.19217167  0.47256600  0.19526911  1.0
  Ni  Ni407  1  0.19217167  0.80589933  0.19526911  1.0
  Ni  Ni408  1  0.52550500  0.13923267  0.19526911  1.0
  Ni  Ni409  1  0.52550500  0.47256600  0.19526911  1.0
  Ni  Ni410  1  0.52550500  0.80589933  0.19526911  1.0
  Ni  Ni411  1  0.85883833  0.13923267  0.19526911  1.0
  Ni  Ni412  1  0.85883833  0.47256600  0.19526911  1.0
  Ni  Ni413  1  0.85883833  0.80589933  0.19526911  1.0
  Ni  Ni414  1  0.09149467  0.25080033  0.11513067  1.0
  Ni  Ni415  1  0.09149467  0.58413367  0.11513067  1.0
  Ni  Ni416  1  0.09149467  0.91746700  0.11513067  1.0
  Ni  Ni417  1  0.42482800  0.25080033  0.11513067  1.0
  Ni  Ni418  1  0.42482800  0.58413367  0.11513067  1.0
  Ni  Ni419  1  0.42482800  0.91746700  0.11513067  1.0
  Ni  Ni420  1  0.75816133  0.25080033  0.11513067  1.0
  Ni  Ni421  1  0.75816133  0.58413367  0.11513067  1.0
  Ni  Ni422  1  0.75816133  0.91746700  0.11513067  1.0
  Ni  Ni423  1  0.25816133  0.25080033  0.17068622  1.0
  Ni  Ni424  1  0.25816133  0.58413367  0.17068622  1.0
  Ni  Ni425  1  0.25816133  0.91746700  0.17068622  1.0
  Ni  Ni426  1  0.59149467  0.25080033  0.17068622  1.0
  Ni  Ni427  1  0.59149467  0.58413367  0.17068622  1.0
  Ni  Ni428  1  0.59149467  0.91746700  0.17068622  1.0
  Ni  Ni429  1  0.92482800  0.25080033  0.17068622  1.0
  Ni  Ni430  1  0.92482800  0.58413367  0.17068622  1.0
  Ni  Ni431  1  0.92482800  0.91746700  0.17068622  1.0
  Ti  Ti432  1  0.04288400  0.02747200  0.29651322  1.0
  Ti  Ti433  1  0.04288400  0.36080533  0.29651322  1.0
  Ti  Ti434  1  0.04288400  0.69413867  0.29651322  1.0
  Ti  Ti435  1  0.37621733  0.02747200  0.29651322  1.0
  Ti  Ti436  1  0.37621733  0.36080533  0.29651322  1.0
  Ti  Ti437  1  0.37621733  0.69413867  0.29651322  1.0
  Ti  Ti438  1  0.70955067  0.02747200  0.29651322  1.0
  Ti  Ti439  1  0.70955067  0.36080533  0.29651322  1.0
  Ti  Ti440  1  0.70955067  0.69413867  0.29651322  1.0
  Ti  Ti441  1  0.20955067  0.02747200  0.24095767  1.0
  Ti  Ti442  1  0.20955067  0.36080533  0.24095767  1.0
  Ti  Ti443  1  0.20955067  0.69413867  0.24095767  1.0
  Ti  Ti444  1  0.54288400  0.02747200  0.24095767  1.0
  Ti  Ti445  1  0.54288400  0.36080533  0.24095767  1.0
  Ti  Ti446  1  0.54288400  0.69413867  0.24095767  1.0
  Ti  Ti447  1  0.87621733  0.02747200  0.24095767  1.0
  Ti  Ti448  1  0.87621733  0.36080533  0.24095767  1.0
  Ti  Ti449  1  0.87621733  0.69413867  0.24095767  1.0
  Ti  Ti450  1  0.12378267  0.30586133  0.31459789  1.0
  Ti  Ti451  1  0.12378267  0.63919467  0.31459789  1.0
  Ti  Ti452  1  0.12378267  0.97252800  0.31459789  1.0
  Ti  Ti453  1  0.45711600  0.30586133  0.31459789  1.0
  Ti  Ti454  1  0.45711600  0.63919467  0.31459789  1.0
  Ti  Ti455  1  0.45711600  0.97252800  0.31459789  1.0
  Ti  Ti456  1  0.79044933  0.30586133  0.31459789  1.0
  Ti  Ti457  1  0.79044933  0.63919467  0.31459789  1.0
  Ti  Ti458  1  0.79044933  0.97252800  0.31459789  1.0
  Ti  Ti459  1  0.29044933  0.30586133  0.25904233  1.0
  Ti  Ti460  1  0.29044933  0.63919467  0.25904233  1.0
  Ti  Ti461  1  0.29044933  0.97252800  0.25904233  1.0
  Ti  Ti462  1  0.62378267  0.30586133  0.25904233  1.0
  Ti  Ti463  1  0.62378267  0.63919467  0.25904233  1.0
  Ti  Ti464  1  0.62378267  0.97252800  0.25904233  1.0
  Ti  Ti465  1  0.95711600  0.30586133  0.25904233  1.0
  Ti  Ti466  1  0.95711600  0.63919467  0.25904233  1.0
  Ti  Ti467  1  0.95711600  0.97252800  0.25904233  1.0
  Ti  Ti468  1  0.00310200  0.08372800  0.24610267  1.0
  Ti  Ti469  1  0.00310200  0.41706133  0.24610267  1.0
  Ti  Ti470  1  0.00310200  0.75039467  0.24610267  1.0
  Ti  Ti471  1  0.33643533  0.08372800  0.24610267  1.0
  Ti  Ti472  1  0.33643533  0.41706133  0.24610267  1.0
  Ti  Ti473  1  0.33643533  0.75039467  0.24610267  1.0
  Ti  Ti474  1  0.66976867  0.08372800  0.24610267  1.0
  Ti  Ti475  1  0.66976867  0.41706133  0.24610267  1.0
  Ti  Ti476  1  0.66976867  0.75039467  0.24610267  1.0
  Ti  Ti477  1  0.16976867  0.08372800  0.30165822  1.0
  Ti  Ti478  1  0.16976867  0.41706133  0.30165822  1.0
  Ti  Ti479  1  0.16976867  0.75039467  0.30165822  1.0
  Ti  Ti480  1  0.50310200  0.08372800  0.30165822  1.0
  Ti  Ti481  1  0.50310200  0.41706133  0.30165822  1.0
  Ti  Ti482  1  0.50310200  0.75039467  0.30165822  1.0
  Ti  Ti483  1  0.83643533  0.08372800  0.30165822  1.0
  Ti  Ti484  1  0.83643533  0.41706133  0.30165822  1.0
  Ti  Ti485  1  0.83643533  0.75039467  0.30165822  1.0
  Ti  Ti486  1  0.23726050  0.19503000  0.27590161  1.0
  Ti  Ti487  1  0.23726050  0.52836333  0.27590161  1.0
  Ti  Ti488  1  0.23726050  0.86169667  0.27590161  1.0
  Ti  Ti489  1  0.57059383  0.19503000  0.27590161  1.0
  Ti  Ti490  1  0.57059383  0.52836333  0.27590161  1.0
  Ti  Ti491  1  0.57059383  0.86169667  0.27590161  1.0
  Ti  Ti492  1  0.90392717  0.19503000  0.27590161  1.0
  Ti  Ti493  1  0.90392717  0.52836333  0.27590161  1.0
  Ti  Ti494  1  0.90392717  0.86169667  0.27590161  1.0
  Ti  Ti495  1  0.07059383  0.19503000  0.33145717  1.0
  Ti  Ti496  1  0.07059383  0.52836333  0.33145717  1.0
  Ti  Ti497  1  0.07059383  0.86169667  0.33145717  1.0
  Ti  Ti498  1  0.40392717  0.19503000  0.33145717  1.0
  Ti  Ti499  1  0.40392717  0.52836333  0.33145717  1.0
  Ti  Ti500  1  0.40392717  0.86169667  0.33145717  1.0
  Ti  Ti501  1  0.73726050  0.19503000  0.33145717  1.0
  Ti  Ti502  1  0.73726050  0.52836333  0.33145717  1.0
  Ti  Ti503  1  0.73726050  0.86169667  0.33145717  1.0
  Ti  Ti504  1  0.26273950  0.13830333  0.22409839  1.0
  Ti  Ti505  1  0.26273950  0.47163667  0.22409839  1.0
  Ti  Ti506  1  0.26273950  0.80497000  0.22409839  1.0
  Ti  Ti507  1  0.59607283  0.13830333  0.22409839  1.0
  Ti  Ti508  1  0.59607283  0.47163667  0.22409839  1.0
  Ti  Ti509  1  0.59607283  0.80497000  0.22409839  1.0
  Ti  Ti510  1  0.92940617  0.13830333  0.22409839  1.0
  Ti  Ti511  1  0.92940617  0.47163667  0.22409839  1.0
  Ti  Ti512  1  0.92940617  0.80497000  0.22409839  1.0
  Ti  Ti513  1  0.09607283  0.13830333  0.27965394  1.0
  Ti  Ti514  1  0.09607283  0.47163667  0.27965394  1.0
  Ti  Ti515  1  0.09607283  0.80497000  0.27965394  1.0
  Ti  Ti516  1  0.42940617  0.13830333  0.27965394  1.0
  Ti  Ti517  1  0.42940617  0.47163667  0.27965394  1.0
  Ti  Ti518  1  0.42940617  0.80497000  0.27965394  1.0
  Ti  Ti519  1  0.76273950  0.13830333  0.27965394  1.0
  Ti  Ti520  1  0.76273950  0.47163667  0.27965394  1.0
  Ti  Ti521  1  0.76273950  0.80497000  0.27965394  1.0
  Ti  Ti522  1  0.16356467  0.24960533  0.25389733  1.0
  Ti  Ti523  1  0.16356467  0.58293867  0.25389733  1.0
  Ti  Ti524  1  0.16356467  0.91627200  0.25389733  1.0
  Ti  Ti525  1  0.49689800  0.24960533  0.25389733  1.0
  Ti  Ti526  1  0.49689800  0.58293867  0.25389733  1.0
  Ti  Ti527  1  0.49689800  0.91627200  0.25389733  1.0
  Ti  Ti528  1  0.83023133  0.24960533  0.25389733  1.0
  Ti  Ti529  1  0.83023133  0.58293867  0.25389733  1.0
  Ti  Ti530  1  0.83023133  0.91627200  0.25389733  1.0
  Ti  Ti531  1  0.33023133  0.24960533  0.30945289  1.0
  Ti  Ti532  1  0.33023133  0.58293867  0.30945289  1.0
  Ti  Ti533  1  0.33023133  0.91627200  0.30945289  1.0
  Ti  Ti534  1  0.66356467  0.24960533  0.30945289  1.0
  Ti  Ti535  1  0.66356467  0.58293867  0.30945289  1.0
  Ti  Ti536  1  0.66356467  0.91627200  0.30945289  1.0
  Ti  Ti537  1  0.99689800  0.24960533  0.30945289  1.0
  Ti  Ti538  1  0.99689800  0.58293867  0.30945289  1.0
  Ti  Ti539  1  0.99689800  0.91627200  0.30945289  1.0
  Ni  Ni540  1  0.02947917  0.30505767  0.28715561  1.0
  Ni  Ni541  1  0.02947917  0.63839100  0.28715561  1.0
  Ni  Ni542  1  0.02947917  0.97172433  0.28715561  1.0
  Ni  Ni543  1  0.36281250  0.30505767  0.28715561  1.0
  Ni  Ni544  1  0.36281250  0.63839100  0.28715561  1.0
  Ni  Ni545  1  0.36281250  0.97172433  0.28715561  1.0
  Ni  Ni546  1  0.69614583  0.30505767  0.28715561  1.0
  Ni  Ni547  1  0.69614583  0.63839100  0.28715561  1.0
  Ni  Ni548  1  0.69614583  0.97172433  0.28715561  1.0
  Ni  Ni549  1  0.19614583  0.30505767  0.23160006  1.0
  Ni  Ni550  1  0.19614583  0.63839100  0.23160006  1.0
  Ni  Ni551  1  0.19614583  0.97172433  0.23160006  1.0
  Ni  Ni552  1  0.52947917  0.30505767  0.23160006  1.0
  Ni  Ni553  1  0.52947917  0.63839100  0.23160006  1.0
  Ni  Ni554  1  0.52947917  0.97172433  0.23160006  1.0
  Ni  Ni555  1  0.86281250  0.30505767  0.23160006  1.0
  Ni  Ni556  1  0.86281250  0.63839100  0.23160006  1.0
  Ni  Ni557  1  0.86281250  0.97172433  0.23160006  1.0
  Ni  Ni558  1  0.14116167  0.19410067  0.24917533  1.0
  Ni  Ni559  1  0.14116167  0.52743400  0.24917533  1.0
  Ni  Ni560  1  0.14116167  0.86076733  0.24917533  1.0
  Ni  Ni561  1  0.47449500  0.19410067  0.24917533  1.0
  Ni  Ni562  1  0.47449500  0.52743400  0.24917533  1.0
  Ni  Ni563  1  0.47449500  0.86076733  0.24917533  1.0
  Ni  Ni564  1  0.80782833  0.19410067  0.24917533  1.0
  Ni  Ni565  1  0.80782833  0.52743400  0.24917533  1.0
  Ni  Ni566  1  0.80782833  0.86076733  0.24917533  1.0
  Ni  Ni567  1  0.30782833  0.19410067  0.30473089  1.0
  Ni  Ni568  1  0.30782833  0.52743400  0.30473089  1.0
  Ni  Ni569  1  0.30782833  0.86076733  0.30473089  1.0
  Ni  Ni570  1  0.64116167  0.19410067  0.30473089  1.0
  Ni  Ni571  1  0.64116167  0.52743400  0.30473089  1.0
  Ni  Ni572  1  0.64116167  0.86076733  0.30473089  1.0
  Ni  Ni573  1  0.97449500  0.19410067  0.30473089  1.0
  Ni  Ni574  1  0.97449500  0.52743400  0.30473089  1.0
  Ni  Ni575  1  0.97449500  0.86076733  0.30473089  1.0
  Ni  Ni576  1  0.07517200  0.08253300  0.27375822  1.0
  Ni  Ni577  1  0.07517200  0.41586633  0.27375822  1.0
  Ni  Ni578  1  0.07517200  0.74919967  0.27375822  1.0
  Ni  Ni579  1  0.40850533  0.08253300  0.27375822  1.0
  Ni  Ni580  1  0.40850533  0.41586633  0.27375822  1.0
  Ni  Ni581  1  0.40850533  0.74919967  0.27375822  1.0
  Ni  Ni582  1  0.74183867  0.08253300  0.27375822  1.0
  Ni  Ni583  1  0.74183867  0.41586633  0.27375822  1.0
  Ni  Ni584  1  0.74183867  0.74919967  0.27375822  1.0
  Ni  Ni585  1  0.24183867  0.08253300  0.32931378  1.0
  Ni  Ni586  1  0.24183867  0.41586633  0.32931378  1.0
  Ni  Ni587  1  0.24183867  0.74919967  0.32931378  1.0
  Ni  Ni588  1  0.57517200  0.08253300  0.32931378  1.0
  Ni  Ni589  1  0.57517200  0.41586633  0.32931378  1.0
  Ni  Ni590  1  0.57517200  0.74919967  0.32931378  1.0
  Ni  Ni591  1  0.90850533  0.08253300  0.32931378  1.0
  Ni  Ni592  1  0.90850533  0.41586633  0.32931378  1.0
  Ni  Ni593  1  0.90850533  0.74919967  0.32931378  1.0
  Ni  Ni594  1  0.13718750  0.02827567  0.32395550  1.0
  Ni  Ni595  1  0.13718750  0.36160900  0.32395550  1.0
  Ni  Ni596  1  0.13718750  0.69494233  0.32395550  1.0
  Ni  Ni597  1  0.47052083  0.02827567  0.32395550  1.0
  Ni  Ni598  1  0.47052083  0.36160900  0.32395550  1.0
  Ni  Ni599  1  0.47052083  0.69494233  0.32395550  1.0
  Ni  Ni600  1  0.80385417  0.02827567  0.32395550  1.0
  Ni  Ni601  1  0.80385417  0.36160900  0.32395550  1.0
  Ni  Ni602  1  0.80385417  0.69494233  0.32395550  1.0
  Ni  Ni603  1  0.30385417  0.02827567  0.26839994  1.0
  Ni  Ni604  1  0.30385417  0.36160900  0.26839994  1.0
  Ni  Ni605  1  0.30385417  0.69494233  0.26839994  1.0
  Ni  Ni606  1  0.63718750  0.02827567  0.26839994  1.0
  Ni  Ni607  1  0.63718750  0.36160900  0.26839994  1.0
  Ni  Ni608  1  0.63718750  0.69494233  0.26839994  1.0
  Ni  Ni609  1  0.97052083  0.02827567  0.26839994  1.0
  Ni  Ni610  1  0.97052083  0.36160900  0.26839994  1.0
  Ni  Ni611  1  0.97052083  0.69494233  0.26839994  1.0
  Ni  Ni612  1  0.02550500  0.13923267  0.25082467  1.0
  Ni  Ni613  1  0.02550500  0.47256600  0.25082467  1.0
  Ni  Ni614  1  0.02550500  0.80589933  0.25082467  1.0
  Ni  Ni615  1  0.35883833  0.13923267  0.25082467  1.0
  Ni  Ni616  1  0.35883833  0.47256600  0.25082467  1.0
  Ni  Ni617  1  0.35883833  0.80589933  0.25082467  1.0
  Ni  Ni618  1  0.69217167  0.13923267  0.25082467  1.0
  Ni  Ni619  1  0.69217167  0.47256600  0.25082467  1.0
  Ni  Ni620  1  0.69217167  0.80589933  0.25082467  1.0
  Ni  Ni621  1  0.19217167  0.13923267  0.30638022  1.0
  Ni  Ni622  1  0.19217167  0.47256600  0.30638022  1.0
  Ni  Ni623  1  0.19217167  0.80589933  0.30638022  1.0
  Ni  Ni624  1  0.52550500  0.13923267  0.30638022  1.0
  Ni  Ni625  1  0.52550500  0.47256600  0.30638022  1.0
  Ni  Ni626  1  0.52550500  0.80589933  0.30638022  1.0
  Ni  Ni627  1  0.85883833  0.13923267  0.30638022  1.0
  Ni  Ni628  1  0.85883833  0.47256600  0.30638022  1.0
  Ni  Ni629  1  0.85883833  0.80589933  0.30638022  1.0
  Ni  Ni630  1  0.09149467  0.25080033  0.22624178  1.0
  Ni  Ni631  1  0.09149467  0.58413367  0.22624178  1.0
  Ni  Ni632  1  0.09149467  0.91746700  0.22624178  1.0
  Ni  Ni633  1  0.42482800  0.25080033  0.22624178  1.0
  Ni  Ni634  1  0.42482800  0.58413367  0.22624178  1.0
  Ni  Ni635  1  0.42482800  0.91746700  0.22624178  1.0
  Ni  Ni636  1  0.75816133  0.25080033  0.22624178  1.0
  Ni  Ni637  1  0.75816133  0.58413367  0.22624178  1.0
  Ni  Ni638  1  0.75816133  0.91746700  0.22624178  1.0
  Ni  Ni639  1  0.25816133  0.25080033  0.28179733  1.0
  Ni  Ni640  1  0.25816133  0.58413367  0.28179733  1.0
  Ni  Ni641  1  0.25816133  0.91746700  0.28179733  1.0
  Ni  Ni642  1  0.59149467  0.25080033  0.28179733  1.0
  Ni  Ni643  1  0.59149467  0.58413367  0.28179733  1.0
  Ni  Ni644  1  0.59149467  0.91746700  0.28179733  1.0
  Ni  Ni645  1  0.92482800  0.25080033  0.28179733  1.0
  Ni  Ni646  1  0.92482800  0.58413367  0.28179733  1.0
  Ni  Ni647  1  0.92482800  0.91746700  0.28179733  1.0
  Ti  Ti648  1  0.04288400  0.02747200  0.40762433  1.0
  Ti  Ti649  1  0.04288400  0.36080533  0.40762433  1.0
  Ti  Ti650  1  0.04288400  0.69413867  0.40762433  1.0
  Ti  Ti651  1  0.37621733  0.02747200  0.40762433  1.0
  Ti  Ti652  1  0.37621733  0.36080533  0.40762433  1.0
  Ti  Ti653  1  0.37621733  0.69413867  0.40762433  1.0
  Ti  Ti654  1  0.70955067  0.02747200  0.40762433  1.0
  Ti  Ti655  1  0.70955067  0.36080533  0.40762433  1.0
  Ti  Ti656  1  0.70955067  0.69413867  0.40762433  1.0
  Ti  Ti657  1  0.20955067  0.02747200  0.35206878  1.0
  Ti  Ti658  1  0.20955067  0.36080533  0.35206878  1.0
  Ti  Ti659  1  0.20955067  0.69413867  0.35206878  1.0
  Ti  Ti660  1  0.54288400  0.02747200  0.35206878  1.0
  Ti  Ti661  1  0.54288400  0.36080533  0.35206878  1.0
  Ti  Ti662  1  0.54288400  0.69413867  0.35206878  1.0
  Ti  Ti663  1  0.87621733  0.02747200  0.35206878  1.0
  Ti  Ti664  1  0.87621733  0.36080533  0.35206878  1.0
  Ti  Ti665  1  0.87621733  0.69413867  0.35206878  1.0
  Ti  Ti666  1  0.12378267  0.30586133  0.42570900  1.0
  Ti  Ti667  1  0.12378267  0.63919467  0.42570900  1.0
  Ti  Ti668  1  0.12378267  0.97252800  0.42570900  1.0
  Ti  Ti669  1  0.45711600  0.30586133  0.42570900  1.0
  Ti  Ti670  1  0.45711600  0.63919467  0.42570900  1.0
  Ti  Ti671  1  0.45711600  0.97252800  0.42570900  1.0
  Ti  Ti672  1  0.79044933  0.30586133  0.42570900  1.0
  Ti  Ti673  1  0.79044933  0.63919467  0.42570900  1.0
  Ti  Ti674  1  0.79044933  0.97252800  0.42570900  1.0
  Ti  Ti675  1  0.29044933  0.30586133  0.37015344  1.0
  Ti  Ti676  1  0.29044933  0.63919467  0.37015344  1.0
  Ti  Ti677  1  0.29044933  0.97252800  0.37015344  1.0
  Ti  Ti678  1  0.62378267  0.30586133  0.37015344  1.0
  Ti  Ti679  1  0.62378267  0.63919467  0.37015344  1.0
  Ti  Ti680  1  0.62378267  0.97252800  0.37015344  1.0
  Ti  Ti681  1  0.95711600  0.30586133  0.37015344  1.0
  Ti  Ti682  1  0.95711600  0.63919467  0.37015344  1.0
  Ti  Ti683  1  0.95711600  0.97252800  0.37015344  1.0
  Ti  Ti684  1  0.00310200  0.08372800  0.35721378  1.0
  Ti  Ti685  1  0.00310200  0.41706133  0.35721378  1.0
  Ti  Ti686  1  0.00310200  0.75039467  0.35721378  1.0
  Ti  Ti687  1  0.33643533  0.08372800  0.35721378  1.0
  Ti  Ti688  1  0.33643533  0.41706133  0.35721378  1.0
  Ti  Ti689  1  0.33643533  0.75039467  0.35721378  1.0
  Ti  Ti690  1  0.66976867  0.08372800  0.35721378  1.0
  Ti  Ti691  1  0.66976867  0.41706133  0.35721378  1.0
  Ti  Ti692  1  0.66976867  0.75039467  0.35721378  1.0
  Ti  Ti693  1  0.16976867  0.08372800  0.41276933  1.0
  Ti  Ti694  1  0.16976867  0.41706133  0.41276933  1.0
  Ti  Ti695  1  0.16976867  0.75039467  0.41276933  1.0
  Ti  Ti696  1  0.50310200  0.08372800  0.41276933  1.0
  Ti  Ti697  1  0.50310200  0.41706133  0.41276933  1.0
  Ti  Ti698  1  0.50310200  0.75039467  0.41276933  1.0
  Ti  Ti699  1  0.83643533  0.08372800  0.41276933  1.0
  Ti  Ti700  1  0.83643533  0.41706133  0.41276933  1.0
  Ti  Ti701  1  0.83643533  0.75039467  0.41276933  1.0
  Ti  Ti702  1  0.23726050  0.19503000  0.38701272  1.0
  Ti  Ti703  1  0.23726050  0.52836333  0.38701272  1.0
  Ti  Ti704  1  0.23726050  0.86169667  0.38701272  1.0
  Ti  Ti705  1  0.57059383  0.19503000  0.38701272  1.0
  Ti  Ti706  1  0.57059383  0.52836333  0.38701272  1.0
  Ti  Ti707  1  0.57059383  0.86169667  0.38701272  1.0
  Ti  Ti708  1  0.90392717  0.19503000  0.38701272  1.0
  Ti  Ti709  1  0.90392717  0.52836333  0.38701272  1.0
  Ti  Ti710  1  0.90392717  0.86169667  0.38701272  1.0
  Ti  Ti711  1  0.07059383  0.19503000  0.44256828  1.0
  Ti  Ti712  1  0.07059383  0.52836333  0.44256828  1.0
  Ti  Ti713  1  0.07059383  0.86169667  0.44256828  1.0
  Ti  Ti714  1  0.40392717  0.19503000  0.44256828  1.0
  Ti  Ti715  1  0.40392717  0.52836333  0.44256828  1.0
  Ti  Ti716  1  0.40392717  0.86169667  0.44256828  1.0
  Ti  Ti717  1  0.73726050  0.19503000  0.44256828  1.0
  Ti  Ti718  1  0.73726050  0.52836333  0.44256828  1.0
  Ti  Ti719  1  0.73726050  0.86169667  0.44256828  1.0
  Ti  Ti720  1  0.26273950  0.13830333  0.33520950  1.0
  Ti  Ti721  1  0.26273950  0.47163667  0.33520950  1.0
  Ti  Ti722  1  0.26273950  0.80497000  0.33520950  1.0
  Ti  Ti723  1  0.59607283  0.13830333  0.33520950  1.0
  Ti  Ti724  1  0.59607283  0.47163667  0.33520950  1.0
  Ti  Ti725  1  0.59607283  0.80497000  0.33520950  1.0
  Ti  Ti726  1  0.92940617  0.13830333  0.33520950  1.0
  Ti  Ti727  1  0.92940617  0.47163667  0.33520950  1.0
  Ti  Ti728  1  0.92940617  0.80497000  0.33520950  1.0
  Ti  Ti729  1  0.09607283  0.13830333  0.39076506  1.0
  Ti  Ti730  1  0.09607283  0.47163667  0.39076506  1.0
  Ti  Ti731  1  0.09607283  0.80497000  0.39076506  1.0
  Ti  Ti732  1  0.42940617  0.13830333  0.39076506  1.0
  Ti  Ti733  1  0.42940617  0.47163667  0.39076506  1.0
  Ti  Ti734  1  0.42940617  0.80497000  0.39076506  1.0
  Ti  Ti735  1  0.76273950  0.13830333  0.39076506  1.0
  Ti  Ti736  1  0.76273950  0.47163667  0.39076506  1.0
  Ti  Ti737  1  0.76273950  0.80497000  0.39076506  1.0
  Ti  Ti738  1  0.16356467  0.24960533  0.36500844  1.0
  Ti  Ti739  1  0.16356467  0.58293867  0.36500844  1.0
  Ti  Ti740  1  0.16356467  0.91627200  0.36500844  1.0
  Ti  Ti741  1  0.49689800  0.24960533  0.36500844  1.0
  Ti  Ti742  1  0.49689800  0.58293867  0.36500844  1.0
  Ti  Ti743  1  0.49689800  0.91627200  0.36500844  1.0
  Ti  Ti744  1  0.83023133  0.24960533  0.36500844  1.0
  Ti  Ti745  1  0.83023133  0.58293867  0.36500844  1.0
  Ti  Ti746  1  0.83023133  0.91627200  0.36500844  1.0
  Ti  Ti747  1  0.33023133  0.24960533  0.42056400  1.0
  Ti  Ti748  1  0.33023133  0.58293867  0.42056400  1.0
  Ti  Ti749  1  0.33023133  0.91627200  0.42056400  1.0
  Ti  Ti750  1  0.66356467  0.24960533  0.42056400  1.0
  Ti  Ti751  1  0.66356467  0.58293867  0.42056400  1.0
  Ti  Ti752  1  0.66356467  0.91627200  0.42056400  1.0
  Ti  Ti753  1  0.99689800  0.24960533  0.42056400  1.0
  Ti  Ti754  1  0.99689800  0.58293867  0.42056400  1.0
  Ti  Ti755  1  0.99689800  0.91627200  0.42056400  1.0
  Ni  Ni756  1  0.02947917  0.30505767  0.39826672  1.0
  Ni  Ni757  1  0.02947917  0.63839100  0.39826672  1.0
  Ni  Ni758  1  0.02947917  0.97172433  0.39826672  1.0
  Ni  Ni759  1  0.36281250  0.30505767  0.39826672  1.0
  Ni  Ni760  1  0.36281250  0.63839100  0.39826672  1.0
  Ni  Ni761  1  0.36281250  0.97172433  0.39826672  1.0
  Ni  Ni762  1  0.69614583  0.30505767  0.39826672  1.0
  Ni  Ni763  1  0.69614583  0.63839100  0.39826672  1.0
  Ni  Ni764  1  0.69614583  0.97172433  0.39826672  1.0
  Ni  Ni765  1  0.19614583  0.30505767  0.34271117  1.0
  Ni  Ni766  1  0.19614583  0.63839100  0.34271117  1.0
  Ni  Ni767  1  0.19614583  0.97172433  0.34271117  1.0
  Ni  Ni768  1  0.52947917  0.30505767  0.34271117  1.0
  Ni  Ni769  1  0.52947917  0.63839100  0.34271117  1.0
  Ni  Ni770  1  0.52947917  0.97172433  0.34271117  1.0
  Ni  Ni771  1  0.86281250  0.30505767  0.34271117  1.0
  Ni  Ni772  1  0.86281250  0.63839100  0.34271117  1.0
  Ni  Ni773  1  0.86281250  0.97172433  0.34271117  1.0
  Ni  Ni774  1  0.14116167  0.19410067  0.36028644  1.0
  Ni  Ni775  1  0.14116167  0.52743400  0.36028644  1.0
  Ni  Ni776  1  0.14116167  0.86076733  0.36028644  1.0
  Ni  Ni777  1  0.47449500  0.19410067  0.36028644  1.0
  Ni  Ni778  1  0.47449500  0.52743400  0.36028644  1.0
  Ni  Ni779  1  0.47449500  0.86076733  0.36028644  1.0
  Ni  Ni780  1  0.80782833  0.19410067  0.36028644  1.0
  Ni  Ni781  1  0.80782833  0.52743400  0.36028644  1.0
  Ni  Ni782  1  0.80782833  0.86076733  0.36028644  1.0
  Ni  Ni783  1  0.30782833  0.19410067  0.41584200  1.0
  Ni  Ni784  1  0.30782833  0.52743400  0.41584200  1.0
  Ni  Ni785  1  0.30782833  0.86076733  0.41584200  1.0
  Ni  Ni786  1  0.64116167  0.19410067  0.41584200  1.0
  Ni  Ni787  1  0.64116167  0.52743400  0.41584200  1.0
  Ni  Ni788  1  0.64116167  0.86076733  0.41584200  1.0
  Ni  Ni789  1  0.97449500  0.19410067  0.41584200  1.0
  Ni  Ni790  1  0.97449500  0.52743400  0.41584200  1.0
  Ni  Ni791  1  0.97449500  0.86076733  0.41584200  1.0
  Ni  Ni792  1  0.07517200  0.08253300  0.38486933  1.0
  Ni  Ni793  1  0.07517200  0.41586633  0.38486933  1.0
  Ni  Ni794  1  0.07517200  0.74919967  0.38486933  1.0
  Ni  Ni795  1  0.40850533  0.08253300  0.38486933  1.0
  Ni  Ni796  1  0.40850533  0.41586633  0.38486933  1.0
  Ni  Ni797  1  0.40850533  0.74919967  0.38486933  1.0
  Ni  Ni798  1  0.74183867  0.08253300  0.38486933  1.0
  Ni  Ni799  1  0.74183867  0.41586633  0.38486933  1.0
  Ni  Ni800  1  0.74183867  0.74919967  0.38486933  1.0
  Ni  Ni801  1  0.24183867  0.08253300  0.44042489  1.0
  Ni  Ni802  1  0.24183867  0.41586633  0.44042489  1.0
  Ni  Ni803  1  0.24183867  0.74919967  0.44042489  1.0
  Ni  Ni804  1  0.57517200  0.08253300  0.44042489  1.0
  Ni  Ni805  1  0.57517200  0.41586633  0.44042489  1.0
  Ni  Ni806  1  0.57517200  0.74919967  0.44042489  1.0
  Ni  Ni807  1  0.90850533  0.08253300  0.44042489  1.0
  Ni  Ni808  1  0.90850533  0.41586633  0.44042489  1.0
  Ni  Ni809  1  0.90850533  0.74919967  0.44042489  1.0
  Ni  Ni810  1  0.13718750  0.02827567  0.43506661  1.0
  Ni  Ni811  1  0.13718750  0.36160900  0.43506661  1.0
  Ni  Ni812  1  0.13718750  0.69494233  0.43506661  1.0
  Ni  Ni813  1  0.47052083  0.02827567  0.43506661  1.0
  Ni  Ni814  1  0.47052083  0.36160900  0.43506661  1.0
  Ni  Ni815  1  0.47052083  0.69494233  0.43506661  1.0
  Ni  Ni816  1  0.80385417  0.02827567  0.43506661  1.0
  Ni  Ni817  1  0.80385417  0.36160900  0.43506661  1.0
  Ni  Ni818  1  0.80385417  0.69494233  0.43506661  1.0
  Ni  Ni819  1  0.30385417  0.02827567  0.37951106  1.0
  Ni  Ni820  1  0.30385417  0.36160900  0.37951106  1.0
  Ni  Ni821  1  0.30385417  0.69494233  0.37951106  1.0
  Ni  Ni822  1  0.63718750  0.02827567  0.37951106  1.0
  Ni  Ni823  1  0.63718750  0.36160900  0.37951106  1.0
  Ni  Ni824  1  0.63718750  0.69494233  0.37951106  1.0
  Ni  Ni825  1  0.97052083  0.02827567  0.37951106  1.0
  Ni  Ni826  1  0.97052083  0.36160900  0.37951106  1.0
  Ni  Ni827  1  0.97052083  0.69494233  0.37951106  1.0
  Ni  Ni828  1  0.02550500  0.13923267  0.36193578  1.0
  Ni  Ni829  1  0.02550500  0.47256600  0.36193578  1.0
  Ni  Ni830  1  0.02550500  0.80589933  0.36193578  1.0
  Ni  Ni831  1  0.35883833  0.13923267  0.36193578  1.0
  Ni  Ni832  1  0.35883833  0.47256600  0.36193578  1.0
  Ni  Ni833  1  0.35883833  0.80589933  0.36193578  1.0
  Ni  Ni834  1  0.69217167  0.13923267  0.36193578  1.0
  Ni  Ni835  1  0.69217167  0.47256600  0.36193578  1.0
  Ni  Ni836  1  0.69217167  0.80589933  0.36193578  1.0
  Ni  Ni837  1  0.19217167  0.13923267  0.41749133  1.0
  Ni  Ni838  1  0.19217167  0.47256600  0.41749133  1.0
  Ni  Ni839  1  0.19217167  0.80589933  0.41749133  1.0
  Ni  Ni840  1  0.52550500  0.13923267  0.41749133  1.0
  Ni  Ni841  1  0.52550500  0.47256600  0.41749133  1.0
  Ni  Ni842  1  0.52550500  0.80589933  0.41749133  1.0
  Ni  Ni843  1  0.85883833  0.13923267  0.41749133  1.0
  Ni  Ni844  1  0.85883833  0.47256600  0.41749133  1.0
  Ni  Ni845  1  0.85883833  0.80589933  0.41749133  1.0
  Ni  Ni846  1  0.09149467  0.25080033  0.33735289  1.0
  Ni  Ni847  1  0.09149467  0.58413367  0.33735289  1.0
  Ni  Ni848  1  0.09149467  0.91746700  0.33735289  1.0
  Ni  Ni849  1  0.42482800  0.25080033  0.33735289  1.0
  Ni  Ni850  1  0.42482800  0.58413367  0.33735289  1.0
  Ni  Ni851  1  0.42482800  0.91746700  0.33735289  1.0
  Ni  Ni852  1  0.75816133  0.25080033  0.33735289  1.0
  Ni  Ni853  1  0.75816133  0.58413367  0.33735289  1.0
  Ni  Ni854  1  0.75816133  0.91746700  0.33735289  1.0
  Ni  Ni855  1  0.25816133  0.25080033  0.39290844  1.0
  Ni  Ni856  1  0.25816133  0.58413367  0.39290844  1.0
  Ni  Ni857  1  0.25816133  0.91746700  0.39290844  1.0
  Ni  Ni858  1  0.59149467  0.25080033  0.39290844  1.0
  Ni  Ni859  1  0.59149467  0.58413367  0.39290844  1.0
  Ni  Ni860  1  0.59149467  0.91746700  0.39290844  1.0
  Ni  Ni861  1  0.92482800  0.25080033  0.39290844  1.0
  Ni  Ni862  1  0.92482800  0.58413367  0.39290844  1.0
  Ni  Ni863  1  0.92482800  0.91746700  0.39290844  1.0
