# generated using pymatgen
data_TiNi
_symmetry_space_group_name_H-M   'P 1'
_cell_length_a   16.19226000
_cell_length_b   57.51764082
_cell_length_c   50.72579120
_cell_angle_alpha   139.10660535
_cell_angle_beta   90.00000000
_cell_angle_gamma   90.00000000
_symmetry_Int_Tables_number   1
_chemical_formula_structural   TiNi
_chemical_formula_sum   'Ti486 Ni486'
_cell_volume   30927.79586445
_cell_formula_units_Z   486
loop_
 _symmetry_equiv_pos_site_id
 _symmetry_equiv_pos_as_xyz
  1  'x, y, z'
loop_
 _atom_site_type_symbol
 _atom_site_label
 _atom_site_symmetry_multiplicity
 _atom_site_fract_x
 _atom_site_fract_y
 _atom_site_fract_z
 _atom_site_occupancy
  Ti  Ti0  1  0.32730233  0.11111111  0.08239593  1.0
  Ti  Ti1  1  0.32730233  0.44444444  0.08239593  1.0
  Ti  Ti2  1  0.32730233  0.77777778  0.08239593  1.0
  Ti  Ti3  1  0.66063567  0.11111111  0.08239593  1.0
  Ti  Ti4  1  0.66063567  0.44444444  0.08239593  1.0
  Ti  Ti5  1  0.66063567  0.77777778  0.08239593  1.0
  Ti  Ti6  1  0.99396900  0.11111111  0.08239593  1.0
  Ti  Ti7  1  0.99396900  0.44444444  0.08239593  1.0
  Ti  Ti8  1  0.99396900  0.77777778  0.08239593  1.0
  Ti  Ti9  1  0.32730233  0.27777778  0.01096736  1.0
  Ti  Ti10  1  0.32730233  0.61111111  0.01096736  1.0
  Ti  Ti11  1  0.32730233  0.94444444  0.01096736  1.0
  Ti  Ti12  1  0.66063567  0.27777778  0.01096736  1.0
  Ti  Ti13  1  0.66063567  0.61111111  0.01096736  1.0
  Ti  Ti14  1  0.66063567  0.94444444  0.01096736  1.0
  Ti  Ti15  1  0.99396900  0.27777778  0.01096736  1.0
  Ti  Ti16  1  0.99396900  0.61111111  0.01096736  1.0
  Ti  Ti17  1  0.99396900  0.94444444  0.01096736  1.0
  Ti  Ti18  1  0.02141933  0.16666667  0.05858641  1.0
  Ti  Ti19  1  0.02141933  0.50000000  0.05858641  1.0
  Ti  Ti20  1  0.02141933  0.83333333  0.05858641  1.0
  Ti  Ti21  1  0.35475267  0.16666667  0.05858641  1.0
  Ti  Ti22  1  0.35475267  0.50000000  0.05858641  1.0
  Ti  Ti23  1  0.35475267  0.83333333  0.05858641  1.0
  Ti  Ti24  1  0.68808600  0.16666667  0.05858641  1.0
  Ti  Ti25  1  0.68808600  0.50000000  0.05858641  1.0
  Ti  Ti26  1  0.68808600  0.83333333  0.05858641  1.0
  Ti  Ti27  1  0.02141933  0.00000000  0.13001498  1.0
  Ti  Ti28  1  0.02141933  0.33333333  0.13001498  1.0
  Ti  Ti29  1  0.02141933  0.66666667  0.13001498  1.0
  Ti  Ti30  1  0.35475267  0.00000000  0.13001498  1.0
  Ti  Ti31  1  0.35475267  0.33333333  0.13001498  1.0
  Ti  Ti32  1  0.35475267  0.66666667  0.13001498  1.0
  Ti  Ti33  1  0.68808600  0.00000000  0.13001498  1.0
  Ti  Ti34  1  0.68808600  0.33333333  0.13001498  1.0
  Ti  Ti35  1  0.68808600  0.66666667  0.13001498  1.0
  Ti  Ti36  1  0.32730233  0.05555556  0.10620546  1.0
  Ti  Ti37  1  0.32730233  0.38888889  0.10620546  1.0
  Ti  Ti38  1  0.32730233  0.72222222  0.10620546  1.0
  Ti  Ti39  1  0.66063567  0.05555556  0.10620546  1.0
  Ti  Ti40  1  0.66063567  0.38888889  0.10620546  1.0
  Ti  Ti41  1  0.66063567  0.72222222  0.10620546  1.0
  Ti  Ti42  1  0.99396900  0.05555556  0.10620546  1.0
  Ti  Ti43  1  0.99396900  0.38888889  0.10620546  1.0
  Ti  Ti44  1  0.99396900  0.72222222  0.10620546  1.0
  Ti  Ti45  1  0.32730233  0.22222222  0.03477689  1.0
  Ti  Ti46  1  0.32730233  0.55555556  0.03477689  1.0
  Ti  Ti47  1  0.32730233  0.88888889  0.03477689  1.0
  Ti  Ti48  1  0.66063567  0.22222222  0.03477689  1.0
  Ti  Ti49  1  0.66063567  0.55555556  0.03477689  1.0
  Ti  Ti50  1  0.66063567  0.88888889  0.03477689  1.0
  Ti  Ti51  1  0.99396900  0.22222222  0.03477689  1.0
  Ti  Ti52  1  0.99396900  0.55555556  0.03477689  1.0
  Ti  Ti53  1  0.99396900  0.88888889  0.03477689  1.0
  Ti  Ti54  1  0.12150633  0.05246142  0.00964130  1.0
  Ti  Ti55  1  0.12150633  0.38579475  0.00964130  1.0
  Ti  Ti56  1  0.12150633  0.71912808  0.00964130  1.0
  Ti  Ti57  1  0.45483967  0.05246142  0.00964130  1.0
  Ti  Ti58  1  0.45483967  0.38579475  0.00964130  1.0
  Ti  Ti59  1  0.45483967  0.71912808  0.00964130  1.0
  Ti  Ti60  1  0.78817300  0.05246142  0.00964130  1.0
  Ti  Ti61  1  0.78817300  0.38579475  0.00964130  1.0
  Ti  Ti62  1  0.78817300  0.71912808  0.00964130  1.0
  Ti  Ti63  1  0.12150633  0.21912808  0.08106987  1.0
  Ti  Ti64  1  0.12150633  0.55246142  0.08106987  1.0
  Ti  Ti65  1  0.12150633  0.88579475  0.08106987  1.0
  Ti  Ti66  1  0.45483967  0.21912808  0.08106987  1.0
  Ti  Ti67  1  0.45483967  0.55246142  0.08106987  1.0
  Ti  Ti68  1  0.45483967  0.88579475  0.08106987  1.0
  Ti  Ti69  1  0.78817300  0.21912808  0.08106987  1.0
  Ti  Ti70  1  0.78817300  0.55246142  0.08106987  1.0
  Ti  Ti71  1  0.78817300  0.88579475  0.08106987  1.0
  Ti  Ti72  1  0.12150633  0.11420525  0.13399316  1.0
  Ti  Ti73  1  0.12150633  0.44753858  0.13399316  1.0
  Ti  Ti74  1  0.12150633  0.78087192  0.13399316  1.0
  Ti  Ti75  1  0.45483967  0.11420525  0.13399316  1.0
  Ti  Ti76  1  0.45483967  0.44753858  0.13399316  1.0
  Ti  Ti77  1  0.45483967  0.78087192  0.13399316  1.0
  Ti  Ti78  1  0.78817300  0.11420525  0.13399316  1.0
  Ti  Ti79  1  0.78817300  0.44753858  0.13399316  1.0
  Ti  Ti80  1  0.78817300  0.78087192  0.13399316  1.0
  Ti  Ti81  1  0.12150633  0.28087192  0.06256459  1.0
  Ti  Ti82  1  0.12150633  0.61420525  0.06256459  1.0
  Ti  Ti83  1  0.12150633  0.94753858  0.06256459  1.0
  Ti  Ti84  1  0.45483967  0.28087192  0.06256459  1.0
  Ti  Ti85  1  0.45483967  0.61420525  0.06256459  1.0
  Ti  Ti86  1  0.45483967  0.94753858  0.06256459  1.0
  Ti  Ti87  1  0.78817300  0.28087192  0.06256459  1.0
  Ti  Ti88  1  0.78817300  0.61420525  0.06256459  1.0
  Ti  Ti89  1  0.78817300  0.94753858  0.06256459  1.0
  Ti  Ti90  1  0.12150633  0.16666667  0.10355334  1.0
  Ti  Ti91  1  0.12150633  0.50000000  0.10355334  1.0
  Ti  Ti92  1  0.12150633  0.83333333  0.10355334  1.0
  Ti  Ti93  1  0.45483967  0.16666667  0.10355334  1.0
  Ti  Ti94  1  0.45483967  0.50000000  0.10355334  1.0
  Ti  Ti95  1  0.45483967  0.83333333  0.10355334  1.0
  Ti  Ti96  1  0.78817300  0.16666667  0.10355334  1.0
  Ti  Ti97  1  0.78817300  0.50000000  0.10355334  1.0
  Ti  Ti98  1  0.78817300  0.83333333  0.10355334  1.0
  Ti  Ti99  1  0.12150633  0.00000000  0.03212477  1.0
  Ti  Ti100  1  0.12150633  0.33333333  0.03212477  1.0
  Ti  Ti101  1  0.12150633  0.66666667  0.03212477  1.0
  Ti  Ti102  1  0.45483967  0.00000000  0.03212477  1.0
  Ti  Ti103  1  0.45483967  0.33333333  0.03212477  1.0
  Ti  Ti104  1  0.45483967  0.66666667  0.03212477  1.0
  Ti  Ti105  1  0.78817300  0.00000000  0.03212477  1.0
  Ti  Ti106  1  0.78817300  0.33333333  0.03212477  1.0
  Ti  Ti107  1  0.78817300  0.66666667  0.03212477  1.0
  Ti  Ti108  1  0.22231833  0.16666667  0.00919577  1.0
  Ti  Ti109  1  0.22231833  0.50000000  0.00919577  1.0
  Ti  Ti110  1  0.22231833  0.83333333  0.00919577  1.0
  Ti  Ti111  1  0.55565167  0.16666667  0.00919577  1.0
  Ti  Ti112  1  0.55565167  0.50000000  0.00919577  1.0
  Ti  Ti113  1  0.55565167  0.83333333  0.00919577  1.0
  Ti  Ti114  1  0.88898500  0.16666667  0.00919577  1.0
  Ti  Ti115  1  0.88898500  0.50000000  0.00919577  1.0
  Ti  Ti116  1  0.88898500  0.83333333  0.00919577  1.0
  Ti  Ti117  1  0.22231833  0.00000000  0.08062434  1.0
  Ti  Ti118  1  0.22231833  0.33333333  0.08062434  1.0
  Ti  Ti119  1  0.22231833  0.66666667  0.08062434  1.0
  Ti  Ti120  1  0.55565167  0.00000000  0.08062434  1.0
  Ti  Ti121  1  0.55565167  0.33333333  0.08062434  1.0
  Ti  Ti122  1  0.55565167  0.66666667  0.08062434  1.0
  Ti  Ti123  1  0.88898500  0.00000000  0.08062434  1.0
  Ti  Ti124  1  0.88898500  0.33333333  0.08062434  1.0
  Ti  Ti125  1  0.88898500  0.66666667  0.08062434  1.0
  Ti  Ti126  1  0.22231833  0.10904425  0.03389109  1.0
  Ti  Ti127  1  0.22231833  0.44237758  0.03389109  1.0
  Ti  Ti128  1  0.22231833  0.77571092  0.03389109  1.0
  Ti  Ti129  1  0.55565167  0.10904425  0.03389109  1.0
  Ti  Ti130  1  0.55565167  0.44237758  0.03389109  1.0
  Ti  Ti131  1  0.55565167  0.77571092  0.03389109  1.0
  Ti  Ti132  1  0.88898500  0.10904425  0.03389109  1.0
  Ti  Ti133  1  0.88898500  0.44237758  0.03389109  1.0
  Ti  Ti134  1  0.88898500  0.77571092  0.03389109  1.0
  Ti  Ti135  1  0.22231833  0.27571092  0.10531966  1.0
  Ti  Ti136  1  0.22231833  0.60904425  0.10531966  1.0
  Ti  Ti137  1  0.22231833  0.94237758  0.10531966  1.0
  Ti  Ti138  1  0.55565167  0.27571092  0.10531966  1.0
  Ti  Ti139  1  0.55565167  0.60904425  0.10531966  1.0
  Ti  Ti140  1  0.55565167  0.94237758  0.10531966  1.0
  Ti  Ti141  1  0.88898500  0.27571092  0.10531966  1.0
  Ti  Ti142  1  0.88898500  0.60904425  0.10531966  1.0
  Ti  Ti143  1  0.88898500  0.94237758  0.10531966  1.0
  Ti  Ti144  1  0.22231833  0.05762242  0.06124380  1.0
  Ti  Ti145  1  0.22231833  0.39095575  0.06124380  1.0
  Ti  Ti146  1  0.22231833  0.72428908  0.06124380  1.0
  Ti  Ti147  1  0.55565167  0.05762242  0.06124380  1.0
  Ti  Ti148  1  0.55565167  0.39095575  0.06124380  1.0
  Ti  Ti149  1  0.55565167  0.72428908  0.06124380  1.0
  Ti  Ti150  1  0.88898500  0.05762242  0.06124380  1.0
  Ti  Ti151  1  0.88898500  0.39095575  0.06124380  1.0
  Ti  Ti152  1  0.88898500  0.72428908  0.06124380  1.0
  Ti  Ti153  1  0.22231833  0.22428908  0.13267237  1.0
  Ti  Ti154  1  0.22231833  0.55762242  0.13267237  1.0
  Ti  Ti155  1  0.22231833  0.89095575  0.13267237  1.0
  Ti  Ti156  1  0.55565167  0.22428908  0.13267238  1.0
  Ti  Ti157  1  0.55565167  0.55762242  0.13267237  1.0
  Ti  Ti158  1  0.55565167  0.89095575  0.13267237  1.0
  Ti  Ti159  1  0.88898500  0.22428908  0.13267237  1.0
  Ti  Ti160  1  0.88898500  0.55762242  0.13267237  1.0
  Ti  Ti161  1  0.88898500  0.89095575  0.13267237  1.0
  Ni  Ni162  1  0.14733000  0.11111111  0.08239593  1.0
  Ni  Ni163  1  0.14733000  0.44444444  0.08239593  1.0
  Ni  Ni164  1  0.14733000  0.77777778  0.08239593  1.0
  Ni  Ni165  1  0.48066333  0.11111111  0.08239593  1.0
  Ni  Ni166  1  0.48066333  0.44444444  0.08239593  1.0
  Ni  Ni167  1  0.48066333  0.77777778  0.08239593  1.0
  Ni  Ni168  1  0.81399667  0.11111111  0.08239593  1.0
  Ni  Ni169  1  0.81399667  0.44444444  0.08239593  1.0
  Ni  Ni170  1  0.81399667  0.77777778  0.08239593  1.0
  Ni  Ni171  1  0.14733000  0.27777778  0.01096736  1.0
  Ni  Ni172  1  0.14733000  0.61111111  0.01096736  1.0
  Ni  Ni173  1  0.14733000  0.94444444  0.01096736  1.0
  Ni  Ni174  1  0.48066333  0.27777778  0.01096736  1.0
  Ni  Ni175  1  0.48066333  0.61111111  0.01096736  1.0
  Ni  Ni176  1  0.48066333  0.94444444  0.01096736  1.0
  Ni  Ni177  1  0.81399667  0.27777778  0.01096736  1.0
  Ni  Ni178  1  0.81399667  0.61111111  0.01096736  1.0
  Ni  Ni179  1  0.81399667  0.94444444  0.01096736  1.0
  Ni  Ni180  1  0.20518600  0.16666667  0.05858641  1.0
  Ni  Ni181  1  0.20518600  0.50000000  0.05858641  1.0
  Ni  Ni182  1  0.20518600  0.83333333  0.05858641  1.0
  Ni  Ni183  1  0.53851933  0.16666667  0.05858641  1.0
  Ni  Ni184  1  0.53851933  0.50000000  0.05858641  1.0
  Ni  Ni185  1  0.53851933  0.83333333  0.05858641  1.0
  Ni  Ni186  1  0.87185267  0.16666667  0.05858641  1.0
  Ni  Ni187  1  0.87185267  0.50000000  0.05858641  1.0
  Ni  Ni188  1  0.87185267  0.83333333  0.05858641  1.0
  Ni  Ni189  1  0.20518600  0.00000000  0.13001498  1.0
  Ni  Ni190  1  0.20518600  0.33333333  0.13001498  1.0
  Ni  Ni191  1  0.20518600  0.66666667  0.13001498  1.0
  Ni  Ni192  1  0.53851933  0.00000000  0.13001498  1.0
  Ni  Ni193  1  0.53851933  0.33333333  0.13001498  1.0
  Ni  Ni194  1  0.53851933  0.66666667  0.13001498  1.0
  Ni  Ni195  1  0.87185267  0.00000000  0.13001498  1.0
  Ni  Ni196  1  0.87185267  0.33333333  0.13001498  1.0
  Ni  Ni197  1  0.87185267  0.66666667  0.13001498  1.0
  Ni  Ni198  1  0.14733000  0.05555556  0.10620546  1.0
  Ni  Ni199  1  0.14733000  0.38888889  0.10620546  1.0
  Ni  Ni200  1  0.14733000  0.72222222  0.10620546  1.0
  Ni  Ni201  1  0.48066333  0.05555556  0.10620546  1.0
  Ni  Ni202  1  0.48066333  0.38888889  0.10620546  1.0
  Ni  Ni203  1  0.48066333  0.72222222  0.10620546  1.0
  Ni  Ni204  1  0.81399667  0.05555556  0.10620546  1.0
  Ni  Ni205  1  0.81399667  0.38888889  0.10620546  1.0
  Ni  Ni206  1  0.81399667  0.72222222  0.10620546  1.0
  Ni  Ni207  1  0.14733000  0.22222222  0.03477689  1.0
  Ni  Ni208  1  0.14733000  0.55555556  0.03477689  1.0
  Ni  Ni209  1  0.14733000  0.88888889  0.03477689  1.0
  Ni  Ni210  1  0.48066333  0.22222222  0.03477689  1.0
  Ni  Ni211  1  0.48066333  0.55555556  0.03477689  1.0
  Ni  Ni212  1  0.48066333  0.88888889  0.03477689  1.0
  Ni  Ni213  1  0.81399667  0.22222222  0.03477689  1.0
  Ni  Ni214  1  0.81399667  0.55555556  0.03477689  1.0
  Ni  Ni215  1  0.81399667  0.88888889  0.03477689  1.0
  Ni  Ni216  1  0.29361200  0.05203158  0.00945709  1.0
  Ni  Ni217  1  0.29361200  0.38536492  0.00945709  1.0
  Ni  Ni218  1  0.29361200  0.71869825  0.00945709  1.0
  Ni  Ni219  1  0.62694533  0.05203158  0.00945709  1.0
  Ni  Ni220  1  0.62694533  0.38536492  0.00945709  1.0
  Ni  Ni221  1  0.62694533  0.71869825  0.00945709  1.0
  Ni  Ni222  1  0.96027867  0.05203158  0.00945709  1.0
  Ni  Ni223  1  0.96027867  0.38536492  0.00945709  1.0
  Ni  Ni224  1  0.96027867  0.71869825  0.00945709  1.0
  Ni  Ni225  1  0.29361200  0.21869825  0.08088566  1.0
  Ni  Ni226  1  0.29361200  0.55203158  0.08088566  1.0
  Ni  Ni227  1  0.29361200  0.88536492  0.08088566  1.0
  Ni  Ni228  1  0.62694533  0.21869825  0.08088566  1.0
  Ni  Ni229  1  0.62694533  0.55203158  0.08088566  1.0
  Ni  Ni230  1  0.62694533  0.88536492  0.08088566  1.0
  Ni  Ni231  1  0.96027867  0.21869825  0.08088566  1.0
  Ni  Ni232  1  0.96027867  0.55203158  0.08088566  1.0
  Ni  Ni233  1  0.96027867  0.88536492  0.08088566  1.0
  Ni  Ni234  1  0.29361200  0.11463508  0.13454580  1.0
  Ni  Ni235  1  0.29361200  0.44796842  0.13454580  1.0
  Ni  Ni236  1  0.29361200  0.78130175  0.13454580  1.0
  Ni  Ni237  1  0.62694533  0.11463508  0.13454580  1.0
  Ni  Ni238  1  0.62694533  0.44796842  0.13454580  1.0
  Ni  Ni239  1  0.62694533  0.78130175  0.13454580  1.0
  Ni  Ni240  1  0.96027867  0.11463508  0.13454580  1.0
  Ni  Ni241  1  0.96027867  0.44796842  0.13454580  1.0
  Ni  Ni242  1  0.96027867  0.78130175  0.13454580  1.0
  Ni  Ni243  1  0.29361200  0.28130175  0.06311723  1.0
  Ni  Ni244  1  0.29361200  0.61463508  0.06311723  1.0
  Ni  Ni245  1  0.29361200  0.94796842  0.06311723  1.0
  Ni  Ni246  1  0.62694533  0.28130175  0.06311723  1.0
  Ni  Ni247  1  0.62694533  0.61463508  0.06311723  1.0
  Ni  Ni248  1  0.62694533  0.94796842  0.06311723  1.0
  Ni  Ni249  1  0.96027867  0.28130175  0.06311723  1.0
  Ni  Ni250  1  0.96027867  0.61463508  0.06311723  1.0
  Ni  Ni251  1  0.96027867  0.94796842  0.06311723  1.0
  Ni  Ni252  1  0.29361200  0.16666667  0.10318491  1.0
  Ni  Ni253  1  0.29361200  0.50000000  0.10318491  1.0
  Ni  Ni254  1  0.29361200  0.83333333  0.10318491  1.0
  Ni  Ni255  1  0.62694533  0.16666667  0.10318491  1.0
  Ni  Ni256  1  0.62694533  0.50000000  0.10318491  1.0
  Ni  Ni257  1  0.62694533  0.83333333  0.10318491  1.0
  Ni  Ni258  1  0.96027867  0.16666667  0.10318491  1.0
  Ni  Ni259  1  0.96027867  0.50000000  0.10318491  1.0
  Ni  Ni260  1  0.96027867  0.83333333  0.10318491  1.0
  Ni  Ni261  1  0.29361200  0.00000000  0.03175634  1.0
  Ni  Ni262  1  0.29361200  0.33333333  0.03175634  1.0
  Ni  Ni263  1  0.29361200  0.66666667  0.03175634  1.0
  Ni  Ni264  1  0.62694533  0.00000000  0.03175634  1.0
  Ni  Ni265  1  0.62694533  0.33333333  0.03175634  1.0
  Ni  Ni266  1  0.62694533  0.66666667  0.03175634  1.0
  Ni  Ni267  1  0.96027867  0.00000000  0.03175634  1.0
  Ni  Ni268  1  0.96027867  0.33333333  0.03175634  1.0
  Ni  Ni269  1  0.96027867  0.66666667  0.03175634  1.0
  Ni  Ni270  1  0.05312067  0.16666667  0.00721777  1.0
  Ni  Ni271  1  0.05312067  0.50000000  0.00721777  1.0
  Ni  Ni272  1  0.05312067  0.83333333  0.00721777  1.0
  Ni  Ni273  1  0.38645400  0.16666667  0.00721777  1.0
  Ni  Ni274  1  0.38645400  0.50000000  0.00721777  1.0
  Ni  Ni275  1  0.38645400  0.83333333  0.00721777  1.0
  Ni  Ni276  1  0.71978733  0.16666667  0.00721777  1.0
  Ni  Ni277  1  0.71978733  0.50000000  0.00721777  1.0
  Ni  Ni278  1  0.71978733  0.83333333  0.00721777  1.0
  Ni  Ni279  1  0.05312067  0.00000000  0.07864634  1.0
  Ni  Ni280  1  0.05312067  0.33333333  0.07864634  1.0
  Ni  Ni281  1  0.05312067  0.66666667  0.07864634  1.0
  Ni  Ni282  1  0.38645400  0.00000000  0.07864634  1.0
  Ni  Ni283  1  0.38645400  0.33333333  0.07864634  1.0
  Ni  Ni284  1  0.38645400  0.66666667  0.07864634  1.0
  Ni  Ni285  1  0.71978733  0.00000000  0.07864634  1.0
  Ni  Ni286  1  0.71978733  0.33333333  0.07864634  1.0
  Ni  Ni287  1  0.71978733  0.66666667  0.07864634  1.0
  Ni  Ni288  1  0.05312067  0.10673658  0.03290209  1.0
  Ni  Ni289  1  0.05312067  0.44006992  0.03290209  1.0
  Ni  Ni290  1  0.05312067  0.77340325  0.03290209  1.0
  Ni  Ni291  1  0.38645400  0.10673658  0.03290209  1.0
  Ni  Ni292  1  0.38645400  0.44006992  0.03290209  1.0
  Ni  Ni293  1  0.38645400  0.77340325  0.03290209  1.0
  Ni  Ni294  1  0.71978733  0.10673658  0.03290209  1.0
  Ni  Ni295  1  0.71978733  0.44006992  0.03290209  1.0
  Ni  Ni296  1  0.71978733  0.77340325  0.03290209  1.0
  Ni  Ni297  1  0.05312067  0.27340325  0.10433066  1.0
  Ni  Ni298  1  0.05312067  0.60673658  0.10433066  1.0
  Ni  Ni299  1  0.05312067  0.94006992  0.10433066  1.0
  Ni  Ni300  1  0.38645400  0.27340325  0.10433066  1.0
  Ni  Ni301  1  0.38645400  0.60673658  0.10433066  1.0
  Ni  Ni302  1  0.38645400  0.94006992  0.10433066  1.0
  Ni  Ni303  1  0.71978733  0.27340325  0.10433066  1.0
  Ni  Ni304  1  0.71978733  0.60673658  0.10433066  1.0
  Ni  Ni305  1  0.71978733  0.94006992  0.10433066  1.0
  Ni  Ni306  1  0.05312067  0.05993008  0.06421080  1.0
  Ni  Ni307  1  0.05312067  0.39326342  0.06421080  1.0
  Ni  Ni308  1  0.05312067  0.72659675  0.06421080  1.0
  Ni  Ni309  1  0.38645400  0.05993008  0.06421080  1.0
  Ni  Ni310  1  0.38645400  0.39326342  0.06421080  1.0
  Ni  Ni311  1  0.38645400  0.72659675  0.06421080  1.0
  Ni  Ni312  1  0.71978733  0.05993008  0.06421080  1.0
  Ni  Ni313  1  0.71978733  0.39326342  0.06421080  1.0
  Ni  Ni314  1  0.71978733  0.72659675  0.06421080  1.0
  Ni  Ni315  1  0.05312067  0.22659675  0.13563937  1.0
  Ni  Ni316  1  0.05312067  0.55993008  0.13563937  1.0
  Ni  Ni317  1  0.05312067  0.89326342  0.13563937  1.0
  Ni  Ni318  1  0.38645400  0.22659675  0.13563937  1.0
  Ni  Ni319  1  0.38645400  0.55993008  0.13563937  1.0
  Ni  Ni320  1  0.38645400  0.89326342  0.13563937  1.0
  Ni  Ni321  1  0.71978733  0.22659675  0.13563937  1.0
  Ni  Ni322  1  0.71978733  0.55993008  0.13563937  1.0
  Ni  Ni323  1  0.71978733  0.89326342  0.13563937  1.0
  Ti  Ti324  1  0.32730233  0.11111111  0.22525308  1.0
  Ti  Ti325  1  0.32730233  0.44444444  0.22525308  1.0
  Ti  Ti326  1  0.32730233  0.77777778  0.22525308  1.0
  Ti  Ti327  1  0.66063567  0.11111111  0.22525308  1.0
  Ti  Ti328  1  0.66063567  0.44444444  0.22525308  1.0
  Ti  Ti329  1  0.66063567  0.77777778  0.22525308  1.0
  Ti  Ti330  1  0.99396900  0.11111111  0.22525308  1.0
  Ti  Ti331  1  0.99396900  0.44444444  0.22525308  1.0
  Ti  Ti332  1  0.99396900  0.77777778  0.22525308  1.0
  Ti  Ti333  1  0.32730233  0.27777778  0.15382451  1.0
  Ti  Ti334  1  0.32730233  0.61111111  0.15382451  1.0
  Ti  Ti335  1  0.32730233  0.94444444  0.15382451  1.0
  Ti  Ti336  1  0.66063567  0.27777778  0.15382451  1.0
  Ti  Ti337  1  0.66063567  0.61111111  0.15382451  1.0
  Ti  Ti338  1  0.66063567  0.94444444  0.15382451  1.0
  Ti  Ti339  1  0.99396900  0.27777778  0.15382451  1.0
  Ti  Ti340  1  0.99396900  0.61111111  0.15382451  1.0
  Ti  Ti341  1  0.99396900  0.94444444  0.15382451  1.0
  Ti  Ti342  1  0.02141933  0.16666667  0.20144355  1.0
  Ti  Ti343  1  0.02141933  0.50000000  0.20144355  1.0
  Ti  Ti344  1  0.02141933  0.83333333  0.20144355  1.0
  Ti  Ti345  1  0.35475267  0.16666667  0.20144355  1.0
  Ti  Ti346  1  0.35475267  0.50000000  0.20144355  1.0
  Ti  Ti347  1  0.35475267  0.83333333  0.20144355  1.0
  Ti  Ti348  1  0.68808600  0.16666667  0.20144355  1.0
  Ti  Ti349  1  0.68808600  0.50000000  0.20144355  1.0
  Ti  Ti350  1  0.68808600  0.83333333  0.20144355  1.0
  Ti  Ti351  1  0.02141933  0.00000000  0.27287213  1.0
  Ti  Ti352  1  0.02141933  0.33333333  0.27287213  1.0
  Ti  Ti353  1  0.02141933  0.66666667  0.27287213  1.0
  Ti  Ti354  1  0.35475267  0.00000000  0.27287213  1.0
  Ti  Ti355  1  0.35475267  0.33333333  0.27287213  1.0
  Ti  Ti356  1  0.35475267  0.66666667  0.27287213  1.0
  Ti  Ti357  1  0.68808600  0.00000000  0.27287213  1.0
  Ti  Ti358  1  0.68808600  0.33333333  0.27287213  1.0
  Ti  Ti359  1  0.68808600  0.66666667  0.27287213  1.0
  Ti  Ti360  1  0.32730233  0.05555556  0.24906260  1.0
  Ti  Ti361  1  0.32730233  0.38888889  0.24906260  1.0
  Ti  Ti362  1  0.32730233  0.72222222  0.24906260  1.0
  Ti  Ti363  1  0.66063567  0.05555556  0.24906260  1.0
  Ti  Ti364  1  0.66063567  0.38888889  0.24906260  1.0
  Ti  Ti365  1  0.66063567  0.72222222  0.24906260  1.0
  Ti  Ti366  1  0.99396900  0.05555556  0.24906260  1.0
  Ti  Ti367  1  0.99396900  0.38888889  0.24906260  1.0
  Ti  Ti368  1  0.99396900  0.72222222  0.24906260  1.0
  Ti  Ti369  1  0.32730233  0.22222222  0.17763403  1.0
  Ti  Ti370  1  0.32730233  0.55555556  0.17763403  1.0
  Ti  Ti371  1  0.32730233  0.88888889  0.17763403  1.0
  Ti  Ti372  1  0.66063567  0.22222222  0.17763403  1.0
  Ti  Ti373  1  0.66063567  0.55555556  0.17763403  1.0
  Ti  Ti374  1  0.66063567  0.88888889  0.17763403  1.0
  Ti  Ti375  1  0.99396900  0.22222222  0.17763403  1.0
  Ti  Ti376  1  0.99396900  0.55555556  0.17763403  1.0
  Ti  Ti377  1  0.99396900  0.88888889  0.17763403  1.0
  Ti  Ti378  1  0.12150633  0.05246142  0.15249845  1.0
  Ti  Ti379  1  0.12150633  0.38579475  0.15249845  1.0
  Ti  Ti380  1  0.12150633  0.71912808  0.15249845  1.0
  Ti  Ti381  1  0.45483967  0.05246142  0.15249845  1.0
  Ti  Ti382  1  0.45483967  0.38579475  0.15249845  1.0
  Ti  Ti383  1  0.45483967  0.71912808  0.15249845  1.0
  Ti  Ti384  1  0.78817300  0.05246142  0.15249845  1.0
  Ti  Ti385  1  0.78817300  0.38579475  0.15249845  1.0
  Ti  Ti386  1  0.78817300  0.71912808  0.15249845  1.0
  Ti  Ti387  1  0.12150633  0.21912808  0.22392702  1.0
  Ti  Ti388  1  0.12150633  0.55246142  0.22392702  1.0
  Ti  Ti389  1  0.12150633  0.88579475  0.22392702  1.0
  Ti  Ti390  1  0.45483967  0.21912808  0.22392702  1.0
  Ti  Ti391  1  0.45483967  0.55246142  0.22392702  1.0
  Ti  Ti392  1  0.45483967  0.88579475  0.22392702  1.0
  Ti  Ti393  1  0.78817300  0.21912808  0.22392702  1.0
  Ti  Ti394  1  0.78817300  0.55246142  0.22392702  1.0
  Ti  Ti395  1  0.78817300  0.88579475  0.22392702  1.0
  Ti  Ti396  1  0.12150633  0.11420525  0.27685030  1.0
  Ti  Ti397  1  0.12150633  0.44753858  0.27685030  1.0
  Ti  Ti398  1  0.12150633  0.78087192  0.27685030  1.0
  Ti  Ti399  1  0.45483967  0.11420525  0.27685030  1.0
  Ti  Ti400  1  0.45483967  0.44753858  0.27685030  1.0
  Ti  Ti401  1  0.45483967  0.78087192  0.27685030  1.0
  Ti  Ti402  1  0.78817300  0.11420525  0.27685030  1.0
  Ti  Ti403  1  0.78817300  0.44753858  0.27685030  1.0
  Ti  Ti404  1  0.78817300  0.78087192  0.27685030  1.0
  Ti  Ti405  1  0.12150633  0.28087192  0.20542173  1.0
  Ti  Ti406  1  0.12150633  0.61420525  0.20542173  1.0
  Ti  Ti407  1  0.12150633  0.94753858  0.20542173  1.0
  Ti  Ti408  1  0.45483967  0.28087192  0.20542173  1.0
  Ti  Ti409  1  0.45483967  0.61420525  0.20542173  1.0
  Ti  Ti410  1  0.45483967  0.94753858  0.20542173  1.0
  Ti  Ti411  1  0.78817300  0.28087192  0.20542173  1.0
  Ti  Ti412  1  0.78817300  0.61420525  0.20542173  1.0
  Ti  Ti413  1  0.78817300  0.94753858  0.20542173  1.0
  Ti  Ti414  1  0.12150633  0.16666667  0.24641048  1.0
  Ti  Ti415  1  0.12150633  0.50000000  0.24641048  1.0
  Ti  Ti416  1  0.12150633  0.83333333  0.24641048  1.0
  Ti  Ti417  1  0.45483967  0.16666667  0.24641048  1.0
  Ti  Ti418  1  0.45483967  0.50000000  0.24641048  1.0
  Ti  Ti419  1  0.45483967  0.83333333  0.24641048  1.0
  Ti  Ti420  1  0.78817300  0.16666667  0.24641048  1.0
  Ti  Ti421  1  0.78817300  0.50000000  0.24641048  1.0
  Ti  Ti422  1  0.78817300  0.83333333  0.24641048  1.0
  Ti  Ti423  1  0.12150633  0.00000000  0.17498191  1.0
  Ti  Ti424  1  0.12150633  0.33333333  0.17498191  1.0
  Ti  Ti425  1  0.12150633  0.66666667  0.17498191  1.0
  Ti  Ti426  1  0.45483967  0.00000000  0.17498191  1.0
  Ti  Ti427  1  0.45483967  0.33333333  0.17498191  1.0
  Ti  Ti428  1  0.45483967  0.66666667  0.17498191  1.0
  Ti  Ti429  1  0.78817300  0.00000000  0.17498191  1.0
  Ti  Ti430  1  0.78817300  0.33333333  0.17498191  1.0
  Ti  Ti431  1  0.78817300  0.66666667  0.17498191  1.0
  Ti  Ti432  1  0.22231833  0.16666667  0.15205291  1.0
  Ti  Ti433  1  0.22231833  0.50000000  0.15205291  1.0
  Ti  Ti434  1  0.22231833  0.83333333  0.15205291  1.0
  Ti  Ti435  1  0.55565167  0.16666667  0.15205291  1.0
  Ti  Ti436  1  0.55565167  0.50000000  0.15205291  1.0
  Ti  Ti437  1  0.55565167  0.83333333  0.15205291  1.0
  Ti  Ti438  1  0.88898500  0.16666667  0.15205291  1.0
  Ti  Ti439  1  0.88898500  0.50000000  0.15205291  1.0
  Ti  Ti440  1  0.88898500  0.83333333  0.15205291  1.0
  Ti  Ti441  1  0.22231833  0.00000000  0.22348148  1.0
  Ti  Ti442  1  0.22231833  0.33333333  0.22348148  1.0
  Ti  Ti443  1  0.22231833  0.66666667  0.22348148  1.0
  Ti  Ti444  1  0.55565167  0.00000000  0.22348148  1.0
  Ti  Ti445  1  0.55565167  0.33333333  0.22348148  1.0
  Ti  Ti446  1  0.55565167  0.66666667  0.22348148  1.0
  Ti  Ti447  1  0.88898500  0.00000000  0.22348148  1.0
  Ti  Ti448  1  0.88898500  0.33333333  0.22348148  1.0
  Ti  Ti449  1  0.88898500  0.66666667  0.22348148  1.0
  Ti  Ti450  1  0.22231833  0.10904425  0.17674823  1.0
  Ti  Ti451  1  0.22231833  0.44237758  0.17674823  1.0
  Ti  Ti452  1  0.22231833  0.77571092  0.17674823  1.0
  Ti  Ti453  1  0.55565167  0.10904425  0.17674823  1.0
  Ti  Ti454  1  0.55565167  0.44237758  0.17674823  1.0
  Ti  Ti455  1  0.55565167  0.77571092  0.17674823  1.0
  Ti  Ti456  1  0.88898500  0.10904425  0.17674823  1.0
  Ti  Ti457  1  0.88898500  0.44237758  0.17674823  1.0
  Ti  Ti458  1  0.88898500  0.77571092  0.17674823  1.0
  Ti  Ti459  1  0.22231833  0.27571092  0.24817680  1.0
  Ti  Ti460  1  0.22231833  0.60904425  0.24817680  1.0
  Ti  Ti461  1  0.22231833  0.94237758  0.24817680  1.0
  Ti  Ti462  1  0.55565167  0.27571092  0.24817680  1.0
  Ti  Ti463  1  0.55565167  0.60904425  0.24817680  1.0
  Ti  Ti464  1  0.55565167  0.94237758  0.24817680  1.0
  Ti  Ti465  1  0.88898500  0.27571092  0.24817680  1.0
  Ti  Ti466  1  0.88898500  0.60904425  0.24817680  1.0
  Ti  Ti467  1  0.88898500  0.94237758  0.24817680  1.0
  Ti  Ti468  1  0.22231833  0.05762242  0.20410095  1.0
  Ti  Ti469  1  0.22231833  0.39095575  0.20410095  1.0
  Ti  Ti470  1  0.22231833  0.72428908  0.20410095  1.0
  Ti  Ti471  1  0.55565167  0.05762242  0.20410095  1.0
  Ti  Ti472  1  0.55565167  0.39095575  0.20410095  1.0
  Ti  Ti473  1  0.55565167  0.72428908  0.20410095  1.0
  Ti  Ti474  1  0.88898500  0.05762242  0.20410095  1.0
  Ti  Ti475  1  0.88898500  0.39095575  0.20410095  1.0
  Ti  Ti476  1  0.88898500  0.72428908  0.20410095  1.0
  Ti  Ti477  1  0.22231833  0.22428908  0.27552952  1.0
  Ti  Ti478  1  0.22231833  0.55762242  0.27552952  1.0
  Ti  Ti479  1  0.22231833  0.89095575  0.27552952  1.0
  Ti  Ti480  1  0.55565167  0.22428908  0.27552952  1.0
  Ti  Ti481  1  0.55565167  0.55762242  0.27552952  1.0
  Ti  Ti482  1  0.55565167  0.89095575  0.27552952  1.0
  Ti  Ti483  1  0.88898500  0.22428908  0.27552952  1.0
  Ti  Ti484  1  0.88898500  0.55762242  0.27552952  1.0
  Ti  Ti485  1  0.88898500  0.89095575  0.27552952  1.0
  Ni  Ni486  1  0.14733000  0.11111111  0.22525308  1.0
  Ni  Ni487  1  0.14733000  0.44444444  0.22525308  1.0
  Ni  Ni488  1  0.14733000  0.77777778  0.22525308  1.0
  Ni  Ni489  1  0.48066333  0.11111111  0.22525308  1.0
  Ni  Ni490  1  0.48066333  0.44444444  0.22525308  1.0
  Ni  Ni491  1  0.48066333  0.77777778  0.22525308  1.0
  Ni  Ni492  1  0.81399667  0.11111111  0.22525308  1.0
  Ni  Ni493  1  0.81399667  0.44444444  0.22525308  1.0
  Ni  Ni494  1  0.81399667  0.77777778  0.22525308  1.0
  Ni  Ni495  1  0.14733000  0.27777778  0.15382451  1.0
  Ni  Ni496  1  0.14733000  0.61111111  0.15382451  1.0
  Ni  Ni497  1  0.14733000  0.94444444  0.15382451  1.0
  Ni  Ni498  1  0.48066333  0.27777778  0.15382451  1.0
  Ni  Ni499  1  0.48066333  0.61111111  0.15382451  1.0
  Ni  Ni500  1  0.48066333  0.94444444  0.15382451  1.0
  Ni  Ni501  1  0.81399667  0.27777778  0.15382451  1.0
  Ni  Ni502  1  0.81399667  0.61111111  0.15382451  1.0
  Ni  Ni503  1  0.81399667  0.94444444  0.15382451  1.0
  Ni  Ni504  1  0.20518600  0.16666667  0.20144355  1.0
  Ni  Ni505  1  0.20518600  0.50000000  0.20144355  1.0
  Ni  Ni506  1  0.20518600  0.83333333  0.20144355  1.0
  Ni  Ni507  1  0.53851933  0.16666667  0.20144355  1.0
  Ni  Ni508  1  0.53851933  0.50000000  0.20144355  1.0
  Ni  Ni509  1  0.53851933  0.83333333  0.20144355  1.0
  Ni  Ni510  1  0.87185267  0.16666667  0.20144355  1.0
  Ni  Ni511  1  0.87185267  0.50000000  0.20144355  1.0
  Ni  Ni512  1  0.87185267  0.83333333  0.20144355  1.0
  Ni  Ni513  1  0.20518600  0.00000000  0.27287213  1.0
  Ni  Ni514  1  0.20518600  0.33333333  0.27287213  1.0
  Ni  Ni515  1  0.20518600  0.66666667  0.27287213  1.0
  Ni  Ni516  1  0.53851933  0.00000000  0.27287213  1.0
  Ni  Ni517  1  0.53851933  0.33333333  0.27287213  1.0
  Ni  Ni518  1  0.53851933  0.66666667  0.27287213  1.0
  Ni  Ni519  1  0.87185267  0.00000000  0.27287213  1.0
  Ni  Ni520  1  0.87185267  0.33333333  0.27287213  1.0
  Ni  Ni521  1  0.87185267  0.66666667  0.27287213  1.0
  Ni  Ni522  1  0.14733000  0.05555556  0.24906260  1.0
  Ni  Ni523  1  0.14733000  0.38888889  0.24906260  1.0
  Ni  Ni524  1  0.14733000  0.72222222  0.24906260  1.0
  Ni  Ni525  1  0.48066333  0.05555556  0.24906260  1.0
  Ni  Ni526  1  0.48066333  0.38888889  0.24906260  1.0
  Ni  Ni527  1  0.48066333  0.72222222  0.24906260  1.0
  Ni  Ni528  1  0.81399667  0.05555556  0.24906260  1.0
  Ni  Ni529  1  0.81399667  0.38888889  0.24906260  1.0
  Ni  Ni530  1  0.81399667  0.72222222  0.24906260  1.0
  Ni  Ni531  1  0.14733000  0.22222222  0.17763403  1.0
  Ni  Ni532  1  0.14733000  0.55555556  0.17763403  1.0
  Ni  Ni533  1  0.14733000  0.88888889  0.17763403  1.0
  Ni  Ni534  1  0.48066333  0.22222222  0.17763403  1.0
  Ni  Ni535  1  0.48066333  0.55555556  0.17763403  1.0
  Ni  Ni536  1  0.48066333  0.88888889  0.17763403  1.0
  Ni  Ni537  1  0.81399667  0.22222222  0.17763403  1.0
  Ni  Ni538  1  0.81399667  0.55555556  0.17763403  1.0
  Ni  Ni539  1  0.81399667  0.88888889  0.17763403  1.0
  Ni  Ni540  1  0.29361200  0.05203158  0.15231423  1.0
  Ni  Ni541  1  0.29361200  0.38536492  0.15231423  1.0
  Ni  Ni542  1  0.29361200  0.71869825  0.15231423  1.0
  Ni  Ni543  1  0.62694533  0.05203158  0.15231423  1.0
  Ni  Ni544  1  0.62694533  0.38536492  0.15231423  1.0
  Ni  Ni545  1  0.62694533  0.71869825  0.15231423  1.0
  Ni  Ni546  1  0.96027867  0.05203158  0.15231423  1.0
  Ni  Ni547  1  0.96027867  0.38536492  0.15231423  1.0
  Ni  Ni548  1  0.96027867  0.71869825  0.15231423  1.0
  Ni  Ni549  1  0.29361200  0.21869825  0.22374280  1.0
  Ni  Ni550  1  0.29361200  0.55203158  0.22374280  1.0
  Ni  Ni551  1  0.29361200  0.88536492  0.22374280  1.0
  Ni  Ni552  1  0.62694533  0.21869825  0.22374280  1.0
  Ni  Ni553  1  0.62694533  0.55203158  0.22374280  1.0
  Ni  Ni554  1  0.62694533  0.88536492  0.22374280  1.0
  Ni  Ni555  1  0.96027867  0.21869825  0.22374280  1.0
  Ni  Ni556  1  0.96027867  0.55203158  0.22374280  1.0
  Ni  Ni557  1  0.96027867  0.88536492  0.22374280  1.0
  Ni  Ni558  1  0.29361200  0.11463508  0.27740295  1.0
  Ni  Ni559  1  0.29361200  0.44796842  0.27740295  1.0
  Ni  Ni560  1  0.29361200  0.78130175  0.27740295  1.0
  Ni  Ni561  1  0.62694533  0.11463508  0.27740295  1.0
  Ni  Ni562  1  0.62694533  0.44796842  0.27740295  1.0
  Ni  Ni563  1  0.62694533  0.78130175  0.27740295  1.0
  Ni  Ni564  1  0.96027867  0.11463508  0.27740295  1.0
  Ni  Ni565  1  0.96027867  0.44796842  0.27740295  1.0
  Ni  Ni566  1  0.96027867  0.78130175  0.27740295  1.0
  Ni  Ni567  1  0.29361200  0.28130175  0.20597437  1.0
  Ni  Ni568  1  0.29361200  0.61463508  0.20597437  1.0
  Ni  Ni569  1  0.29361200  0.94796842  0.20597437  1.0
  Ni  Ni570  1  0.62694533  0.28130175  0.20597437  1.0
  Ni  Ni571  1  0.62694533  0.61463508  0.20597437  1.0
  Ni  Ni572  1  0.62694533  0.94796842  0.20597437  1.0
  Ni  Ni573  1  0.96027867  0.28130175  0.20597437  1.0
  Ni  Ni574  1  0.96027867  0.61463508  0.20597437  1.0
  Ni  Ni575  1  0.96027867  0.94796842  0.20597437  1.0
  Ni  Ni576  1  0.29361200  0.16666667  0.24604205  1.0
  Ni  Ni577  1  0.29361200  0.50000000  0.24604205  1.0
  Ni  Ni578  1  0.29361200  0.83333333  0.24604205  1.0
  Ni  Ni579  1  0.62694533  0.16666667  0.24604205  1.0
  Ni  Ni580  1  0.62694533  0.50000000  0.24604205  1.0
  Ni  Ni581  1  0.62694533  0.83333333  0.24604205  1.0
  Ni  Ni582  1  0.96027867  0.16666667  0.24604205  1.0
  Ni  Ni583  1  0.96027867  0.50000000  0.24604205  1.0
  Ni  Ni584  1  0.96027867  0.83333333  0.24604205  1.0
  Ni  Ni585  1  0.29361200  0.00000000  0.17461348  1.0
  Ni  Ni586  1  0.29361200  0.33333333  0.17461348  1.0
  Ni  Ni587  1  0.29361200  0.66666667  0.17461348  1.0
  Ni  Ni588  1  0.62694533  0.00000000  0.17461348  1.0
  Ni  Ni589  1  0.62694533  0.33333333  0.17461348  1.0
  Ni  Ni590  1  0.62694533  0.66666667  0.17461348  1.0
  Ni  Ni591  1  0.96027867  0.00000000  0.17461348  1.0
  Ni  Ni592  1  0.96027867  0.33333333  0.17461348  1.0
  Ni  Ni593  1  0.96027867  0.66666667  0.17461348  1.0
  Ni  Ni594  1  0.05312067  0.16666667  0.15007491  1.0
  Ni  Ni595  1  0.05312067  0.50000000  0.15007491  1.0
  Ni  Ni596  1  0.05312067  0.83333333  0.15007491  1.0
  Ni  Ni597  1  0.38645400  0.16666667  0.15007491  1.0
  Ni  Ni598  1  0.38645400  0.50000000  0.15007491  1.0
  Ni  Ni599  1  0.38645400  0.83333333  0.15007491  1.0
  Ni  Ni600  1  0.71978733  0.16666667  0.15007491  1.0
  Ni  Ni601  1  0.71978733  0.50000000  0.15007491  1.0
  Ni  Ni602  1  0.71978733  0.83333333  0.15007491  1.0
  Ni  Ni603  1  0.05312067  0.00000000  0.22150348  1.0
  Ni  Ni604  1  0.05312067  0.33333333  0.22150348  1.0
  Ni  Ni605  1  0.05312067  0.66666667  0.22150348  1.0
  Ni  Ni606  1  0.38645400  0.00000000  0.22150348  1.0
  Ni  Ni607  1  0.38645400  0.33333333  0.22150348  1.0
  Ni  Ni608  1  0.38645400  0.66666667  0.22150348  1.0
  Ni  Ni609  1  0.71978733  0.00000000  0.22150348  1.0
  Ni  Ni610  1  0.71978733  0.33333333  0.22150348  1.0
  Ni  Ni611  1  0.71978733  0.66666667  0.22150348  1.0
  Ni  Ni612  1  0.05312067  0.10673658  0.17575923  1.0
  Ni  Ni613  1  0.05312067  0.44006992  0.17575923  1.0
  Ni  Ni614  1  0.05312067  0.77340325  0.17575923  1.0
  Ni  Ni615  1  0.38645400  0.10673658  0.17575923  1.0
  Ni  Ni616  1  0.38645400  0.44006992  0.17575923  1.0
  Ni  Ni617  1  0.38645400  0.77340325  0.17575923  1.0
  Ni  Ni618  1  0.71978733  0.10673658  0.17575923  1.0
  Ni  Ni619  1  0.71978733  0.44006992  0.17575923  1.0
  Ni  Ni620  1  0.71978733  0.77340325  0.17575923  1.0
  Ni  Ni621  1  0.05312067  0.27340325  0.24718780  1.0
  Ni  Ni622  1  0.05312067  0.60673658  0.24718780  1.0
  Ni  Ni623  1  0.05312067  0.94006992  0.24718780  1.0
  Ni  Ni624  1  0.38645400  0.27340325  0.24718780  1.0
  Ni  Ni625  1  0.38645400  0.60673658  0.24718780  1.0
  Ni  Ni626  1  0.38645400  0.94006992  0.24718780  1.0
  Ni  Ni627  1  0.71978733  0.27340325  0.24718780  1.0
  Ni  Ni628  1  0.71978733  0.60673658  0.24718780  1.0
  Ni  Ni629  1  0.71978733  0.94006992  0.24718780  1.0
  Ni  Ni630  1  0.05312067  0.05993008  0.20706795  1.0
  Ni  Ni631  1  0.05312067  0.39326342  0.20706795  1.0
  Ni  Ni632  1  0.05312067  0.72659675  0.20706795  1.0
  Ni  Ni633  1  0.38645400  0.05993008  0.20706795  1.0
  Ni  Ni634  1  0.38645400  0.39326342  0.20706795  1.0
  Ni  Ni635  1  0.38645400  0.72659675  0.20706795  1.0
  Ni  Ni636  1  0.71978733  0.05993008  0.20706795  1.0
  Ni  Ni637  1  0.71978733  0.39326342  0.20706795  1.0
  Ni  Ni638  1  0.71978733  0.72659675  0.20706795  1.0
  Ni  Ni639  1  0.05312067  0.22659675  0.27849652  1.0
  Ni  Ni640  1  0.05312067  0.55993008  0.27849652  1.0
  Ni  Ni641  1  0.05312067  0.89326342  0.27849652  1.0
  Ni  Ni642  1  0.38645400  0.22659675  0.27849652  1.0
  Ni  Ni643  1  0.38645400  0.55993008  0.27849652  1.0
  Ni  Ni644  1  0.38645400  0.89326342  0.27849652  1.0
  Ni  Ni645  1  0.71978733  0.22659675  0.27849652  1.0
  Ni  Ni646  1  0.71978733  0.55993008  0.27849652  1.0
  Ni  Ni647  1  0.71978733  0.89326342  0.27849652  1.0
  Ti  Ti648  1  0.32730233  0.11111111  0.36811022  1.0
  Ti  Ti649  1  0.32730233  0.44444444  0.36811022  1.0
  Ti  Ti650  1  0.32730233  0.77777778  0.36811022  1.0
  Ti  Ti651  1  0.66063567  0.11111111  0.36811022  1.0
  Ti  Ti652  1  0.66063567  0.44444444  0.36811022  1.0
  Ti  Ti653  1  0.66063567  0.77777778  0.36811022  1.0
  Ti  Ti654  1  0.99396900  0.11111111  0.36811022  1.0
  Ti  Ti655  1  0.99396900  0.44444444  0.36811022  1.0
  Ti  Ti656  1  0.99396900  0.77777778  0.36811022  1.0
  Ti  Ti657  1  0.32730233  0.27777778  0.29668165  1.0
  Ti  Ti658  1  0.32730233  0.61111111  0.29668165  1.0
  Ti  Ti659  1  0.32730233  0.94444444  0.29668165  1.0
  Ti  Ti660  1  0.66063567  0.27777778  0.29668165  1.0
  Ti  Ti661  1  0.66063567  0.61111111  0.29668165  1.0
  Ti  Ti662  1  0.66063567  0.94444444  0.29668165  1.0
  Ti  Ti663  1  0.99396900  0.27777778  0.29668165  1.0
  Ti  Ti664  1  0.99396900  0.61111111  0.29668165  1.0
  Ti  Ti665  1  0.99396900  0.94444444  0.29668165  1.0
  Ti  Ti666  1  0.02141933  0.16666667  0.34430070  1.0
  Ti  Ti667  1  0.02141933  0.50000000  0.34430070  1.0
  Ti  Ti668  1  0.02141933  0.83333333  0.34430070  1.0
  Ti  Ti669  1  0.35475267  0.16666667  0.34430070  1.0
  Ti  Ti670  1  0.35475267  0.50000000  0.34430070  1.0
  Ti  Ti671  1  0.35475267  0.83333333  0.34430070  1.0
  Ti  Ti672  1  0.68808600  0.16666667  0.34430070  1.0
  Ti  Ti673  1  0.68808600  0.50000000  0.34430070  1.0
  Ti  Ti674  1  0.68808600  0.83333333  0.34430070  1.0
  Ti  Ti675  1  0.02141933  0.00000000  0.41572927  1.0
  Ti  Ti676  1  0.02141933  0.33333333  0.41572927  1.0
  Ti  Ti677  1  0.02141933  0.66666667  0.41572927  1.0
  Ti  Ti678  1  0.35475267  0.00000000  0.41572927  1.0
  Ti  Ti679  1  0.35475267  0.33333333  0.41572927  1.0
  Ti  Ti680  1  0.35475267  0.66666667  0.41572927  1.0
  Ti  Ti681  1  0.68808600  0.00000000  0.41572927  1.0
  Ti  Ti682  1  0.68808600  0.33333333  0.41572927  1.0
  Ti  Ti683  1  0.68808600  0.66666667  0.41572927  1.0
  Ti  Ti684  1  0.32730233  0.05555556  0.39191974  1.0
  Ti  Ti685  1  0.32730233  0.38888889  0.39191974  1.0
  Ti  Ti686  1  0.32730233  0.72222222  0.39191974  1.0
  Ti  Ti687  1  0.66063567  0.05555556  0.39191974  1.0
  Ti  Ti688  1  0.66063567  0.38888889  0.39191974  1.0
  Ti  Ti689  1  0.66063567  0.72222222  0.39191974  1.0
  Ti  Ti690  1  0.99396900  0.05555556  0.39191974  1.0
  Ti  Ti691  1  0.99396900  0.38888889  0.39191974  1.0
  Ti  Ti692  1  0.99396900  0.72222222  0.39191974  1.0
  Ti  Ti693  1  0.32730233  0.22222222  0.32049117  1.0
  Ti  Ti694  1  0.32730233  0.55555556  0.32049117  1.0
  Ti  Ti695  1  0.32730233  0.88888889  0.32049117  1.0
  Ti  Ti696  1  0.66063567  0.22222222  0.32049117  1.0
  Ti  Ti697  1  0.66063567  0.55555556  0.32049117  1.0
  Ti  Ti698  1  0.66063567  0.88888889  0.32049117  1.0
  Ti  Ti699  1  0.99396900  0.22222222  0.32049117  1.0
  Ti  Ti700  1  0.99396900  0.55555556  0.32049117  1.0
  Ti  Ti701  1  0.99396900  0.88888889  0.32049117  1.0
  Ti  Ti702  1  0.12150633  0.05246142  0.29535559  1.0
  Ti  Ti703  1  0.12150633  0.38579475  0.29535559  1.0
  Ti  Ti704  1  0.12150633  0.71912808  0.29535559  1.0
  Ti  Ti705  1  0.45483967  0.05246142  0.29535559  1.0
  Ti  Ti706  1  0.45483967  0.38579475  0.29535559  1.0
  Ti  Ti707  1  0.45483967  0.71912808  0.29535559  1.0
  Ti  Ti708  1  0.78817300  0.05246142  0.29535559  1.0
  Ti  Ti709  1  0.78817300  0.38579475  0.29535559  1.0
  Ti  Ti710  1  0.78817300  0.71912808  0.29535559  1.0
  Ti  Ti711  1  0.12150633  0.21912808  0.36678416  1.0
  Ti  Ti712  1  0.12150633  0.55246142  0.36678416  1.0
  Ti  Ti713  1  0.12150633  0.88579475  0.36678416  1.0
  Ti  Ti714  1  0.45483967  0.21912808  0.36678416  1.0
  Ti  Ti715  1  0.45483967  0.55246142  0.36678416  1.0
  Ti  Ti716  1  0.45483967  0.88579475  0.36678416  1.0
  Ti  Ti717  1  0.78817300  0.21912808  0.36678416  1.0
  Ti  Ti718  1  0.78817300  0.55246142  0.36678416  1.0
  Ti  Ti719  1  0.78817300  0.88579475  0.36678416  1.0
  Ti  Ti720  1  0.12150633  0.11420525  0.41970745  1.0
  Ti  Ti721  1  0.12150633  0.44753858  0.41970745  1.0
  Ti  Ti722  1  0.12150633  0.78087192  0.41970745  1.0
  Ti  Ti723  1  0.45483967  0.11420525  0.41970745  1.0
  Ti  Ti724  1  0.45483967  0.44753858  0.41970745  1.0
  Ti  Ti725  1  0.45483967  0.78087192  0.41970745  1.0
  Ti  Ti726  1  0.78817300  0.11420525  0.41970745  1.0
  Ti  Ti727  1  0.78817300  0.44753858  0.41970745  1.0
  Ti  Ti728  1  0.78817300  0.78087192  0.41970745  1.0
  Ti  Ti729  1  0.12150633  0.28087192  0.34827887  1.0
  Ti  Ti730  1  0.12150633  0.61420525  0.34827887  1.0
  Ti  Ti731  1  0.12150633  0.94753858  0.34827887  1.0
  Ti  Ti732  1  0.45483967  0.28087192  0.34827887  1.0
  Ti  Ti733  1  0.45483967  0.61420525  0.34827887  1.0
  Ti  Ti734  1  0.45483967  0.94753858  0.34827887  1.0
  Ti  Ti735  1  0.78817300  0.28087192  0.34827887  1.0
  Ti  Ti736  1  0.78817300  0.61420525  0.34827887  1.0
  Ti  Ti737  1  0.78817300  0.94753858  0.34827887  1.0
  Ti  Ti738  1  0.12150633  0.16666667  0.38926762  1.0
  Ti  Ti739  1  0.12150633  0.50000000  0.38926762  1.0
  Ti  Ti740  1  0.12150633  0.83333333  0.38926762  1.0
  Ti  Ti741  1  0.45483967  0.16666667  0.38926762  1.0
  Ti  Ti742  1  0.45483967  0.50000000  0.38926762  1.0
  Ti  Ti743  1  0.45483967  0.83333333  0.38926762  1.0
  Ti  Ti744  1  0.78817300  0.16666667  0.38926762  1.0
  Ti  Ti745  1  0.78817300  0.50000000  0.38926762  1.0
  Ti  Ti746  1  0.78817300  0.83333333  0.38926762  1.0
  Ti  Ti747  1  0.12150633  0.00000000  0.31783905  1.0
  Ti  Ti748  1  0.12150633  0.33333333  0.31783905  1.0
  Ti  Ti749  1  0.12150633  0.66666667  0.31783905  1.0
  Ti  Ti750  1  0.45483967  0.00000000  0.31783905  1.0
  Ti  Ti751  1  0.45483967  0.33333333  0.31783905  1.0
  Ti  Ti752  1  0.45483967  0.66666667  0.31783905  1.0
  Ti  Ti753  1  0.78817300  0.00000000  0.31783905  1.0
  Ti  Ti754  1  0.78817300  0.33333333  0.31783905  1.0
  Ti  Ti755  1  0.78817300  0.66666667  0.31783905  1.0
  Ti  Ti756  1  0.22231833  0.16666667  0.29491005  1.0
  Ti  Ti757  1  0.22231833  0.50000000  0.29491005  1.0
  Ti  Ti758  1  0.22231833  0.83333333  0.29491005  1.0
  Ti  Ti759  1  0.55565167  0.16666667  0.29491005  1.0
  Ti  Ti760  1  0.55565167  0.50000000  0.29491005  1.0
  Ti  Ti761  1  0.55565167  0.83333333  0.29491005  1.0
  Ti  Ti762  1  0.88898500  0.16666667  0.29491005  1.0
  Ti  Ti763  1  0.88898500  0.50000000  0.29491005  1.0
  Ti  Ti764  1  0.88898500  0.83333333  0.29491005  1.0
  Ti  Ti765  1  0.22231833  0.00000000  0.36633862  1.0
  Ti  Ti766  1  0.22231833  0.33333333  0.36633862  1.0
  Ti  Ti767  1  0.22231833  0.66666667  0.36633862  1.0
  Ti  Ti768  1  0.55565167  0.00000000  0.36633862  1.0
  Ti  Ti769  1  0.55565167  0.33333333  0.36633862  1.0
  Ti  Ti770  1  0.55565167  0.66666667  0.36633862  1.0
  Ti  Ti771  1  0.88898500  0.00000000  0.36633862  1.0
  Ti  Ti772  1  0.88898500  0.33333333  0.36633862  1.0
  Ti  Ti773  1  0.88898500  0.66666667  0.36633862  1.0
  Ti  Ti774  1  0.22231833  0.10904425  0.31960538  1.0
  Ti  Ti775  1  0.22231833  0.44237758  0.31960538  1.0
  Ti  Ti776  1  0.22231833  0.77571092  0.31960537  1.0
  Ti  Ti777  1  0.55565167  0.10904425  0.31960537  1.0
  Ti  Ti778  1  0.55565167  0.44237758  0.31960538  1.0
  Ti  Ti779  1  0.55565167  0.77571092  0.31960537  1.0
  Ti  Ti780  1  0.88898500  0.10904425  0.31960537  1.0
  Ti  Ti781  1  0.88898500  0.44237758  0.31960538  1.0
  Ti  Ti782  1  0.88898500  0.77571092  0.31960537  1.0
  Ti  Ti783  1  0.22231833  0.27571092  0.39103395  1.0
  Ti  Ti784  1  0.22231833  0.60904425  0.39103395  1.0
  Ti  Ti785  1  0.22231833  0.94237758  0.39103395  1.0
  Ti  Ti786  1  0.55565167  0.27571092  0.39103395  1.0
  Ti  Ti787  1  0.55565167  0.60904425  0.39103395  1.0
  Ti  Ti788  1  0.55565167  0.94237758  0.39103395  1.0
  Ti  Ti789  1  0.88898500  0.27571092  0.39103395  1.0
  Ti  Ti790  1  0.88898500  0.60904425  0.39103395  1.0
  Ti  Ti791  1  0.88898500  0.94237758  0.39103395  1.0
  Ti  Ti792  1  0.22231833  0.05762242  0.34695809  1.0
  Ti  Ti793  1  0.22231833  0.39095575  0.34695809  1.0
  Ti  Ti794  1  0.22231833  0.72428908  0.34695809  1.0
  Ti  Ti795  1  0.55565167  0.05762242  0.34695809  1.0
  Ti  Ti796  1  0.55565167  0.39095575  0.34695809  1.0
  Ti  Ti797  1  0.55565167  0.72428908  0.34695809  1.0
  Ti  Ti798  1  0.88898500  0.05762242  0.34695809  1.0
  Ti  Ti799  1  0.88898500  0.39095575  0.34695809  1.0
  Ti  Ti800  1  0.88898500  0.72428908  0.34695809  1.0
  Ti  Ti801  1  0.22231833  0.22428908  0.41838666  1.0
  Ti  Ti802  1  0.22231833  0.55762242  0.41838666  1.0
  Ti  Ti803  1  0.22231833  0.89095575  0.41838666  1.0
  Ti  Ti804  1  0.55565167  0.22428908  0.41838666  1.0
  Ti  Ti805  1  0.55565167  0.55762242  0.41838666  1.0
  Ti  Ti806  1  0.55565167  0.89095575  0.41838666  1.0
  Ti  Ti807  1  0.88898500  0.22428908  0.41838666  1.0
  Ti  Ti808  1  0.88898500  0.55762242  0.41838666  1.0
  Ti  Ti809  1  0.88898500  0.89095575  0.41838666  1.0
  Ni  Ni810  1  0.14733000  0.11111111  0.36811022  1.0
  Ni  Ni811  1  0.14733000  0.44444444  0.36811022  1.0
  Ni  Ni812  1  0.14733000  0.77777778  0.36811022  1.0
  Ni  Ni813  1  0.48066333  0.11111111  0.36811022  1.0
  Ni  Ni814  1  0.48066333  0.44444444  0.36811022  1.0
  Ni  Ni815  1  0.48066333  0.77777778  0.36811022  1.0
  Ni  Ni816  1  0.81399667  0.11111111  0.36811022  1.0
  Ni  Ni817  1  0.81399667  0.44444444  0.36811022  1.0
  Ni  Ni818  1  0.81399667  0.77777778  0.36811022  1.0
  Ni  Ni819  1  0.14733000  0.27777778  0.29668165  1.0
  Ni  Ni820  1  0.14733000  0.61111111  0.29668165  1.0
  Ni  Ni821  1  0.14733000  0.94444444  0.29668165  1.0
  Ni  Ni822  1  0.48066333  0.27777778  0.29668165  1.0
  Ni  Ni823  1  0.48066333  0.61111111  0.29668165  1.0
  Ni  Ni824  1  0.48066333  0.94444444  0.29668165  1.0
  Ni  Ni825  1  0.81399667  0.27777778  0.29668165  1.0
  Ni  Ni826  1  0.81399667  0.61111111  0.29668165  1.0
  Ni  Ni827  1  0.81399667  0.94444444  0.29668165  1.0
  Ni  Ni828  1  0.20518600  0.16666667  0.34430070  1.0
  Ni  Ni829  1  0.20518600  0.50000000  0.34430070  1.0
  Ni  Ni830  1  0.20518600  0.83333333  0.34430070  1.0
  Ni  Ni831  1  0.53851933  0.16666667  0.34430070  1.0
  Ni  Ni832  1  0.53851933  0.50000000  0.34430070  1.0
  Ni  Ni833  1  0.53851933  0.83333333  0.34430070  1.0
  Ni  Ni834  1  0.87185267  0.16666667  0.34430070  1.0
  Ni  Ni835  1  0.87185267  0.50000000  0.34430070  1.0
  Ni  Ni836  1  0.87185267  0.83333333  0.34430070  1.0
  Ni  Ni837  1  0.20518600  0.00000000  0.41572927  1.0
  Ni  Ni838  1  0.20518600  0.33333333  0.41572927  1.0
  Ni  Ni839  1  0.20518600  0.66666667  0.41572927  1.0
  Ni  Ni840  1  0.53851933  0.00000000  0.41572927  1.0
  Ni  Ni841  1  0.53851933  0.33333333  0.41572927  1.0
  Ni  Ni842  1  0.53851933  0.66666667  0.41572927  1.0
  Ni  Ni843  1  0.87185267  0.00000000  0.41572927  1.0
  Ni  Ni844  1  0.87185267  0.33333333  0.41572927  1.0
  Ni  Ni845  1  0.87185267  0.66666667  0.41572927  1.0
  Ni  Ni846  1  0.14733000  0.05555556  0.39191974  1.0
  Ni  Ni847  1  0.14733000  0.38888889  0.39191974  1.0
  Ni  Ni848  1  0.14733000  0.72222222  0.39191974  1.0
  Ni  Ni849  1  0.48066333  0.05555556  0.39191974  1.0
  Ni  Ni850  1  0.48066333  0.38888889  0.39191974  1.0
  Ni  Ni851  1  0.48066333  0.72222222  0.39191974  1.0
  Ni  Ni852  1  0.81399667  0.05555556  0.39191974  1.0
  Ni  Ni853  1  0.81399667  0.38888889  0.39191974  1.0
  Ni  Ni854  1  0.81399667  0.72222222  0.39191974  1.0
  Ni  Ni855  1  0.14733000  0.22222222  0.32049117  1.0
  Ni  Ni856  1  0.14733000  0.55555556  0.32049117  1.0
  Ni  Ni857  1  0.14733000  0.88888889  0.32049117  1.0
  Ni  Ni858  1  0.48066333  0.22222222  0.32049117  1.0
  Ni  Ni859  1  0.48066333  0.55555556  0.32049117  1.0
  Ni  Ni860  1  0.48066333  0.88888889  0.32049117  1.0
  Ni  Ni861  1  0.81399667  0.22222222  0.32049117  1.0
  Ni  Ni862  1  0.81399667  0.55555556  0.32049117  1.0
  Ni  Ni863  1  0.81399667  0.88888889  0.32049117  1.0
  Ni  Ni864  1  0.29361200  0.05203158  0.29517137  1.0
  Ni  Ni865  1  0.29361200  0.38536492  0.29517137  1.0
  Ni  Ni866  1  0.29361200  0.71869825  0.29517137  1.0
  Ni  Ni867  1  0.62694533  0.05203158  0.29517137  1.0
  Ni  Ni868  1  0.62694533  0.38536492  0.29517137  1.0
  Ni  Ni869  1  0.62694533  0.71869825  0.29517137  1.0
  Ni  Ni870  1  0.96027867  0.05203158  0.29517137  1.0
  Ni  Ni871  1  0.96027867  0.38536492  0.29517137  1.0
  Ni  Ni872  1  0.96027867  0.71869825  0.29517137  1.0
  Ni  Ni873  1  0.29361200  0.21869825  0.36659995  1.0
  Ni  Ni874  1  0.29361200  0.55203158  0.36659995  1.0
  Ni  Ni875  1  0.29361200  0.88536492  0.36659995  1.0
  Ni  Ni876  1  0.62694533  0.21869825  0.36659995  1.0
  Ni  Ni877  1  0.62694533  0.55203158  0.36659995  1.0
  Ni  Ni878  1  0.62694533  0.88536492  0.36659995  1.0
  Ni  Ni879  1  0.96027867  0.21869825  0.36659995  1.0
  Ni  Ni880  1  0.96027867  0.55203158  0.36659995  1.0
  Ni  Ni881  1  0.96027867  0.88536492  0.36659995  1.0
  Ni  Ni882  1  0.29361200  0.11463508  0.42026009  1.0
  Ni  Ni883  1  0.29361200  0.44796842  0.42026009  1.0
  Ni  Ni884  1  0.29361200  0.78130175  0.42026009  1.0
  Ni  Ni885  1  0.62694533  0.11463508  0.42026009  1.0
  Ni  Ni886  1  0.62694533  0.44796842  0.42026009  1.0
  Ni  Ni887  1  0.62694533  0.78130175  0.42026009  1.0
  Ni  Ni888  1  0.96027867  0.11463508  0.42026009  1.0
  Ni  Ni889  1  0.96027867  0.44796842  0.42026009  1.0
  Ni  Ni890  1  0.96027867  0.78130175  0.42026009  1.0
  Ni  Ni891  1  0.29361200  0.28130175  0.34883152  1.0
  Ni  Ni892  1  0.29361200  0.61463508  0.34883152  1.0
  Ni  Ni893  1  0.29361200  0.94796842  0.34883152  1.0
  Ni  Ni894  1  0.62694533  0.28130175  0.34883152  1.0
  Ni  Ni895  1  0.62694533  0.61463508  0.34883152  1.0
  Ni  Ni896  1  0.62694533  0.94796842  0.34883152  1.0
  Ni  Ni897  1  0.96027867  0.28130175  0.34883152  1.0
  Ni  Ni898  1  0.96027867  0.61463508  0.34883152  1.0
  Ni  Ni899  1  0.96027867  0.94796842  0.34883152  1.0
  Ni  Ni900  1  0.29361200  0.16666667  0.38889920  1.0
  Ni  Ni901  1  0.29361200  0.50000000  0.38889920  1.0
  Ni  Ni902  1  0.29361200  0.83333333  0.38889920  1.0
  Ni  Ni903  1  0.62694533  0.16666667  0.38889920  1.0
  Ni  Ni904  1  0.62694533  0.50000000  0.38889920  1.0
  Ni  Ni905  1  0.62694533  0.83333333  0.38889920  1.0
  Ni  Ni906  1  0.96027867  0.16666667  0.38889920  1.0
  Ni  Ni907  1  0.96027867  0.50000000  0.38889920  1.0
  Ni  Ni908  1  0.96027867  0.83333333  0.38889920  1.0
  Ni  Ni909  1  0.29361200  0.00000000  0.31747063  1.0
  Ni  Ni910  1  0.29361200  0.33333333  0.31747062  1.0
  Ni  Ni911  1  0.29361200  0.66666667  0.31747062  1.0
  Ni  Ni912  1  0.62694533  0.00000000  0.31747063  1.0
  Ni  Ni913  1  0.62694533  0.33333333  0.31747062  1.0
  Ni  Ni914  1  0.62694533  0.66666667  0.31747062  1.0
  Ni  Ni915  1  0.96027867  0.00000000  0.31747063  1.0
  Ni  Ni916  1  0.96027867  0.33333333  0.31747062  1.0
  Ni  Ni917  1  0.96027867  0.66666667  0.31747062  1.0
  Ni  Ni918  1  0.05312067  0.16666667  0.29293205  1.0
  Ni  Ni919  1  0.05312067  0.50000000  0.29293205  1.0
  Ni  Ni920  1  0.05312067  0.83333333  0.29293205  1.0
  Ni  Ni921  1  0.38645400  0.16666667  0.29293205  1.0
  Ni  Ni922  1  0.38645400  0.50000000  0.29293205  1.0
  Ni  Ni923  1  0.38645400  0.83333333  0.29293205  1.0
  Ni  Ni924  1  0.71978733  0.16666667  0.29293205  1.0
  Ni  Ni925  1  0.71978733  0.50000000  0.29293205  1.0
  Ni  Ni926  1  0.71978733  0.83333333  0.29293205  1.0
  Ni  Ni927  1  0.05312067  0.00000000  0.36436062  1.0
  Ni  Ni928  1  0.05312067  0.33333333  0.36436062  1.0
  Ni  Ni929  1  0.05312067  0.66666667  0.36436062  1.0
  Ni  Ni930  1  0.38645400  0.00000000  0.36436062  1.0
  Ni  Ni931  1  0.38645400  0.33333333  0.36436062  1.0
  Ni  Ni932  1  0.38645400  0.66666667  0.36436062  1.0
  Ni  Ni933  1  0.71978733  0.00000000  0.36436062  1.0
  Ni  Ni934  1  0.71978733  0.33333333  0.36436062  1.0
  Ni  Ni935  1  0.71978733  0.66666667  0.36436062  1.0
  Ni  Ni936  1  0.05312067  0.10673658  0.31861637  1.0
  Ni  Ni937  1  0.05312067  0.44006992  0.31861637  1.0
  Ni  Ni938  1  0.05312067  0.77340325  0.31861637  1.0
  Ni  Ni939  1  0.38645400  0.10673658  0.31861637  1.0
  Ni  Ni940  1  0.38645400  0.44006992  0.31861637  1.0
  Ni  Ni941  1  0.38645400  0.77340325  0.31861637  1.0
  Ni  Ni942  1  0.71978733  0.10673658  0.31861637  1.0
  Ni  Ni943  1  0.71978733  0.44006992  0.31861637  1.0
  Ni  Ni944  1  0.71978733  0.77340325  0.31861637  1.0
  Ni  Ni945  1  0.05312067  0.27340325  0.39004495  1.0
  Ni  Ni946  1  0.05312067  0.60673658  0.39004495  1.0
  Ni  Ni947  1  0.05312067  0.94006992  0.39004495  1.0
  Ni  Ni948  1  0.38645400  0.27340325  0.39004495  1.0
  Ni  Ni949  1  0.38645400  0.60673658  0.39004495  1.0
  Ni  Ni950  1  0.38645400  0.94006992  0.39004495  1.0
  Ni  Ni951  1  0.71978733  0.27340325  0.39004495  1.0
  Ni  Ni952  1  0.71978733  0.60673658  0.39004495  1.0
  Ni  Ni953  1  0.71978733  0.94006992  0.39004495  1.0
  Ni  Ni954  1  0.05312067  0.05993008  0.34992509  1.0
  Ni  Ni955  1  0.05312067  0.39326342  0.34992509  1.0
  Ni  Ni956  1  0.05312067  0.72659675  0.34992509  1.0
  Ni  Ni957  1  0.38645400  0.05993008  0.34992509  1.0
  Ni  Ni958  1  0.38645400  0.39326342  0.34992509  1.0
  Ni  Ni959  1  0.38645400  0.72659675  0.34992509  1.0
  Ni  Ni960  1  0.71978733  0.05993008  0.34992509  1.0
  Ni  Ni961  1  0.71978733  0.39326342  0.34992509  1.0
  Ni  Ni962  1  0.71978733  0.72659675  0.34992509  1.0
  Ni  Ni963  1  0.05312067  0.22659675  0.42135366  1.0
  Ni  Ni964  1  0.05312067  0.55993008  0.42135366  1.0
  Ni  Ni965  1  0.05312067  0.89326342  0.42135366  1.0
  Ni  Ni966  1  0.38645400  0.22659675  0.42135366  1.0
  Ni  Ni967  1  0.38645400  0.55993008  0.42135366  1.0
  Ni  Ni968  1  0.38645400  0.89326342  0.42135366  1.0
  Ni  Ni969  1  0.71978733  0.22659675  0.42135366  1.0
  Ni  Ni970  1  0.71978733  0.55993008  0.42135366  1.0
  Ni  Ni971  1  0.71978733  0.89326342  0.42135366  1.0
