# generated using pymatgen
data_TiNi
_symmetry_space_group_name_H-M   'P 1'
_cell_length_a   21.67975956
_cell_length_b   59.56106296
_cell_length_c   57.81269216
_cell_angle_alpha   34.14009981
_cell_angle_beta   129.56333332
_cell_angle_gamma   115.54403765
_symmetry_Int_Tables_number   1
_chemical_formula_structural   TiNi
_chemical_formula_sum   'Ti432 Ni432'
_cell_volume   31493.98890908
_cell_formula_units_Z   432
loop_
 _symmetry_equiv_pos_site_id
 _symmetry_equiv_pos_as_xyz
  1  'x, y, z'
loop_
 _atom_site_type_symbol
 _atom_site_label
 _atom_site_symmetry_multiplicity
 _atom_site_fract_x
 _atom_site_fract_y
 _atom_site_fract_z
 _atom_site_occupancy
  Ti  Ti0  1  0.24272000  0.04530667  0.10483225  1.0
  Ti  Ti1  1  0.24272000  0.37864000  0.10483225  1.0
  Ti  Ti2  1  0.24272000  0.71197333  0.10483225  1.0
  Ti  Ti3  1  0.57605333  0.04530667  0.10483225  1.0
  Ti  Ti4  1  0.57605333  0.37864000  0.10483225  1.0
  Ti  Ti5  1  0.57605333  0.71197333  0.10483225  1.0
  Ti  Ti6  1  0.90938667  0.04530667  0.10483225  1.0
  Ti  Ti7  1  0.90938667  0.37864000  0.10483225  1.0
  Ti  Ti8  1  0.90938667  0.71197333  0.10483225  1.0
  Ti  Ti9  1  0.24272000  0.21197333  0.04233225  1.0
  Ti  Ti10  1  0.24272000  0.54530667  0.04233225  1.0
  Ti  Ti11  1  0.24272000  0.87864000  0.04233225  1.0
  Ti  Ti12  1  0.57605333  0.21197333  0.04233225  1.0
  Ti  Ti13  1  0.57605333  0.54530667  0.04233225  1.0
  Ti  Ti14  1  0.57605333  0.87864000  0.04233225  1.0
  Ti  Ti15  1  0.90938667  0.21197333  0.04233225  1.0
  Ti  Ti16  1  0.90938667  0.54530667  0.04233225  1.0
  Ti  Ti17  1  0.90938667  0.87864000  0.04233225  1.0
  Ti  Ti18  1  0.09061333  0.12136000  0.07631225  1.0
  Ti  Ti19  1  0.09061333  0.45469333  0.07631225  1.0
  Ti  Ti20  1  0.09061333  0.78802667  0.07631225  1.0
  Ti  Ti21  1  0.42394667  0.12136000  0.07631225  1.0
  Ti  Ti22  1  0.42394667  0.45469333  0.07631225  1.0
  Ti  Ti23  1  0.42394667  0.78802667  0.07631225  1.0
  Ti  Ti24  1  0.75728000  0.12136000  0.07631225  1.0
  Ti  Ti25  1  0.75728000  0.45469333  0.07631225  1.0
  Ti  Ti26  1  0.75728000  0.78802667  0.07631225  1.0
  Ti  Ti27  1  0.09061333  0.28802667  0.01381225  1.0
  Ti  Ti28  1  0.09061333  0.62136000  0.01381225  1.0
  Ti  Ti29  1  0.09061333  0.95469333  0.01381225  1.0
  Ti  Ti30  1  0.42394667  0.28802667  0.01381225  1.0
  Ti  Ti31  1  0.42394667  0.62136000  0.01381225  1.0
  Ti  Ti32  1  0.42394667  0.95469333  0.01381225  1.0
  Ti  Ti33  1  0.75728000  0.28802667  0.01381225  1.0
  Ti  Ti34  1  0.75728000  0.62136000  0.01381225  1.0
  Ti  Ti35  1  0.75728000  0.95469333  0.01381225  1.0
  Ti  Ti36  1  0.08333333  0.04166667  0.04369725  1.0
  Ti  Ti37  1  0.08333333  0.37500000  0.04369725  1.0
  Ti  Ti38  1  0.08333333  0.70833333  0.04369725  1.0
  Ti  Ti39  1  0.41666667  0.04166667  0.04369725  1.0
  Ti  Ti40  1  0.41666667  0.37500000  0.04369725  1.0
  Ti  Ti41  1  0.41666667  0.70833333  0.04369725  1.0
  Ti  Ti42  1  0.75000000  0.04166667  0.04369725  1.0
  Ti  Ti43  1  0.75000000  0.37500000  0.04369725  1.0
  Ti  Ti44  1  0.75000000  0.70833333  0.04369725  1.0
  Ti  Ti45  1  0.08333333  0.20833333  0.10619725  1.0
  Ti  Ti46  1  0.08333333  0.54166667  0.10619725  1.0
  Ti  Ti47  1  0.08333333  0.87500000  0.10619725  1.0
  Ti  Ti48  1  0.41666667  0.20833333  0.10619725  1.0
  Ti  Ti49  1  0.41666667  0.54166667  0.10619725  1.0
  Ti  Ti50  1  0.41666667  0.87500000  0.10619725  1.0
  Ti  Ti51  1  0.75000000  0.20833333  0.10619725  1.0
  Ti  Ti52  1  0.75000000  0.54166667  0.10619725  1.0
  Ti  Ti53  1  0.75000000  0.87500000  0.10619725  1.0
  Ti  Ti54  1  0.25000000  0.12500000  0.01244725  1.0
  Ti  Ti55  1  0.25000000  0.45833333  0.01244725  1.0
  Ti  Ti56  1  0.25000000  0.79166667  0.01244725  1.0
  Ti  Ti57  1  0.58333333  0.12500000  0.01244725  1.0
  Ti  Ti58  1  0.58333333  0.45833333  0.01244725  1.0
  Ti  Ti59  1  0.58333333  0.79166667  0.01244725  1.0
  Ti  Ti60  1  0.91666667  0.12500000  0.01244725  1.0
  Ti  Ti61  1  0.91666667  0.45833333  0.01244725  1.0
  Ti  Ti62  1  0.91666667  0.79166667  0.01244725  1.0
  Ti  Ti63  1  0.25000000  0.29166667  0.07494725  1.0
  Ti  Ti64  1  0.25000000  0.62500000  0.07494725  1.0
  Ti  Ti65  1  0.25000000  0.95833333  0.07494725  1.0
  Ti  Ti66  1  0.58333333  0.29166667  0.07494725  1.0
  Ti  Ti67  1  0.58333333  0.62500000  0.07494725  1.0
  Ti  Ti68  1  0.58333333  0.95833333  0.07494725  1.0
  Ti  Ti69  1  0.91666667  0.29166667  0.07494725  1.0
  Ti  Ti70  1  0.91666667  0.62500000  0.07494725  1.0
  Ti  Ti71  1  0.91666667  0.95833333  0.07494725  1.0
  Ti  Ti72  1  0.16666667  0.16666667  0.12182225  1.0
  Ti  Ti73  1  0.16666667  0.50000000  0.12182225  1.0
  Ti  Ti74  1  0.16666667  0.83333333  0.12182225  1.0
  Ti  Ti75  1  0.50000000  0.16666667  0.12182225  1.0
  Ti  Ti76  1  0.50000000  0.50000000  0.12182225  1.0
  Ti  Ti77  1  0.50000000  0.83333333  0.12182225  1.0
  Ti  Ti78  1  0.83333333  0.16666667  0.12182225  1.0
  Ti  Ti79  1  0.83333333  0.50000000  0.12182225  1.0
  Ti  Ti80  1  0.83333333  0.83333333  0.12182225  1.0
  Ti  Ti81  1  0.16666667  0.00000000  0.05932225  1.0
  Ti  Ti82  1  0.16666667  0.33333333  0.05932225  1.0
  Ti  Ti83  1  0.16666667  0.66666667  0.05932225  1.0
  Ti  Ti84  1  0.50000000  0.00000000  0.05932225  1.0
  Ti  Ti85  1  0.50000000  0.33333333  0.05932225  1.0
  Ti  Ti86  1  0.50000000  0.66666667  0.05932225  1.0
  Ti  Ti87  1  0.83333333  0.00000000  0.05932225  1.0
  Ti  Ti88  1  0.83333333  0.33333333  0.05932225  1.0
  Ti  Ti89  1  0.83333333  0.66666667  0.05932225  1.0
  Ti  Ti90  1  0.00000000  0.08333333  0.02807225  1.0
  Ti  Ti91  1  0.00000000  0.41666667  0.02807225  1.0
  Ti  Ti92  1  0.00000000  0.75000000  0.02807225  1.0
  Ti  Ti93  1  0.33333333  0.08333333  0.02807225  1.0
  Ti  Ti94  1  0.33333333  0.41666667  0.02807225  1.0
  Ti  Ti95  1  0.33333333  0.75000000  0.02807225  1.0
  Ti  Ti96  1  0.66666667  0.08333333  0.02807225  1.0
  Ti  Ti97  1  0.66666667  0.41666667  0.02807225  1.0
  Ti  Ti98  1  0.66666667  0.75000000  0.02807225  1.0
  Ti  Ti99  1  0.00000000  0.25000000  0.09057225  1.0
  Ti  Ti100  1  0.00000000  0.58333333  0.09057225  1.0
  Ti  Ti101  1  0.00000000  0.91666667  0.09057225  1.0
  Ti  Ti102  1  0.33333333  0.25000000  0.09057225  1.0
  Ti  Ti103  1  0.33333333  0.58333333  0.09057225  1.0
  Ti  Ti104  1  0.33333333  0.91666667  0.09057225  1.0
  Ti  Ti105  1  0.66666667  0.25000000  0.09057225  1.0
  Ti  Ti106  1  0.66666667  0.58333333  0.09057225  1.0
  Ti  Ti107  1  0.66666667  0.91666667  0.09057225  1.0
  Ti  Ti108  1  0.16666667  0.08333333  0.09057225  1.0
  Ti  Ti109  1  0.16666667  0.41666667  0.09057225  1.0
  Ti  Ti110  1  0.16666667  0.75000000  0.09057225  1.0
  Ti  Ti111  1  0.50000000  0.08333333  0.09057225  1.0
  Ti  Ti112  1  0.50000000  0.41666667  0.09057225  1.0
  Ti  Ti113  1  0.50000000  0.75000000  0.09057225  1.0
  Ti  Ti114  1  0.83333333  0.08333333  0.09057225  1.0
  Ti  Ti115  1  0.83333333  0.41666667  0.09057225  1.0
  Ti  Ti116  1  0.83333333  0.75000000  0.09057225  1.0
  Ti  Ti117  1  0.16666667  0.25000000  0.02807225  1.0
  Ti  Ti118  1  0.16666667  0.58333333  0.02807225  1.0
  Ti  Ti119  1  0.16666667  0.91666667  0.02807225  1.0
  Ti  Ti120  1  0.50000000  0.25000000  0.02807225  1.0
  Ti  Ti121  1  0.50000000  0.58333333  0.02807225  1.0
  Ti  Ti122  1  0.50000000  0.91666667  0.02807225  1.0
  Ti  Ti123  1  0.83333333  0.25000000  0.02807225  1.0
  Ti  Ti124  1  0.83333333  0.58333333  0.02807225  1.0
  Ti  Ti125  1  0.83333333  0.91666667  0.02807225  1.0
  Ti  Ti126  1  0.00000000  0.16666667  0.05932225  1.0
  Ti  Ti127  1  0.00000000  0.50000000  0.05932225  1.0
  Ti  Ti128  1  0.00000000  0.83333333  0.05932225  1.0
  Ti  Ti129  1  0.33333333  0.16666667  0.05932225  1.0
  Ti  Ti130  1  0.33333333  0.50000000  0.05932225  1.0
  Ti  Ti131  1  0.33333333  0.83333333  0.05932225  1.0
  Ti  Ti132  1  0.66666667  0.16666667  0.05932225  1.0
  Ti  Ti133  1  0.66666667  0.50000000  0.05932225  1.0
  Ti  Ti134  1  0.66666667  0.83333333  0.05932225  1.0
  Ti  Ti135  1  0.00000000  0.00000000  0.12182225  1.0
  Ti  Ti136  1  0.00000000  0.33333333  0.12182225  1.0
  Ti  Ti137  1  0.00000000  0.66666667  0.12182225  1.0
  Ti  Ti138  1  0.33333333  0.00000000  0.12182225  1.0
  Ti  Ti139  1  0.33333333  0.33333333  0.12182225  1.0
  Ti  Ti140  1  0.33333333  0.66666667  0.12182225  1.0
  Ti  Ti141  1  0.66666667  0.00000000  0.12182225  1.0
  Ti  Ti142  1  0.66666667  0.33333333  0.12182225  1.0
  Ti  Ti143  1  0.66666667  0.66666667  0.12182225  1.0
  Ni  Ni144  1  0.03156133  0.15088600  0.12138450  1.0
  Ni  Ni145  1  0.03156133  0.48421933  0.12138450  1.0
  Ni  Ni146  1  0.03156133  0.81755267  0.12138450  1.0
  Ni  Ni147  1  0.36489467  0.15088600  0.12138450  1.0
  Ni  Ni148  1  0.36489467  0.48421933  0.12138450  1.0
  Ni  Ni149  1  0.36489467  0.81755267  0.12138450  1.0
  Ni  Ni150  1  0.69822800  0.15088600  0.12138450  1.0
  Ni  Ni151  1  0.69822800  0.48421933  0.12138450  1.0
  Ni  Ni152  1  0.69822800  0.81755267  0.12138450  1.0
  Ni  Ni153  1  0.03156133  0.31755267  0.05888450  1.0
  Ni  Ni154  1  0.03156133  0.65088600  0.05888450  1.0
  Ni  Ni155  1  0.03156133  0.98421933  0.05888450  1.0
  Ni  Ni156  1  0.36489467  0.31755267  0.05888450  1.0
  Ni  Ni157  1  0.36489467  0.65088600  0.05888450  1.0
  Ni  Ni158  1  0.36489467  0.98421933  0.05888450  1.0
  Ni  Ni159  1  0.69822800  0.31755267  0.05888450  1.0
  Ni  Ni160  1  0.69822800  0.65088600  0.05888450  1.0
  Ni  Ni161  1  0.69822800  0.98421933  0.05888450  1.0
  Ni  Ni162  1  0.21517600  0.05907867  0.04352325  1.0
  Ni  Ni163  1  0.21517600  0.39241200  0.04352325  1.0
  Ni  Ni164  1  0.21517600  0.72574533  0.04352325  1.0
  Ni  Ni165  1  0.54850933  0.05907867  0.04352325  1.0
  Ni  Ni166  1  0.54850933  0.39241200  0.04352325  1.0
  Ni  Ni167  1  0.54850933  0.72574533  0.04352325  1.0
  Ni  Ni168  1  0.88184267  0.05907867  0.04352325  1.0
  Ni  Ni169  1  0.88184267  0.39241200  0.04352325  1.0
  Ni  Ni170  1  0.88184267  0.72574533  0.04352325  1.0
  Ni  Ni171  1  0.21517600  0.22574533  0.10602325  1.0
  Ni  Ni172  1  0.21517600  0.55907867  0.10602325  1.0
  Ni  Ni173  1  0.21517600  0.89241200  0.10602325  1.0
  Ni  Ni174  1  0.54850933  0.22574533  0.10602325  1.0
  Ni  Ni175  1  0.54850933  0.55907867  0.10602325  1.0
  Ni  Ni176  1  0.54850933  0.89241200  0.10602325  1.0
  Ni  Ni177  1  0.88184267  0.22574533  0.10602325  1.0
  Ni  Ni178  1  0.88184267  0.55907867  0.10602325  1.0
  Ni  Ni179  1  0.88184267  0.89241200  0.10602325  1.0
  Ni  Ni180  1  0.21517600  0.15088600  0.06524000  1.0
  Ni  Ni181  1  0.21517600  0.48421933  0.06524000  1.0
  Ni  Ni182  1  0.21517600  0.81755267  0.06524000  1.0
  Ni  Ni183  1  0.54850933  0.15088600  0.06524000  1.0
  Ni  Ni184  1  0.54850933  0.48421933  0.06524000  1.0
  Ni  Ni185  1  0.54850933  0.81755267  0.06524000  1.0
  Ni  Ni186  1  0.88184267  0.15088600  0.06524000  1.0
  Ni  Ni187  1  0.88184267  0.48421933  0.06524000  1.0
  Ni  Ni188  1  0.88184267  0.81755267  0.06524000  1.0
  Ni  Ni189  1  0.21517600  0.31755267  0.00274000  1.0
  Ni  Ni190  1  0.21517600  0.65088600  0.00274000  1.0
  Ni  Ni191  1  0.21517600  0.98421933  0.00274000  1.0
  Ni  Ni192  1  0.54850933  0.31755267  0.00274000  1.0
  Ni  Ni193  1  0.54850933  0.65088600  0.00274000  1.0
  Ni  Ni194  1  0.54850933  0.98421933  0.00274000  1.0
  Ni  Ni195  1  0.88184267  0.31755267  0.00274000  1.0
  Ni  Ni196  1  0.88184267  0.65088600  0.00274000  1.0
  Ni  Ni197  1  0.88184267  0.98421933  0.00274000  1.0
  Ni  Ni198  1  0.03156133  0.05907867  0.09966775  1.0
  Ni  Ni199  1  0.03156133  0.39241200  0.09966775  1.0
  Ni  Ni200  1  0.03156133  0.72574533  0.09966775  1.0
  Ni  Ni201  1  0.36489467  0.05907867  0.09966775  1.0
  Ni  Ni202  1  0.36489467  0.39241200  0.09966775  1.0
  Ni  Ni203  1  0.36489467  0.72574533  0.09966775  1.0
  Ni  Ni204  1  0.69822800  0.05907867  0.09966775  1.0
  Ni  Ni205  1  0.69822800  0.39241200  0.09966775  1.0
  Ni  Ni206  1  0.69822800  0.72574533  0.09966775  1.0
  Ni  Ni207  1  0.03156133  0.22574533  0.03716775  1.0
  Ni  Ni208  1  0.03156133  0.55907867  0.03716775  1.0
  Ni  Ni209  1  0.03156133  0.89241200  0.03716775  1.0
  Ni  Ni210  1  0.36489467  0.22574533  0.03716775  1.0
  Ni  Ni211  1  0.36489467  0.55907867  0.03716775  1.0
  Ni  Ni212  1  0.36489467  0.89241200  0.03716775  1.0
  Ni  Ni213  1  0.69822800  0.22574533  0.03716775  1.0
  Ni  Ni214  1  0.69822800  0.55907867  0.03716775  1.0
  Ni  Ni215  1  0.69822800  0.89241200  0.03716775  1.0
  Ni  Ni216  1  0.30177200  0.01578067  0.05976000  1.0
  Ni  Ni217  1  0.30177200  0.34911400  0.05976000  1.0
  Ni  Ni218  1  0.30177200  0.68244733  0.05976000  1.0
  Ni  Ni219  1  0.63510533  0.01578067  0.05976000  1.0
  Ni  Ni220  1  0.63510533  0.34911400  0.05976000  1.0
  Ni  Ni221  1  0.63510533  0.68244733  0.05976000  1.0
  Ni  Ni222  1  0.96843867  0.01578067  0.05976000  1.0
  Ni  Ni223  1  0.96843867  0.34911400  0.05976000  1.0
  Ni  Ni224  1  0.96843867  0.68244733  0.05976000  1.0
  Ni  Ni225  1  0.30177200  0.18244733  0.12226000  1.0
  Ni  Ni226  1  0.30177200  0.51578067  0.12226000  1.0
  Ni  Ni227  1  0.30177200  0.84911400  0.12226000  1.0
  Ni  Ni228  1  0.63510533  0.18244733  0.12226000  1.0
  Ni  Ni229  1  0.63510533  0.51578067  0.12226000  1.0
  Ni  Ni230  1  0.63510533  0.84911400  0.12226000  1.0
  Ni  Ni231  1  0.96843867  0.18244733  0.12226000  1.0
  Ni  Ni232  1  0.96843867  0.51578067  0.12226000  1.0
  Ni  Ni233  1  0.96843867  0.84911400  0.12226000  1.0
  Ni  Ni234  1  0.11815733  0.10758800  0.01262125  1.0
  Ni  Ni235  1  0.11815733  0.44092133  0.01262125  1.0
  Ni  Ni236  1  0.11815733  0.77425467  0.01262125  1.0
  Ni  Ni237  1  0.45149067  0.10758800  0.01262125  1.0
  Ni  Ni238  1  0.45149067  0.44092133  0.01262125  1.0
  Ni  Ni239  1  0.45149067  0.77425467  0.01262125  1.0
  Ni  Ni240  1  0.78482400  0.10758800  0.01262125  1.0
  Ni  Ni241  1  0.78482400  0.44092133  0.01262125  1.0
  Ni  Ni242  1  0.78482400  0.77425467  0.01262125  1.0
  Ni  Ni243  1  0.11815733  0.27425467  0.07512125  1.0
  Ni  Ni244  1  0.11815733  0.60758800  0.07512125  1.0
  Ni  Ni245  1  0.11815733  0.94092133  0.07512125  1.0
  Ni  Ni246  1  0.45149067  0.27425467  0.07512125  1.0
  Ni  Ni247  1  0.45149067  0.60758800  0.07512125  1.0
  Ni  Ni248  1  0.45149067  0.94092133  0.07512125  1.0
  Ni  Ni249  1  0.78482400  0.27425467  0.07512125  1.0
  Ni  Ni250  1  0.78482400  0.60758800  0.07512125  1.0
  Ni  Ni251  1  0.78482400  0.94092133  0.07512125  1.0
  Ni  Ni252  1  0.11815733  0.01578067  0.11590450  1.0
  Ni  Ni253  1  0.11815733  0.34911400  0.11590450  1.0
  Ni  Ni254  1  0.11815733  0.68244733  0.11590450  1.0
  Ni  Ni255  1  0.45149067  0.01578067  0.11590450  1.0
  Ni  Ni256  1  0.45149067  0.34911400  0.11590450  1.0
  Ni  Ni257  1  0.45149067  0.68244733  0.11590450  1.0
  Ni  Ni258  1  0.78482400  0.01578067  0.11590450  1.0
  Ni  Ni259  1  0.78482400  0.34911400  0.11590450  1.0
  Ni  Ni260  1  0.78482400  0.68244733  0.11590450  1.0
  Ni  Ni261  1  0.11815733  0.18244733  0.05340450  1.0
  Ni  Ni262  1  0.11815733  0.51578067  0.05340450  1.0
  Ni  Ni263  1  0.11815733  0.84911400  0.05340450  1.0
  Ni  Ni264  1  0.45149067  0.18244733  0.05340450  1.0
  Ni  Ni265  1  0.45149067  0.51578067  0.05340450  1.0
  Ni  Ni266  1  0.45149067  0.84911400  0.05340450  1.0
  Ni  Ni267  1  0.78482400  0.18244733  0.05340450  1.0
  Ni  Ni268  1  0.78482400  0.51578067  0.05340450  1.0
  Ni  Ni269  1  0.78482400  0.84911400  0.05340450  1.0
  Ni  Ni270  1  0.30177200  0.10758800  0.08147675  1.0
  Ni  Ni271  1  0.30177200  0.44092133  0.08147675  1.0
  Ni  Ni272  1  0.30177200  0.77425467  0.08147675  1.0
  Ni  Ni273  1  0.63510533  0.10758800  0.08147675  1.0
  Ni  Ni274  1  0.63510533  0.44092133  0.08147675  1.0
  Ni  Ni275  1  0.63510533  0.77425467  0.08147675  1.0
  Ni  Ni276  1  0.96843867  0.10758800  0.08147675  1.0
  Ni  Ni277  1  0.96843867  0.44092133  0.08147675  1.0
  Ni  Ni278  1  0.96843867  0.77425467  0.08147675  1.0
  Ni  Ni279  1  0.30177200  0.27425467  0.01897675  1.0
  Ni  Ni280  1  0.30177200  0.60758800  0.01897675  1.0
  Ni  Ni281  1  0.30177200  0.94092133  0.01897675  1.0
  Ni  Ni282  1  0.63510533  0.27425467  0.01897675  1.0
  Ni  Ni283  1  0.63510533  0.60758800  0.01897675  1.0
  Ni  Ni284  1  0.63510533  0.94092133  0.01897675  1.0
  Ni  Ni285  1  0.96843867  0.27425467  0.01897675  1.0
  Ni  Ni286  1  0.96843867  0.60758800  0.01897675  1.0
  Ni  Ni287  1  0.96843867  0.94092133  0.01897675  1.0
  Ti  Ti288  1  0.24272000  0.04530667  0.22983225  1.0
  Ti  Ti289  1  0.24272000  0.37864000  0.22983225  1.0
  Ti  Ti290  1  0.24272000  0.71197333  0.22983225  1.0
  Ti  Ti291  1  0.57605333  0.04530667  0.22983225  1.0
  Ti  Ti292  1  0.57605333  0.37864000  0.22983225  1.0
  Ti  Ti293  1  0.57605333  0.71197333  0.22983225  1.0
  Ti  Ti294  1  0.90938667  0.04530667  0.22983225  1.0
  Ti  Ti295  1  0.90938667  0.37864000  0.22983225  1.0
  Ti  Ti296  1  0.90938667  0.71197333  0.22983225  1.0
  Ti  Ti297  1  0.24272000  0.21197333  0.16733225  1.0
  Ti  Ti298  1  0.24272000  0.54530667  0.16733225  1.0
  Ti  Ti299  1  0.24272000  0.87864000  0.16733225  1.0
  Ti  Ti300  1  0.57605333  0.21197333  0.16733225  1.0
  Ti  Ti301  1  0.57605333  0.54530667  0.16733225  1.0
  Ti  Ti302  1  0.57605333  0.87864000  0.16733225  1.0
  Ti  Ti303  1  0.90938667  0.21197333  0.16733225  1.0
  Ti  Ti304  1  0.90938667  0.54530667  0.16733225  1.0
  Ti  Ti305  1  0.90938667  0.87864000  0.16733225  1.0
  Ti  Ti306  1  0.09061333  0.12136000  0.20131225  1.0
  Ti  Ti307  1  0.09061333  0.45469333  0.20131225  1.0
  Ti  Ti308  1  0.09061333  0.78802667  0.20131225  1.0
  Ti  Ti309  1  0.42394667  0.12136000  0.20131225  1.0
  Ti  Ti310  1  0.42394667  0.45469333  0.20131225  1.0
  Ti  Ti311  1  0.42394667  0.78802667  0.20131225  1.0
  Ti  Ti312  1  0.75728000  0.12136000  0.20131225  1.0
  Ti  Ti313  1  0.75728000  0.45469333  0.20131225  1.0
  Ti  Ti314  1  0.75728000  0.78802667  0.20131225  1.0
  Ti  Ti315  1  0.09061333  0.28802667  0.13881225  1.0
  Ti  Ti316  1  0.09061333  0.62136000  0.13881225  1.0
  Ti  Ti317  1  0.09061333  0.95469333  0.13881225  1.0
  Ti  Ti318  1  0.42394667  0.28802667  0.13881225  1.0
  Ti  Ti319  1  0.42394667  0.62136000  0.13881225  1.0
  Ti  Ti320  1  0.42394667  0.95469333  0.13881225  1.0
  Ti  Ti321  1  0.75728000  0.28802667  0.13881225  1.0
  Ti  Ti322  1  0.75728000  0.62136000  0.13881225  1.0
  Ti  Ti323  1  0.75728000  0.95469333  0.13881225  1.0
  Ti  Ti324  1  0.08333333  0.04166667  0.16869725  1.0
  Ti  Ti325  1  0.08333333  0.37500000  0.16869725  1.0
  Ti  Ti326  1  0.08333333  0.70833333  0.16869725  1.0
  Ti  Ti327  1  0.41666667  0.04166667  0.16869725  1.0
  Ti  Ti328  1  0.41666667  0.37500000  0.16869725  1.0
  Ti  Ti329  1  0.41666667  0.70833333  0.16869725  1.0
  Ti  Ti330  1  0.75000000  0.04166667  0.16869725  1.0
  Ti  Ti331  1  0.75000000  0.37500000  0.16869725  1.0
  Ti  Ti332  1  0.75000000  0.70833333  0.16869725  1.0
  Ti  Ti333  1  0.08333333  0.20833333  0.23119725  1.0
  Ti  Ti334  1  0.08333333  0.54166667  0.23119725  1.0
  Ti  Ti335  1  0.08333333  0.87500000  0.23119725  1.0
  Ti  Ti336  1  0.41666667  0.20833333  0.23119725  1.0
  Ti  Ti337  1  0.41666667  0.54166667  0.23119725  1.0
  Ti  Ti338  1  0.41666667  0.87500000  0.23119725  1.0
  Ti  Ti339  1  0.75000000  0.20833333  0.23119725  1.0
  Ti  Ti340  1  0.75000000  0.54166667  0.23119725  1.0
  Ti  Ti341  1  0.75000000  0.87500000  0.23119725  1.0
  Ti  Ti342  1  0.25000000  0.12500000  0.13744725  1.0
  Ti  Ti343  1  0.25000000  0.45833333  0.13744725  1.0
  Ti  Ti344  1  0.25000000  0.79166667  0.13744725  1.0
  Ti  Ti345  1  0.58333333  0.12500000  0.13744725  1.0
  Ti  Ti346  1  0.58333333  0.45833333  0.13744725  1.0
  Ti  Ti347  1  0.58333333  0.79166667  0.13744725  1.0
  Ti  Ti348  1  0.91666667  0.12500000  0.13744725  1.0
  Ti  Ti349  1  0.91666667  0.45833333  0.13744725  1.0
  Ti  Ti350  1  0.91666667  0.79166667  0.13744725  1.0
  Ti  Ti351  1  0.25000000  0.29166667  0.19994725  1.0
  Ti  Ti352  1  0.25000000  0.62500000  0.19994725  1.0
  Ti  Ti353  1  0.25000000  0.95833333  0.19994725  1.0
  Ti  Ti354  1  0.58333333  0.29166667  0.19994725  1.0
  Ti  Ti355  1  0.58333333  0.62500000  0.19994725  1.0
  Ti  Ti356  1  0.58333333  0.95833333  0.19994725  1.0
  Ti  Ti357  1  0.91666667  0.29166667  0.19994725  1.0
  Ti  Ti358  1  0.91666667  0.62500000  0.19994725  1.0
  Ti  Ti359  1  0.91666667  0.95833333  0.19994725  1.0
  Ti  Ti360  1  0.16666667  0.16666667  0.24682225  1.0
  Ti  Ti361  1  0.16666667  0.50000000  0.24682225  1.0
  Ti  Ti362  1  0.16666667  0.83333333  0.24682225  1.0
  Ti  Ti363  1  0.50000000  0.16666667  0.24682225  1.0
  Ti  Ti364  1  0.50000000  0.50000000  0.24682225  1.0
  Ti  Ti365  1  0.50000000  0.83333333  0.24682225  1.0
  Ti  Ti366  1  0.83333333  0.16666667  0.24682225  1.0
  Ti  Ti367  1  0.83333333  0.50000000  0.24682225  1.0
  Ti  Ti368  1  0.83333333  0.83333333  0.24682225  1.0
  Ti  Ti369  1  0.16666667  0.00000000  0.18432225  1.0
  Ti  Ti370  1  0.16666667  0.33333333  0.18432225  1.0
  Ti  Ti371  1  0.16666667  0.66666667  0.18432225  1.0
  Ti  Ti372  1  0.50000000  0.00000000  0.18432225  1.0
  Ti  Ti373  1  0.50000000  0.33333333  0.18432225  1.0
  Ti  Ti374  1  0.50000000  0.66666667  0.18432225  1.0
  Ti  Ti375  1  0.83333333  0.00000000  0.18432225  1.0
  Ti  Ti376  1  0.83333333  0.33333333  0.18432225  1.0
  Ti  Ti377  1  0.83333333  0.66666667  0.18432225  1.0
  Ti  Ti378  1  0.00000000  0.08333333  0.15307225  1.0
  Ti  Ti379  1  0.00000000  0.41666667  0.15307225  1.0
  Ti  Ti380  1  0.00000000  0.75000000  0.15307225  1.0
  Ti  Ti381  1  0.33333333  0.08333333  0.15307225  1.0
  Ti  Ti382  1  0.33333333  0.41666667  0.15307225  1.0
  Ti  Ti383  1  0.33333333  0.75000000  0.15307225  1.0
  Ti  Ti384  1  0.66666667  0.08333333  0.15307225  1.0
  Ti  Ti385  1  0.66666667  0.41666667  0.15307225  1.0
  Ti  Ti386  1  0.66666667  0.75000000  0.15307225  1.0
  Ti  Ti387  1  0.00000000  0.25000000  0.21557225  1.0
  Ti  Ti388  1  0.00000000  0.58333333  0.21557225  1.0
  Ti  Ti389  1  0.00000000  0.91666667  0.21557225  1.0
  Ti  Ti390  1  0.33333333  0.25000000  0.21557225  1.0
  Ti  Ti391  1  0.33333333  0.58333333  0.21557225  1.0
  Ti  Ti392  1  0.33333333  0.91666667  0.21557225  1.0
  Ti  Ti393  1  0.66666667  0.25000000  0.21557225  1.0
  Ti  Ti394  1  0.66666667  0.58333333  0.21557225  1.0
  Ti  Ti395  1  0.66666667  0.91666667  0.21557225  1.0
  Ti  Ti396  1  0.16666667  0.08333333  0.21557225  1.0
  Ti  Ti397  1  0.16666667  0.41666667  0.21557225  1.0
  Ti  Ti398  1  0.16666667  0.75000000  0.21557225  1.0
  Ti  Ti399  1  0.50000000  0.08333333  0.21557225  1.0
  Ti  Ti400  1  0.50000000  0.41666667  0.21557225  1.0
  Ti  Ti401  1  0.50000000  0.75000000  0.21557225  1.0
  Ti  Ti402  1  0.83333333  0.08333333  0.21557225  1.0
  Ti  Ti403  1  0.83333333  0.41666667  0.21557225  1.0
  Ti  Ti404  1  0.83333333  0.75000000  0.21557225  1.0
  Ti  Ti405  1  0.16666667  0.25000000  0.15307225  1.0
  Ti  Ti406  1  0.16666667  0.58333333  0.15307225  1.0
  Ti  Ti407  1  0.16666667  0.91666667  0.15307225  1.0
  Ti  Ti408  1  0.50000000  0.25000000  0.15307225  1.0
  Ti  Ti409  1  0.50000000  0.58333333  0.15307225  1.0
  Ti  Ti410  1  0.50000000  0.91666667  0.15307225  1.0
  Ti  Ti411  1  0.83333333  0.25000000  0.15307225  1.0
  Ti  Ti412  1  0.83333333  0.58333333  0.15307225  1.0
  Ti  Ti413  1  0.83333333  0.91666667  0.15307225  1.0
  Ti  Ti414  1  0.00000000  0.16666667  0.18432225  1.0
  Ti  Ti415  1  0.00000000  0.50000000  0.18432225  1.0
  Ti  Ti416  1  0.00000000  0.83333333  0.18432225  1.0
  Ti  Ti417  1  0.33333333  0.16666667  0.18432225  1.0
  Ti  Ti418  1  0.33333333  0.50000000  0.18432225  1.0
  Ti  Ti419  1  0.33333333  0.83333333  0.18432225  1.0
  Ti  Ti420  1  0.66666667  0.16666667  0.18432225  1.0
  Ti  Ti421  1  0.66666667  0.50000000  0.18432225  1.0
  Ti  Ti422  1  0.66666667  0.83333333  0.18432225  1.0
  Ti  Ti423  1  0.00000000  0.00000000  0.24682225  1.0
  Ti  Ti424  1  0.00000000  0.33333333  0.24682225  1.0
  Ti  Ti425  1  0.00000000  0.66666667  0.24682225  1.0
  Ti  Ti426  1  0.33333333  0.00000000  0.24682225  1.0
  Ti  Ti427  1  0.33333333  0.33333333  0.24682225  1.0
  Ti  Ti428  1  0.33333333  0.66666667  0.24682225  1.0
  Ti  Ti429  1  0.66666667  0.00000000  0.24682225  1.0
  Ti  Ti430  1  0.66666667  0.33333333  0.24682225  1.0
  Ti  Ti431  1  0.66666667  0.66666667  0.24682225  1.0
  Ni  Ni432  1  0.03156133  0.15088600  0.24638450  1.0
  Ni  Ni433  1  0.03156133  0.48421933  0.24638450  1.0
  Ni  Ni434  1  0.03156133  0.81755267  0.24638450  1.0
  Ni  Ni435  1  0.36489467  0.15088600  0.24638450  1.0
  Ni  Ni436  1  0.36489467  0.48421933  0.24638450  1.0
  Ni  Ni437  1  0.36489467  0.81755267  0.24638450  1.0
  Ni  Ni438  1  0.69822800  0.15088600  0.24638450  1.0
  Ni  Ni439  1  0.69822800  0.48421933  0.24638450  1.0
  Ni  Ni440  1  0.69822800  0.81755267  0.24638450  1.0
  Ni  Ni441  1  0.03156133  0.31755267  0.18388450  1.0
  Ni  Ni442  1  0.03156133  0.65088600  0.18388450  1.0
  Ni  Ni443  1  0.03156133  0.98421933  0.18388450  1.0
  Ni  Ni444  1  0.36489467  0.31755267  0.18388450  1.0
  Ni  Ni445  1  0.36489467  0.65088600  0.18388450  1.0
  Ni  Ni446  1  0.36489467  0.98421933  0.18388450  1.0
  Ni  Ni447  1  0.69822800  0.31755267  0.18388450  1.0
  Ni  Ni448  1  0.69822800  0.65088600  0.18388450  1.0
  Ni  Ni449  1  0.69822800  0.98421933  0.18388450  1.0
  Ni  Ni450  1  0.21517600  0.05907867  0.16852325  1.0
  Ni  Ni451  1  0.21517600  0.39241200  0.16852325  1.0
  Ni  Ni452  1  0.21517600  0.72574533  0.16852325  1.0
  Ni  Ni453  1  0.54850933  0.05907867  0.16852325  1.0
  Ni  Ni454  1  0.54850933  0.39241200  0.16852325  1.0
  Ni  Ni455  1  0.54850933  0.72574533  0.16852325  1.0
  Ni  Ni456  1  0.88184267  0.05907867  0.16852325  1.0
  Ni  Ni457  1  0.88184267  0.39241200  0.16852325  1.0
  Ni  Ni458  1  0.88184267  0.72574533  0.16852325  1.0
  Ni  Ni459  1  0.21517600  0.22574533  0.23102325  1.0
  Ni  Ni460  1  0.21517600  0.55907867  0.23102325  1.0
  Ni  Ni461  1  0.21517600  0.89241200  0.23102325  1.0
  Ni  Ni462  1  0.54850933  0.22574533  0.23102325  1.0
  Ni  Ni463  1  0.54850933  0.55907867  0.23102325  1.0
  Ni  Ni464  1  0.54850933  0.89241200  0.23102325  1.0
  Ni  Ni465  1  0.88184267  0.22574533  0.23102325  1.0
  Ni  Ni466  1  0.88184267  0.55907867  0.23102325  1.0
  Ni  Ni467  1  0.88184267  0.89241200  0.23102325  1.0
  Ni  Ni468  1  0.21517600  0.15088600  0.19024000  1.0
  Ni  Ni469  1  0.21517600  0.48421933  0.19024000  1.0
  Ni  Ni470  1  0.21517600  0.81755267  0.19024000  1.0
  Ni  Ni471  1  0.54850933  0.15088600  0.19024000  1.0
  Ni  Ni472  1  0.54850933  0.48421933  0.19024000  1.0
  Ni  Ni473  1  0.54850933  0.81755267  0.19024000  1.0
  Ni  Ni474  1  0.88184267  0.15088600  0.19024000  1.0
  Ni  Ni475  1  0.88184267  0.48421933  0.19024000  1.0
  Ni  Ni476  1  0.88184267  0.81755267  0.19024000  1.0
  Ni  Ni477  1  0.21517600  0.31755267  0.12774000  1.0
  Ni  Ni478  1  0.21517600  0.65088600  0.12774000  1.0
  Ni  Ni479  1  0.21517600  0.98421933  0.12774000  1.0
  Ni  Ni480  1  0.54850933  0.31755267  0.12774000  1.0
  Ni  Ni481  1  0.54850933  0.65088600  0.12774000  1.0
  Ni  Ni482  1  0.54850933  0.98421933  0.12774000  1.0
  Ni  Ni483  1  0.88184267  0.31755267  0.12774000  1.0
  Ni  Ni484  1  0.88184267  0.65088600  0.12774000  1.0
  Ni  Ni485  1  0.88184267  0.98421933  0.12774000  1.0
  Ni  Ni486  1  0.03156133  0.05907867  0.22466775  1.0
  Ni  Ni487  1  0.03156133  0.39241200  0.22466775  1.0
  Ni  Ni488  1  0.03156133  0.72574533  0.22466775  1.0
  Ni  Ni489  1  0.36489467  0.05907867  0.22466775  1.0
  Ni  Ni490  1  0.36489467  0.39241200  0.22466775  1.0
  Ni  Ni491  1  0.36489467  0.72574533  0.22466775  1.0
  Ni  Ni492  1  0.69822800  0.05907867  0.22466775  1.0
  Ni  Ni493  1  0.69822800  0.39241200  0.22466775  1.0
  Ni  Ni494  1  0.69822800  0.72574533  0.22466775  1.0
  Ni  Ni495  1  0.03156133  0.22574533  0.16216775  1.0
  Ni  Ni496  1  0.03156133  0.55907867  0.16216775  1.0
  Ni  Ni497  1  0.03156133  0.89241200  0.16216775  1.0
  Ni  Ni498  1  0.36489467  0.22574533  0.16216775  1.0
  Ni  Ni499  1  0.36489467  0.55907867  0.16216775  1.0
  Ni  Ni500  1  0.36489467  0.89241200  0.16216775  1.0
  Ni  Ni501  1  0.69822800  0.22574533  0.16216775  1.0
  Ni  Ni502  1  0.69822800  0.55907867  0.16216775  1.0
  Ni  Ni503  1  0.69822800  0.89241200  0.16216775  1.0
  Ni  Ni504  1  0.30177200  0.01578067  0.18476000  1.0
  Ni  Ni505  1  0.30177200  0.34911400  0.18476000  1.0
  Ni  Ni506  1  0.30177200  0.68244733  0.18476000  1.0
  Ni  Ni507  1  0.63510533  0.01578067  0.18476000  1.0
  Ni  Ni508  1  0.63510533  0.34911400  0.18476000  1.0
  Ni  Ni509  1  0.63510533  0.68244733  0.18476000  1.0
  Ni  Ni510  1  0.96843867  0.01578067  0.18476000  1.0
  Ni  Ni511  1  0.96843867  0.34911400  0.18476000  1.0
  Ni  Ni512  1  0.96843867  0.68244733  0.18476000  1.0
  Ni  Ni513  1  0.30177200  0.18244733  0.24726000  1.0
  Ni  Ni514  1  0.30177200  0.51578067  0.24726000  1.0
  Ni  Ni515  1  0.30177200  0.84911400  0.24726000  1.0
  Ni  Ni516  1  0.63510533  0.18244733  0.24726000  1.0
  Ni  Ni517  1  0.63510533  0.51578067  0.24726000  1.0
  Ni  Ni518  1  0.63510533  0.84911400  0.24726000  1.0
  Ni  Ni519  1  0.96843867  0.18244733  0.24726000  1.0
  Ni  Ni520  1  0.96843867  0.51578067  0.24726000  1.0
  Ni  Ni521  1  0.96843867  0.84911400  0.24726000  1.0
  Ni  Ni522  1  0.11815733  0.10758800  0.13762125  1.0
  Ni  Ni523  1  0.11815733  0.44092133  0.13762125  1.0
  Ni  Ni524  1  0.11815733  0.77425467  0.13762125  1.0
  Ni  Ni525  1  0.45149067  0.10758800  0.13762125  1.0
  Ni  Ni526  1  0.45149067  0.44092133  0.13762125  1.0
  Ni  Ni527  1  0.45149067  0.77425467  0.13762125  1.0
  Ni  Ni528  1  0.78482400  0.10758800  0.13762125  1.0
  Ni  Ni529  1  0.78482400  0.44092133  0.13762125  1.0
  Ni  Ni530  1  0.78482400  0.77425467  0.13762125  1.0
  Ni  Ni531  1  0.11815733  0.27425467  0.20012125  1.0
  Ni  Ni532  1  0.11815733  0.60758800  0.20012125  1.0
  Ni  Ni533  1  0.11815733  0.94092133  0.20012125  1.0
  Ni  Ni534  1  0.45149067  0.27425467  0.20012125  1.0
  Ni  Ni535  1  0.45149067  0.60758800  0.20012125  1.0
  Ni  Ni536  1  0.45149067  0.94092133  0.20012125  1.0
  Ni  Ni537  1  0.78482400  0.27425467  0.20012125  1.0
  Ni  Ni538  1  0.78482400  0.60758800  0.20012125  1.0
  Ni  Ni539  1  0.78482400  0.94092133  0.20012125  1.0
  Ni  Ni540  1  0.11815733  0.01578067  0.24090450  1.0
  Ni  Ni541  1  0.11815733  0.34911400  0.24090450  1.0
  Ni  Ni542  1  0.11815733  0.68244733  0.24090450  1.0
  Ni  Ni543  1  0.45149067  0.01578067  0.24090450  1.0
  Ni  Ni544  1  0.45149067  0.34911400  0.24090450  1.0
  Ni  Ni545  1  0.45149067  0.68244733  0.24090450  1.0
  Ni  Ni546  1  0.78482400  0.01578067  0.24090450  1.0
  Ni  Ni547  1  0.78482400  0.34911400  0.24090450  1.0
  Ni  Ni548  1  0.78482400  0.68244733  0.24090450  1.0
  Ni  Ni549  1  0.11815733  0.18244733  0.17840450  1.0
  Ni  Ni550  1  0.11815733  0.51578067  0.17840450  1.0
  Ni  Ni551  1  0.11815733  0.84911400  0.17840450  1.0
  Ni  Ni552  1  0.45149067  0.18244733  0.17840450  1.0
  Ni  Ni553  1  0.45149067  0.51578067  0.17840450  1.0
  Ni  Ni554  1  0.45149067  0.84911400  0.17840450  1.0
  Ni  Ni555  1  0.78482400  0.18244733  0.17840450  1.0
  Ni  Ni556  1  0.78482400  0.51578067  0.17840450  1.0
  Ni  Ni557  1  0.78482400  0.84911400  0.17840450  1.0
  Ni  Ni558  1  0.30177200  0.10758800  0.20647675  1.0
  Ni  Ni559  1  0.30177200  0.44092133  0.20647675  1.0
  Ni  Ni560  1  0.30177200  0.77425467  0.20647675  1.0
  Ni  Ni561  1  0.63510533  0.10758800  0.20647675  1.0
  Ni  Ni562  1  0.63510533  0.44092133  0.20647675  1.0
  Ni  Ni563  1  0.63510533  0.77425467  0.20647675  1.0
  Ni  Ni564  1  0.96843867  0.10758800  0.20647675  1.0
  Ni  Ni565  1  0.96843867  0.44092133  0.20647675  1.0
  Ni  Ni566  1  0.96843867  0.77425467  0.20647675  1.0
  Ni  Ni567  1  0.30177200  0.27425467  0.14397675  1.0
  Ni  Ni568  1  0.30177200  0.60758800  0.14397675  1.0
  Ni  Ni569  1  0.30177200  0.94092133  0.14397675  1.0
  Ni  Ni570  1  0.63510533  0.27425467  0.14397675  1.0
  Ni  Ni571  1  0.63510533  0.60758800  0.14397675  1.0
  Ni  Ni572  1  0.63510533  0.94092133  0.14397675  1.0
  Ni  Ni573  1  0.96843867  0.27425467  0.14397675  1.0
  Ni  Ni574  1  0.96843867  0.60758800  0.14397675  1.0
  Ni  Ni575  1  0.96843867  0.94092133  0.14397675  1.0
  Ti  Ti576  1  0.24272000  0.04530667  0.35483225  1.0
  Ti  Ti577  1  0.24272000  0.37864000  0.35483225  1.0
  Ti  Ti578  1  0.24272000  0.71197333  0.35483225  1.0
  Ti  Ti579  1  0.57605333  0.04530667  0.35483225  1.0
  Ti  Ti580  1  0.57605333  0.37864000  0.35483225  1.0
  Ti  Ti581  1  0.57605333  0.71197333  0.35483225  1.0
  Ti  Ti582  1  0.90938667  0.04530667  0.35483225  1.0
  Ti  Ti583  1  0.90938667  0.37864000  0.35483225  1.0
  Ti  Ti584  1  0.90938667  0.71197333  0.35483225  1.0
  Ti  Ti585  1  0.24272000  0.21197333  0.29233225  1.0
  Ti  Ti586  1  0.24272000  0.54530667  0.29233225  1.0
  Ti  Ti587  1  0.24272000  0.87864000  0.29233225  1.0
  Ti  Ti588  1  0.57605333  0.21197333  0.29233225  1.0
  Ti  Ti589  1  0.57605333  0.54530667  0.29233225  1.0
  Ti  Ti590  1  0.57605333  0.87864000  0.29233225  1.0
  Ti  Ti591  1  0.90938667  0.21197333  0.29233225  1.0
  Ti  Ti592  1  0.90938667  0.54530667  0.29233225  1.0
  Ti  Ti593  1  0.90938667  0.87864000  0.29233225  1.0
  Ti  Ti594  1  0.09061333  0.12136000  0.32631225  1.0
  Ti  Ti595  1  0.09061333  0.45469333  0.32631225  1.0
  Ti  Ti596  1  0.09061333  0.78802667  0.32631225  1.0
  Ti  Ti597  1  0.42394667  0.12136000  0.32631225  1.0
  Ti  Ti598  1  0.42394667  0.45469333  0.32631225  1.0
  Ti  Ti599  1  0.42394667  0.78802667  0.32631225  1.0
  Ti  Ti600  1  0.75728000  0.12136000  0.32631225  1.0
  Ti  Ti601  1  0.75728000  0.45469333  0.32631225  1.0
  Ti  Ti602  1  0.75728000  0.78802667  0.32631225  1.0
  Ti  Ti603  1  0.09061333  0.28802667  0.26381225  1.0
  Ti  Ti604  1  0.09061333  0.62136000  0.26381225  1.0
  Ti  Ti605  1  0.09061333  0.95469333  0.26381225  1.0
  Ti  Ti606  1  0.42394667  0.28802667  0.26381225  1.0
  Ti  Ti607  1  0.42394667  0.62136000  0.26381225  1.0
  Ti  Ti608  1  0.42394667  0.95469333  0.26381225  1.0
  Ti  Ti609  1  0.75728000  0.28802667  0.26381225  1.0
  Ti  Ti610  1  0.75728000  0.62136000  0.26381225  1.0
  Ti  Ti611  1  0.75728000  0.95469333  0.26381225  1.0
  Ti  Ti612  1  0.08333333  0.04166667  0.29369725  1.0
  Ti  Ti613  1  0.08333333  0.37500000  0.29369725  1.0
  Ti  Ti614  1  0.08333333  0.70833333  0.29369725  1.0
  Ti  Ti615  1  0.41666667  0.04166667  0.29369725  1.0
  Ti  Ti616  1  0.41666667  0.37500000  0.29369725  1.0
  Ti  Ti617  1  0.41666667  0.70833333  0.29369725  1.0
  Ti  Ti618  1  0.75000000  0.04166667  0.29369725  1.0
  Ti  Ti619  1  0.75000000  0.37500000  0.29369725  1.0
  Ti  Ti620  1  0.75000000  0.70833333  0.29369725  1.0
  Ti  Ti621  1  0.08333333  0.20833333  0.35619725  1.0
  Ti  Ti622  1  0.08333333  0.54166667  0.35619725  1.0
  Ti  Ti623  1  0.08333333  0.87500000  0.35619725  1.0
  Ti  Ti624  1  0.41666667  0.20833333  0.35619725  1.0
  Ti  Ti625  1  0.41666667  0.54166667  0.35619725  1.0
  Ti  Ti626  1  0.41666667  0.87500000  0.35619725  1.0
  Ti  Ti627  1  0.75000000  0.20833333  0.35619725  1.0
  Ti  Ti628  1  0.75000000  0.54166667  0.35619725  1.0
  Ti  Ti629  1  0.75000000  0.87500000  0.35619725  1.0
  Ti  Ti630  1  0.25000000  0.12500000  0.26244725  1.0
  Ti  Ti631  1  0.25000000  0.45833333  0.26244725  1.0
  Ti  Ti632  1  0.25000000  0.79166667  0.26244725  1.0
  Ti  Ti633  1  0.58333333  0.12500000  0.26244725  1.0
  Ti  Ti634  1  0.58333333  0.45833333  0.26244725  1.0
  Ti  Ti635  1  0.58333333  0.79166667  0.26244725  1.0
  Ti  Ti636  1  0.91666667  0.12500000  0.26244725  1.0
  Ti  Ti637  1  0.91666667  0.45833333  0.26244725  1.0
  Ti  Ti638  1  0.91666667  0.79166667  0.26244725  1.0
  Ti  Ti639  1  0.25000000  0.29166667  0.32494725  1.0
  Ti  Ti640  1  0.25000000  0.62500000  0.32494725  1.0
  Ti  Ti641  1  0.25000000  0.95833333  0.32494725  1.0
  Ti  Ti642  1  0.58333333  0.29166667  0.32494725  1.0
  Ti  Ti643  1  0.58333333  0.62500000  0.32494725  1.0
  Ti  Ti644  1  0.58333333  0.95833333  0.32494725  1.0
  Ti  Ti645  1  0.91666667  0.29166667  0.32494725  1.0
  Ti  Ti646  1  0.91666667  0.62500000  0.32494725  1.0
  Ti  Ti647  1  0.91666667  0.95833333  0.32494725  1.0
  Ti  Ti648  1  0.16666667  0.16666667  0.37182225  1.0
  Ti  Ti649  1  0.16666667  0.50000000  0.37182225  1.0
  Ti  Ti650  1  0.16666667  0.83333333  0.37182225  1.0
  Ti  Ti651  1  0.50000000  0.16666667  0.37182225  1.0
  Ti  Ti652  1  0.50000000  0.50000000  0.37182225  1.0
  Ti  Ti653  1  0.50000000  0.83333333  0.37182225  1.0
  Ti  Ti654  1  0.83333333  0.16666667  0.37182225  1.0
  Ti  Ti655  1  0.83333333  0.50000000  0.37182225  1.0
  Ti  Ti656  1  0.83333333  0.83333333  0.37182225  1.0
  Ti  Ti657  1  0.16666667  0.00000000  0.30932225  1.0
  Ti  Ti658  1  0.16666667  0.33333333  0.30932225  1.0
  Ti  Ti659  1  0.16666667  0.66666667  0.30932225  1.0
  Ti  Ti660  1  0.50000000  0.00000000  0.30932225  1.0
  Ti  Ti661  1  0.50000000  0.33333333  0.30932225  1.0
  Ti  Ti662  1  0.50000000  0.66666667  0.30932225  1.0
  Ti  Ti663  1  0.83333333  0.00000000  0.30932225  1.0
  Ti  Ti664  1  0.83333333  0.33333333  0.30932225  1.0
  Ti  Ti665  1  0.83333333  0.66666667  0.30932225  1.0
  Ti  Ti666  1  0.00000000  0.08333333  0.27807225  1.0
  Ti  Ti667  1  0.00000000  0.41666667  0.27807225  1.0
  Ti  Ti668  1  0.00000000  0.75000000  0.27807225  1.0
  Ti  Ti669  1  0.33333333  0.08333333  0.27807225  1.0
  Ti  Ti670  1  0.33333333  0.41666667  0.27807225  1.0
  Ti  Ti671  1  0.33333333  0.75000000  0.27807225  1.0
  Ti  Ti672  1  0.66666667  0.08333333  0.27807225  1.0
  Ti  Ti673  1  0.66666667  0.41666667  0.27807225  1.0
  Ti  Ti674  1  0.66666667  0.75000000  0.27807225  1.0
  Ti  Ti675  1  0.00000000  0.25000000  0.34057225  1.0
  Ti  Ti676  1  0.00000000  0.58333333  0.34057225  1.0
  Ti  Ti677  1  0.00000000  0.91666667  0.34057225  1.0
  Ti  Ti678  1  0.33333333  0.25000000  0.34057225  1.0
  Ti  Ti679  1  0.33333333  0.58333333  0.34057225  1.0
  Ti  Ti680  1  0.33333333  0.91666667  0.34057225  1.0
  Ti  Ti681  1  0.66666667  0.25000000  0.34057225  1.0
  Ti  Ti682  1  0.66666667  0.58333333  0.34057225  1.0
  Ti  Ti683  1  0.66666667  0.91666667  0.34057225  1.0
  Ti  Ti684  1  0.16666667  0.08333333  0.34057225  1.0
  Ti  Ti685  1  0.16666667  0.41666667  0.34057225  1.0
  Ti  Ti686  1  0.16666667  0.75000000  0.34057225  1.0
  Ti  Ti687  1  0.50000000  0.08333333  0.34057225  1.0
  Ti  Ti688  1  0.50000000  0.41666667  0.34057225  1.0
  Ti  Ti689  1  0.50000000  0.75000000  0.34057225  1.0
  Ti  Ti690  1  0.83333333  0.08333333  0.34057225  1.0
  Ti  Ti691  1  0.83333333  0.41666667  0.34057225  1.0
  Ti  Ti692  1  0.83333333  0.75000000  0.34057225  1.0
  Ti  Ti693  1  0.16666667  0.25000000  0.27807225  1.0
  Ti  Ti694  1  0.16666667  0.58333333  0.27807225  1.0
  Ti  Ti695  1  0.16666667  0.91666667  0.27807225  1.0
  Ti  Ti696  1  0.50000000  0.25000000  0.27807225  1.0
  Ti  Ti697  1  0.50000000  0.58333333  0.27807225  1.0
  Ti  Ti698  1  0.50000000  0.91666667  0.27807225  1.0
  Ti  Ti699  1  0.83333333  0.25000000  0.27807225  1.0
  Ti  Ti700  1  0.83333333  0.58333333  0.27807225  1.0
  Ti  Ti701  1  0.83333333  0.91666667  0.27807225  1.0
  Ti  Ti702  1  0.00000000  0.16666667  0.30932225  1.0
  Ti  Ti703  1  0.00000000  0.50000000  0.30932225  1.0
  Ti  Ti704  1  0.00000000  0.83333333  0.30932225  1.0
  Ti  Ti705  1  0.33333333  0.16666667  0.30932225  1.0
  Ti  Ti706  1  0.33333333  0.50000000  0.30932225  1.0
  Ti  Ti707  1  0.33333333  0.83333333  0.30932225  1.0
  Ti  Ti708  1  0.66666667  0.16666667  0.30932225  1.0
  Ti  Ti709  1  0.66666667  0.50000000  0.30932225  1.0
  Ti  Ti710  1  0.66666667  0.83333333  0.30932225  1.0
  Ti  Ti711  1  0.00000000  0.00000000  0.37182225  1.0
  Ti  Ti712  1  0.00000000  0.33333333  0.37182225  1.0
  Ti  Ti713  1  0.00000000  0.66666667  0.37182225  1.0
  Ti  Ti714  1  0.33333333  0.00000000  0.37182225  1.0
  Ti  Ti715  1  0.33333333  0.33333333  0.37182225  1.0
  Ti  Ti716  1  0.33333333  0.66666667  0.37182225  1.0
  Ti  Ti717  1  0.66666667  0.00000000  0.37182225  1.0
  Ti  Ti718  1  0.66666667  0.33333333  0.37182225  1.0
  Ti  Ti719  1  0.66666667  0.66666667  0.37182225  1.0
  Ni  Ni720  1  0.03156133  0.15088600  0.37138450  1.0
  Ni  Ni721  1  0.03156133  0.48421933  0.37138450  1.0
  Ni  Ni722  1  0.03156133  0.81755267  0.37138450  1.0
  Ni  Ni723  1  0.36489467  0.15088600  0.37138450  1.0
  Ni  Ni724  1  0.36489467  0.48421933  0.37138450  1.0
  Ni  Ni725  1  0.36489467  0.81755267  0.37138450  1.0
  Ni  Ni726  1  0.69822800  0.15088600  0.37138450  1.0
  Ni  Ni727  1  0.69822800  0.48421933  0.37138450  1.0
  Ni  Ni728  1  0.69822800  0.81755267  0.37138450  1.0
  Ni  Ni729  1  0.03156133  0.31755267  0.30888450  1.0
  Ni  Ni730  1  0.03156133  0.65088600  0.30888450  1.0
  Ni  Ni731  1  0.03156133  0.98421933  0.30888450  1.0
  Ni  Ni732  1  0.36489467  0.31755267  0.30888450  1.0
  Ni  Ni733  1  0.36489467  0.65088600  0.30888450  1.0
  Ni  Ni734  1  0.36489467  0.98421933  0.30888450  1.0
  Ni  Ni735  1  0.69822800  0.31755267  0.30888450  1.0
  Ni  Ni736  1  0.69822800  0.65088600  0.30888450  1.0
  Ni  Ni737  1  0.69822800  0.98421933  0.30888450  1.0
  Ni  Ni738  1  0.21517600  0.05907867  0.29352325  1.0
  Ni  Ni739  1  0.21517600  0.39241200  0.29352325  1.0
  Ni  Ni740  1  0.21517600  0.72574533  0.29352325  1.0
  Ni  Ni741  1  0.54850933  0.05907867  0.29352325  1.0
  Ni  Ni742  1  0.54850933  0.39241200  0.29352325  1.0
  Ni  Ni743  1  0.54850933  0.72574533  0.29352325  1.0
  Ni  Ni744  1  0.88184267  0.05907867  0.29352325  1.0
  Ni  Ni745  1  0.88184267  0.39241200  0.29352325  1.0
  Ni  Ni746  1  0.88184267  0.72574533  0.29352325  1.0
  Ni  Ni747  1  0.21517600  0.22574533  0.35602325  1.0
  Ni  Ni748  1  0.21517600  0.55907867  0.35602325  1.0
  Ni  Ni749  1  0.21517600  0.89241200  0.35602325  1.0
  Ni  Ni750  1  0.54850933  0.22574533  0.35602325  1.0
  Ni  Ni751  1  0.54850933  0.55907867  0.35602325  1.0
  Ni  Ni752  1  0.54850933  0.89241200  0.35602325  1.0
  Ni  Ni753  1  0.88184267  0.22574533  0.35602325  1.0
  Ni  Ni754  1  0.88184267  0.55907867  0.35602325  1.0
  Ni  Ni755  1  0.88184267  0.89241200  0.35602325  1.0
  Ni  Ni756  1  0.21517600  0.15088600  0.31524000  1.0
  Ni  Ni757  1  0.21517600  0.48421933  0.31524000  1.0
  Ni  Ni758  1  0.21517600  0.81755267  0.31524000  1.0
  Ni  Ni759  1  0.54850933  0.15088600  0.31524000  1.0
  Ni  Ni760  1  0.54850933  0.48421933  0.31524000  1.0
  Ni  Ni761  1  0.54850933  0.81755267  0.31524000  1.0
  Ni  Ni762  1  0.88184267  0.15088600  0.31524000  1.0
  Ni  Ni763  1  0.88184267  0.48421933  0.31524000  1.0
  Ni  Ni764  1  0.88184267  0.81755267  0.31524000  1.0
  Ni  Ni765  1  0.21517600  0.31755267  0.25274000  1.0
  Ni  Ni766  1  0.21517600  0.65088600  0.25274000  1.0
  Ni  Ni767  1  0.21517600  0.98421933  0.25274000  1.0
  Ni  Ni768  1  0.54850933  0.31755267  0.25274000  1.0
  Ni  Ni769  1  0.54850933  0.65088600  0.25274000  1.0
  Ni  Ni770  1  0.54850933  0.98421933  0.25274000  1.0
  Ni  Ni771  1  0.88184267  0.31755267  0.25274000  1.0
  Ni  Ni772  1  0.88184267  0.65088600  0.25274000  1.0
  Ni  Ni773  1  0.88184267  0.98421933  0.25274000  1.0
  Ni  Ni774  1  0.03156133  0.05907867  0.34966775  1.0
  Ni  Ni775  1  0.03156133  0.39241200  0.34966775  1.0
  Ni  Ni776  1  0.03156133  0.72574533  0.34966775  1.0
  Ni  Ni777  1  0.36489467  0.05907867  0.34966775  1.0
  Ni  Ni778  1  0.36489467  0.39241200  0.34966775  1.0
  Ni  Ni779  1  0.36489467  0.72574533  0.34966775  1.0
  Ni  Ni780  1  0.69822800  0.05907867  0.34966775  1.0
  Ni  Ni781  1  0.69822800  0.39241200  0.34966775  1.0
  Ni  Ni782  1  0.69822800  0.72574533  0.34966775  1.0
  Ni  Ni783  1  0.03156133  0.22574533  0.28716775  1.0
  Ni  Ni784  1  0.03156133  0.55907867  0.28716775  1.0
  Ni  Ni785  1  0.03156133  0.89241200  0.28716775  1.0
  Ni  Ni786  1  0.36489467  0.22574533  0.28716775  1.0
  Ni  Ni787  1  0.36489467  0.55907867  0.28716775  1.0
  Ni  Ni788  1  0.36489467  0.89241200  0.28716775  1.0
  Ni  Ni789  1  0.69822800  0.22574533  0.28716775  1.0
  Ni  Ni790  1  0.69822800  0.55907867  0.28716775  1.0
  Ni  Ni791  1  0.69822800  0.89241200  0.28716775  1.0
  Ni  Ni792  1  0.30177200  0.01578067  0.30976000  1.0
  Ni  Ni793  1  0.30177200  0.34911400  0.30976000  1.0
  Ni  Ni794  1  0.30177200  0.68244733  0.30976000  1.0
  Ni  Ni795  1  0.63510533  0.01578067  0.30976000  1.0
  Ni  Ni796  1  0.63510533  0.34911400  0.30976000  1.0
  Ni  Ni797  1  0.63510533  0.68244733  0.30976000  1.0
  Ni  Ni798  1  0.96843867  0.01578067  0.30976000  1.0
  Ni  Ni799  1  0.96843867  0.34911400  0.30976000  1.0
  Ni  Ni800  1  0.96843867  0.68244733  0.30976000  1.0
  Ni  Ni801  1  0.30177200  0.18244733  0.37226000  1.0
  Ni  Ni802  1  0.30177200  0.51578067  0.37226000  1.0
  Ni  Ni803  1  0.30177200  0.84911400  0.37226000  1.0
  Ni  Ni804  1  0.63510533  0.18244733  0.37226000  1.0
  Ni  Ni805  1  0.63510533  0.51578067  0.37226000  1.0
  Ni  Ni806  1  0.63510533  0.84911400  0.37226000  1.0
  Ni  Ni807  1  0.96843867  0.18244733  0.37226000  1.0
  Ni  Ni808  1  0.96843867  0.51578067  0.37226000  1.0
  Ni  Ni809  1  0.96843867  0.84911400  0.37226000  1.0
  Ni  Ni810  1  0.11815733  0.10758800  0.26262125  1.0
  Ni  Ni811  1  0.11815733  0.44092133  0.26262125  1.0
  Ni  Ni812  1  0.11815733  0.77425467  0.26262125  1.0
  Ni  Ni813  1  0.45149067  0.10758800  0.26262125  1.0
  Ni  Ni814  1  0.45149067  0.44092133  0.26262125  1.0
  Ni  Ni815  1  0.45149067  0.77425467  0.26262125  1.0
  Ni  Ni816  1  0.78482400  0.10758800  0.26262125  1.0
  Ni  Ni817  1  0.78482400  0.44092133  0.26262125  1.0
  Ni  Ni818  1  0.78482400  0.77425467  0.26262125  1.0
  Ni  Ni819  1  0.11815733  0.27425467  0.32512125  1.0
  Ni  Ni820  1  0.11815733  0.60758800  0.32512125  1.0
  Ni  Ni821  1  0.11815733  0.94092133  0.32512125  1.0
  Ni  Ni822  1  0.45149067  0.27425467  0.32512125  1.0
  Ni  Ni823  1  0.45149067  0.60758800  0.32512125  1.0
  Ni  Ni824  1  0.45149067  0.94092133  0.32512125  1.0
  Ni  Ni825  1  0.78482400  0.27425467  0.32512125  1.0
  Ni  Ni826  1  0.78482400  0.60758800  0.32512125  1.0
  Ni  Ni827  1  0.78482400  0.94092133  0.32512125  1.0
  Ni  Ni828  1  0.11815733  0.01578067  0.36590450  1.0
  Ni  Ni829  1  0.11815733  0.34911400  0.36590450  1.0
  Ni  Ni830  1  0.11815733  0.68244733  0.36590450  1.0
  Ni  Ni831  1  0.45149067  0.01578067  0.36590450  1.0
  Ni  Ni832  1  0.45149067  0.34911400  0.36590450  1.0
  Ni  Ni833  1  0.45149067  0.68244733  0.36590450  1.0
  Ni  Ni834  1  0.78482400  0.01578067  0.36590450  1.0
  Ni  Ni835  1  0.78482400  0.34911400  0.36590450  1.0
  Ni  Ni836  1  0.78482400  0.68244733  0.36590450  1.0
  Ni  Ni837  1  0.11815733  0.18244733  0.30340450  1.0
  Ni  Ni838  1  0.11815733  0.51578067  0.30340450  1.0
  Ni  Ni839  1  0.11815733  0.84911400  0.30340450  1.0
  Ni  Ni840  1  0.45149067  0.18244733  0.30340450  1.0
  Ni  Ni841  1  0.45149067  0.51578067  0.30340450  1.0
  Ni  Ni842  1  0.45149067  0.84911400  0.30340450  1.0
  Ni  Ni843  1  0.78482400  0.18244733  0.30340450  1.0
  Ni  Ni844  1  0.78482400  0.51578067  0.30340450  1.0
  Ni  Ni845  1  0.78482400  0.84911400  0.30340450  1.0
  Ni  Ni846  1  0.30177200  0.10758800  0.33147675  1.0
  Ni  Ni847  1  0.30177200  0.44092133  0.33147675  1.0
  Ni  Ni848  1  0.30177200  0.77425467  0.33147675  1.0
  Ni  Ni849  1  0.63510533  0.10758800  0.33147675  1.0
  Ni  Ni850  1  0.63510533  0.44092133  0.33147675  1.0
  Ni  Ni851  1  0.63510533  0.77425467  0.33147675  1.0
  Ni  Ni852  1  0.96843867  0.10758800  0.33147675  1.0
  Ni  Ni853  1  0.96843867  0.44092133  0.33147675  1.0
  Ni  Ni854  1  0.96843867  0.77425467  0.33147675  1.0
  Ni  Ni855  1  0.30177200  0.27425467  0.26897675  1.0
  Ni  Ni856  1  0.30177200  0.60758800  0.26897675  1.0
  Ni  Ni857  1  0.30177200  0.94092133  0.26897675  1.0
  Ni  Ni858  1  0.63510533  0.27425467  0.26897675  1.0
  Ni  Ni859  1  0.63510533  0.60758800  0.26897675  1.0
  Ni  Ni860  1  0.63510533  0.94092133  0.26897675  1.0
  Ni  Ni861  1  0.96843867  0.27425467  0.26897675  1.0
  Ni  Ni862  1  0.96843867  0.60758800  0.26897675  1.0
  Ni  Ni863  1  0.96843867  0.94092133  0.26897675  1.0
