# generated using pymatgen
data_TiNi
_symmetry_space_group_name_H-M   'P 1'
_cell_length_a   27.10720514
_cell_length_b   39.00472307
_cell_length_c   30.73841296
_cell_angle_alpha   83.74948942
_cell_angle_beta   82.78471907
_cell_angle_gamma   74.18938035
_symmetry_Int_Tables_number   1
_chemical_formula_structural   TiNi
_chemical_formula_sum   'Ti486 Ni486'
_cell_volume   30927.79586445
_cell_formula_units_Z   486
loop_
 _symmetry_equiv_pos_site_id
 _symmetry_equiv_pos_as_xyz
  1  'x, y, z'
loop_
 _atom_site_type_symbol
 _atom_site_label
 _atom_site_symmetry_multiplicity
 _atom_site_fract_x
 _atom_site_fract_y
 _atom_site_fract_z
 _atom_site_occupancy
  Ni  Ni0  1  0.10420388  0.19168334  0.99309277  1.0
  Ni  Ni1  1  0.10420388  0.52501667  0.99309277  1.0
  Ni  Ni2  1  0.10420388  0.85835000  0.99309277  1.0
  Ni  Ni3  1  0.43753722  0.19168334  0.99309277  1.0
  Ni  Ni4  1  0.43753722  0.52501667  0.99309277  1.0
  Ni  Ni5  1  0.43753722  0.85835000  0.99309277  1.0
  Ni  Ni6  1  0.77087055  0.19168334  0.99309277  1.0
  Ni  Ni7  1  0.77087055  0.52501667  0.99309277  1.0
  Ni  Ni8  1  0.77087055  0.85835000  0.99309277  1.0
  Ni  Ni9  1  0.03277531  0.09644524  0.92166420  1.0
  Ni  Ni10  1  0.03277531  0.42977858  0.92166420  1.0
  Ni  Ni11  1  0.03277531  0.76311191  0.92166420  1.0
  Ni  Ni12  1  0.36610865  0.09644524  0.92166420  1.0
  Ni  Ni13  1  0.36610865  0.42977858  0.92166420  1.0
  Ni  Ni14  1  0.36610865  0.76311191  0.92166420  1.0
  Ni  Ni15  1  0.69944198  0.09644524  0.92166420  1.0
  Ni  Ni16  1  0.69944198  0.42977858  0.92166420  1.0
  Ni  Ni17  1  0.69944198  0.76311191  0.92166420  1.0
  Ni  Ni18  1  0.31501430  0.28757870  0.98168096  1.0
  Ni  Ni19  1  0.31501430  0.62091204  0.98168096  1.0
  Ni  Ni20  1  0.31501430  0.95424537  0.98168096  1.0
  Ni  Ni21  1  0.64834763  0.28757870  0.98168096  1.0
  Ni  Ni22  1  0.64834763  0.62091204  0.98168096  1.0
  Ni  Ni23  1  0.64834763  0.95424537  0.98168096  1.0
  Ni  Ni24  1  0.98168096  0.28757870  0.98168096  1.0
  Ni  Ni25  1  0.98168096  0.62091204  0.98168096  1.0
  Ni  Ni26  1  0.98168096  0.95424537  0.98168096  1.0
  Ni  Ni27  1  0.24358573  0.19234061  0.91025239  1.0
  Ni  Ni28  1  0.24358573  0.52567394  0.91025239  1.0
  Ni  Ni29  1  0.24358573  0.85900727  0.91025239  1.0
  Ni  Ni30  1  0.57691906  0.19234061  0.91025239  1.0
  Ni  Ni31  1  0.57691906  0.52567394  0.91025239  1.0
  Ni  Ni32  1  0.57691906  0.85900727  0.91025239  1.0
  Ni  Ni33  1  0.91025239  0.19234061  0.91025239  1.0
  Ni  Ni34  1  0.91025239  0.52567394  0.91025239  1.0
  Ni  Ni35  1  0.91025239  0.85900727  0.91025239  1.0
  Ni  Ni36  1  0.09626738  0.25517540  0.87404515  1.0
  Ni  Ni37  1  0.09626738  0.58850873  0.87404515  1.0
  Ni  Ni38  1  0.09626738  0.92184207  0.87404515  1.0
  Ni  Ni39  1  0.42960071  0.25517540  0.87404515  1.0
  Ni  Ni40  1  0.42960071  0.58850873  0.87404515  1.0
  Ni  Ni41  1  0.42960071  0.92184207  0.87404515  1.0
  Ni  Ni42  1  0.76293404  0.25517540  0.87404515  1.0
  Ni  Ni43  1  0.76293404  0.58850873  0.87404515  1.0
  Ni  Ni44  1  0.76293404  0.92184207  0.87404515  1.0
  Ni  Ni45  1  0.16769595  0.01708016  0.94547373  1.0
  Ni  Ni46  1  0.16769595  0.35041350  0.94547373  1.0
  Ni  Ni47  1  0.16769595  0.68374683  0.94547373  1.0
  Ni  Ni48  1  0.50102928  0.01708016  0.94547373  1.0
  Ni  Ni49  1  0.50102928  0.35041350  0.94547373  1.0
  Ni  Ni50  1  0.50102928  0.68374683  0.94547373  1.0
  Ni  Ni51  1  0.83436262  0.01708016  0.94547373  1.0
  Ni  Ni52  1  0.83436262  0.35041350  0.94547373  1.0
  Ni  Ni53  1  0.83436262  0.68374683  0.94547373  1.0
  Ni  Ni54  1  0.18077024  0.24733751  0.95150007  1.0
  Ni  Ni55  1  0.18077024  0.58067085  0.95150007  1.0
  Ni  Ni56  1  0.18077024  0.91400418  0.95150007  1.0
  Ni  Ni57  1  0.51410357  0.24733751  0.95150007  1.0
  Ni  Ni58  1  0.51410357  0.58067085  0.95150007  1.0
  Ni  Ni59  1  0.51410357  0.91400418  0.95150007  1.0
  Ni  Ni60  1  0.84743690  0.24733751  0.95150007  1.0
  Ni  Ni61  1  0.84743690  0.58067085  0.95150007  1.0
  Ni  Ni62  1  0.84743690  0.91400418  0.95150007  1.0
  Ni  Ni63  1  0.10934167  0.15209942  0.88007150  1.0
  Ni  Ni64  1  0.10934167  0.48543275  0.88007150  1.0
  Ni  Ni65  1  0.10934167  0.81876608  0.88007150  1.0
  Ni  Ni66  1  0.44267500  0.15209942  0.88007150  1.0
  Ni  Ni67  1  0.44267500  0.48543275  0.88007150  1.0
  Ni  Ni68  1  0.44267500  0.81876608  0.88007150  1.0
  Ni  Ni69  1  0.77600833  0.15209942  0.88007150  1.0
  Ni  Ni70  1  0.77600833  0.48543275  0.88007150  1.0
  Ni  Ni71  1  0.77600833  0.81876608  0.88007150  1.0
  Ni  Ni72  1  0.03779481  0.32770944  0.93373164  1.0
  Ni  Ni73  1  0.03779481  0.66104277  0.93373164  1.0
  Ni  Ni74  1  0.03779481  0.99437611  0.93373164  1.0
  Ni  Ni75  1  0.37112814  0.32770944  0.93373164  1.0
  Ni  Ni76  1  0.37112814  0.66104277  0.93373164  1.0
  Ni  Ni77  1  0.37112814  0.99437611  0.93373164  1.0
  Ni  Ni78  1  0.70446148  0.32770944  0.93373164  1.0
  Ni  Ni79  1  0.70446148  0.66104277  0.93373164  1.0
  Ni  Ni80  1  0.70446148  0.99437611  0.93373164  1.0
  Ni  Ni81  1  0.29969957  0.23247135  0.86230307  1.0
  Ni  Ni82  1  0.29969957  0.56580468  0.86230307  1.0
  Ni  Ni83  1  0.29969957  0.89913801  0.86230307  1.0
  Ni  Ni84  1  0.63303290  0.23247135  0.86230307  1.0
  Ni  Ni85  1  0.63303290  0.56580468  0.86230307  1.0
  Ni  Ni86  1  0.63303290  0.89913801  0.86230307  1.0
  Ni  Ni87  1  0.96636624  0.23247135  0.86230307  1.0
  Ni  Ni88  1  0.96636624  0.56580468  0.86230307  1.0
  Ni  Ni89  1  0.96636624  0.89913801  0.86230307  1.0
  Ni  Ni90  1  0.23570408  0.07776858  0.90237075  1.0
  Ni  Ni91  1  0.23570408  0.41110192  0.90237075  1.0
  Ni  Ni92  1  0.23570408  0.74443525  0.90237075  1.0
  Ni  Ni93  1  0.56903742  0.07776858  0.90237075  1.0
  Ni  Ni94  1  0.56903742  0.41110192  0.90237075  1.0
  Ni  Ni95  1  0.56903742  0.74443525  0.90237075  1.0
  Ni  Ni96  1  0.90237075  0.07776858  0.90237075  1.0
  Ni  Ni97  1  0.90237075  0.41110192  0.90237075  1.0
  Ni  Ni98  1  0.90237075  0.74443525  0.90237075  1.0
  Ni  Ni99  1  0.30713265  0.17300668  0.97379932  1.0
  Ni  Ni100  1  0.30713265  0.50634001  0.97379932  1.0
  Ni  Ni101  1  0.30713265  0.83967335  0.97379932  1.0
  Ni  Ni102  1  0.64046599  0.17300668  0.97379932  1.0
  Ni  Ni103  1  0.64046599  0.50634001  0.97379932  1.0
  Ni  Ni104  1  0.64046599  0.83967335  0.97379932  1.0
  Ni  Ni105  1  0.97379932  0.17300668  0.97379932  1.0
  Ni  Ni106  1  0.97379932  0.50634001  0.97379932  1.0
  Ni  Ni107  1  0.97379932  0.83967335  0.97379932  1.0
  Ni  Ni108  1  0.23106023  0.29550011  0.89772689  1.0
  Ni  Ni109  1  0.23106023  0.62883344  0.89772689  1.0
  Ni  Ni110  1  0.23106023  0.96216677  0.89772689  1.0
  Ni  Ni111  1  0.56439356  0.29550011  0.89772689  1.0
  Ni  Ni112  1  0.56439356  0.62883344  0.89772689  1.0
  Ni  Ni113  1  0.56439356  0.96216677  0.89772689  1.0
  Ni  Ni114  1  0.89772689  0.29550011  0.89772689  1.0
  Ni  Ni115  1  0.89772689  0.62883344  0.89772689  1.0
  Ni  Ni116  1  0.89772689  0.96216677  0.89772689  1.0
  Ni  Ni117  1  0.30248880  0.05740487  0.96915546  1.0
  Ni  Ni118  1  0.30248880  0.39073820  0.96915546  1.0
  Ni  Ni119  1  0.30248880  0.72407154  0.96915546  1.0
  Ni  Ni120  1  0.63582213  0.05740487  0.96915546  1.0
  Ni  Ni121  1  0.63582213  0.39073820  0.96915546  1.0
  Ni  Ni122  1  0.63582213  0.72407154  0.96915546  1.0
  Ni  Ni123  1  0.96915546  0.05740487  0.96915546  1.0
  Ni  Ni124  1  0.96915546  0.39073820  0.96915546  1.0
  Ni  Ni125  1  0.96915546  0.72407154  0.96915546  1.0
  Ni  Ni126  1  0.04327138  0.20988570  0.92341121  1.0
  Ni  Ni127  1  0.04327138  0.54321904  0.92341121  1.0
  Ni  Ni128  1  0.04327138  0.87655237  0.92341121  1.0
  Ni  Ni129  1  0.37660471  0.20988570  0.92341121  1.0
  Ni  Ni130  1  0.37660471  0.54321904  0.92341121  1.0
  Ni  Ni131  1  0.37660471  0.87655237  0.92341121  1.0
  Ni  Ni132  1  0.70993805  0.20988570  0.92341121  1.0
  Ni  Ni133  1  0.70993805  0.54321904  0.92341121  1.0
  Ni  Ni134  1  0.70993805  0.87655237  0.92341121  1.0
  Ni  Ni135  1  0.11469995  0.30512380  0.99483979  1.0
  Ni  Ni136  1  0.11469995  0.63845713  0.99483979  1.0
  Ni  Ni137  1  0.11469995  0.97179046  0.99483979  1.0
  Ni  Ni138  1  0.44803329  0.30512380  0.99483979  1.0
  Ni  Ni139  1  0.44803329  0.63845713  0.99483979  1.0
  Ni  Ni140  1  0.44803329  0.97179046  0.99483979  1.0
  Ni  Ni141  1  0.78136662  0.30512380  0.99483979  1.0
  Ni  Ni142  1  0.78136662  0.63845713  0.99483979  1.0
  Ni  Ni143  1  0.78136662  0.97179046  0.99483979  1.0
  Ni  Ni144  1  0.16819310  0.13177049  0.95471993  1.0
  Ni  Ni145  1  0.16819310  0.46510382  0.95471993  1.0
  Ni  Ni146  1  0.16819310  0.79843715  0.95471993  1.0
  Ni  Ni147  1  0.50152643  0.13177049  0.95471993  1.0
  Ni  Ni148  1  0.50152643  0.46510382  0.95471993  1.0
  Ni  Ni149  1  0.50152643  0.79843715  0.95471993  1.0
  Ni  Ni150  1  0.83485976  0.13177049  0.95471993  1.0
  Ni  Ni151  1  0.83485976  0.46510382  0.95471993  1.0
  Ni  Ni152  1  0.83485976  0.79843715  0.95471993  1.0
  Ni  Ni153  1  0.09676452  0.03653239  0.88329136  1.0
  Ni  Ni154  1  0.09676452  0.36986573  0.88329136  1.0
  Ni  Ni155  1  0.09676452  0.70319906  0.88329136  1.0
  Ni  Ni156  1  0.43009786  0.03653239  0.88329136  1.0
  Ni  Ni157  1  0.43009786  0.36986573  0.88329136  1.0
  Ni  Ni158  1  0.43009786  0.70319906  0.88329136  1.0
  Ni  Ni159  1  0.76343119  0.03653239  0.88329136  1.0
  Ni  Ni160  1  0.76343119  0.36986573  0.88329136  1.0
  Ni  Ni161  1  0.76343119  0.70319906  0.88329136  1.0
  Ni  Ni162  1  0.29468008  0.00120715  0.85023563  1.0
  Ni  Ni163  1  0.29468008  0.33454048  0.85023563  1.0
  Ni  Ni164  1  0.29468008  0.66787381  0.85023563  1.0
  Ni  Ni165  1  0.62801341  0.00120715  0.85023563  1.0
  Ni  Ni166  1  0.62801341  0.33454048  0.85023563  1.0
  Ni  Ni167  1  0.62801341  0.66787381  0.85023563  1.0
  Ni  Ni168  1  0.96134674  0.00120715  0.85023563  1.0
  Ni  Ni169  1  0.96134674  0.33454048  0.85023563  1.0
  Ni  Ni170  1  0.96134674  0.66787381  0.85023563  1.0
  Ni  Ni171  1  0.22325150  0.23930238  0.77880706  1.0
  Ni  Ni172  1  0.22325150  0.57263572  0.77880706  1.0
  Ni  Ni173  1  0.22325150  0.90596905  0.77880706  1.0
  Ni  Ni174  1  0.55658484  0.23930238  0.77880706  1.0
  Ni  Ni175  1  0.55658484  0.57263572  0.77880706  1.0
  Ni  Ni176  1  0.55658484  0.90596905  0.77880706  1.0
  Ni  Ni177  1  0.88991817  0.23930238  0.77880706  1.0
  Ni  Ni178  1  0.88991817  0.57263572  0.77880706  1.0
  Ni  Ni179  1  0.88991817  0.90596905  0.77880706  1.0
  Ni  Ni180  1  0.17215715  0.09710251  0.83882382  1.0
  Ni  Ni181  1  0.17215715  0.43043585  0.83882382  1.0
  Ni  Ni182  1  0.17215715  0.76376918  0.83882382  1.0
  Ni  Ni183  1  0.50549049  0.09710251  0.83882382  1.0
  Ni  Ni184  1  0.50549049  0.43043585  0.83882382  1.0
  Ni  Ni185  1  0.50549049  0.76376918  0.83882382  1.0
  Ni  Ni186  1  0.83882382  0.09710251  0.83882382  1.0
  Ni  Ni187  1  0.83882382  0.43043585  0.83882382  1.0
  Ni  Ni188  1  0.83882382  0.76376918  0.83882382  1.0
  Ni  Ni189  1  0.10072858  0.00186442  0.76739525  1.0
  Ni  Ni190  1  0.10072858  0.33519775  0.76739525  1.0
  Ni  Ni191  1  0.10072858  0.66853108  0.76739525  1.0
  Ni  Ni192  1  0.43406192  0.00186442  0.76739525  1.0
  Ni  Ni193  1  0.43406192  0.33519775  0.76739525  1.0
  Ni  Ni194  1  0.43406192  0.66853108  0.76739525  1.0
  Ni  Ni195  1  0.76739525  0.00186442  0.76739525  1.0
  Ni  Ni196  1  0.76739525  0.33519775  0.76739525  1.0
  Ni  Ni197  1  0.76739525  0.66853108  0.76739525  1.0
  Ni  Ni198  1  0.28674357  0.06469921  0.73118801  1.0
  Ni  Ni199  1  0.28674357  0.39803254  0.73118801  1.0
  Ni  Ni200  1  0.28674357  0.73136588  0.73118801  1.0
  Ni  Ni201  1  0.62007690  0.06469921  0.73118801  1.0
  Ni  Ni202  1  0.62007690  0.39803254  0.73118801  1.0
  Ni  Ni203  1  0.62007690  0.73136588  0.73118801  1.0
  Ni  Ni204  1  0.95341023  0.06469921  0.73118801  1.0
  Ni  Ni205  1  0.95341023  0.39803254  0.73118801  1.0
  Ni  Ni206  1  0.95341023  0.73136588  0.73118801  1.0
  Ni  Ni207  1  0.02483881  0.15993731  0.80261658  1.0
  Ni  Ni208  1  0.02483881  0.49327064  0.80261658  1.0
  Ni  Ni209  1  0.02483881  0.82660397  0.80261658  1.0
  Ni  Ni210  1  0.35817214  0.15993731  0.80261658  1.0
  Ni  Ni211  1  0.35817214  0.49327064  0.80261658  1.0
  Ni  Ni212  1  0.35817214  0.82660397  0.80261658  1.0
  Ni  Ni213  1  0.69150547  0.15993731  0.80261658  1.0
  Ni  Ni214  1  0.69150547  0.49327064  0.80261658  1.0
  Ni  Ni215  1  0.69150547  0.82660397  0.80261658  1.0
  Ni  Ni216  1  0.03791310  0.05686132  0.80864293  1.0
  Ni  Ni217  1  0.03791310  0.39019465  0.80864293  1.0
  Ni  Ni218  1  0.03791310  0.72352799  0.80864293  1.0
  Ni  Ni219  1  0.37124643  0.05686132  0.80864293  1.0
  Ni  Ni220  1  0.37124643  0.39019465  0.80864293  1.0
  Ni  Ni221  1  0.37124643  0.72352799  0.80864293  1.0
  Ni  Ni222  1  0.70457976  0.05686132  0.80864293  1.0
  Ni  Ni223  1  0.70457976  0.39019465  0.80864293  1.0
  Ni  Ni224  1  0.70457976  0.72352799  0.80864293  1.0
  Ni  Ni225  1  0.29981786  0.29495656  0.73721436  1.0
  Ni  Ni226  1  0.29981786  0.62828989  0.73721436  1.0
  Ni  Ni227  1  0.29981786  0.96162323  0.73721436  1.0
  Ni  Ni228  1  0.63315119  0.29495656  0.73721436  1.0
  Ni  Ni229  1  0.63315119  0.62828989  0.73721436  1.0
  Ni  Ni230  1  0.63315119  0.96162323  0.73721436  1.0
  Ni  Ni231  1  0.96648452  0.29495656  0.73721436  1.0
  Ni  Ni232  1  0.96648452  0.62828989  0.73721436  1.0
  Ni  Ni233  1  0.96648452  0.96162323  0.73721436  1.0
  Ni  Ni234  1  0.22827100  0.13723325  0.79087450  1.0
  Ni  Ni235  1  0.22827100  0.47056658  0.79087450  1.0
  Ni  Ni236  1  0.22827100  0.80389992  0.79087450  1.0
  Ni  Ni237  1  0.56160433  0.13723325  0.79087450  1.0
  Ni  Ni238  1  0.56160433  0.47056658  0.79087450  1.0
  Ni  Ni239  1  0.56160433  0.80389992  0.79087450  1.0
  Ni  Ni240  1  0.89493767  0.13723325  0.79087450  1.0
  Ni  Ni241  1  0.89493767  0.47056658  0.79087450  1.0
  Ni  Ni242  1  0.89493767  0.80389992  0.79087450  1.0
  Ni  Ni243  1  0.15684243  0.04199515  0.71944593  1.0
  Ni  Ni244  1  0.15684243  0.37532849  0.71944593  1.0
  Ni  Ni245  1  0.15684243  0.70866182  0.71944593  1.0
  Ni  Ni246  1  0.49017576  0.04199515  0.71944593  1.0
  Ni  Ni247  1  0.49017576  0.37532849  0.71944593  1.0
  Ni  Ni248  1  0.49017576  0.70866182  0.71944593  1.0
  Ni  Ni249  1  0.82350910  0.04199515  0.71944593  1.0
  Ni  Ni250  1  0.82350910  0.37532849  0.71944593  1.0
  Ni  Ni251  1  0.82350910  0.70866182  0.71944593  1.0
  Ni  Ni252  1  0.09284694  0.22062573  0.75951361  1.0
  Ni  Ni253  1  0.09284694  0.55395906  0.75951361  1.0
  Ni  Ni254  1  0.09284694  0.88729239  0.75951361  1.0
  Ni  Ni255  1  0.42618027  0.22062573  0.75951361  1.0
  Ni  Ni256  1  0.42618027  0.55395906  0.75951361  1.0
  Ni  Ni257  1  0.42618027  0.88729239  0.75951361  1.0
  Ni  Ni258  1  0.75951361  0.22062573  0.75951361  1.0
  Ni  Ni259  1  0.75951361  0.55395906  0.75951361  1.0
  Ni  Ni260  1  0.75951361  0.88729239  0.75951361  1.0
  Ni  Ni261  1  0.16427551  0.31586382  0.83094218  1.0
  Ni  Ni262  1  0.16427551  0.64919715  0.83094218  1.0
  Ni  Ni263  1  0.16427551  0.98253049  0.83094218  1.0
  Ni  Ni264  1  0.49760885  0.31586382  0.83094218  1.0
  Ni  Ni265  1  0.49760885  0.64919715  0.83094218  1.0
  Ni  Ni266  1  0.49760885  0.98253049  0.83094218  1.0
  Ni  Ni267  1  0.83094218  0.31586382  0.83094218  1.0
  Ni  Ni268  1  0.83094218  0.64919715  0.83094218  1.0
  Ni  Ni269  1  0.83094218  0.98253049  0.83094218  1.0
  Ni  Ni270  1  0.08820308  0.10502392  0.75486975  1.0
  Ni  Ni271  1  0.08820308  0.43835725  0.75486975  1.0
  Ni  Ni272  1  0.08820308  0.77169058  0.75486975  1.0
  Ni  Ni273  1  0.42153642  0.10502392  0.75486975  1.0
  Ni  Ni274  1  0.42153642  0.43835725  0.75486975  1.0
  Ni  Ni275  1  0.42153642  0.77169058  0.75486975  1.0
  Ni  Ni276  1  0.75486975  0.10502392  0.75486975  1.0
  Ni  Ni277  1  0.75486975  0.43835725  0.75486975  1.0
  Ni  Ni278  1  0.75486975  0.77169058  0.75486975  1.0
  Ni  Ni279  1  0.15963165  0.20026201  0.82629832  1.0
  Ni  Ni280  1  0.15963165  0.53359535  0.82629832  1.0
  Ni  Ni281  1  0.15963165  0.86692868  0.82629832  1.0
  Ni  Ni282  1  0.49296499  0.20026201  0.82629832  1.0
  Ni  Ni283  1  0.49296499  0.53359535  0.82629832  1.0
  Ni  Ni284  1  0.49296499  0.86692868  0.82629832  1.0
  Ni  Ni285  1  0.82629832  0.20026201  0.82629832  1.0
  Ni  Ni286  1  0.82629832  0.53359535  0.82629832  1.0
  Ni  Ni287  1  0.82629832  0.86692868  0.82629832  1.0
  Ni  Ni288  1  0.23374757  0.01940951  0.78055407  1.0
  Ni  Ni289  1  0.23374757  0.35274285  0.78055407  1.0
  Ni  Ni290  1  0.23374757  0.68607618  0.78055407  1.0
  Ni  Ni291  1  0.56708090  0.01940951  0.78055407  1.0
  Ni  Ni292  1  0.56708090  0.35274285  0.78055407  1.0
  Ni  Ni293  1  0.56708090  0.68607618  0.78055407  1.0
  Ni  Ni294  1  0.90041424  0.01940951  0.78055407  1.0
  Ni  Ni295  1  0.90041424  0.35274285  0.78055407  1.0
  Ni  Ni296  1  0.90041424  0.68607618  0.78055407  1.0
  Ni  Ni297  1  0.30517614  0.11464761  0.85198264  1.0
  Ni  Ni298  1  0.30517614  0.44798094  0.85198264  1.0
  Ni  Ni299  1  0.30517614  0.78131427  0.85198264  1.0
  Ni  Ni300  1  0.63850948  0.11464761  0.85198264  1.0
  Ni  Ni301  1  0.63850948  0.44798094  0.85198264  1.0
  Ni  Ni302  1  0.63850948  0.78131427  0.85198264  1.0
  Ni  Ni303  1  0.97184281  0.11464761  0.85198264  1.0
  Ni  Ni304  1  0.97184281  0.44798094  0.85198264  1.0
  Ni  Ni305  1  0.97184281  0.78131427  0.85198264  1.0
  Ni  Ni306  1  0.02533595  0.27462763  0.81186279  1.0
  Ni  Ni307  1  0.02533595  0.60796096  0.81186279  1.0
  Ni  Ni308  1  0.02533595  0.94129430  0.81186279  1.0
  Ni  Ni309  1  0.35866929  0.27462763  0.81186279  1.0
  Ni  Ni310  1  0.35866929  0.60796096  0.81186279  1.0
  Ni  Ni311  1  0.35866929  0.94129430  0.81186279  1.0
  Ni  Ni312  1  0.69200262  0.27462763  0.81186279  1.0
  Ni  Ni313  1  0.69200262  0.60796096  0.81186279  1.0
  Ni  Ni314  1  0.69200262  0.94129430  0.81186279  1.0
  Ni  Ni315  1  0.28724071  0.17938954  0.74043421  1.0
  Ni  Ni316  1  0.28724071  0.51272287  0.74043421  1.0
  Ni  Ni317  1  0.28724071  0.84605620  0.74043421  1.0
  Ni  Ni318  1  0.62057405  0.17938954  0.74043421  1.0
  Ni  Ni319  1  0.62057405  0.51272287  0.74043421  1.0
  Ni  Ni320  1  0.62057405  0.84605620  0.74043421  1.0
  Ni  Ni321  1  0.95390738  0.17938954  0.74043421  1.0
  Ni  Ni322  1  0.95390738  0.51272287  0.74043421  1.0
  Ni  Ni323  1  0.95390738  0.84605620  0.74043421  1.0
  Ni  Ni324  1  0.15182293  0.14406429  0.70737849  1.0
  Ni  Ni325  1  0.15182293  0.47739762  0.70737849  1.0
  Ni  Ni326  1  0.15182293  0.81073096  0.70737849  1.0
  Ni  Ni327  1  0.48515627  0.14406429  0.70737849  1.0
  Ni  Ni328  1  0.48515627  0.47739762  0.70737849  1.0
  Ni  Ni329  1  0.48515627  0.81073096  0.70737849  1.0
  Ni  Ni330  1  0.81848960  0.14406429  0.70737849  1.0
  Ni  Ni331  1  0.81848960  0.47739762  0.70737849  1.0
  Ni  Ni332  1  0.81848960  0.81073096  0.70737849  1.0
  Ni  Ni333  1  0.08039436  0.04882619  0.63594992  1.0
  Ni  Ni334  1  0.08039436  0.38215953  0.63594992  1.0
  Ni  Ni335  1  0.08039436  0.71549286  0.63594992  1.0
  Ni  Ni336  1  0.41372769  0.04882619  0.63594992  1.0
  Ni  Ni337  1  0.41372769  0.38215953  0.63594992  1.0
  Ni  Ni338  1  0.41372769  0.71549286  0.63594992  1.0
  Ni  Ni339  1  0.74706103  0.04882619  0.63594992  1.0
  Ni  Ni340  1  0.74706103  0.38215953  0.63594992  1.0
  Ni  Ni341  1  0.74706103  0.71549286  0.63594992  1.0
  Ni  Ni342  1  0.02930001  0.23995965  0.69596668  1.0
  Ni  Ni343  1  0.02930001  0.57329299  0.69596668  1.0
  Ni  Ni344  1  0.02930001  0.90662632  0.69596668  1.0
  Ni  Ni345  1  0.36263335  0.23995965  0.69596668  1.0
  Ni  Ni346  1  0.36263335  0.57329299  0.69596668  1.0
  Ni  Ni347  1  0.36263335  0.90662632  0.69596668  1.0
  Ni  Ni348  1  0.69596668  0.23995965  0.69596668  1.0
  Ni  Ni349  1  0.69596668  0.57329299  0.69596668  1.0
  Ni  Ni350  1  0.69596668  0.90662632  0.69596668  1.0
  Ni  Ni351  1  0.29120477  0.14472156  0.62453811  1.0
  Ni  Ni352  1  0.29120477  0.47805489  0.62453811  1.0
  Ni  Ni353  1  0.29120477  0.81138823  0.62453811  1.0
  Ni  Ni354  1  0.62453811  0.14472156  0.62453811  1.0
  Ni  Ni355  1  0.62453811  0.47805489  0.62453811  1.0
  Ni  Ni356  1  0.62453811  0.81138823  0.62453811  1.0
  Ni  Ni357  1  0.95787144  0.14472156  0.62453811  1.0
  Ni  Ni358  1  0.95787144  0.47805489  0.62453811  1.0
  Ni  Ni359  1  0.95787144  0.81138823  0.62453811  1.0
  Ni  Ni360  1  0.14388642  0.20755635  0.58833087  1.0
  Ni  Ni361  1  0.14388642  0.54088969  0.58833087  1.0
  Ni  Ni362  1  0.14388642  0.87422302  0.58833087  1.0
  Ni  Ni363  1  0.47721976  0.20755635  0.58833087  1.0
  Ni  Ni364  1  0.47721976  0.54088969  0.58833087  1.0
  Ni  Ni365  1  0.47721976  0.87422302  0.58833087  1.0
  Ni  Ni366  1  0.81055309  0.20755635  0.58833087  1.0
  Ni  Ni367  1  0.81055309  0.54088969  0.58833087  1.0
  Ni  Ni368  1  0.81055309  0.87422302  0.58833087  1.0
  Ni  Ni369  1  0.21531500  0.30279445  0.65975944  1.0
  Ni  Ni370  1  0.21531500  0.63612778  0.65975944  1.0
  Ni  Ni371  1  0.21531500  0.96946112  0.65975944  1.0
  Ni  Ni372  1  0.54864833  0.30279445  0.65975944  1.0
  Ni  Ni373  1  0.54864833  0.63612778  0.65975944  1.0
  Ni  Ni374  1  0.54864833  0.96946112  0.65975944  1.0
  Ni  Ni375  1  0.88198166  0.30279445  0.65975944  1.0
  Ni  Ni376  1  0.88198166  0.63612778  0.65975944  1.0
  Ni  Ni377  1  0.88198166  0.96946112  0.65975944  1.0
  Ni  Ni378  1  0.22838929  0.19971846  0.66578579  1.0
  Ni  Ni379  1  0.22838929  0.53305180  0.66578579  1.0
  Ni  Ni380  1  0.22838929  0.86638513  0.66578579  1.0
  Ni  Ni381  1  0.56172262  0.19971846  0.66578579  1.0
  Ni  Ni382  1  0.56172262  0.53305180  0.66578579  1.0
  Ni  Ni383  1  0.56172262  0.86638513  0.66578579  1.0
  Ni  Ni384  1  0.89505595  0.19971846  0.66578579  1.0
  Ni  Ni385  1  0.89505595  0.53305180  0.66578579  1.0
  Ni  Ni386  1  0.89505595  0.86638513  0.66578579  1.0
  Ni  Ni387  1  0.15696071  0.10448037  0.59435721  1.0
  Ni  Ni388  1  0.15696071  0.43781370  0.59435721  1.0
  Ni  Ni389  1  0.15696071  0.77114704  0.59435721  1.0
  Ni  Ni390  1  0.49029405  0.10448037  0.59435721  1.0
  Ni  Ni391  1  0.49029405  0.43781370  0.59435721  1.0
  Ni  Ni392  1  0.49029405  0.77114704  0.59435721  1.0
  Ni  Ni393  1  0.82362738  0.10448037  0.59435721  1.0
  Ni  Ni394  1  0.82362738  0.43781370  0.59435721  1.0
  Ni  Ni395  1  0.82362738  0.77114704  0.59435721  1.0
  Ni  Ni396  1  0.08541386  0.28009039  0.64801736  1.0
  Ni  Ni397  1  0.08541386  0.61342373  0.64801736  1.0
  Ni  Ni398  1  0.08541386  0.94675706  0.64801736  1.0
  Ni  Ni399  1  0.41874719  0.28009039  0.64801736  1.0
  Ni  Ni400  1  0.41874719  0.61342373  0.64801736  1.0
  Ni  Ni401  1  0.41874719  0.94675706  0.64801736  1.0
  Ni  Ni402  1  0.75208052  0.28009039  0.64801736  1.0
  Ni  Ni403  1  0.75208052  0.61342373  0.64801736  1.0
  Ni  Ni404  1  0.75208052  0.94675706  0.64801736  1.0
  Ni  Ni405  1  0.01398529  0.18485230  0.57658879  1.0
  Ni  Ni406  1  0.01398529  0.51818563  0.57658879  1.0
  Ni  Ni407  1  0.01398529  0.85151896  0.57658879  1.0
  Ni  Ni408  1  0.34731862  0.18485230  0.57658879  1.0
  Ni  Ni409  1  0.34731862  0.51818563  0.57658879  1.0
  Ni  Ni410  1  0.34731862  0.85151896  0.57658879  1.0
  Ni  Ni411  1  0.68065195  0.18485230  0.57658879  1.0
  Ni  Ni412  1  0.68065195  0.51818563  0.57658879  1.0
  Ni  Ni413  1  0.68065195  0.85151896  0.57658879  1.0
  Ni  Ni414  1  0.28332313  0.03014954  0.61665646  1.0
  Ni  Ni415  1  0.28332313  0.36348287  0.61665646  1.0
  Ni  Ni416  1  0.28332313  0.69681620  0.61665646  1.0
  Ni  Ni417  1  0.61665646  0.03014954  0.61665646  1.0
  Ni  Ni418  1  0.61665646  0.36348287  0.61665646  1.0
  Ni  Ni419  1  0.61665646  0.69681620  0.61665646  1.0
  Ni  Ni420  1  0.94998980  0.03014954  0.61665646  1.0
  Ni  Ni421  1  0.94998980  0.36348287  0.61665646  1.0
  Ni  Ni422  1  0.94998980  0.69681620  0.61665646  1.0
  Ni  Ni423  1  0.02141837  0.12538763  0.68808504  1.0
  Ni  Ni424  1  0.02141837  0.45872096  0.68808504  1.0
  Ni  Ni425  1  0.02141837  0.79205430  0.68808504  1.0
  Ni  Ni426  1  0.35475170  0.12538763  0.68808504  1.0
  Ni  Ni427  1  0.35475170  0.45872096  0.68808504  1.0
  Ni  Ni428  1  0.35475170  0.79205430  0.68808504  1.0
  Ni  Ni429  1  0.68808504  0.12538763  0.68808504  1.0
  Ni  Ni430  1  0.68808504  0.45872096  0.68808504  1.0
  Ni  Ni431  1  0.68808504  0.79205430  0.68808504  1.0
  Ni  Ni432  1  0.27867927  0.24788106  0.61201261  1.0
  Ni  Ni433  1  0.27867927  0.58121439  0.61201261  1.0
  Ni  Ni434  1  0.27867927  0.91454773  0.61201261  1.0
  Ni  Ni435  1  0.61201261  0.24788106  0.61201261  1.0
  Ni  Ni436  1  0.61201261  0.58121439  0.61201261  1.0
  Ni  Ni437  1  0.61201261  0.91454773  0.61201261  1.0
  Ni  Ni438  1  0.94534594  0.24788106  0.61201261  1.0
  Ni  Ni439  1  0.94534594  0.58121439  0.61201261  1.0
  Ni  Ni440  1  0.94534594  0.91454773  0.61201261  1.0
  Ni  Ni441  1  0.01677451  0.00978582  0.68344118  1.0
  Ni  Ni442  1  0.01677451  0.34311915  0.68344118  1.0
  Ni  Ni443  1  0.01677451  0.67645249  0.68344118  1.0
  Ni  Ni444  1  0.35010785  0.00978582  0.68344118  1.0
  Ni  Ni445  1  0.35010785  0.34311915  0.68344118  1.0
  Ni  Ni446  1  0.35010785  0.67645249  0.68344118  1.0
  Ni  Ni447  1  0.68344118  0.00978582  0.68344118  1.0
  Ni  Ni448  1  0.68344118  0.34311915  0.68344118  1.0
  Ni  Ni449  1  0.68344118  0.67645249  0.68344118  1.0
  Ni  Ni450  1  0.09089043  0.16226665  0.63769693  1.0
  Ni  Ni451  1  0.09089043  0.49559999  0.63769693  1.0
  Ni  Ni452  1  0.09089043  0.82893332  0.63769693  1.0
  Ni  Ni453  1  0.42422376  0.16226665  0.63769693  1.0
  Ni  Ni454  1  0.42422376  0.49559999  0.63769693  1.0
  Ni  Ni455  1  0.42422376  0.82893332  0.63769693  1.0
  Ni  Ni456  1  0.75755710  0.16226665  0.63769693  1.0
  Ni  Ni457  1  0.75755710  0.49559999  0.63769693  1.0
  Ni  Ni458  1  0.75755710  0.82893332  0.63769693  1.0
  Ni  Ni459  1  0.16231900  0.25750475  0.70912550  1.0
  Ni  Ni460  1  0.16231900  0.59083808  0.70912550  1.0
  Ni  Ni461  1  0.16231900  0.92417142  0.70912550  1.0
  Ni  Ni462  1  0.49565233  0.25750475  0.70912550  1.0
  Ni  Ni463  1  0.49565233  0.59083808  0.70912550  1.0
  Ni  Ni464  1  0.49565233  0.92417142  0.70912550  1.0
  Ni  Ni465  1  0.82898567  0.25750475  0.70912550  1.0
  Ni  Ni466  1  0.82898567  0.59083808  0.70912550  1.0
  Ni  Ni467  1  0.82898567  0.92417142  0.70912550  1.0
  Ni  Ni468  1  0.21581214  0.08415144  0.66900564  1.0
  Ni  Ni469  1  0.21581214  0.41748477  0.66900564  1.0
  Ni  Ni470  1  0.21581214  0.75081811  0.66900564  1.0
  Ni  Ni471  1  0.54914548  0.08415144  0.66900564  1.0
  Ni  Ni472  1  0.54914548  0.41748477  0.66900564  1.0
  Ni  Ni473  1  0.54914548  0.75081811  0.66900564  1.0
  Ni  Ni474  1  0.88247881  0.08415144  0.66900564  1.0
  Ni  Ni475  1  0.88247881  0.41748477  0.66900564  1.0
  Ni  Ni476  1  0.88247881  0.75081811  0.66900564  1.0
  Ni  Ni477  1  0.14438357  0.32224668  0.59757707  1.0
  Ni  Ni478  1  0.14438357  0.65558001  0.59757707  1.0
  Ni  Ni479  1  0.14438357  0.98891335  0.59757707  1.0
  Ni  Ni480  1  0.47771690  0.32224668  0.59757707  1.0
  Ni  Ni481  1  0.47771690  0.65558001  0.59757707  1.0
  Ni  Ni482  1  0.47771690  0.98891335  0.59757707  1.0
  Ni  Ni483  1  0.81105024  0.32224668  0.59757707  1.0
  Ni  Ni484  1  0.81105024  0.65558001  0.59757707  1.0
  Ni  Ni485  1  0.81105024  0.98891335  0.59757707  1.0
  Ti  Ti486  1  0.33324558  0.05262781  0.88880113  1.0
  Ti  Ti487  1  0.33324558  0.38596115  0.88880113  1.0
  Ti  Ti488  1  0.33324558  0.71929448  0.88880113  1.0
  Ti  Ti489  1  0.66657891  0.05262781  0.88880113  1.0
  Ti  Ti490  1  0.66657891  0.38596115  0.88880113  1.0
  Ti  Ti491  1  0.66657891  0.71929448  0.88880113  1.0
  Ti  Ti492  1  0.99991224  0.05262781  0.88880113  1.0
  Ti  Ti493  1  0.99991224  0.38596115  0.88880113  1.0
  Ti  Ti494  1  0.99991224  0.71929448  0.88880113  1.0
  Ti  Ti495  1  0.07134081  0.14786591  0.96022970  1.0
  Ti  Ti496  1  0.07134081  0.48119924  0.96022970  1.0
  Ti  Ti497  1  0.07134081  0.81453258  0.96022970  1.0
  Ti  Ti498  1  0.40467415  0.14786591  0.96022970  1.0
  Ti  Ti499  1  0.40467415  0.48119924  0.96022970  1.0
  Ti  Ti500  1  0.40467415  0.81453258  0.96022970  1.0
  Ti  Ti501  1  0.73800748  0.14786591  0.96022970  1.0
  Ti  Ti502  1  0.73800748  0.48119924  0.96022970  1.0
  Ti  Ti503  1  0.73800748  0.81453258  0.96022970  1.0
  Ti  Ti504  1  0.27563573  0.23507394  0.94230239  1.0
  Ti  Ti505  1  0.27563573  0.56840727  0.94230239  1.0
  Ti  Ti506  1  0.27563573  0.90174061  0.94230239  1.0
  Ti  Ti507  1  0.60896906  0.23507394  0.94230239  1.0
  Ti  Ti508  1  0.60896906  0.56840727  0.94230239  1.0
  Ti  Ti509  1  0.60896906  0.90174061  0.94230239  1.0
  Ti  Ti510  1  0.94230239  0.23507394  0.94230239  1.0
  Ti  Ti511  1  0.94230239  0.56840727  0.94230239  1.0
  Ti  Ti512  1  0.94230239  0.90174061  0.94230239  1.0
  Ti  Ti513  1  0.20420715  0.13983585  0.87087382  1.0
  Ti  Ti514  1  0.20420715  0.47316918  0.87087382  1.0
  Ti  Ti515  1  0.20420715  0.80650251  0.87087382  1.0
  Ti  Ti516  1  0.53754049  0.13983585  0.87087382  1.0
  Ti  Ti517  1  0.53754049  0.47316918  0.87087382  1.0
  Ti  Ti518  1  0.53754049  0.80650251  0.87087382  1.0
  Ti  Ti519  1  0.87087382  0.13983585  0.87087382  1.0
  Ti  Ti520  1  0.87087382  0.47316918  0.87087382  1.0
  Ti  Ti521  1  0.87087382  0.80650251  0.87087382  1.0
  Ti  Ti522  1  0.13483288  0.30659607  0.91261065  1.0
  Ti  Ti523  1  0.13483288  0.63992940  0.91261065  1.0
  Ti  Ti524  1  0.13483288  0.97326273  0.91261065  1.0
  Ti  Ti525  1  0.46816621  0.30659607  0.91261065  1.0
  Ti  Ti526  1  0.46816621  0.63992940  0.91261065  1.0
  Ti  Ti527  1  0.46816621  0.97326273  0.91261065  1.0
  Ti  Ti528  1  0.80149954  0.30659607  0.91261065  1.0
  Ti  Ti529  1  0.80149954  0.63992940  0.91261065  1.0
  Ti  Ti530  1  0.80149954  0.97326273  0.91261065  1.0
  Ti  Ti531  1  0.20626145  0.06850083  0.98403923  1.0
  Ti  Ti532  1  0.20626145  0.40183416  0.98403923  1.0
  Ti  Ti533  1  0.20626145  0.73516750  0.98403923  1.0
  Ti  Ti534  1  0.53959478  0.06850083  0.98403923  1.0
  Ti  Ti535  1  0.53959478  0.40183416  0.98403923  1.0
  Ti  Ti536  1  0.53959478  0.73516750  0.98403923  1.0
  Ti  Ti537  1  0.87292812  0.06850083  0.98403923  1.0
  Ti  Ti538  1  0.87292812  0.40183416  0.98403923  1.0
  Ti  Ti539  1  0.87292812  0.73516750  0.98403923  1.0
  Ti  Ti540  1  0.14321500  0.19841008  0.91480450  1.0
  Ti  Ti541  1  0.14321500  0.53174342  0.91480450  1.0
  Ti  Ti542  1  0.14321500  0.86507675  0.91480450  1.0
  Ti  Ti543  1  0.47654833  0.19841008  0.91480450  1.0
  Ti  Ti544  1  0.47654833  0.53174342  0.91480450  1.0
  Ti  Ti545  1  0.47654833  0.86507675  0.91480450  1.0
  Ti  Ti546  1  0.80988167  0.19841008  0.91480450  1.0
  Ti  Ti547  1  0.80988167  0.53174342  0.91480450  1.0
  Ti  Ti548  1  0.80988167  0.86507675  0.91480450  1.0
  Ti  Ti549  1  0.21464357  0.29364818  0.98623307  1.0
  Ti  Ti550  1  0.21464357  0.62698151  0.98623307  1.0
  Ti  Ti551  1  0.21464357  0.96031485  0.98623307  1.0
  Ti  Ti552  1  0.54797690  0.29364818  0.98623307  1.0
  Ti  Ti553  1  0.54797690  0.62698151  0.98623307  1.0
  Ti  Ti554  1  0.54797690  0.96031485  0.98623307  1.0
  Ti  Ti555  1  0.88131024  0.29364818  0.98623307  1.0
  Ti  Ti556  1  0.88131024  0.62698151  0.98623307  1.0
  Ti  Ti557  1  0.88131024  0.96031485  0.98623307  1.0
  Ti  Ti558  1  0.00122205  0.27865920  0.89629921  1.0
  Ti  Ti559  1  0.00122205  0.61199254  0.89629921  1.0
  Ti  Ti560  1  0.00122205  0.94532587  0.89629921  1.0
  Ti  Ti561  1  0.33455538  0.27865920  0.89629921  1.0
  Ti  Ti562  1  0.33455538  0.61199254  0.89629921  1.0
  Ti  Ti563  1  0.33455538  0.94532587  0.89629921  1.0
  Ti  Ti564  1  0.66788871  0.27865920  0.89629921  1.0
  Ti  Ti565  1  0.66788871  0.61199254  0.89629921  1.0
  Ti  Ti566  1  0.66788871  0.94532587  0.89629921  1.0
  Ti  Ti567  1  0.07265062  0.04056396  0.96772779  1.0
  Ti  Ti568  1  0.07265062  0.37389730  0.96772779  1.0
  Ti  Ti569  1  0.07265062  0.70723063  0.96772779  1.0
  Ti  Ti570  1  0.40598395  0.04056396  0.96772779  1.0
  Ti  Ti571  1  0.40598395  0.37389730  0.96772779  1.0
  Ti  Ti572  1  0.40598395  0.70723063  0.96772779  1.0
  Ti  Ti573  1  0.73931729  0.04056396  0.96772779  1.0
  Ti  Ti574  1  0.73931729  0.37389730  0.96772779  1.0
  Ti  Ti575  1  0.73931729  0.70723063  0.96772779  1.0
  Ti  Ti576  1  0.19919273  0.02822711  0.86585939  1.0
  Ti  Ti577  1  0.19919273  0.36156044  0.86585939  1.0
  Ti  Ti578  1  0.19919273  0.69489377  0.86585939  1.0
  Ti  Ti579  1  0.53252606  0.02822711  0.86585939  1.0
  Ti  Ti580  1  0.53252606  0.36156044  0.86585939  1.0
  Ti  Ti581  1  0.53252606  0.69489377  0.86585939  1.0
  Ti  Ti582  1  0.86585939  0.02822711  0.86585939  1.0
  Ti  Ti583  1  0.86585939  0.36156044  0.86585939  1.0
  Ti  Ti584  1  0.86585939  0.69489377  0.86585939  1.0
  Ti  Ti585  1  0.27062130  0.12346520  0.93728796  1.0
  Ti  Ti586  1  0.27062130  0.45679854  0.93728796  1.0
  Ti  Ti587  1  0.27062130  0.79013187  0.93728796  1.0
  Ti  Ti588  1  0.60395463  0.12346520  0.93728796  1.0
  Ti  Ti589  1  0.60395463  0.45679854  0.93728796  1.0
  Ti  Ti590  1  0.60395463  0.79013187  0.93728796  1.0
  Ti  Ti591  1  0.93728796  0.12346520  0.93728796  1.0
  Ti  Ti592  1  0.93728796  0.45679854  0.93728796  1.0
  Ti  Ti593  1  0.93728796  0.79013187  0.93728796  1.0
  Ti  Ti594  1  0.26929487  0.00853096  0.93596154  1.0
  Ti  Ti595  1  0.26929487  0.34186430  0.93596154  1.0
  Ti  Ti596  1  0.26929487  0.67519763  0.93596154  1.0
  Ti  Ti597  1  0.60262820  0.00853096  0.93596154  1.0
  Ti  Ti598  1  0.60262820  0.34186430  0.93596154  1.0
  Ti  Ti599  1  0.60262820  0.67519763  0.93596154  1.0
  Ti  Ti600  1  0.93596154  0.00853096  0.93596154  1.0
  Ti  Ti601  1  0.93596154  0.34186430  0.93596154  1.0
  Ti  Ti602  1  0.93596154  0.67519763  0.93596154  1.0
  Ti  Ti603  1  0.19786630  0.24662620  0.86453296  1.0
  Ti  Ti604  1  0.19786630  0.57995954  0.86453296  1.0
  Ti  Ti605  1  0.19786630  0.91329287  0.86453296  1.0
  Ti  Ti606  1  0.53119963  0.24662620  0.86453296  1.0
  Ti  Ti607  1  0.53119963  0.57995954  0.86453296  1.0
  Ti  Ti608  1  0.53119963  0.91329287  0.86453296  1.0
  Ti  Ti609  1  0.86453296  0.24662620  0.86453296  1.0
  Ti  Ti610  1  0.86453296  0.57995954  0.86453296  1.0
  Ti  Ti611  1  0.86453296  0.91329287  0.86453296  1.0
  Ti  Ti612  1  0.07590169  0.25954656  0.96065686  1.0
  Ti  Ti613  1  0.07590169  0.59287989  0.96065686  1.0
  Ti  Ti614  1  0.07590169  0.92621323  0.96065686  1.0
  Ti  Ti615  1  0.40923502  0.25954656  0.96065686  1.0
  Ti  Ti616  1  0.40923502  0.59287989  0.96065686  1.0
  Ti  Ti617  1  0.40923502  0.92621323  0.96065686  1.0
  Ti  Ti618  1  0.74256836  0.25954656  0.96065686  1.0
  Ti  Ti619  1  0.74256836  0.59287989  0.96065686  1.0
  Ti  Ti620  1  0.74256836  0.92621323  0.96065686  1.0
  Ti  Ti621  1  0.00447312  0.16430846  0.88922829  1.0
  Ti  Ti622  1  0.00447312  0.49764180  0.88922829  1.0
  Ti  Ti623  1  0.00447312  0.83097513  0.88922829  1.0
  Ti  Ti624  1  0.33780645  0.16430846  0.88922829  1.0
  Ti  Ti625  1  0.33780645  0.49764180  0.88922829  1.0
  Ti  Ti626  1  0.33780645  0.83097513  0.88922829  1.0
  Ti  Ti627  1  0.67113979  0.16430846  0.88922829  1.0
  Ti  Ti628  1  0.67113979  0.49764180  0.88922829  1.0
  Ti  Ti629  1  0.67113979  0.83097513  0.88922829  1.0
  Ti  Ti630  1  0.20609807  0.18077201  0.98800957  1.0
  Ti  Ti631  1  0.20609807  0.51410535  0.98800957  1.0
  Ti  Ti632  1  0.20609807  0.84743868  0.98800957  1.0
  Ti  Ti633  1  0.53943140  0.18077201  0.98800957  1.0
  Ti  Ti634  1  0.53943140  0.51410535  0.98800957  1.0
  Ti  Ti635  1  0.53943140  0.84743868  0.98800957  1.0
  Ti  Ti636  1  0.87276474  0.18077201  0.98800957  1.0
  Ti  Ti637  1  0.87276474  0.51410535  0.98800957  1.0
  Ti  Ti638  1  0.87276474  0.84743868  0.98800957  1.0
  Ti  Ti639  1  0.13466950  0.08553392  0.91658100  1.0
  Ti  Ti640  1  0.13466950  0.41886725  0.91658100  1.0
  Ti  Ti641  1  0.13466950  0.75220058  0.91658100  1.0
  Ti  Ti642  1  0.46800283  0.08553392  0.91658100  1.0
  Ti  Ti643  1  0.46800283  0.41886725  0.91658100  1.0
  Ti  Ti644  1  0.46800283  0.75220058  0.91658100  1.0
  Ti  Ti645  1  0.80133617  0.08553392  0.91658100  1.0
  Ti  Ti646  1  0.80133617  0.41886725  0.91658100  1.0
  Ti  Ti647  1  0.80133617  0.75220058  0.91658100  1.0
  Ti  Ti648  1  0.19038843  0.19548496  0.74594399  1.0
  Ti  Ti649  1  0.19038843  0.52881829  0.74594399  1.0
  Ti  Ti650  1  0.19038843  0.86215162  0.74594399  1.0
  Ti  Ti651  1  0.52372177  0.19548496  0.74594399  1.0
  Ti  Ti652  1  0.52372177  0.52881829  0.74594399  1.0
  Ti  Ti653  1  0.52372177  0.86215162  0.74594399  1.0
  Ti  Ti654  1  0.85705510  0.19548496  0.74594399  1.0
  Ti  Ti655  1  0.85705510  0.52881829  0.74594399  1.0
  Ti  Ti656  1  0.85705510  0.86215162  0.74594399  1.0
  Ti  Ti657  1  0.26181700  0.29072305  0.81737256  1.0
  Ti  Ti658  1  0.26181700  0.62405638  0.81737256  1.0
  Ti  Ti659  1  0.26181700  0.95738972  0.81737256  1.0
  Ti  Ti660  1  0.59515034  0.29072305  0.81737256  1.0
  Ti  Ti661  1  0.59515034  0.62405638  0.81737256  1.0
  Ti  Ti662  1  0.59515034  0.95738972  0.81737256  1.0
  Ti  Ti663  1  0.92848367  0.29072305  0.81737256  1.0
  Ti  Ti664  1  0.92848367  0.62405638  0.81737256  1.0
  Ti  Ti665  1  0.92848367  0.95738972  0.81737256  1.0
  Ti  Ti666  1  0.13277858  0.04459775  0.79944525  1.0
  Ti  Ti667  1  0.13277858  0.37793108  0.79944525  1.0
  Ti  Ti668  1  0.13277858  0.71126442  0.79944525  1.0
  Ti  Ti669  1  0.46611192  0.04459775  0.79944525  1.0
  Ti  Ti670  1  0.46611192  0.37793108  0.79944525  1.0
  Ti  Ti671  1  0.46611192  0.71126442  0.79944525  1.0
  Ti  Ti672  1  0.79944525  0.04459775  0.79944525  1.0
  Ti  Ti673  1  0.79944525  0.37793108  0.79944525  1.0
  Ti  Ti674  1  0.79944525  0.71126442  0.79944525  1.0
  Ti  Ti675  1  0.06135001  0.28269299  0.72801668  1.0
  Ti  Ti676  1  0.06135001  0.61602632  0.72801668  1.0
  Ti  Ti677  1  0.06135001  0.94935965  0.72801668  1.0
  Ti  Ti678  1  0.39468335  0.28269299  0.72801668  1.0
  Ti  Ti679  1  0.39468335  0.61602632  0.72801668  1.0
  Ti  Ti680  1  0.39468335  0.94935965  0.72801668  1.0
  Ti  Ti681  1  0.72801668  0.28269299  0.72801668  1.0
  Ti  Ti682  1  0.72801668  0.61602632  0.72801668  1.0
  Ti  Ti683  1  0.72801668  0.94935965  0.72801668  1.0
  Ti  Ti684  1  0.32530907  0.11611988  0.76975351  1.0
  Ti  Ti685  1  0.32530907  0.44945321  0.76975351  1.0
  Ti  Ti686  1  0.32530907  0.78278654  0.76975351  1.0
  Ti  Ti687  1  0.65864240  0.11611988  0.76975351  1.0
  Ti  Ti688  1  0.65864240  0.44945321  0.76975351  1.0
  Ti  Ti689  1  0.65864240  0.78278654  0.76975351  1.0
  Ti  Ti690  1  0.99197573  0.11611988  0.76975351  1.0
  Ti  Ti691  1  0.99197573  0.44945321  0.76975351  1.0
  Ti  Ti692  1  0.99197573  0.78278654  0.76975351  1.0
  Ti  Ti693  1  0.06340431  0.21135797  0.84118208  1.0
  Ti  Ti694  1  0.06340431  0.54469131  0.84118208  1.0
  Ti  Ti695  1  0.06340431  0.87802464  0.84118208  1.0
  Ti  Ti696  1  0.39673764  0.21135797  0.84118208  1.0
  Ti  Ti697  1  0.39673764  0.54469131  0.84118208  1.0
  Ti  Ti698  1  0.39673764  0.87802464  0.84118208  1.0
  Ti  Ti699  1  0.73007097  0.21135797  0.84118208  1.0
  Ti  Ti700  1  0.73007097  0.54469131  0.84118208  1.0
  Ti  Ti701  1  0.73007097  0.87802464  0.84118208  1.0
  Ti  Ti702  1  0.00035786  0.00793389  0.77194736  1.0
  Ti  Ti703  1  0.00035786  0.34126723  0.77194736  1.0
  Ti  Ti704  1  0.00035786  0.67460056  0.77194736  1.0
  Ti  Ti705  1  0.33369119  0.00793389  0.77194736  1.0
  Ti  Ti706  1  0.33369119  0.34126723  0.77194736  1.0
  Ti  Ti707  1  0.33369119  0.67460056  0.77194736  1.0
  Ti  Ti708  1  0.66702452  0.00793389  0.77194736  1.0
  Ti  Ti709  1  0.66702452  0.34126723  0.77194736  1.0
  Ti  Ti710  1  0.66702452  0.67460056  0.77194736  1.0
  Ti  Ti711  1  0.07178643  0.10317199  0.84337593  1.0
  Ti  Ti712  1  0.07178643  0.43650532  0.84337593  1.0
  Ti  Ti713  1  0.07178643  0.76983865  0.84337593  1.0
  Ti  Ti714  1  0.40511976  0.10317199  0.84337593  1.0
  Ti  Ti715  1  0.40511976  0.43650532  0.84337593  1.0
  Ti  Ti716  1  0.40511976  0.76983865  0.84337593  1.0
  Ti  Ti717  1  0.73845310  0.10317199  0.84337593  1.0
  Ti  Ti718  1  0.73845310  0.43650532  0.84337593  1.0
  Ti  Ti719  1  0.73845310  0.76983865  0.84337593  1.0
  Ti  Ti720  1  0.19169824  0.08818301  0.75344207  1.0
  Ti  Ti721  1  0.19169824  0.42151635  0.75344207  1.0
  Ti  Ti722  1  0.19169824  0.75484968  0.75344207  1.0
  Ti  Ti723  1  0.52503157  0.08818301  0.75344207  1.0
  Ti  Ti724  1  0.52503157  0.42151635  0.75344207  1.0
  Ti  Ti725  1  0.52503157  0.75484968  0.75344207  1.0
  Ti  Ti726  1  0.85836490  0.08818301  0.75344207  1.0
  Ti  Ti727  1  0.85836490  0.42151635  0.75344207  1.0
  Ti  Ti728  1  0.85836490  0.75484968  0.75344207  1.0
  Ti  Ti729  1  0.26312681  0.18342111  0.82487064  1.0
  Ti  Ti730  1  0.26312681  0.51675444  0.82487064  1.0
  Ti  Ti731  1  0.26312681  0.85008777  0.82487064  1.0
  Ti  Ti732  1  0.59646014  0.18342111  0.82487064  1.0
  Ti  Ti733  1  0.59646014  0.51675444  0.82487064  1.0
  Ti  Ti734  1  0.59646014  0.85008777  0.82487064  1.0
  Ti  Ti735  1  0.92979348  0.18342111  0.82487064  1.0
  Ti  Ti736  1  0.92979348  0.51675444  0.82487064  1.0
  Ti  Ti737  1  0.92979348  0.85008777  0.82487064  1.0
  Ti  Ti738  1  0.05633558  0.17108425  0.72300225  1.0
  Ti  Ti739  1  0.05633558  0.50441758  0.72300225  1.0
  Ti  Ti740  1  0.05633558  0.83775092  0.72300225  1.0
  Ti  Ti741  1  0.38966892  0.17108425  0.72300225  1.0
  Ti  Ti742  1  0.38966892  0.50441758  0.72300225  1.0
  Ti  Ti743  1  0.38966892  0.83775092  0.72300225  1.0
  Ti  Ti744  1  0.72300225  0.17108425  0.72300225  1.0
  Ti  Ti745  1  0.72300225  0.50441758  0.72300225  1.0
  Ti  Ti746  1  0.72300225  0.83775092  0.72300225  1.0
  Ti  Ti747  1  0.12776415  0.26632235  0.79443082  1.0
  Ti  Ti748  1  0.12776415  0.59965568  0.79443082  1.0
  Ti  Ti749  1  0.12776415  0.93298901  0.79443082  1.0
  Ti  Ti750  1  0.46109749  0.26632235  0.79443082  1.0
  Ti  Ti751  1  0.46109749  0.59965568  0.79443082  1.0
  Ti  Ti752  1  0.46109749  0.93298901  0.79443082  1.0
  Ti  Ti753  1  0.79443082  0.26632235  0.79443082  1.0
  Ti  Ti754  1  0.79443082  0.59965568  0.79443082  1.0
  Ti  Ti755  1  0.79443082  0.93298901  0.79443082  1.0
  Ti  Ti756  1  0.12643773  0.15138811  0.79310439  1.0
  Ti  Ti757  1  0.12643773  0.48472144  0.79310439  1.0
  Ti  Ti758  1  0.12643773  0.81805477  0.79310439  1.0
  Ti  Ti759  1  0.45977106  0.15138811  0.79310439  1.0
  Ti  Ti760  1  0.45977106  0.48472144  0.79310439  1.0
  Ti  Ti761  1  0.45977106  0.81805477  0.79310439  1.0
  Ti  Ti762  1  0.79310439  0.15138811  0.79310439  1.0
  Ti  Ti763  1  0.79310439  0.48472144  0.79310439  1.0
  Ti  Ti764  1  0.79310439  0.81805477  0.79310439  1.0
  Ti  Ti765  1  0.05500915  0.05615001  0.72167582  1.0
  Ti  Ti766  1  0.05500915  0.38948335  0.72167582  1.0
  Ti  Ti767  1  0.05500915  0.72281668  0.72167582  1.0
  Ti  Ti768  1  0.38834249  0.05615001  0.72167582  1.0
  Ti  Ti769  1  0.38834249  0.38948335  0.72167582  1.0
  Ti  Ti770  1  0.38834249  0.72281668  0.72167582  1.0
  Ti  Ti771  1  0.72167582  0.05615001  0.72167582  1.0
  Ti  Ti772  1  0.72167582  0.38948335  0.72167582  1.0
  Ti  Ti773  1  0.72167582  0.72281668  0.72167582  1.0
  Ti  Ti774  1  0.26637788  0.06907037  0.81779971  1.0
  Ti  Ti775  1  0.26637788  0.40240370  0.81779971  1.0
  Ti  Ti776  1  0.26637788  0.73573704  0.81779971  1.0
  Ti  Ti777  1  0.59971121  0.06907037  0.81779971  1.0
  Ti  Ti778  1  0.59971121  0.40240370  0.81779971  1.0
  Ti  Ti779  1  0.59971121  0.73573704  0.81779971  1.0
  Ti  Ti780  1  0.93304455  0.06907037  0.81779971  1.0
  Ti  Ti781  1  0.93304455  0.40240370  0.81779971  1.0
  Ti  Ti782  1  0.93304455  0.73573704  0.81779971  1.0
  Ti  Ti783  1  0.19494931  0.30716561  0.74637114  1.0
  Ti  Ti784  1  0.19494931  0.64049894  0.74637114  1.0
  Ti  Ti785  1  0.19494931  0.97383227  0.74637114  1.0
  Ti  Ti786  1  0.52828264  0.30716561  0.74637114  1.0
  Ti  Ti787  1  0.52828264  0.64049894  0.74637114  1.0
  Ti  Ti788  1  0.52828264  0.97383227  0.74637114  1.0
  Ti  Ti789  1  0.86161598  0.30716561  0.74637114  1.0
  Ti  Ti790  1  0.86161598  0.64049894  0.74637114  1.0
  Ti  Ti791  1  0.86161598  0.97383227  0.74637114  1.0
  Ti  Ti792  1  0.06324093  0.32362915  0.84515243  1.0
  Ti  Ti793  1  0.06324093  0.65696249  0.84515243  1.0
  Ti  Ti794  1  0.06324093  0.99029582  0.84515243  1.0
  Ti  Ti795  1  0.39657426  0.32362915  0.84515243  1.0
  Ti  Ti796  1  0.39657426  0.65696249  0.84515243  1.0
  Ti  Ti797  1  0.39657426  0.99029582  0.84515243  1.0
  Ti  Ti798  1  0.72990760  0.32362915  0.84515243  1.0
  Ti  Ti799  1  0.72990760  0.65696249  0.84515243  1.0
  Ti  Ti800  1  0.72990760  0.99029582  0.84515243  1.0
  Ti  Ti801  1  0.32514569  0.22839106  0.77372386  1.0
  Ti  Ti802  1  0.32514569  0.56172439  0.77372386  1.0
  Ti  Ti803  1  0.32514569  0.89505773  0.77372386  1.0
  Ti  Ti804  1  0.65847902  0.22839106  0.77372386  1.0
  Ti  Ti805  1  0.65847902  0.56172439  0.77372386  1.0
  Ti  Ti806  1  0.65847902  0.89505773  0.77372386  1.0
  Ti  Ti807  1  0.99181236  0.22839106  0.77372386  1.0
  Ti  Ti808  1  0.99181236  0.56172439  0.77372386  1.0
  Ti  Ti809  1  0.99181236  0.89505773  0.77372386  1.0
  Ti  Ti810  1  0.04753129  0.00500877  0.60308685  1.0
  Ti  Ti811  1  0.04753129  0.33834210  0.60308685  1.0
  Ti  Ti812  1  0.04753129  0.67167543  0.60308685  1.0
  Ti  Ti813  1  0.38086462  0.00500877  0.60308685  1.0
  Ti  Ti814  1  0.38086462  0.33834210  0.60308685  1.0
  Ti  Ti815  1  0.38086462  0.67167543  0.60308685  1.0
  Ti  Ti816  1  0.71419796  0.00500877  0.60308685  1.0
  Ti  Ti817  1  0.71419796  0.33834210  0.60308685  1.0
  Ti  Ti818  1  0.71419796  0.67167543  0.60308685  1.0
  Ti  Ti819  1  0.11895986  0.10024686  0.67451542  1.0
  Ti  Ti820  1  0.11895986  0.43358019  0.67451542  1.0
  Ti  Ti821  1  0.11895986  0.76691353  0.67451542  1.0
  Ti  Ti822  1  0.45229319  0.10024686  0.67451542  1.0
  Ti  Ti823  1  0.45229319  0.43358019  0.67451542  1.0
  Ti  Ti824  1  0.45229319  0.76691353  0.67451542  1.0
  Ti  Ti825  1  0.78562653  0.10024686  0.67451542  1.0
  Ti  Ti826  1  0.78562653  0.43358019  0.67451542  1.0
  Ti  Ti827  1  0.78562653  0.76691353  0.67451542  1.0
  Ti  Ti828  1  0.32325477  0.18745489  0.65658811  1.0
  Ti  Ti829  1  0.32325477  0.52078823  0.65658811  1.0
  Ti  Ti830  1  0.32325477  0.85412156  0.65658811  1.0
  Ti  Ti831  1  0.65658811  0.18745489  0.65658811  1.0
  Ti  Ti832  1  0.65658811  0.52078823  0.65658811  1.0
  Ti  Ti833  1  0.65658811  0.85412156  0.65658811  1.0
  Ti  Ti834  1  0.98992144  0.18745489  0.65658811  1.0
  Ti  Ti835  1  0.98992144  0.52078823  0.65658811  1.0
  Ti  Ti836  1  0.98992144  0.85412156  0.65658811  1.0
  Ti  Ti837  1  0.25182620  0.09221680  0.58515954  1.0
  Ti  Ti838  1  0.25182620  0.42555013  0.58515954  1.0
  Ti  Ti839  1  0.25182620  0.75888346  0.58515954  1.0
  Ti  Ti840  1  0.58515954  0.09221680  0.58515954  1.0
  Ti  Ti841  1  0.58515954  0.42555013  0.58515954  1.0
  Ti  Ti842  1  0.58515954  0.75888346  0.58515954  1.0
  Ti  Ti843  1  0.91849287  0.09221680  0.58515954  1.0
  Ti  Ti844  1  0.91849287  0.42555013  0.58515954  1.0
  Ti  Ti845  1  0.91849287  0.75888346  0.58515954  1.0
  Ti  Ti846  1  0.18245192  0.25897702  0.62689637  1.0
  Ti  Ti847  1  0.18245192  0.59231035  0.62689637  1.0
  Ti  Ti848  1  0.18245192  0.92564369  0.62689637  1.0
  Ti  Ti849  1  0.51578526  0.25897702  0.62689637  1.0
  Ti  Ti850  1  0.51578526  0.59231035  0.62689637  1.0
  Ti  Ti851  1  0.51578526  0.92564369  0.62689637  1.0
  Ti  Ti852  1  0.84911859  0.25897702  0.62689637  1.0
  Ti  Ti853  1  0.84911859  0.59231035  0.62689637  1.0
  Ti  Ti854  1  0.84911859  0.92564369  0.62689637  1.0
  Ti  Ti855  1  0.25388050  0.02088178  0.69832494  1.0
  Ti  Ti856  1  0.25388050  0.35421512  0.69832494  1.0
  Ti  Ti857  1  0.25388050  0.68754845  0.69832494  1.0
  Ti  Ti858  1  0.58721383  0.02088178  0.69832494  1.0
  Ti  Ti859  1  0.58721383  0.35421512  0.69832494  1.0
  Ti  Ti860  1  0.58721383  0.68754845  0.69832494  1.0
  Ti  Ti861  1  0.92054716  0.02088178  0.69832494  1.0
  Ti  Ti862  1  0.92054716  0.35421512  0.69832494  1.0
  Ti  Ti863  1  0.92054716  0.68754845  0.69832494  1.0
  Ti  Ti864  1  0.19083405  0.15079104  0.62909021  1.0
  Ti  Ti865  1  0.19083405  0.48412437  0.62909021  1.0
  Ti  Ti866  1  0.19083405  0.81745770  0.62909021  1.0
  Ti  Ti867  1  0.52416738  0.15079104  0.62909021  1.0
  Ti  Ti868  1  0.52416738  0.48412437  0.62909021  1.0
  Ti  Ti869  1  0.52416738  0.81745770  0.62909021  1.0
  Ti  Ti870  1  0.85750071  0.15079104  0.62909021  1.0
  Ti  Ti871  1  0.85750071  0.48412437  0.62909021  1.0
  Ti  Ti872  1  0.85750071  0.81745770  0.62909021  1.0
  Ti  Ti873  1  0.26226262  0.24602913  0.70051879  1.0
  Ti  Ti874  1  0.26226262  0.57936246  0.70051879  1.0
  Ti  Ti875  1  0.26226262  0.91269580  0.70051879  1.0
  Ti  Ti876  1  0.59559595  0.24602913  0.70051879  1.0
  Ti  Ti877  1  0.59559595  0.57936246  0.70051879  1.0
  Ti  Ti878  1  0.59559595  0.91269580  0.70051879  1.0
  Ti  Ti879  1  0.92892929  0.24602913  0.70051879  1.0
  Ti  Ti880  1  0.92892929  0.57936246  0.70051879  1.0
  Ti  Ti881  1  0.92892929  0.91269580  0.70051879  1.0
  Ti  Ti882  1  0.04884110  0.23104015  0.61058493  1.0
  Ti  Ti883  1  0.04884110  0.56437349  0.61058493  1.0
  Ti  Ti884  1  0.04884110  0.89770682  0.61058493  1.0
  Ti  Ti885  1  0.38217443  0.23104015  0.61058493  1.0
  Ti  Ti886  1  0.38217443  0.56437349  0.61058493  1.0
  Ti  Ti887  1  0.38217443  0.89770682  0.61058493  1.0
  Ti  Ti888  1  0.71550776  0.23104015  0.61058493  1.0
  Ti  Ti889  1  0.71550776  0.56437349  0.61058493  1.0
  Ti  Ti890  1  0.71550776  0.89770682  0.61058493  1.0
  Ti  Ti891  1  0.12026967  0.32627825  0.68201350  1.0
  Ti  Ti892  1  0.12026967  0.65961158  0.68201350  1.0
  Ti  Ti893  1  0.12026967  0.99294492  0.68201350  1.0
  Ti  Ti894  1  0.45360300  0.32627825  0.68201350  1.0
  Ti  Ti895  1  0.45360300  0.65961158  0.68201350  1.0
  Ti  Ti896  1  0.45360300  0.99294492  0.68201350  1.0
  Ti  Ti897  1  0.78693633  0.32627825  0.68201350  1.0
  Ti  Ti898  1  0.78693633  0.65961158  0.68201350  1.0
  Ti  Ti899  1  0.78693633  0.99294492  0.68201350  1.0
  Ti  Ti900  1  0.24681177  0.31394139  0.58014511  1.0
  Ti  Ti901  1  0.24681177  0.64727473  0.58014511  1.0
  Ti  Ti902  1  0.24681177  0.98060806  0.58014511  1.0
  Ti  Ti903  1  0.58014511  0.31394139  0.58014511  1.0
  Ti  Ti904  1  0.58014511  0.64727473  0.58014511  1.0
  Ti  Ti905  1  0.58014511  0.98060806  0.58014511  1.0
  Ti  Ti906  1  0.91347844  0.31394139  0.58014511  1.0
  Ti  Ti907  1  0.91347844  0.64727473  0.58014511  1.0
  Ti  Ti908  1  0.91347844  0.98060806  0.58014511  1.0
  Ti  Ti909  1  0.31824035  0.07584615  0.65157368  1.0
  Ti  Ti910  1  0.31824035  0.40917949  0.65157368  1.0
  Ti  Ti911  1  0.31824035  0.74251282  0.65157368  1.0
  Ti  Ti912  1  0.65157368  0.07584615  0.65157368  1.0
  Ti  Ti913  1  0.65157368  0.40917949  0.65157368  1.0
  Ti  Ti914  1  0.65157368  0.74251282  0.65157368  1.0
  Ti  Ti915  1  0.98490701  0.07584615  0.65157368  1.0
  Ti  Ti916  1  0.98490701  0.40917949  0.65157368  1.0
  Ti  Ti917  1  0.98490701  0.74251282  0.65157368  1.0
  Ti  Ti918  1  0.31691392  0.29424525  0.65024725  1.0
  Ti  Ti919  1  0.31691392  0.62757858  0.65024725  1.0
  Ti  Ti920  1  0.31691392  0.96091192  0.65024725  1.0
  Ti  Ti921  1  0.65024725  0.29424525  0.65024725  1.0
  Ti  Ti922  1  0.65024725  0.62757858  0.65024725  1.0
  Ti  Ti923  1  0.65024725  0.96091192  0.65024725  1.0
  Ti  Ti924  1  0.98358058  0.29424525  0.65024725  1.0
  Ti  Ti925  1  0.98358058  0.62757858  0.65024725  1.0
  Ti  Ti926  1  0.98358058  0.96091192  0.65024725  1.0
  Ti  Ti927  1  0.24548535  0.19900715  0.57881868  1.0
  Ti  Ti928  1  0.24548535  0.53234049  0.57881868  1.0
  Ti  Ti929  1  0.24548535  0.86567382  0.57881868  1.0
  Ti  Ti930  1  0.57881868  0.19900715  0.57881868  1.0
  Ti  Ti931  1  0.57881868  0.53234049  0.57881868  1.0
  Ti  Ti932  1  0.57881868  0.86567382  0.57881868  1.0
  Ti  Ti933  1  0.91215201  0.19900715  0.57881868  1.0
  Ti  Ti934  1  0.91215201  0.53234049  0.57881868  1.0
  Ti  Ti935  1  0.91215201  0.86567382  0.57881868  1.0
  Ti  Ti936  1  0.12352074  0.21192751  0.67494257  1.0
  Ti  Ti937  1  0.12352074  0.54526085  0.67494257  1.0
  Ti  Ti938  1  0.12352074  0.87859418  0.67494257  1.0
  Ti  Ti939  1  0.45685407  0.21192751  0.67494257  1.0
  Ti  Ti940  1  0.45685407  0.54526085  0.67494257  1.0
  Ti  Ti941  1  0.45685407  0.87859418  0.67494257  1.0
  Ti  Ti942  1  0.79018740  0.21192751  0.67494257  1.0
  Ti  Ti943  1  0.79018740  0.54526085  0.67494257  1.0
  Ti  Ti944  1  0.79018740  0.87859418  0.67494257  1.0
  Ti  Ti945  1  0.05209217  0.11668942  0.60351400  1.0
  Ti  Ti946  1  0.05209217  0.45002275  0.60351400  1.0
  Ti  Ti947  1  0.05209217  0.78335608  0.60351400  1.0
  Ti  Ti948  1  0.38542550  0.11668942  0.60351400  1.0
  Ti  Ti949  1  0.38542550  0.45002275  0.60351400  1.0
  Ti  Ti950  1  0.38542550  0.78335608  0.60351400  1.0
  Ti  Ti951  1  0.71875883  0.11668942  0.60351400  1.0
  Ti  Ti952  1  0.71875883  0.45002275  0.60351400  1.0
  Ti  Ti953  1  0.71875883  0.78335608  0.60351400  1.0
  Ti  Ti954  1  0.25371712  0.13315296  0.70229529  1.0
  Ti  Ti955  1  0.25371712  0.46648630  0.70229529  1.0
  Ti  Ti956  1  0.25371712  0.79981963  0.70229529  1.0
  Ti  Ti957  1  0.58705045  0.13315296  0.70229529  1.0
  Ti  Ti958  1  0.58705045  0.46648630  0.70229529  1.0
  Ti  Ti959  1  0.58705045  0.79981963  0.70229529  1.0
  Ti  Ti960  1  0.92038379  0.13315296  0.70229529  1.0
  Ti  Ti961  1  0.92038379  0.46648630  0.70229529  1.0
  Ti  Ti962  1  0.92038379  0.79981963  0.70229529  1.0
  Ti  Ti963  1  0.18228855  0.03791487  0.63086671  1.0
  Ti  Ti964  1  0.18228855  0.37124820  0.63086671  1.0
  Ti  Ti965  1  0.18228855  0.70458154  0.63086671  1.0
  Ti  Ti966  1  0.51562188  0.03791487  0.63086671  1.0
  Ti  Ti967  1  0.51562188  0.37124820  0.63086671  1.0
  Ti  Ti968  1  0.51562188  0.70458154  0.63086671  1.0
  Ti  Ti969  1  0.84895521  0.03791487  0.63086671  1.0
  Ti  Ti970  1  0.84895521  0.37124820  0.63086671  1.0
  Ti  Ti971  1  0.84895521  0.70458154  0.63086671  1.0
