# generated using pymatgen
data_TiNi
_symmetry_space_group_name_H-M   'P 1'
_cell_length_a   26.12637653
_cell_length_b   39.22695659
_cell_length_c   93.94562476
_cell_angle_alpha   25.21833334
_cell_angle_beta   90.00000000
_cell_angle_gamma   70.54808764
_symmetry_Int_Tables_number   1
_chemical_formula_structural   TiNi
_chemical_formula_sum   'Ti360 Ni360'
_cell_volume   25588.86598863
_cell_formula_units_Z   360
loop_
 _symmetry_equiv_pos_site_id
 _symmetry_equiv_pos_as_xyz
  1  'x, y, z'
loop_
 _atom_site_type_symbol
 _atom_site_label
 _atom_site_symmetry_multiplicity
 _atom_site_fract_x
 _atom_site_fract_y
 _atom_site_fract_z
 _atom_site_occupancy
  Ti  Ti0  1  0.24272000  0.18122667  0.02902077  1.0
  Ti  Ti1  1  0.24272000  0.51456000  0.02902077  1.0
  Ti  Ti2  1  0.24272000  0.84789333  0.02902077  1.0
  Ti  Ti3  1  0.57605333  0.18122667  0.02902077  1.0
  Ti  Ti4  1  0.57605333  0.51456000  0.02902077  1.0
  Ti  Ti5  1  0.57605333  0.84789333  0.02902077  1.0
  Ti  Ti6  1  0.90938667  0.18122667  0.02902077  1.0
  Ti  Ti7  1  0.90938667  0.51456000  0.02902077  1.0
  Ti  Ti8  1  0.90938667  0.84789333  0.02902077  1.0
  Ti  Ti9  1  0.09061333  0.15210667  0.03574077  1.0
  Ti  Ti10  1  0.09061333  0.48544000  0.03574077  1.0
  Ti  Ti11  1  0.09061333  0.81877333  0.03574077  1.0
  Ti  Ti12  1  0.42394667  0.15210667  0.03574077  1.0
  Ti  Ti13  1  0.42394667  0.48544000  0.03574077  1.0
  Ti  Ti14  1  0.42394667  0.81877333  0.03574077  1.0
  Ti  Ti15  1  0.75728000  0.15210667  0.03574077  1.0
  Ti  Ti16  1  0.75728000  0.48544000  0.03574077  1.0
  Ti  Ti17  1  0.75728000  0.81877333  0.03574077  1.0
  Ti  Ti18  1  0.08333333  0.00000000  0.03238077  1.0
  Ti  Ti19  1  0.08333333  0.33333333  0.03238077  1.0
  Ti  Ti20  1  0.08333333  0.66666667  0.03238077  1.0
  Ti  Ti21  1  0.41666667  0.00000000  0.03238077  1.0
  Ti  Ti22  1  0.41666667  0.33333333  0.03238077  1.0
  Ti  Ti23  1  0.41666667  0.66666667  0.03238077  1.0
  Ti  Ti24  1  0.75000000  0.00000000  0.03238077  1.0
  Ti  Ti25  1  0.75000000  0.33333333  0.03238077  1.0
  Ti  Ti26  1  0.75000000  0.66666667  0.03238077  1.0
  Ti  Ti27  1  0.25000000  0.00000000  0.03238077  1.0
  Ti  Ti28  1  0.25000000  0.33333333  0.03238077  1.0
  Ti  Ti29  1  0.25000000  0.66666667  0.03238077  1.0
  Ti  Ti30  1  0.58333333  0.00000000  0.03238077  1.0
  Ti  Ti31  1  0.58333333  0.33333333  0.03238077  1.0
  Ti  Ti32  1  0.58333333  0.66666667  0.03238077  1.0
  Ti  Ti33  1  0.91666667  0.00000000  0.03238077  1.0
  Ti  Ti34  1  0.91666667  0.33333333  0.03238077  1.0
  Ti  Ti35  1  0.91666667  0.66666667  0.03238077  1.0
  Ti  Ti36  1  0.16666667  0.16666667  0.07084231  1.0
  Ti  Ti37  1  0.16666667  0.50000000  0.07084231  1.0
  Ti  Ti38  1  0.16666667  0.83333333  0.07084231  1.0
  Ti  Ti39  1  0.50000000  0.16666667  0.07084231  1.0
  Ti  Ti40  1  0.50000000  0.50000000  0.07084231  1.0
  Ti  Ti41  1  0.50000000  0.83333333  0.07084231  1.0
  Ti  Ti42  1  0.83333333  0.16666667  0.07084231  1.0
  Ti  Ti43  1  0.83333333  0.50000000  0.07084231  1.0
  Ti  Ti44  1  0.83333333  0.83333333  0.07084231  1.0
  Ti  Ti45  1  0.00000000  0.16666667  0.07084231  1.0
  Ti  Ti46  1  0.00000000  0.50000000  0.07084231  1.0
  Ti  Ti47  1  0.00000000  0.83333333  0.07084231  1.0
  Ti  Ti48  1  0.33333333  0.16666667  0.07084231  1.0
  Ti  Ti49  1  0.33333333  0.50000000  0.07084231  1.0
  Ti  Ti50  1  0.33333333  0.83333333  0.07084231  1.0
  Ti  Ti51  1  0.66666667  0.16666667  0.07084231  1.0
  Ti  Ti52  1  0.66666667  0.50000000  0.07084231  1.0
  Ti  Ti53  1  0.66666667  0.83333333  0.07084231  1.0
  Ti  Ti54  1  0.16666667  0.00000000  0.07084231  1.0
  Ti  Ti55  1  0.16666667  0.33333333  0.07084231  1.0
  Ti  Ti56  1  0.16666667  0.66666667  0.07084231  1.0
  Ti  Ti57  1  0.50000000  0.00000000  0.07084231  1.0
  Ti  Ti58  1  0.50000000  0.33333333  0.07084231  1.0
  Ti  Ti59  1  0.50000000  0.66666667  0.07084231  1.0
  Ti  Ti60  1  0.83333333  0.00000000  0.07084231  1.0
  Ti  Ti61  1  0.83333333  0.33333333  0.07084231  1.0
  Ti  Ti62  1  0.83333333  0.66666667  0.07084231  1.0
  Ti  Ti63  1  0.00000000  0.00000000  0.07084231  1.0
  Ti  Ti64  1  0.00000000  0.33333333  0.07084231  1.0
  Ti  Ti65  1  0.00000000  0.66666667  0.07084231  1.0
  Ti  Ti66  1  0.33333333  0.00000000  0.07084231  1.0
  Ti  Ti67  1  0.33333333  0.33333333  0.07084231  1.0
  Ti  Ti68  1  0.33333333  0.66666667  0.07084231  1.0
  Ti  Ti69  1  0.66666667  0.00000000  0.07084231  1.0
  Ti  Ti70  1  0.66666667  0.33333333  0.07084231  1.0
  Ti  Ti71  1  0.66666667  0.66666667  0.07084231  1.0
  Ni  Ni72  1  0.03156133  0.27021067  0.04303646  1.0
  Ni  Ni73  1  0.03156133  0.60354400  0.04303646  1.0
  Ni  Ni74  1  0.03156133  0.93687733  0.04303646  1.0
  Ni  Ni75  1  0.36489467  0.27021067  0.04303646  1.0
  Ni  Ni76  1  0.36489467  0.60354400  0.04303646  1.0
  Ni  Ni77  1  0.36489467  0.93687733  0.04303646  1.0
  Ni  Ni78  1  0.69822800  0.27021067  0.04303646  1.0
  Ni  Ni79  1  0.69822800  0.60354400  0.04303646  1.0
  Ni  Ni80  1  0.69822800  0.93687733  0.04303646  1.0
  Ni  Ni81  1  0.21517600  0.23631467  0.05868077  1.0
  Ni  Ni82  1  0.21517600  0.56964800  0.05868077  1.0
  Ni  Ni83  1  0.21517600  0.90298133  0.05868077  1.0
  Ni  Ni84  1  0.54850933  0.23631467  0.05868077  1.0
  Ni  Ni85  1  0.54850933  0.56964800  0.05868077  1.0
  Ni  Ni86  1  0.54850933  0.90298133  0.05868077  1.0
  Ni  Ni87  1  0.88184267  0.23631467  0.05868077  1.0
  Ni  Ni88  1  0.88184267  0.56964800  0.05868077  1.0
  Ni  Ni89  1  0.88184267  0.90298133  0.05868077  1.0
  Ni  Ni90  1  0.21517600  0.08659600  0.05085862  1.0
  Ni  Ni91  1  0.21517600  0.41992933  0.05085862  1.0
  Ni  Ni92  1  0.21517600  0.75326267  0.05085862  1.0
  Ni  Ni93  1  0.54850933  0.08659600  0.05085862  1.0
  Ni  Ni94  1  0.54850933  0.41992933  0.05085862  1.0
  Ni  Ni95  1  0.54850933  0.75326267  0.05085862  1.0
  Ni  Ni96  1  0.88184267  0.08659600  0.05085862  1.0
  Ni  Ni97  1  0.88184267  0.41992933  0.05085862  1.0
  Ni  Ni98  1  0.88184267  0.75326267  0.05085862  1.0
  Ni  Ni99  1  0.03156133  0.08659600  0.05085862  1.0
  Ni  Ni100  1  0.03156133  0.41992933  0.05085862  1.0
  Ni  Ni101  1  0.03156133  0.75326267  0.05085862  1.0
  Ni  Ni102  1  0.36489467  0.08659600  0.05085862  1.0
  Ni  Ni103  1  0.36489467  0.41992933  0.05085862  1.0
  Ni  Ni104  1  0.36489467  0.75326267  0.05085862  1.0
  Ni  Ni105  1  0.69822800  0.08659600  0.05085862  1.0
  Ni  Ni106  1  0.69822800  0.41992933  0.05085862  1.0
  Ni  Ni107  1  0.69822800  0.75326267  0.05085862  1.0
  Ni  Ni108  1  0.30177200  0.06312267  0.02172508  1.0
  Ni  Ni109  1  0.30177200  0.39645600  0.02172508  1.0
  Ni  Ni110  1  0.30177200  0.72978933  0.02172508  1.0
  Ni  Ni111  1  0.63510533  0.06312267  0.02172508  1.0
  Ni  Ni112  1  0.63510533  0.39645600  0.02172508  1.0
  Ni  Ni113  1  0.63510533  0.72978933  0.02172508  1.0
  Ni  Ni114  1  0.96843867  0.06312267  0.02172508  1.0
  Ni  Ni115  1  0.96843867  0.39645600  0.02172508  1.0
  Ni  Ni116  1  0.96843867  0.72978933  0.02172508  1.0
  Ni  Ni117  1  0.11815733  0.09701867  0.00608077  1.0
  Ni  Ni118  1  0.11815733  0.43035200  0.00608077  1.0
  Ni  Ni119  1  0.11815733  0.76368533  0.00608077  1.0
  Ni  Ni120  1  0.45149067  0.09701867  0.00608077  1.0
  Ni  Ni121  1  0.45149067  0.43035200  0.00608077  1.0
  Ni  Ni122  1  0.45149067  0.76368533  0.00608077  1.0
  Ni  Ni123  1  0.78482400  0.09701867  0.00608077  1.0
  Ni  Ni124  1  0.78482400  0.43035200  0.00608077  1.0
  Ni  Ni125  1  0.78482400  0.76368533  0.00608077  1.0
  Ni  Ni126  1  0.11815733  0.24673733  0.01390292  1.0
  Ni  Ni127  1  0.11815733  0.58007067  0.01390292  1.0
  Ni  Ni128  1  0.11815733  0.91340400  0.01390292  1.0
  Ni  Ni129  1  0.45149067  0.24673733  0.01390292  1.0
  Ni  Ni130  1  0.45149067  0.58007067  0.01390292  1.0
  Ni  Ni131  1  0.45149067  0.91340400  0.01390292  1.0
  Ni  Ni132  1  0.78482400  0.24673733  0.01390292  1.0
  Ni  Ni133  1  0.78482400  0.58007067  0.01390292  1.0
  Ni  Ni134  1  0.78482400  0.91340400  0.01390292  1.0
  Ni  Ni135  1  0.30177200  0.24673733  0.01390292  1.0
  Ni  Ni136  1  0.30177200  0.58007067  0.01390292  1.0
  Ni  Ni137  1  0.30177200  0.91340400  0.01390292  1.0
  Ni  Ni138  1  0.63510533  0.24673733  0.01390292  1.0
  Ni  Ni139  1  0.63510533  0.58007067  0.01390292  1.0
  Ni  Ni140  1  0.63510533  0.91340400  0.01390292  1.0
  Ni  Ni141  1  0.96843867  0.24673733  0.01390292  1.0
  Ni  Ni142  1  0.96843867  0.58007067  0.01390292  1.0
  Ni  Ni143  1  0.96843867  0.91340400  0.01390292  1.0
  Ti  Ti144  1  0.24272000  0.18122667  0.10594385  1.0
  Ti  Ti145  1  0.24272000  0.51456000  0.10594385  1.0
  Ti  Ti146  1  0.24272000  0.84789333  0.10594385  1.0
  Ti  Ti147  1  0.57605333  0.18122667  0.10594385  1.0
  Ti  Ti148  1  0.57605333  0.51456000  0.10594385  1.0
  Ti  Ti149  1  0.57605333  0.84789333  0.10594385  1.0
  Ti  Ti150  1  0.90938667  0.18122667  0.10594385  1.0
  Ti  Ti151  1  0.90938667  0.51456000  0.10594385  1.0
  Ti  Ti152  1  0.90938667  0.84789333  0.10594385  1.0
  Ti  Ti153  1  0.09061333  0.15210667  0.11266385  1.0
  Ti  Ti154  1  0.09061333  0.48544000  0.11266385  1.0
  Ti  Ti155  1  0.09061333  0.81877333  0.11266385  1.0
  Ti  Ti156  1  0.42394667  0.15210667  0.11266385  1.0
  Ti  Ti157  1  0.42394667  0.48544000  0.11266385  1.0
  Ti  Ti158  1  0.42394667  0.81877333  0.11266385  1.0
  Ti  Ti159  1  0.75728000  0.15210667  0.11266385  1.0
  Ti  Ti160  1  0.75728000  0.48544000  0.11266385  1.0
  Ti  Ti161  1  0.75728000  0.81877333  0.11266385  1.0
  Ti  Ti162  1  0.08333333  0.00000000  0.10930385  1.0
  Ti  Ti163  1  0.08333333  0.33333333  0.10930385  1.0
  Ti  Ti164  1  0.08333333  0.66666667  0.10930385  1.0
  Ti  Ti165  1  0.41666667  0.00000000  0.10930385  1.0
  Ti  Ti166  1  0.41666667  0.33333333  0.10930385  1.0
  Ti  Ti167  1  0.41666667  0.66666667  0.10930385  1.0
  Ti  Ti168  1  0.75000000  0.00000000  0.10930385  1.0
  Ti  Ti169  1  0.75000000  0.33333333  0.10930385  1.0
  Ti  Ti170  1  0.75000000  0.66666667  0.10930385  1.0
  Ti  Ti171  1  0.25000000  0.00000000  0.10930385  1.0
  Ti  Ti172  1  0.25000000  0.33333333  0.10930385  1.0
  Ti  Ti173  1  0.25000000  0.66666667  0.10930385  1.0
  Ti  Ti174  1  0.58333333  0.00000000  0.10930385  1.0
  Ti  Ti175  1  0.58333333  0.33333333  0.10930385  1.0
  Ti  Ti176  1  0.58333333  0.66666667  0.10930385  1.0
  Ti  Ti177  1  0.91666667  0.00000000  0.10930385  1.0
  Ti  Ti178  1  0.91666667  0.33333333  0.10930385  1.0
  Ti  Ti179  1  0.91666667  0.66666667  0.10930385  1.0
  Ti  Ti180  1  0.16666667  0.16666667  0.14776538  1.0
  Ti  Ti181  1  0.16666667  0.50000000  0.14776538  1.0
  Ti  Ti182  1  0.16666667  0.83333333  0.14776538  1.0
  Ti  Ti183  1  0.50000000  0.16666667  0.14776538  1.0
  Ti  Ti184  1  0.50000000  0.50000000  0.14776538  1.0
  Ti  Ti185  1  0.50000000  0.83333333  0.14776538  1.0
  Ti  Ti186  1  0.83333333  0.16666667  0.14776538  1.0
  Ti  Ti187  1  0.83333333  0.50000000  0.14776538  1.0
  Ti  Ti188  1  0.83333333  0.83333333  0.14776538  1.0
  Ti  Ti189  1  0.00000000  0.16666667  0.14776538  1.0
  Ti  Ti190  1  0.00000000  0.50000000  0.14776538  1.0
  Ti  Ti191  1  0.00000000  0.83333333  0.14776538  1.0
  Ti  Ti192  1  0.33333333  0.16666667  0.14776538  1.0
  Ti  Ti193  1  0.33333333  0.50000000  0.14776538  1.0
  Ti  Ti194  1  0.33333333  0.83333333  0.14776538  1.0
  Ti  Ti195  1  0.66666667  0.16666667  0.14776538  1.0
  Ti  Ti196  1  0.66666667  0.50000000  0.14776538  1.0
  Ti  Ti197  1  0.66666667  0.83333333  0.14776538  1.0
  Ti  Ti198  1  0.16666667  0.00000000  0.14776538  1.0
  Ti  Ti199  1  0.16666667  0.33333333  0.14776538  1.0
  Ti  Ti200  1  0.16666667  0.66666667  0.14776538  1.0
  Ti  Ti201  1  0.50000000  0.00000000  0.14776538  1.0
  Ti  Ti202  1  0.50000000  0.33333333  0.14776538  1.0
  Ti  Ti203  1  0.50000000  0.66666667  0.14776538  1.0
  Ti  Ti204  1  0.83333333  0.00000000  0.14776538  1.0
  Ti  Ti205  1  0.83333333  0.33333333  0.14776538  1.0
  Ti  Ti206  1  0.83333333  0.66666667  0.14776538  1.0
  Ti  Ti207  1  0.00000000  0.00000000  0.14776538  1.0
  Ti  Ti208  1  0.00000000  0.33333333  0.14776538  1.0
  Ti  Ti209  1  0.00000000  0.66666667  0.14776538  1.0
  Ti  Ti210  1  0.33333333  0.00000000  0.14776538  1.0
  Ti  Ti211  1  0.33333333  0.33333333  0.14776538  1.0
  Ti  Ti212  1  0.33333333  0.66666667  0.14776538  1.0
  Ti  Ti213  1  0.66666667  0.00000000  0.14776538  1.0
  Ti  Ti214  1  0.66666667  0.33333333  0.14776538  1.0
  Ti  Ti215  1  0.66666667  0.66666667  0.14776538  1.0
  Ni  Ni216  1  0.03156133  0.27021067  0.11995954  1.0
  Ni  Ni217  1  0.03156133  0.60354400  0.11995954  1.0
  Ni  Ni218  1  0.03156133  0.93687733  0.11995954  1.0
  Ni  Ni219  1  0.36489467  0.27021067  0.11995954  1.0
  Ni  Ni220  1  0.36489467  0.60354400  0.11995954  1.0
  Ni  Ni221  1  0.36489467  0.93687733  0.11995954  1.0
  Ni  Ni222  1  0.69822800  0.27021067  0.11995954  1.0
  Ni  Ni223  1  0.69822800  0.60354400  0.11995954  1.0
  Ni  Ni224  1  0.69822800  0.93687733  0.11995954  1.0
  Ni  Ni225  1  0.21517600  0.23631467  0.13560385  1.0
  Ni  Ni226  1  0.21517600  0.56964800  0.13560385  1.0
  Ni  Ni227  1  0.21517600  0.90298133  0.13560385  1.0
  Ni  Ni228  1  0.54850933  0.23631467  0.13560385  1.0
  Ni  Ni229  1  0.54850933  0.56964800  0.13560385  1.0
  Ni  Ni230  1  0.54850933  0.90298133  0.13560385  1.0
  Ni  Ni231  1  0.88184267  0.23631467  0.13560385  1.0
  Ni  Ni232  1  0.88184267  0.56964800  0.13560385  1.0
  Ni  Ni233  1  0.88184267  0.90298133  0.13560385  1.0
  Ni  Ni234  1  0.21517600  0.08659600  0.12778169  1.0
  Ni  Ni235  1  0.21517600  0.41992933  0.12778169  1.0
  Ni  Ni236  1  0.21517600  0.75326267  0.12778169  1.0
  Ni  Ni237  1  0.54850933  0.08659600  0.12778169  1.0
  Ni  Ni238  1  0.54850933  0.41992933  0.12778169  1.0
  Ni  Ni239  1  0.54850933  0.75326267  0.12778169  1.0
  Ni  Ni240  1  0.88184267  0.08659600  0.12778169  1.0
  Ni  Ni241  1  0.88184267  0.41992933  0.12778169  1.0
  Ni  Ni242  1  0.88184267  0.75326267  0.12778169  1.0
  Ni  Ni243  1  0.03156133  0.08659600  0.12778169  1.0
  Ni  Ni244  1  0.03156133  0.41992933  0.12778169  1.0
  Ni  Ni245  1  0.03156133  0.75326267  0.12778169  1.0
  Ni  Ni246  1  0.36489467  0.08659600  0.12778169  1.0
  Ni  Ni247  1  0.36489467  0.41992933  0.12778169  1.0
  Ni  Ni248  1  0.36489467  0.75326267  0.12778169  1.0
  Ni  Ni249  1  0.69822800  0.08659600  0.12778169  1.0
  Ni  Ni250  1  0.69822800  0.41992933  0.12778169  1.0
  Ni  Ni251  1  0.69822800  0.75326267  0.12778169  1.0
  Ni  Ni252  1  0.30177200  0.06312267  0.09864815  1.0
  Ni  Ni253  1  0.30177200  0.39645600  0.09864815  1.0
  Ni  Ni254  1  0.30177200  0.72978933  0.09864815  1.0
  Ni  Ni255  1  0.63510533  0.06312267  0.09864815  1.0
  Ni  Ni256  1  0.63510533  0.39645600  0.09864815  1.0
  Ni  Ni257  1  0.63510533  0.72978933  0.09864815  1.0
  Ni  Ni258  1  0.96843867  0.06312267  0.09864815  1.0
  Ni  Ni259  1  0.96843867  0.39645600  0.09864815  1.0
  Ni  Ni260  1  0.96843867  0.72978933  0.09864815  1.0
  Ni  Ni261  1  0.11815733  0.09701867  0.08300385  1.0
  Ni  Ni262  1  0.11815733  0.43035200  0.08300385  1.0
  Ni  Ni263  1  0.11815733  0.76368533  0.08300385  1.0
  Ni  Ni264  1  0.45149067  0.09701867  0.08300385  1.0
  Ni  Ni265  1  0.45149067  0.43035200  0.08300385  1.0
  Ni  Ni266  1  0.45149067  0.76368533  0.08300385  1.0
  Ni  Ni267  1  0.78482400  0.09701867  0.08300385  1.0
  Ni  Ni268  1  0.78482400  0.43035200  0.08300385  1.0
  Ni  Ni269  1  0.78482400  0.76368533  0.08300385  1.0
  Ni  Ni270  1  0.11815733  0.24673733  0.09082600  1.0
  Ni  Ni271  1  0.11815733  0.58007067  0.09082600  1.0
  Ni  Ni272  1  0.11815733  0.91340400  0.09082600  1.0
  Ni  Ni273  1  0.45149067  0.24673733  0.09082600  1.0
  Ni  Ni274  1  0.45149067  0.58007067  0.09082600  1.0
  Ni  Ni275  1  0.45149067  0.91340400  0.09082600  1.0
  Ni  Ni276  1  0.78482400  0.24673733  0.09082600  1.0
  Ni  Ni277  1  0.78482400  0.58007067  0.09082600  1.0
  Ni  Ni278  1  0.78482400  0.91340400  0.09082600  1.0
  Ni  Ni279  1  0.30177200  0.24673733  0.09082600  1.0
  Ni  Ni280  1  0.30177200  0.58007067  0.09082600  1.0
  Ni  Ni281  1  0.30177200  0.91340400  0.09082600  1.0
  Ni  Ni282  1  0.63510533  0.24673733  0.09082600  1.0
  Ni  Ni283  1  0.63510533  0.58007067  0.09082600  1.0
  Ni  Ni284  1  0.63510533  0.91340400  0.09082600  1.0
  Ni  Ni285  1  0.96843867  0.24673733  0.09082600  1.0
  Ni  Ni286  1  0.96843867  0.58007067  0.09082600  1.0
  Ni  Ni287  1  0.96843867  0.91340400  0.09082600  1.0
  Ti  Ti288  1  0.24272000  0.18122667  0.18286692  1.0
  Ti  Ti289  1  0.24272000  0.51456000  0.18286692  1.0
  Ti  Ti290  1  0.24272000  0.84789333  0.18286692  1.0
  Ti  Ti291  1  0.57605333  0.18122667  0.18286692  1.0
  Ti  Ti292  1  0.57605333  0.51456000  0.18286692  1.0
  Ti  Ti293  1  0.57605333  0.84789333  0.18286692  1.0
  Ti  Ti294  1  0.90938667  0.18122667  0.18286692  1.0
  Ti  Ti295  1  0.90938667  0.51456000  0.18286692  1.0
  Ti  Ti296  1  0.90938667  0.84789333  0.18286692  1.0
  Ti  Ti297  1  0.09061333  0.15210667  0.18958692  1.0
  Ti  Ti298  1  0.09061333  0.48544000  0.18958692  1.0
  Ti  Ti299  1  0.09061333  0.81877333  0.18958692  1.0
  Ti  Ti300  1  0.42394667  0.15210667  0.18958692  1.0
  Ti  Ti301  1  0.42394667  0.48544000  0.18958692  1.0
  Ti  Ti302  1  0.42394667  0.81877333  0.18958692  1.0
  Ti  Ti303  1  0.75728000  0.15210667  0.18958692  1.0
  Ti  Ti304  1  0.75728000  0.48544000  0.18958692  1.0
  Ti  Ti305  1  0.75728000  0.81877333  0.18958692  1.0
  Ti  Ti306  1  0.08333333  0.00000000  0.18622692  1.0
  Ti  Ti307  1  0.08333333  0.33333333  0.18622692  1.0
  Ti  Ti308  1  0.08333333  0.66666667  0.18622692  1.0
  Ti  Ti309  1  0.41666667  0.00000000  0.18622692  1.0
  Ti  Ti310  1  0.41666667  0.33333333  0.18622692  1.0
  Ti  Ti311  1  0.41666667  0.66666667  0.18622692  1.0
  Ti  Ti312  1  0.75000000  0.00000000  0.18622692  1.0
  Ti  Ti313  1  0.75000000  0.33333333  0.18622692  1.0
  Ti  Ti314  1  0.75000000  0.66666667  0.18622692  1.0
  Ti  Ti315  1  0.25000000  0.00000000  0.18622692  1.0
  Ti  Ti316  1  0.25000000  0.33333333  0.18622692  1.0
  Ti  Ti317  1  0.25000000  0.66666667  0.18622692  1.0
  Ti  Ti318  1  0.58333333  0.00000000  0.18622692  1.0
  Ti  Ti319  1  0.58333333  0.33333333  0.18622692  1.0
  Ti  Ti320  1  0.58333333  0.66666667  0.18622692  1.0
  Ti  Ti321  1  0.91666667  0.00000000  0.18622692  1.0
  Ti  Ti322  1  0.91666667  0.33333333  0.18622692  1.0
  Ti  Ti323  1  0.91666667  0.66666667  0.18622692  1.0
  Ti  Ti324  1  0.16666667  0.16666667  0.22468846  1.0
  Ti  Ti325  1  0.16666667  0.50000000  0.22468846  1.0
  Ti  Ti326  1  0.16666667  0.83333333  0.22468846  1.0
  Ti  Ti327  1  0.50000000  0.16666667  0.22468846  1.0
  Ti  Ti328  1  0.50000000  0.50000000  0.22468846  1.0
  Ti  Ti329  1  0.50000000  0.83333333  0.22468846  1.0
  Ti  Ti330  1  0.83333333  0.16666667  0.22468846  1.0
  Ti  Ti331  1  0.83333333  0.50000000  0.22468846  1.0
  Ti  Ti332  1  0.83333333  0.83333333  0.22468846  1.0
  Ti  Ti333  1  0.00000000  0.16666667  0.22468846  1.0
  Ti  Ti334  1  0.00000000  0.50000000  0.22468846  1.0
  Ti  Ti335  1  0.00000000  0.83333333  0.22468846  1.0
  Ti  Ti336  1  0.33333333  0.16666667  0.22468846  1.0
  Ti  Ti337  1  0.33333333  0.50000000  0.22468846  1.0
  Ti  Ti338  1  0.33333333  0.83333333  0.22468846  1.0
  Ti  Ti339  1  0.66666667  0.16666667  0.22468846  1.0
  Ti  Ti340  1  0.66666667  0.50000000  0.22468846  1.0
  Ti  Ti341  1  0.66666667  0.83333333  0.22468846  1.0
  Ti  Ti342  1  0.16666667  0.00000000  0.22468846  1.0
  Ti  Ti343  1  0.16666667  0.33333333  0.22468846  1.0
  Ti  Ti344  1  0.16666667  0.66666667  0.22468846  1.0
  Ti  Ti345  1  0.50000000  0.00000000  0.22468846  1.0
  Ti  Ti346  1  0.50000000  0.33333333  0.22468846  1.0
  Ti  Ti347  1  0.50000000  0.66666667  0.22468846  1.0
  Ti  Ti348  1  0.83333333  0.00000000  0.22468846  1.0
  Ti  Ti349  1  0.83333333  0.33333333  0.22468846  1.0
  Ti  Ti350  1  0.83333333  0.66666667  0.22468846  1.0
  Ti  Ti351  1  0.00000000  0.00000000  0.22468846  1.0
  Ti  Ti352  1  0.00000000  0.33333333  0.22468846  1.0
  Ti  Ti353  1  0.00000000  0.66666667  0.22468846  1.0
  Ti  Ti354  1  0.33333333  0.00000000  0.22468846  1.0
  Ti  Ti355  1  0.33333333  0.33333333  0.22468846  1.0
  Ti  Ti356  1  0.33333333  0.66666667  0.22468846  1.0
  Ti  Ti357  1  0.66666667  0.00000000  0.22468846  1.0
  Ti  Ti358  1  0.66666667  0.33333333  0.22468846  1.0
  Ti  Ti359  1  0.66666667  0.66666667  0.22468846  1.0
  Ni  Ni360  1  0.03156133  0.27021067  0.19688262  1.0
  Ni  Ni361  1  0.03156133  0.60354400  0.19688262  1.0
  Ni  Ni362  1  0.03156133  0.93687733  0.19688262  1.0
  Ni  Ni363  1  0.36489467  0.27021067  0.19688262  1.0
  Ni  Ni364  1  0.36489467  0.60354400  0.19688262  1.0
  Ni  Ni365  1  0.36489467  0.93687733  0.19688262  1.0
  Ni  Ni366  1  0.69822800  0.27021067  0.19688262  1.0
  Ni  Ni367  1  0.69822800  0.60354400  0.19688262  1.0
  Ni  Ni368  1  0.69822800  0.93687733  0.19688262  1.0
  Ni  Ni369  1  0.21517600  0.23631467  0.21252692  1.0
  Ni  Ni370  1  0.21517600  0.56964800  0.21252692  1.0
  Ni  Ni371  1  0.21517600  0.90298133  0.21252692  1.0
  Ni  Ni372  1  0.54850933  0.23631467  0.21252692  1.0
  Ni  Ni373  1  0.54850933  0.56964800  0.21252692  1.0
  Ni  Ni374  1  0.54850933  0.90298133  0.21252692  1.0
  Ni  Ni375  1  0.88184267  0.23631467  0.21252692  1.0
  Ni  Ni376  1  0.88184267  0.56964800  0.21252692  1.0
  Ni  Ni377  1  0.88184267  0.90298133  0.21252692  1.0
  Ni  Ni378  1  0.21517600  0.08659600  0.20470477  1.0
  Ni  Ni379  1  0.21517600  0.41992933  0.20470477  1.0
  Ni  Ni380  1  0.21517600  0.75326267  0.20470477  1.0
  Ni  Ni381  1  0.54850933  0.08659600  0.20470477  1.0
  Ni  Ni382  1  0.54850933  0.41992933  0.20470477  1.0
  Ni  Ni383  1  0.54850933  0.75326267  0.20470477  1.0
  Ni  Ni384  1  0.88184267  0.08659600  0.20470477  1.0
  Ni  Ni385  1  0.88184267  0.41992933  0.20470477  1.0
  Ni  Ni386  1  0.88184267  0.75326267  0.20470477  1.0
  Ni  Ni387  1  0.03156133  0.08659600  0.20470477  1.0
  Ni  Ni388  1  0.03156133  0.41992933  0.20470477  1.0
  Ni  Ni389  1  0.03156133  0.75326267  0.20470477  1.0
  Ni  Ni390  1  0.36489467  0.08659600  0.20470477  1.0
  Ni  Ni391  1  0.36489467  0.41992933  0.20470477  1.0
  Ni  Ni392  1  0.36489467  0.75326267  0.20470477  1.0
  Ni  Ni393  1  0.69822800  0.08659600  0.20470477  1.0
  Ni  Ni394  1  0.69822800  0.41992933  0.20470477  1.0
  Ni  Ni395  1  0.69822800  0.75326267  0.20470477  1.0
  Ni  Ni396  1  0.30177200  0.06312267  0.17557123  1.0
  Ni  Ni397  1  0.30177200  0.39645600  0.17557123  1.0
  Ni  Ni398  1  0.30177200  0.72978933  0.17557123  1.0
  Ni  Ni399  1  0.63510533  0.06312267  0.17557123  1.0
  Ni  Ni400  1  0.63510533  0.39645600  0.17557123  1.0
  Ni  Ni401  1  0.63510533  0.72978933  0.17557123  1.0
  Ni  Ni402  1  0.96843867  0.06312267  0.17557123  1.0
  Ni  Ni403  1  0.96843867  0.39645600  0.17557123  1.0
  Ni  Ni404  1  0.96843867  0.72978933  0.17557123  1.0
  Ni  Ni405  1  0.11815733  0.09701867  0.15992692  1.0
  Ni  Ni406  1  0.11815733  0.43035200  0.15992692  1.0
  Ni  Ni407  1  0.11815733  0.76368533  0.15992692  1.0
  Ni  Ni408  1  0.45149067  0.09701867  0.15992692  1.0
  Ni  Ni409  1  0.45149067  0.43035200  0.15992692  1.0
  Ni  Ni410  1  0.45149067  0.76368533  0.15992692  1.0
  Ni  Ni411  1  0.78482400  0.09701867  0.15992692  1.0
  Ni  Ni412  1  0.78482400  0.43035200  0.15992692  1.0
  Ni  Ni413  1  0.78482400  0.76368533  0.15992692  1.0
  Ni  Ni414  1  0.11815733  0.24673733  0.16774908  1.0
  Ni  Ni415  1  0.11815733  0.58007067  0.16774908  1.0
  Ni  Ni416  1  0.11815733  0.91340400  0.16774908  1.0
  Ni  Ni417  1  0.45149067  0.24673733  0.16774908  1.0
  Ni  Ni418  1  0.45149067  0.58007067  0.16774908  1.0
  Ni  Ni419  1  0.45149067  0.91340400  0.16774908  1.0
  Ni  Ni420  1  0.78482400  0.24673733  0.16774908  1.0
  Ni  Ni421  1  0.78482400  0.58007067  0.16774908  1.0
  Ni  Ni422  1  0.78482400  0.91340400  0.16774908  1.0
  Ni  Ni423  1  0.30177200  0.24673733  0.16774908  1.0
  Ni  Ni424  1  0.30177200  0.58007067  0.16774908  1.0
  Ni  Ni425  1  0.30177200  0.91340400  0.16774908  1.0
  Ni  Ni426  1  0.63510533  0.24673733  0.16774908  1.0
  Ni  Ni427  1  0.63510533  0.58007067  0.16774908  1.0
  Ni  Ni428  1  0.63510533  0.91340400  0.16774908  1.0
  Ni  Ni429  1  0.96843867  0.24673733  0.16774908  1.0
  Ni  Ni430  1  0.96843867  0.58007067  0.16774908  1.0
  Ni  Ni431  1  0.96843867  0.91340400  0.16774908  1.0
  Ti  Ti432  1  0.24272000  0.18122667  0.25979000  1.0
  Ti  Ti433  1  0.24272000  0.51456000  0.25979000  1.0
  Ti  Ti434  1  0.24272000  0.84789333  0.25979000  1.0
  Ti  Ti435  1  0.57605333  0.18122667  0.25979000  1.0
  Ti  Ti436  1  0.57605333  0.51456000  0.25979000  1.0
  Ti  Ti437  1  0.57605333  0.84789333  0.25979000  1.0
  Ti  Ti438  1  0.90938667  0.18122667  0.25979000  1.0
  Ti  Ti439  1  0.90938667  0.51456000  0.25979000  1.0
  Ti  Ti440  1  0.90938667  0.84789333  0.25979000  1.0
  Ti  Ti441  1  0.09061333  0.15210667  0.26651000  1.0
  Ti  Ti442  1  0.09061333  0.48544000  0.26651000  1.0
  Ti  Ti443  1  0.09061333  0.81877333  0.26651000  1.0
  Ti  Ti444  1  0.42394667  0.15210667  0.26651000  1.0
  Ti  Ti445  1  0.42394667  0.48544000  0.26651000  1.0
  Ti  Ti446  1  0.42394667  0.81877333  0.26651000  1.0
  Ti  Ti447  1  0.75728000  0.15210667  0.26651000  1.0
  Ti  Ti448  1  0.75728000  0.48544000  0.26651000  1.0
  Ti  Ti449  1  0.75728000  0.81877333  0.26651000  1.0
  Ti  Ti450  1  0.08333333  0.00000000  0.26315000  1.0
  Ti  Ti451  1  0.08333333  0.33333333  0.26315000  1.0
  Ti  Ti452  1  0.08333333  0.66666667  0.26315000  1.0
  Ti  Ti453  1  0.41666667  0.00000000  0.26315000  1.0
  Ti  Ti454  1  0.41666667  0.33333333  0.26315000  1.0
  Ti  Ti455  1  0.41666667  0.66666667  0.26315000  1.0
  Ti  Ti456  1  0.75000000  0.00000000  0.26315000  1.0
  Ti  Ti457  1  0.75000000  0.33333333  0.26315000  1.0
  Ti  Ti458  1  0.75000000  0.66666667  0.26315000  1.0
  Ti  Ti459  1  0.25000000  0.00000000  0.26315000  1.0
  Ti  Ti460  1  0.25000000  0.33333333  0.26315000  1.0
  Ti  Ti461  1  0.25000000  0.66666667  0.26315000  1.0
  Ti  Ti462  1  0.58333333  0.00000000  0.26315000  1.0
  Ti  Ti463  1  0.58333333  0.33333333  0.26315000  1.0
  Ti  Ti464  1  0.58333333  0.66666667  0.26315000  1.0
  Ti  Ti465  1  0.91666667  0.00000000  0.26315000  1.0
  Ti  Ti466  1  0.91666667  0.33333333  0.26315000  1.0
  Ti  Ti467  1  0.91666667  0.66666667  0.26315000  1.0
  Ti  Ti468  1  0.16666667  0.16666667  0.30161154  1.0
  Ti  Ti469  1  0.16666667  0.50000000  0.30161154  1.0
  Ti  Ti470  1  0.16666667  0.83333333  0.30161154  1.0
  Ti  Ti471  1  0.50000000  0.16666667  0.30161154  1.0
  Ti  Ti472  1  0.50000000  0.50000000  0.30161154  1.0
  Ti  Ti473  1  0.50000000  0.83333333  0.30161154  1.0
  Ti  Ti474  1  0.83333333  0.16666667  0.30161154  1.0
  Ti  Ti475  1  0.83333333  0.50000000  0.30161154  1.0
  Ti  Ti476  1  0.83333333  0.83333333  0.30161154  1.0
  Ti  Ti477  1  0.00000000  0.16666667  0.30161154  1.0
  Ti  Ti478  1  0.00000000  0.50000000  0.30161154  1.0
  Ti  Ti479  1  0.00000000  0.83333333  0.30161154  1.0
  Ti  Ti480  1  0.33333333  0.16666667  0.30161154  1.0
  Ti  Ti481  1  0.33333333  0.50000000  0.30161154  1.0
  Ti  Ti482  1  0.33333333  0.83333333  0.30161154  1.0
  Ti  Ti483  1  0.66666667  0.16666667  0.30161154  1.0
  Ti  Ti484  1  0.66666667  0.50000000  0.30161154  1.0
  Ti  Ti485  1  0.66666667  0.83333333  0.30161154  1.0
  Ti  Ti486  1  0.16666667  0.00000000  0.30161154  1.0
  Ti  Ti487  1  0.16666667  0.33333333  0.30161154  1.0
  Ti  Ti488  1  0.16666667  0.66666667  0.30161154  1.0
  Ti  Ti489  1  0.50000000  0.00000000  0.30161154  1.0
  Ti  Ti490  1  0.50000000  0.33333333  0.30161154  1.0
  Ti  Ti491  1  0.50000000  0.66666667  0.30161154  1.0
  Ti  Ti492  1  0.83333333  0.00000000  0.30161154  1.0
  Ti  Ti493  1  0.83333333  0.33333333  0.30161154  1.0
  Ti  Ti494  1  0.83333333  0.66666667  0.30161154  1.0
  Ti  Ti495  1  0.00000000  0.00000000  0.30161154  1.0
  Ti  Ti496  1  0.00000000  0.33333333  0.30161154  1.0
  Ti  Ti497  1  0.00000000  0.66666667  0.30161154  1.0
  Ti  Ti498  1  0.33333333  0.00000000  0.30161154  1.0
  Ti  Ti499  1  0.33333333  0.33333333  0.30161154  1.0
  Ti  Ti500  1  0.33333333  0.66666667  0.30161154  1.0
  Ti  Ti501  1  0.66666667  0.00000000  0.30161154  1.0
  Ti  Ti502  1  0.66666667  0.33333333  0.30161154  1.0
  Ti  Ti503  1  0.66666667  0.66666667  0.30161154  1.0
  Ni  Ni504  1  0.03156133  0.27021067  0.27380569  1.0
  Ni  Ni505  1  0.03156133  0.60354400  0.27380569  1.0
  Ni  Ni506  1  0.03156133  0.93687733  0.27380569  1.0
  Ni  Ni507  1  0.36489467  0.27021067  0.27380569  1.0
  Ni  Ni508  1  0.36489467  0.60354400  0.27380569  1.0
  Ni  Ni509  1  0.36489467  0.93687733  0.27380569  1.0
  Ni  Ni510  1  0.69822800  0.27021067  0.27380569  1.0
  Ni  Ni511  1  0.69822800  0.60354400  0.27380569  1.0
  Ni  Ni512  1  0.69822800  0.93687733  0.27380569  1.0
  Ni  Ni513  1  0.21517600  0.23631467  0.28945000  1.0
  Ni  Ni514  1  0.21517600  0.56964800  0.28945000  1.0
  Ni  Ni515  1  0.21517600  0.90298133  0.28945000  1.0
  Ni  Ni516  1  0.54850933  0.23631467  0.28945000  1.0
  Ni  Ni517  1  0.54850933  0.56964800  0.28945000  1.0
  Ni  Ni518  1  0.54850933  0.90298133  0.28945000  1.0
  Ni  Ni519  1  0.88184267  0.23631467  0.28945000  1.0
  Ni  Ni520  1  0.88184267  0.56964800  0.28945000  1.0
  Ni  Ni521  1  0.88184267  0.90298133  0.28945000  1.0
  Ni  Ni522  1  0.21517600  0.08659600  0.28162785  1.0
  Ni  Ni523  1  0.21517600  0.41992933  0.28162785  1.0
  Ni  Ni524  1  0.21517600  0.75326267  0.28162785  1.0
  Ni  Ni525  1  0.54850933  0.08659600  0.28162785  1.0
  Ni  Ni526  1  0.54850933  0.41992933  0.28162785  1.0
  Ni  Ni527  1  0.54850933  0.75326267  0.28162785  1.0
  Ni  Ni528  1  0.88184267  0.08659600  0.28162785  1.0
  Ni  Ni529  1  0.88184267  0.41992933  0.28162785  1.0
  Ni  Ni530  1  0.88184267  0.75326267  0.28162785  1.0
  Ni  Ni531  1  0.03156133  0.08659600  0.28162785  1.0
  Ni  Ni532  1  0.03156133  0.41992933  0.28162785  1.0
  Ni  Ni533  1  0.03156133  0.75326267  0.28162785  1.0
  Ni  Ni534  1  0.36489467  0.08659600  0.28162785  1.0
  Ni  Ni535  1  0.36489467  0.41992933  0.28162785  1.0
  Ni  Ni536  1  0.36489467  0.75326267  0.28162785  1.0
  Ni  Ni537  1  0.69822800  0.08659600  0.28162785  1.0
  Ni  Ni538  1  0.69822800  0.41992933  0.28162785  1.0
  Ni  Ni539  1  0.69822800  0.75326267  0.28162785  1.0
  Ni  Ni540  1  0.30177200  0.06312267  0.25249431  1.0
  Ni  Ni541  1  0.30177200  0.39645600  0.25249431  1.0
  Ni  Ni542  1  0.30177200  0.72978933  0.25249431  1.0
  Ni  Ni543  1  0.63510533  0.06312267  0.25249431  1.0
  Ni  Ni544  1  0.63510533  0.39645600  0.25249431  1.0
  Ni  Ni545  1  0.63510533  0.72978933  0.25249431  1.0
  Ni  Ni546  1  0.96843867  0.06312267  0.25249431  1.0
  Ni  Ni547  1  0.96843867  0.39645600  0.25249431  1.0
  Ni  Ni548  1  0.96843867  0.72978933  0.25249431  1.0
  Ni  Ni549  1  0.11815733  0.09701867  0.23685000  1.0
  Ni  Ni550  1  0.11815733  0.43035200  0.23685000  1.0
  Ni  Ni551  1  0.11815733  0.76368533  0.23685000  1.0
  Ni  Ni552  1  0.45149067  0.09701867  0.23685000  1.0
  Ni  Ni553  1  0.45149067  0.43035200  0.23685000  1.0
  Ni  Ni554  1  0.45149067  0.76368533  0.23685000  1.0
  Ni  Ni555  1  0.78482400  0.09701867  0.23685000  1.0
  Ni  Ni556  1  0.78482400  0.43035200  0.23685000  1.0
  Ni  Ni557  1  0.78482400  0.76368533  0.23685000  1.0
  Ni  Ni558  1  0.11815733  0.24673733  0.24467215  1.0
  Ni  Ni559  1  0.11815733  0.58007067  0.24467215  1.0
  Ni  Ni560  1  0.11815733  0.91340400  0.24467215  1.0
  Ni  Ni561  1  0.45149067  0.24673733  0.24467215  1.0
  Ni  Ni562  1  0.45149067  0.58007067  0.24467215  1.0
  Ni  Ni563  1  0.45149067  0.91340400  0.24467215  1.0
  Ni  Ni564  1  0.78482400  0.24673733  0.24467215  1.0
  Ni  Ni565  1  0.78482400  0.58007067  0.24467215  1.0
  Ni  Ni566  1  0.78482400  0.91340400  0.24467215  1.0
  Ni  Ni567  1  0.30177200  0.24673733  0.24467215  1.0
  Ni  Ni568  1  0.30177200  0.58007067  0.24467215  1.0
  Ni  Ni569  1  0.30177200  0.91340400  0.24467215  1.0
  Ni  Ni570  1  0.63510533  0.24673733  0.24467215  1.0
  Ni  Ni571  1  0.63510533  0.58007067  0.24467215  1.0
  Ni  Ni572  1  0.63510533  0.91340400  0.24467215  1.0
  Ni  Ni573  1  0.96843867  0.24673733  0.24467215  1.0
  Ni  Ni574  1  0.96843867  0.58007067  0.24467215  1.0
  Ni  Ni575  1  0.96843867  0.91340400  0.24467215  1.0
  Ti  Ti576  1  0.24272000  0.18122667  0.33671308  1.0
  Ti  Ti577  1  0.24272000  0.51456000  0.33671308  1.0
  Ti  Ti578  1  0.24272000  0.84789333  0.33671308  1.0
  Ti  Ti579  1  0.57605333  0.18122667  0.33671308  1.0
  Ti  Ti580  1  0.57605333  0.51456000  0.33671308  1.0
  Ti  Ti581  1  0.57605333  0.84789333  0.33671308  1.0
  Ti  Ti582  1  0.90938667  0.18122667  0.33671308  1.0
  Ti  Ti583  1  0.90938667  0.51456000  0.33671308  1.0
  Ti  Ti584  1  0.90938667  0.84789333  0.33671308  1.0
  Ti  Ti585  1  0.09061333  0.15210667  0.34343308  1.0
  Ti  Ti586  1  0.09061333  0.48544000  0.34343308  1.0
  Ti  Ti587  1  0.09061333  0.81877333  0.34343308  1.0
  Ti  Ti588  1  0.42394667  0.15210667  0.34343308  1.0
  Ti  Ti589  1  0.42394667  0.48544000  0.34343308  1.0
  Ti  Ti590  1  0.42394667  0.81877333  0.34343308  1.0
  Ti  Ti591  1  0.75728000  0.15210667  0.34343308  1.0
  Ti  Ti592  1  0.75728000  0.48544000  0.34343308  1.0
  Ti  Ti593  1  0.75728000  0.81877333  0.34343308  1.0
  Ti  Ti594  1  0.08333333  0.00000000  0.34007308  1.0
  Ti  Ti595  1  0.08333333  0.33333333  0.34007308  1.0
  Ti  Ti596  1  0.08333333  0.66666667  0.34007308  1.0
  Ti  Ti597  1  0.41666667  0.00000000  0.34007308  1.0
  Ti  Ti598  1  0.41666667  0.33333333  0.34007308  1.0
  Ti  Ti599  1  0.41666667  0.66666667  0.34007308  1.0
  Ti  Ti600  1  0.75000000  0.00000000  0.34007308  1.0
  Ti  Ti601  1  0.75000000  0.33333333  0.34007308  1.0
  Ti  Ti602  1  0.75000000  0.66666667  0.34007308  1.0
  Ti  Ti603  1  0.25000000  0.00000000  0.34007308  1.0
  Ti  Ti604  1  0.25000000  0.33333333  0.34007308  1.0
  Ti  Ti605  1  0.25000000  0.66666667  0.34007308  1.0
  Ti  Ti606  1  0.58333333  0.00000000  0.34007308  1.0
  Ti  Ti607  1  0.58333333  0.33333333  0.34007308  1.0
  Ti  Ti608  1  0.58333333  0.66666667  0.34007308  1.0
  Ti  Ti609  1  0.91666667  0.00000000  0.34007308  1.0
  Ti  Ti610  1  0.91666667  0.33333333  0.34007308  1.0
  Ti  Ti611  1  0.91666667  0.66666667  0.34007308  1.0
  Ti  Ti612  1  0.16666667  0.16666667  0.37853462  1.0
  Ti  Ti613  1  0.16666667  0.50000000  0.37853462  1.0
  Ti  Ti614  1  0.16666667  0.83333333  0.37853462  1.0
  Ti  Ti615  1  0.50000000  0.16666667  0.37853462  1.0
  Ti  Ti616  1  0.50000000  0.50000000  0.37853462  1.0
  Ti  Ti617  1  0.50000000  0.83333333  0.37853462  1.0
  Ti  Ti618  1  0.83333333  0.16666667  0.37853462  1.0
  Ti  Ti619  1  0.83333333  0.50000000  0.37853462  1.0
  Ti  Ti620  1  0.83333333  0.83333333  0.37853462  1.0
  Ti  Ti621  1  0.00000000  0.16666667  0.37853462  1.0
  Ti  Ti622  1  0.00000000  0.50000000  0.37853462  1.0
  Ti  Ti623  1  0.00000000  0.83333333  0.37853462  1.0
  Ti  Ti624  1  0.33333333  0.16666667  0.37853462  1.0
  Ti  Ti625  1  0.33333333  0.50000000  0.37853462  1.0
  Ti  Ti626  1  0.33333333  0.83333333  0.37853462  1.0
  Ti  Ti627  1  0.66666667  0.16666667  0.37853462  1.0
  Ti  Ti628  1  0.66666667  0.50000000  0.37853462  1.0
  Ti  Ti629  1  0.66666667  0.83333333  0.37853462  1.0
  Ti  Ti630  1  0.16666667  0.00000000  0.37853462  1.0
  Ti  Ti631  1  0.16666667  0.33333333  0.37853462  1.0
  Ti  Ti632  1  0.16666667  0.66666667  0.37853462  1.0
  Ti  Ti633  1  0.50000000  0.00000000  0.37853462  1.0
  Ti  Ti634  1  0.50000000  0.33333333  0.37853462  1.0
  Ti  Ti635  1  0.50000000  0.66666667  0.37853462  1.0
  Ti  Ti636  1  0.83333333  0.00000000  0.37853462  1.0
  Ti  Ti637  1  0.83333333  0.33333333  0.37853462  1.0
  Ti  Ti638  1  0.83333333  0.66666667  0.37853462  1.0
  Ti  Ti639  1  0.00000000  0.00000000  0.37853462  1.0
  Ti  Ti640  1  0.00000000  0.33333333  0.37853462  1.0
  Ti  Ti641  1  0.00000000  0.66666667  0.37853462  1.0
  Ti  Ti642  1  0.33333333  0.00000000  0.37853462  1.0
  Ti  Ti643  1  0.33333333  0.33333333  0.37853462  1.0
  Ti  Ti644  1  0.33333333  0.66666667  0.37853462  1.0
  Ti  Ti645  1  0.66666667  0.00000000  0.37853462  1.0
  Ti  Ti646  1  0.66666667  0.33333333  0.37853462  1.0
  Ti  Ti647  1  0.66666667  0.66666667  0.37853462  1.0
  Ni  Ni648  1  0.03156133  0.27021067  0.35072877  1.0
  Ni  Ni649  1  0.03156133  0.60354400  0.35072877  1.0
  Ni  Ni650  1  0.03156133  0.93687733  0.35072877  1.0
  Ni  Ni651  1  0.36489467  0.27021067  0.35072877  1.0
  Ni  Ni652  1  0.36489467  0.60354400  0.35072877  1.0
  Ni  Ni653  1  0.36489467  0.93687733  0.35072877  1.0
  Ni  Ni654  1  0.69822800  0.27021067  0.35072877  1.0
  Ni  Ni655  1  0.69822800  0.60354400  0.35072877  1.0
  Ni  Ni656  1  0.69822800  0.93687733  0.35072877  1.0
  Ni  Ni657  1  0.21517600  0.23631467  0.36637308  1.0
  Ni  Ni658  1  0.21517600  0.56964800  0.36637308  1.0
  Ni  Ni659  1  0.21517600  0.90298133  0.36637308  1.0
  Ni  Ni660  1  0.54850933  0.23631467  0.36637308  1.0
  Ni  Ni661  1  0.54850933  0.56964800  0.36637308  1.0
  Ni  Ni662  1  0.54850933  0.90298133  0.36637308  1.0
  Ni  Ni663  1  0.88184267  0.23631467  0.36637308  1.0
  Ni  Ni664  1  0.88184267  0.56964800  0.36637308  1.0
  Ni  Ni665  1  0.88184267  0.90298133  0.36637308  1.0
  Ni  Ni666  1  0.21517600  0.08659600  0.35855092  1.0
  Ni  Ni667  1  0.21517600  0.41992933  0.35855092  1.0
  Ni  Ni668  1  0.21517600  0.75326267  0.35855092  1.0
  Ni  Ni669  1  0.54850933  0.08659600  0.35855092  1.0
  Ni  Ni670  1  0.54850933  0.41992933  0.35855092  1.0
  Ni  Ni671  1  0.54850933  0.75326267  0.35855092  1.0
  Ni  Ni672  1  0.88184267  0.08659600  0.35855092  1.0
  Ni  Ni673  1  0.88184267  0.41992933  0.35855092  1.0
  Ni  Ni674  1  0.88184267  0.75326267  0.35855092  1.0
  Ni  Ni675  1  0.03156133  0.08659600  0.35855092  1.0
  Ni  Ni676  1  0.03156133  0.41992933  0.35855092  1.0
  Ni  Ni677  1  0.03156133  0.75326267  0.35855092  1.0
  Ni  Ni678  1  0.36489467  0.08659600  0.35855092  1.0
  Ni  Ni679  1  0.36489467  0.41992933  0.35855092  1.0
  Ni  Ni680  1  0.36489467  0.75326267  0.35855092  1.0
  Ni  Ni681  1  0.69822800  0.08659600  0.35855092  1.0
  Ni  Ni682  1  0.69822800  0.41992933  0.35855092  1.0
  Ni  Ni683  1  0.69822800  0.75326267  0.35855092  1.0
  Ni  Ni684  1  0.30177200  0.06312267  0.32941738  1.0
  Ni  Ni685  1  0.30177200  0.39645600  0.32941738  1.0
  Ni  Ni686  1  0.30177200  0.72978933  0.32941738  1.0
  Ni  Ni687  1  0.63510533  0.06312267  0.32941738  1.0
  Ni  Ni688  1  0.63510533  0.39645600  0.32941738  1.0
  Ni  Ni689  1  0.63510533  0.72978933  0.32941738  1.0
  Ni  Ni690  1  0.96843867  0.06312267  0.32941738  1.0
  Ni  Ni691  1  0.96843867  0.39645600  0.32941738  1.0
  Ni  Ni692  1  0.96843867  0.72978933  0.32941738  1.0
  Ni  Ni693  1  0.11815733  0.09701867  0.31377308  1.0
  Ni  Ni694  1  0.11815733  0.43035200  0.31377308  1.0
  Ni  Ni695  1  0.11815733  0.76368533  0.31377308  1.0
  Ni  Ni696  1  0.45149067  0.09701867  0.31377308  1.0
  Ni  Ni697  1  0.45149067  0.43035200  0.31377308  1.0
  Ni  Ni698  1  0.45149067  0.76368533  0.31377308  1.0
  Ni  Ni699  1  0.78482400  0.09701867  0.31377308  1.0
  Ni  Ni700  1  0.78482400  0.43035200  0.31377308  1.0
  Ni  Ni701  1  0.78482400  0.76368533  0.31377308  1.0
  Ni  Ni702  1  0.11815733  0.24673733  0.32159523  1.0
  Ni  Ni703  1  0.11815733  0.58007067  0.32159523  1.0
  Ni  Ni704  1  0.11815733  0.91340400  0.32159523  1.0
  Ni  Ni705  1  0.45149067  0.24673733  0.32159523  1.0
  Ni  Ni706  1  0.45149067  0.58007067  0.32159523  1.0
  Ni  Ni707  1  0.45149067  0.91340400  0.32159523  1.0
  Ni  Ni708  1  0.78482400  0.24673733  0.32159523  1.0
  Ni  Ni709  1  0.78482400  0.58007067  0.32159523  1.0
  Ni  Ni710  1  0.78482400  0.91340400  0.32159523  1.0
  Ni  Ni711  1  0.30177200  0.24673733  0.32159523  1.0
  Ni  Ni712  1  0.30177200  0.58007067  0.32159523  1.0
  Ni  Ni713  1  0.30177200  0.91340400  0.32159523  1.0
  Ni  Ni714  1  0.63510533  0.24673733  0.32159523  1.0
  Ni  Ni715  1  0.63510533  0.58007067  0.32159523  1.0
  Ni  Ni716  1  0.63510533  0.91340400  0.32159523  1.0
  Ni  Ni717  1  0.96843867  0.24673733  0.32159523  1.0
  Ni  Ni718  1  0.96843867  0.58007067  0.32159523  1.0
  Ni  Ni719  1  0.96843867  0.91340400  0.32159523  1.0
