# generated using pymatgen
data_TiNi
_symmetry_space_group_name_H-M   'P 1'
_cell_length_a   29.99266397
_cell_length_b   40.87590440
_cell_length_c   25.61336879
_cell_angle_alpha   84.32514986
_cell_angle_beta   89.40498269
_cell_angle_gamma   70.69199619
_symmetry_Int_Tables_number   1
_chemical_formula_structural   TiNi
_chemical_formula_sum   'Ti432 Ni432'
_cell_volume   29481.66546866
_cell_formula_units_Z   432
loop_
 _symmetry_equiv_pos_site_id
 _symmetry_equiv_pos_as_xyz
  1  'x, y, z'
loop_
 _atom_site_type_symbol
 _atom_site_label
 _atom_site_symmetry_multiplicity
 _atom_site_fract_x
 _atom_site_fract_y
 _atom_site_fract_z
 _atom_site_occupancy
  Ni  Ni0  1  0.09338483  0.30505767  0.92584000  1.0
  Ni  Ni1  1  0.09338483  0.63839100  0.92584000  1.0
  Ni  Ni2  1  0.09338483  0.97172433  0.92584000  1.0
  Ni  Ni3  1  0.42671817  0.30505767  0.92584000  1.0
  Ni  Ni4  1  0.42671817  0.63839100  0.92584000  1.0
  Ni  Ni5  1  0.42671817  0.97172433  0.92584000  1.0
  Ni  Ni6  1  0.76005150  0.30505767  0.92584000  1.0
  Ni  Ni7  1  0.76005150  0.63839100  0.92584000  1.0
  Ni  Ni8  1  0.76005150  0.97172433  0.92584000  1.0
  Ni  Ni9  1  0.24338483  0.30505767  0.97584000  1.0
  Ni  Ni10  1  0.24338483  0.63839100  0.97584000  1.0
  Ni  Ni11  1  0.24338483  0.97172433  0.97584000  1.0
  Ni  Ni12  1  0.57671817  0.30505767  0.97584000  1.0
  Ni  Ni13  1  0.57671817  0.63839100  0.97584000  1.0
  Ni  Ni14  1  0.57671817  0.97172433  0.97584000  1.0
  Ni  Ni15  1  0.91005150  0.30505767  0.97584000  1.0
  Ni  Ni16  1  0.91005150  0.63839100  0.97584000  1.0
  Ni  Ni17  1  0.91005150  0.97172433  0.97584000  1.0
  Ni  Ni18  1  0.14418663  0.19410067  0.94325760  1.0
  Ni  Ni19  1  0.14418663  0.52743400  0.94325760  1.0
  Ni  Ni20  1  0.14418663  0.86076733  0.94325760  1.0
  Ni  Ni21  1  0.47751997  0.19410067  0.94325760  1.0
  Ni  Ni22  1  0.47751997  0.52743400  0.94325760  1.0
  Ni  Ni23  1  0.47751997  0.86076733  0.94325760  1.0
  Ni  Ni24  1  0.81085330  0.19410067  0.94325760  1.0
  Ni  Ni25  1  0.81085330  0.52743400  0.94325760  1.0
  Ni  Ni26  1  0.81085330  0.86076733  0.94325760  1.0
  Ni  Ni27  1  0.29418663  0.19410067  0.99325760  1.0
  Ni  Ni28  1  0.29418663  0.52743400  0.99325760  1.0
  Ni  Ni29  1  0.29418663  0.86076733  0.99325760  1.0
  Ni  Ni30  1  0.62751997  0.19410067  0.99325760  1.0
  Ni  Ni31  1  0.62751997  0.52743400  0.99325760  1.0
  Ni  Ni32  1  0.62751997  0.86076733  0.99325760  1.0
  Ni  Ni33  1  0.96085330  0.19410067  0.99325760  1.0
  Ni  Ni34  1  0.96085330  0.52743400  0.99325760  1.0
  Ni  Ni35  1  0.96085330  0.86076733  0.99325760  1.0
  Ni  Ni36  1  0.19307867  0.08253300  0.95229450  1.0
  Ni  Ni37  1  0.19307867  0.41586633  0.95229450  1.0
  Ni  Ni38  1  0.19307867  0.74919967  0.95229450  1.0
  Ni  Ni39  1  0.52641200  0.08253300  0.95229450  1.0
  Ni  Ni40  1  0.52641200  0.41586633  0.95229450  1.0
  Ni  Ni41  1  0.52641200  0.74919967  0.95229450  1.0
  Ni  Ni42  1  0.85974533  0.08253300  0.95229450  1.0
  Ni  Ni43  1  0.85974533  0.41586633  0.95229450  1.0
  Ni  Ni44  1  0.85974533  0.74919967  0.95229450  1.0
  Ni  Ni45  1  0.04307867  0.08253300  0.90229450  1.0
  Ni  Ni46  1  0.04307867  0.41586633  0.90229450  1.0
  Ni  Ni47  1  0.04307867  0.74919967  0.90229450  1.0
  Ni  Ni48  1  0.37641200  0.08253300  0.90229450  1.0
  Ni  Ni49  1  0.37641200  0.41586633  0.90229450  1.0
  Ni  Ni50  1  0.37641200  0.74919967  0.90229450  1.0
  Ni  Ni51  1  0.70974533  0.08253300  0.90229450  1.0
  Ni  Ni52  1  0.70974533  0.41586633  0.90229450  1.0
  Ni  Ni53  1  0.70974533  0.74919967  0.90229450  1.0
  Ni  Ni54  1  0.27026953  0.02827567  0.98319690  1.0
  Ni  Ni55  1  0.27026953  0.36160900  0.98319690  1.0
  Ni  Ni56  1  0.27026953  0.69494233  0.98319690  1.0
  Ni  Ni57  1  0.60360287  0.02827567  0.98319690  1.0
  Ni  Ni58  1  0.60360287  0.36160900  0.98319690  1.0
  Ni  Ni59  1  0.60360287  0.69494233  0.98319690  1.0
  Ni  Ni60  1  0.93693620  0.02827567  0.98319690  1.0
  Ni  Ni61  1  0.93693620  0.36160900  0.98319690  1.0
  Ni  Ni62  1  0.93693620  0.69494233  0.98319690  1.0
  Ni  Ni63  1  0.12026953  0.02827567  0.93319690  1.0
  Ni  Ni64  1  0.12026953  0.36160900  0.93319690  1.0
  Ni  Ni65  1  0.12026953  0.69494233  0.93319690  1.0
  Ni  Ni66  1  0.45360287  0.02827567  0.93319690  1.0
  Ni  Ni67  1  0.45360287  0.36160900  0.93319690  1.0
  Ni  Ni68  1  0.45360287  0.69494233  0.93319690  1.0
  Ni  Ni69  1  0.78693620  0.02827567  0.93319690  1.0
  Ni  Ni70  1  0.78693620  0.36160900  0.93319690  1.0
  Ni  Ni71  1  0.78693620  0.69494233  0.93319690  1.0
  Ni  Ni72  1  0.21946773  0.13923267  0.96577930  1.0
  Ni  Ni73  1  0.21946773  0.47256600  0.96577930  1.0
  Ni  Ni74  1  0.21946773  0.80589933  0.96577930  1.0
  Ni  Ni75  1  0.55280107  0.13923267  0.96577930  1.0
  Ni  Ni76  1  0.55280107  0.47256600  0.96577930  1.0
  Ni  Ni77  1  0.55280107  0.80589933  0.96577930  1.0
  Ni  Ni78  1  0.88613440  0.13923267  0.96577930  1.0
  Ni  Ni79  1  0.88613440  0.47256600  0.96577930  1.0
  Ni  Ni80  1  0.88613440  0.80589933  0.96577930  1.0
  Ni  Ni81  1  0.06946773  0.13923267  0.91577930  1.0
  Ni  Ni82  1  0.06946773  0.47256600  0.91577930  1.0
  Ni  Ni83  1  0.06946773  0.80589933  0.91577930  1.0
  Ni  Ni84  1  0.40280107  0.13923267  0.91577930  1.0
  Ni  Ni85  1  0.40280107  0.47256600  0.91577930  1.0
  Ni  Ni86  1  0.40280107  0.80589933  0.91577930  1.0
  Ni  Ni87  1  0.73613440  0.13923267  0.91577930  1.0
  Ni  Ni88  1  0.73613440  0.47256600  0.91577930  1.0
  Ni  Ni89  1  0.73613440  0.80589933  0.91577930  1.0
  Ni  Ni90  1  0.17057570  0.25080033  0.95674240  1.0
  Ni  Ni91  1  0.17057570  0.58413367  0.95674240  1.0
  Ni  Ni92  1  0.17057570  0.91746700  0.95674240  1.0
  Ni  Ni93  1  0.50390903  0.25080033  0.95674240  1.0
  Ni  Ni94  1  0.50390903  0.58413367  0.95674240  1.0
  Ni  Ni95  1  0.50390903  0.91746700  0.95674240  1.0
  Ni  Ni96  1  0.83724237  0.25080033  0.95674240  1.0
  Ni  Ni97  1  0.83724237  0.58413367  0.95674240  1.0
  Ni  Ni98  1  0.83724237  0.91746700  0.95674240  1.0
  Ni  Ni99  1  0.02057570  0.25080033  0.90674240  1.0
  Ni  Ni100  1  0.02057570  0.58413367  0.90674240  1.0
  Ni  Ni101  1  0.02057570  0.91746700  0.90674240  1.0
  Ni  Ni102  1  0.35390903  0.25080033  0.90674240  1.0
  Ni  Ni103  1  0.35390903  0.58413367  0.90674240  1.0
  Ni  Ni104  1  0.35390903  0.91746700  0.90674240  1.0
  Ni  Ni105  1  0.68724237  0.25080033  0.90674240  1.0
  Ni  Ni106  1  0.68724237  0.58413367  0.90674240  1.0
  Ni  Ni107  1  0.68724237  0.91746700  0.90674240  1.0
  Ni  Ni108  1  0.12671817  0.30505767  0.82584000  1.0
  Ni  Ni109  1  0.12671817  0.63839100  0.82584000  1.0
  Ni  Ni110  1  0.12671817  0.97172433  0.82584000  1.0
  Ni  Ni111  1  0.46005150  0.30505767  0.82584000  1.0
  Ni  Ni112  1  0.46005150  0.63839100  0.82584000  1.0
  Ni  Ni113  1  0.46005150  0.97172433  0.82584000  1.0
  Ni  Ni114  1  0.79338483  0.30505767  0.82584000  1.0
  Ni  Ni115  1  0.79338483  0.63839100  0.82584000  1.0
  Ni  Ni116  1  0.79338483  0.97172433  0.82584000  1.0
  Ni  Ni117  1  0.27671817  0.30505767  0.87584000  1.0
  Ni  Ni118  1  0.27671817  0.63839100  0.87584000  1.0
  Ni  Ni119  1  0.27671817  0.97172433  0.87584000  1.0
  Ni  Ni120  1  0.61005150  0.30505767  0.87584000  1.0
  Ni  Ni121  1  0.61005150  0.63839100  0.87584000  1.0
  Ni  Ni122  1  0.61005150  0.97172433  0.87584000  1.0
  Ni  Ni123  1  0.94338483  0.30505767  0.87584000  1.0
  Ni  Ni124  1  0.94338483  0.63839100  0.87584000  1.0
  Ni  Ni125  1  0.94338483  0.97172433  0.87584000  1.0
  Ni  Ni126  1  0.17751997  0.19410067  0.84325760  1.0
  Ni  Ni127  1  0.17751997  0.52743400  0.84325760  1.0
  Ni  Ni128  1  0.17751997  0.86076733  0.84325760  1.0
  Ni  Ni129  1  0.51085330  0.19410067  0.84325760  1.0
  Ni  Ni130  1  0.51085330  0.52743400  0.84325760  1.0
  Ni  Ni131  1  0.51085330  0.86076733  0.84325760  1.0
  Ni  Ni132  1  0.84418663  0.19410067  0.84325760  1.0
  Ni  Ni133  1  0.84418663  0.52743400  0.84325760  1.0
  Ni  Ni134  1  0.84418663  0.86076733  0.84325760  1.0
  Ni  Ni135  1  0.32751997  0.19410067  0.89325760  1.0
  Ni  Ni136  1  0.32751997  0.52743400  0.89325760  1.0
  Ni  Ni137  1  0.32751997  0.86076733  0.89325760  1.0
  Ni  Ni138  1  0.66085330  0.19410067  0.89325760  1.0
  Ni  Ni139  1  0.66085330  0.52743400  0.89325760  1.0
  Ni  Ni140  1  0.66085330  0.86076733  0.89325760  1.0
  Ni  Ni141  1  0.99418663  0.19410067  0.89325760  1.0
  Ni  Ni142  1  0.99418663  0.52743400  0.89325760  1.0
  Ni  Ni143  1  0.99418663  0.86076733  0.89325760  1.0
  Ni  Ni144  1  0.22641200  0.08253300  0.85229450  1.0
  Ni  Ni145  1  0.22641200  0.41586633  0.85229450  1.0
  Ni  Ni146  1  0.22641200  0.74919967  0.85229450  1.0
  Ni  Ni147  1  0.55974533  0.08253300  0.85229450  1.0
  Ni  Ni148  1  0.55974533  0.41586633  0.85229450  1.0
  Ni  Ni149  1  0.55974533  0.74919967  0.85229450  1.0
  Ni  Ni150  1  0.89307867  0.08253300  0.85229450  1.0
  Ni  Ni151  1  0.89307867  0.41586633  0.85229450  1.0
  Ni  Ni152  1  0.89307867  0.74919967  0.85229450  1.0
  Ni  Ni153  1  0.07641200  0.08253300  0.80229450  1.0
  Ni  Ni154  1  0.07641200  0.41586633  0.80229450  1.0
  Ni  Ni155  1  0.07641200  0.74919967  0.80229450  1.0
  Ni  Ni156  1  0.40974533  0.08253300  0.80229450  1.0
  Ni  Ni157  1  0.40974533  0.41586633  0.80229450  1.0
  Ni  Ni158  1  0.40974533  0.74919967  0.80229450  1.0
  Ni  Ni159  1  0.74307867  0.08253300  0.80229450  1.0
  Ni  Ni160  1  0.74307867  0.41586633  0.80229450  1.0
  Ni  Ni161  1  0.74307867  0.74919967  0.80229450  1.0
  Ni  Ni162  1  0.30360287  0.02827567  0.88319690  1.0
  Ni  Ni163  1  0.30360287  0.36160900  0.88319690  1.0
  Ni  Ni164  1  0.30360287  0.69494233  0.88319690  1.0
  Ni  Ni165  1  0.63693620  0.02827567  0.88319690  1.0
  Ni  Ni166  1  0.63693620  0.36160900  0.88319690  1.0
  Ni  Ni167  1  0.63693620  0.69494233  0.88319690  1.0
  Ni  Ni168  1  0.97026953  0.02827567  0.88319690  1.0
  Ni  Ni169  1  0.97026953  0.36160900  0.88319690  1.0
  Ni  Ni170  1  0.97026953  0.69494233  0.88319690  1.0
  Ni  Ni171  1  0.15360287  0.02827567  0.83319690  1.0
  Ni  Ni172  1  0.15360287  0.36160900  0.83319690  1.0
  Ni  Ni173  1  0.15360287  0.69494233  0.83319690  1.0
  Ni  Ni174  1  0.48693620  0.02827567  0.83319690  1.0
  Ni  Ni175  1  0.48693620  0.36160900  0.83319690  1.0
  Ni  Ni176  1  0.48693620  0.69494233  0.83319690  1.0
  Ni  Ni177  1  0.82026953  0.02827567  0.83319690  1.0
  Ni  Ni178  1  0.82026953  0.36160900  0.83319690  1.0
  Ni  Ni179  1  0.82026953  0.69494233  0.83319690  1.0
  Ni  Ni180  1  0.25280107  0.13923267  0.86577930  1.0
  Ni  Ni181  1  0.25280107  0.47256600  0.86577930  1.0
  Ni  Ni182  1  0.25280107  0.80589933  0.86577930  1.0
  Ni  Ni183  1  0.58613440  0.13923267  0.86577930  1.0
  Ni  Ni184  1  0.58613440  0.47256600  0.86577930  1.0
  Ni  Ni185  1  0.58613440  0.80589933  0.86577930  1.0
  Ni  Ni186  1  0.91946773  0.13923267  0.86577930  1.0
  Ni  Ni187  1  0.91946773  0.47256600  0.86577930  1.0
  Ni  Ni188  1  0.91946773  0.80589933  0.86577930  1.0
  Ni  Ni189  1  0.10280107  0.13923267  0.81577930  1.0
  Ni  Ni190  1  0.10280107  0.47256600  0.81577930  1.0
  Ni  Ni191  1  0.10280107  0.80589933  0.81577930  1.0
  Ni  Ni192  1  0.43613440  0.13923267  0.81577930  1.0
  Ni  Ni193  1  0.43613440  0.47256600  0.81577930  1.0
  Ni  Ni194  1  0.43613440  0.80589933  0.81577930  1.0
  Ni  Ni195  1  0.76946773  0.13923267  0.81577930  1.0
  Ni  Ni196  1  0.76946773  0.47256600  0.81577930  1.0
  Ni  Ni197  1  0.76946773  0.80589933  0.81577930  1.0
  Ni  Ni198  1  0.20390903  0.25080033  0.85674240  1.0
  Ni  Ni199  1  0.20390903  0.58413367  0.85674240  1.0
  Ni  Ni200  1  0.20390903  0.91746700  0.85674240  1.0
  Ni  Ni201  1  0.53724237  0.25080033  0.85674240  1.0
  Ni  Ni202  1  0.53724237  0.58413367  0.85674240  1.0
  Ni  Ni203  1  0.53724237  0.91746700  0.85674240  1.0
  Ni  Ni204  1  0.87057570  0.25080033  0.85674240  1.0
  Ni  Ni205  1  0.87057570  0.58413367  0.85674240  1.0
  Ni  Ni206  1  0.87057570  0.91746700  0.85674240  1.0
  Ni  Ni207  1  0.05390903  0.25080033  0.80674240  1.0
  Ni  Ni208  1  0.05390903  0.58413367  0.80674240  1.0
  Ni  Ni209  1  0.05390903  0.91746700  0.80674240  1.0
  Ni  Ni210  1  0.38724237  0.25080033  0.80674240  1.0
  Ni  Ni211  1  0.38724237  0.58413367  0.80674240  1.0
  Ni  Ni212  1  0.38724237  0.91746700  0.80674240  1.0
  Ni  Ni213  1  0.72057570  0.25080033  0.80674240  1.0
  Ni  Ni214  1  0.72057570  0.58413367  0.80674240  1.0
  Ni  Ni215  1  0.72057570  0.91746700  0.80674240  1.0
  Ni  Ni216  1  0.16005150  0.30505767  0.72584000  1.0
  Ni  Ni217  1  0.16005150  0.63839100  0.72584000  1.0
  Ni  Ni218  1  0.16005150  0.97172433  0.72584000  1.0
  Ni  Ni219  1  0.49338483  0.30505767  0.72584000  1.0
  Ni  Ni220  1  0.49338483  0.63839100  0.72584000  1.0
  Ni  Ni221  1  0.49338483  0.97172433  0.72584000  1.0
  Ni  Ni222  1  0.82671817  0.30505767  0.72584000  1.0
  Ni  Ni223  1  0.82671817  0.63839100  0.72584000  1.0
  Ni  Ni224  1  0.82671817  0.97172433  0.72584000  1.0
  Ni  Ni225  1  0.31005150  0.30505767  0.77584000  1.0
  Ni  Ni226  1  0.31005150  0.63839100  0.77584000  1.0
  Ni  Ni227  1  0.31005150  0.97172433  0.77584000  1.0
  Ni  Ni228  1  0.64338483  0.30505767  0.77584000  1.0
  Ni  Ni229  1  0.64338483  0.63839100  0.77584000  1.0
  Ni  Ni230  1  0.64338483  0.97172433  0.77584000  1.0
  Ni  Ni231  1  0.97671817  0.30505767  0.77584000  1.0
  Ni  Ni232  1  0.97671817  0.63839100  0.77584000  1.0
  Ni  Ni233  1  0.97671817  0.97172433  0.77584000  1.0
  Ni  Ni234  1  0.21085330  0.19410067  0.74325760  1.0
  Ni  Ni235  1  0.21085330  0.52743400  0.74325760  1.0
  Ni  Ni236  1  0.21085330  0.86076733  0.74325760  1.0
  Ni  Ni237  1  0.54418663  0.19410067  0.74325760  1.0
  Ni  Ni238  1  0.54418663  0.52743400  0.74325760  1.0
  Ni  Ni239  1  0.54418663  0.86076733  0.74325760  1.0
  Ni  Ni240  1  0.87751997  0.19410067  0.74325760  1.0
  Ni  Ni241  1  0.87751997  0.52743400  0.74325760  1.0
  Ni  Ni242  1  0.87751997  0.86076733  0.74325760  1.0
  Ni  Ni243  1  0.02751997  0.19410067  0.79325760  1.0
  Ni  Ni244  1  0.02751997  0.52743400  0.79325760  1.0
  Ni  Ni245  1  0.02751997  0.86076733  0.79325760  1.0
  Ni  Ni246  1  0.36085330  0.19410067  0.79325760  1.0
  Ni  Ni247  1  0.36085330  0.52743400  0.79325760  1.0
  Ni  Ni248  1  0.36085330  0.86076733  0.79325760  1.0
  Ni  Ni249  1  0.69418663  0.19410067  0.79325760  1.0
  Ni  Ni250  1  0.69418663  0.52743400  0.79325760  1.0
  Ni  Ni251  1  0.69418663  0.86076733  0.79325760  1.0
  Ni  Ni252  1  0.25974533  0.08253300  0.75229450  1.0
  Ni  Ni253  1  0.25974533  0.41586633  0.75229450  1.0
  Ni  Ni254  1  0.25974533  0.74919967  0.75229450  1.0
  Ni  Ni255  1  0.59307867  0.08253300  0.75229450  1.0
  Ni  Ni256  1  0.59307867  0.41586633  0.75229450  1.0
  Ni  Ni257  1  0.59307867  0.74919967  0.75229450  1.0
  Ni  Ni258  1  0.92641200  0.08253300  0.75229450  1.0
  Ni  Ni259  1  0.92641200  0.41586633  0.75229450  1.0
  Ni  Ni260  1  0.92641200  0.74919967  0.75229450  1.0
  Ni  Ni261  1  0.10974533  0.08253300  0.70229450  1.0
  Ni  Ni262  1  0.10974533  0.41586633  0.70229450  1.0
  Ni  Ni263  1  0.10974533  0.74919967  0.70229450  1.0
  Ni  Ni264  1  0.44307867  0.08253300  0.70229450  1.0
  Ni  Ni265  1  0.44307867  0.41586633  0.70229450  1.0
  Ni  Ni266  1  0.44307867  0.74919967  0.70229450  1.0
  Ni  Ni267  1  0.77641200  0.08253300  0.70229450  1.0
  Ni  Ni268  1  0.77641200  0.41586633  0.70229450  1.0
  Ni  Ni269  1  0.77641200  0.74919967  0.70229450  1.0
  Ni  Ni270  1  0.00360287  0.02827567  0.78319690  1.0
  Ni  Ni271  1  0.00360287  0.36160900  0.78319690  1.0
  Ni  Ni272  1  0.00360287  0.69494233  0.78319690  1.0
  Ni  Ni273  1  0.33693620  0.02827567  0.78319690  1.0
  Ni  Ni274  1  0.33693620  0.36160900  0.78319690  1.0
  Ni  Ni275  1  0.33693620  0.69494233  0.78319690  1.0
  Ni  Ni276  1  0.67026953  0.02827567  0.78319690  1.0
  Ni  Ni277  1  0.67026953  0.36160900  0.78319690  1.0
  Ni  Ni278  1  0.67026953  0.69494233  0.78319690  1.0
  Ni  Ni279  1  0.18693620  0.02827567  0.73319690  1.0
  Ni  Ni280  1  0.18693620  0.36160900  0.73319690  1.0
  Ni  Ni281  1  0.18693620  0.69494233  0.73319690  1.0
  Ni  Ni282  1  0.52026953  0.02827567  0.73319690  1.0
  Ni  Ni283  1  0.52026953  0.36160900  0.73319690  1.0
  Ni  Ni284  1  0.52026953  0.69494233  0.73319690  1.0
  Ni  Ni285  1  0.85360287  0.02827567  0.73319690  1.0
  Ni  Ni286  1  0.85360287  0.36160900  0.73319690  1.0
  Ni  Ni287  1  0.85360287  0.69494233  0.73319690  1.0
  Ni  Ni288  1  0.28613440  0.13923267  0.76577930  1.0
  Ni  Ni289  1  0.28613440  0.47256600  0.76577930  1.0
  Ni  Ni290  1  0.28613440  0.80589933  0.76577930  1.0
  Ni  Ni291  1  0.61946773  0.13923267  0.76577930  1.0
  Ni  Ni292  1  0.61946773  0.47256600  0.76577930  1.0
  Ni  Ni293  1  0.61946773  0.80589933  0.76577930  1.0
  Ni  Ni294  1  0.95280107  0.13923267  0.76577930  1.0
  Ni  Ni295  1  0.95280107  0.47256600  0.76577930  1.0
  Ni  Ni296  1  0.95280107  0.80589933  0.76577930  1.0
  Ni  Ni297  1  0.13613440  0.13923267  0.71577930  1.0
  Ni  Ni298  1  0.13613440  0.47256600  0.71577930  1.0
  Ni  Ni299  1  0.13613440  0.80589933  0.71577930  1.0
  Ni  Ni300  1  0.46946773  0.13923267  0.71577930  1.0
  Ni  Ni301  1  0.46946773  0.47256600  0.71577930  1.0
  Ni  Ni302  1  0.46946773  0.80589933  0.71577930  1.0
  Ni  Ni303  1  0.80280107  0.13923267  0.71577930  1.0
  Ni  Ni304  1  0.80280107  0.47256600  0.71577930  1.0
  Ni  Ni305  1  0.80280107  0.80589933  0.71577930  1.0
  Ni  Ni306  1  0.23724237  0.25080033  0.75674240  1.0
  Ni  Ni307  1  0.23724237  0.58413367  0.75674240  1.0
  Ni  Ni308  1  0.23724237  0.91746700  0.75674240  1.0
  Ni  Ni309  1  0.57057570  0.25080033  0.75674240  1.0
  Ni  Ni310  1  0.57057570  0.58413367  0.75674240  1.0
  Ni  Ni311  1  0.57057570  0.91746700  0.75674240  1.0
  Ni  Ni312  1  0.90390903  0.25080033  0.75674240  1.0
  Ni  Ni313  1  0.90390903  0.58413367  0.75674240  1.0
  Ni  Ni314  1  0.90390903  0.91746700  0.75674240  1.0
  Ni  Ni315  1  0.08724237  0.25080033  0.70674240  1.0
  Ni  Ni316  1  0.08724237  0.58413367  0.70674240  1.0
  Ni  Ni317  1  0.08724237  0.91746700  0.70674240  1.0
  Ni  Ni318  1  0.42057570  0.25080033  0.70674240  1.0
  Ni  Ni319  1  0.42057570  0.58413367  0.70674240  1.0
  Ni  Ni320  1  0.42057570  0.91746700  0.70674240  1.0
  Ni  Ni321  1  0.75390903  0.25080033  0.70674240  1.0
  Ni  Ni322  1  0.75390903  0.58413367  0.70674240  1.0
  Ni  Ni323  1  0.75390903  0.91746700  0.70674240  1.0
  Ni  Ni324  1  0.19338483  0.30505767  0.62584000  1.0
  Ni  Ni325  1  0.19338483  0.63839100  0.62584000  1.0
  Ni  Ni326  1  0.19338483  0.97172433  0.62584000  1.0
  Ni  Ni327  1  0.52671817  0.30505767  0.62584000  1.0
  Ni  Ni328  1  0.52671817  0.63839100  0.62584000  1.0
  Ni  Ni329  1  0.52671817  0.97172433  0.62584000  1.0
  Ni  Ni330  1  0.86005150  0.30505767  0.62584000  1.0
  Ni  Ni331  1  0.86005150  0.63839100  0.62584000  1.0
  Ni  Ni332  1  0.86005150  0.97172433  0.62584000  1.0
  Ni  Ni333  1  0.01005150  0.30505767  0.67584000  1.0
  Ni  Ni334  1  0.01005150  0.63839100  0.67584000  1.0
  Ni  Ni335  1  0.01005150  0.97172433  0.67584000  1.0
  Ni  Ni336  1  0.34338483  0.30505767  0.67584000  1.0
  Ni  Ni337  1  0.34338483  0.63839100  0.67584000  1.0
  Ni  Ni338  1  0.34338483  0.97172433  0.67584000  1.0
  Ni  Ni339  1  0.67671817  0.30505767  0.67584000  1.0
  Ni  Ni340  1  0.67671817  0.63839100  0.67584000  1.0
  Ni  Ni341  1  0.67671817  0.97172433  0.67584000  1.0
  Ni  Ni342  1  0.24418663  0.19410067  0.64325760  1.0
  Ni  Ni343  1  0.24418663  0.52743400  0.64325760  1.0
  Ni  Ni344  1  0.24418663  0.86076733  0.64325760  1.0
  Ni  Ni345  1  0.57751997  0.19410067  0.64325760  1.0
  Ni  Ni346  1  0.57751997  0.52743400  0.64325760  1.0
  Ni  Ni347  1  0.57751997  0.86076733  0.64325760  1.0
  Ni  Ni348  1  0.91085330  0.19410067  0.64325760  1.0
  Ni  Ni349  1  0.91085330  0.52743400  0.64325760  1.0
  Ni  Ni350  1  0.91085330  0.86076733  0.64325760  1.0
  Ni  Ni351  1  0.06085330  0.19410067  0.69325760  1.0
  Ni  Ni352  1  0.06085330  0.52743400  0.69325760  1.0
  Ni  Ni353  1  0.06085330  0.86076733  0.69325760  1.0
  Ni  Ni354  1  0.39418663  0.19410067  0.69325760  1.0
  Ni  Ni355  1  0.39418663  0.52743400  0.69325760  1.0
  Ni  Ni356  1  0.39418663  0.86076733  0.69325760  1.0
  Ni  Ni357  1  0.72751997  0.19410067  0.69325760  1.0
  Ni  Ni358  1  0.72751997  0.52743400  0.69325760  1.0
  Ni  Ni359  1  0.72751997  0.86076733  0.69325760  1.0
  Ni  Ni360  1  0.29307867  0.08253300  0.65229450  1.0
  Ni  Ni361  1  0.29307867  0.41586633  0.65229450  1.0
  Ni  Ni362  1  0.29307867  0.74919967  0.65229450  1.0
  Ni  Ni363  1  0.62641200  0.08253300  0.65229450  1.0
  Ni  Ni364  1  0.62641200  0.41586633  0.65229450  1.0
  Ni  Ni365  1  0.62641200  0.74919967  0.65229450  1.0
  Ni  Ni366  1  0.95974533  0.08253300  0.65229450  1.0
  Ni  Ni367  1  0.95974533  0.41586633  0.65229450  1.0
  Ni  Ni368  1  0.95974533  0.74919967  0.65229450  1.0
  Ni  Ni369  1  0.14307867  0.08253300  0.60229450  1.0
  Ni  Ni370  1  0.14307867  0.41586633  0.60229450  1.0
  Ni  Ni371  1  0.14307867  0.74919967  0.60229450  1.0
  Ni  Ni372  1  0.47641200  0.08253300  0.60229450  1.0
  Ni  Ni373  1  0.47641200  0.41586633  0.60229450  1.0
  Ni  Ni374  1  0.47641200  0.74919967  0.60229450  1.0
  Ni  Ni375  1  0.80974533  0.08253300  0.60229450  1.0
  Ni  Ni376  1  0.80974533  0.41586633  0.60229450  1.0
  Ni  Ni377  1  0.80974533  0.74919967  0.60229450  1.0
  Ni  Ni378  1  0.03693620  0.02827567  0.68319690  1.0
  Ni  Ni379  1  0.03693620  0.36160900  0.68319690  1.0
  Ni  Ni380  1  0.03693620  0.69494233  0.68319690  1.0
  Ni  Ni381  1  0.37026953  0.02827567  0.68319690  1.0
  Ni  Ni382  1  0.37026953  0.36160900  0.68319690  1.0
  Ni  Ni383  1  0.37026953  0.69494233  0.68319690  1.0
  Ni  Ni384  1  0.70360287  0.02827567  0.68319690  1.0
  Ni  Ni385  1  0.70360287  0.36160900  0.68319690  1.0
  Ni  Ni386  1  0.70360287  0.69494233  0.68319690  1.0
  Ni  Ni387  1  0.22026953  0.02827567  0.63319690  1.0
  Ni  Ni388  1  0.22026953  0.36160900  0.63319690  1.0
  Ni  Ni389  1  0.22026953  0.69494233  0.63319690  1.0
  Ni  Ni390  1  0.55360287  0.02827567  0.63319690  1.0
  Ni  Ni391  1  0.55360287  0.36160900  0.63319690  1.0
  Ni  Ni392  1  0.55360287  0.69494233  0.63319690  1.0
  Ni  Ni393  1  0.88693620  0.02827567  0.63319690  1.0
  Ni  Ni394  1  0.88693620  0.36160900  0.63319690  1.0
  Ni  Ni395  1  0.88693620  0.69494233  0.63319690  1.0
  Ni  Ni396  1  0.31946773  0.13923267  0.66577930  1.0
  Ni  Ni397  1  0.31946773  0.47256600  0.66577930  1.0
  Ni  Ni398  1  0.31946773  0.80589933  0.66577930  1.0
  Ni  Ni399  1  0.65280107  0.13923267  0.66577930  1.0
  Ni  Ni400  1  0.65280107  0.47256600  0.66577930  1.0
  Ni  Ni401  1  0.65280107  0.80589933  0.66577930  1.0
  Ni  Ni402  1  0.98613440  0.13923267  0.66577930  1.0
  Ni  Ni403  1  0.98613440  0.47256600  0.66577930  1.0
  Ni  Ni404  1  0.98613440  0.80589933  0.66577930  1.0
  Ni  Ni405  1  0.16946773  0.13923267  0.61577930  1.0
  Ni  Ni406  1  0.16946773  0.47256600  0.61577930  1.0
  Ni  Ni407  1  0.16946773  0.80589933  0.61577930  1.0
  Ni  Ni408  1  0.50280107  0.13923267  0.61577930  1.0
  Ni  Ni409  1  0.50280107  0.47256600  0.61577930  1.0
  Ni  Ni410  1  0.50280107  0.80589933  0.61577930  1.0
  Ni  Ni411  1  0.83613440  0.13923267  0.61577930  1.0
  Ni  Ni412  1  0.83613440  0.47256600  0.61577930  1.0
  Ni  Ni413  1  0.83613440  0.80589933  0.61577930  1.0
  Ni  Ni414  1  0.27057570  0.25080033  0.65674240  1.0
  Ni  Ni415  1  0.27057570  0.58413367  0.65674240  1.0
  Ni  Ni416  1  0.27057570  0.91746700  0.65674240  1.0
  Ni  Ni417  1  0.60390903  0.25080033  0.65674240  1.0
  Ni  Ni418  1  0.60390903  0.58413367  0.65674240  1.0
  Ni  Ni419  1  0.60390903  0.91746700  0.65674240  1.0
  Ni  Ni420  1  0.93724237  0.25080033  0.65674240  1.0
  Ni  Ni421  1  0.93724237  0.58413367  0.65674240  1.0
  Ni  Ni422  1  0.93724237  0.91746700  0.65674240  1.0
  Ni  Ni423  1  0.12057570  0.25080033  0.60674240  1.0
  Ni  Ni424  1  0.12057570  0.58413367  0.60674240  1.0
  Ni  Ni425  1  0.12057570  0.91746700  0.60674240  1.0
  Ni  Ni426  1  0.45390903  0.25080033  0.60674240  1.0
  Ni  Ni427  1  0.45390903  0.58413367  0.60674240  1.0
  Ni  Ni428  1  0.45390903  0.91746700  0.60674240  1.0
  Ni  Ni429  1  0.78724237  0.25080033  0.60674240  1.0
  Ni  Ni430  1  0.78724237  0.58413367  0.60674240  1.0
  Ni  Ni431  1  0.78724237  0.91746700  0.60674240  1.0
  Ti  Ti432  1  0.21913627  0.02747200  0.90274770  1.0
  Ti  Ti433  1  0.21913627  0.36080533  0.90274770  1.0
  Ti  Ti434  1  0.21913627  0.69413867  0.90274770  1.0
  Ti  Ti435  1  0.55246960  0.02747200  0.90274770  1.0
  Ti  Ti436  1  0.55246960  0.36080533  0.90274770  1.0
  Ti  Ti437  1  0.55246960  0.69413867  0.90274770  1.0
  Ti  Ti438  1  0.88580293  0.02747200  0.90274770  1.0
  Ti  Ti439  1  0.88580293  0.36080533  0.90274770  1.0
  Ti  Ti440  1  0.88580293  0.69413867  0.90274770  1.0
  Ti  Ti441  1  0.03580293  0.02747200  0.95274770  1.0
  Ti  Ti442  1  0.03580293  0.36080533  0.95274770  1.0
  Ti  Ti443  1  0.03580293  0.69413867  0.95274770  1.0
  Ti  Ti444  1  0.36913627  0.02747200  0.95274770  1.0
  Ti  Ti445  1  0.36913627  0.36080533  0.95274770  1.0
  Ti  Ti446  1  0.36913627  0.69413867  0.95274770  1.0
  Ti  Ti447  1  0.70246960  0.02747200  0.95274770  1.0
  Ti  Ti448  1  0.70246960  0.36080533  0.95274770  1.0
  Ti  Ti449  1  0.70246960  0.69413867  0.95274770  1.0
  Ti  Ti450  1  0.17785143  0.30586133  0.90628920  1.0
  Ti  Ti451  1  0.17785143  0.63919467  0.90628920  1.0
  Ti  Ti452  1  0.17785143  0.97252800  0.90628920  1.0
  Ti  Ti453  1  0.51118477  0.30586133  0.90628920  1.0
  Ti  Ti454  1  0.51118477  0.63919467  0.90628920  1.0
  Ti  Ti455  1  0.51118477  0.97252800  0.90628920  1.0
  Ti  Ti456  1  0.84451810  0.30586133  0.90628920  1.0
  Ti  Ti457  1  0.84451810  0.63919467  0.90628920  1.0
  Ti  Ti458  1  0.84451810  0.97252800  0.90628920  1.0
  Ti  Ti459  1  0.32785143  0.30586133  0.95628920  1.0
  Ti  Ti460  1  0.32785143  0.63919467  0.95628920  1.0
  Ti  Ti461  1  0.32785143  0.97252800  0.95628920  1.0
  Ti  Ti462  1  0.66118477  0.30586133  0.95628920  1.0
  Ti  Ti463  1  0.66118477  0.63919467  0.95628920  1.0
  Ti  Ti464  1  0.66118477  0.97252800  0.95628920  1.0
  Ti  Ti465  1  0.99451810  0.30586133  0.95628920  1.0
  Ti  Ti466  1  0.99451810  0.63919467  0.95628920  1.0
  Ti  Ti467  1  0.99451810  0.97252800  0.95628920  1.0
  Ti  Ti468  1  0.27648242  0.08372800  0.93284575  1.0
  Ti  Ti469  1  0.27648242  0.41706133  0.93284575  1.0
  Ti  Ti470  1  0.27648242  0.75039467  0.93284575  1.0
  Ti  Ti471  1  0.60981575  0.08372800  0.93284575  1.0
  Ti  Ti472  1  0.60981575  0.41706133  0.93284575  1.0
  Ti  Ti473  1  0.60981575  0.75039467  0.93284575  1.0
  Ti  Ti474  1  0.94314908  0.08372800  0.93284575  1.0
  Ti  Ti475  1  0.94314908  0.41706133  0.93284575  1.0
  Ti  Ti476  1  0.94314908  0.75039467  0.93284575  1.0
  Ti  Ti477  1  0.09314908  0.08372800  0.98284575  1.0
  Ti  Ti478  1  0.09314908  0.41706133  0.98284575  1.0
  Ti  Ti479  1  0.09314908  0.75039467  0.98284575  1.0
  Ti  Ti480  1  0.42648242  0.08372800  0.98284575  1.0
  Ti  Ti481  1  0.42648242  0.41706133  0.98284575  1.0
  Ti  Ti482  1  0.42648242  0.75039467  0.98284575  1.0
  Ti  Ti483  1  0.75981575  0.08372800  0.98284575  1.0
  Ti  Ti484  1  0.75981575  0.41706133  0.98284575  1.0
  Ti  Ti485  1  0.75981575  0.75039467  0.98284575  1.0
  Ti  Ti486  1  0.22837118  0.19503000  0.92489345  1.0
  Ti  Ti487  1  0.22837118  0.52836333  0.92489345  1.0
  Ti  Ti488  1  0.22837118  0.86169667  0.92489345  1.0
  Ti  Ti489  1  0.56170452  0.19503000  0.92489345  1.0
  Ti  Ti490  1  0.56170452  0.52836333  0.92489345  1.0
  Ti  Ti491  1  0.56170452  0.86169667  0.92489345  1.0
  Ti  Ti492  1  0.89503785  0.19503000  0.92489345  1.0
  Ti  Ti493  1  0.89503785  0.52836333  0.92489345  1.0
  Ti  Ti494  1  0.89503785  0.86169667  0.92489345  1.0
  Ti  Ti495  1  0.04503785  0.19503000  0.97489345  1.0
  Ti  Ti496  1  0.04503785  0.52836333  0.97489345  1.0
  Ti  Ti497  1  0.04503785  0.86169667  0.97489345  1.0
  Ti  Ti498  1  0.37837118  0.19503000  0.97489345  1.0
  Ti  Ti499  1  0.37837118  0.52836333  0.97489345  1.0
  Ti  Ti500  1  0.37837118  0.86169667  0.97489345  1.0
  Ti  Ti501  1  0.71170452  0.19503000  0.97489345  1.0
  Ti  Ti502  1  0.71170452  0.52836333  0.97489345  1.0
  Ti  Ti503  1  0.71170452  0.86169667  0.97489345  1.0
  Ti  Ti504  1  0.13528318  0.13830333  0.98414345  1.0
  Ti  Ti505  1  0.13528318  0.47163667  0.98414345  1.0
  Ti  Ti506  1  0.13528318  0.80497000  0.98414345  1.0
  Ti  Ti507  1  0.46861652  0.13830333  0.98414345  1.0
  Ti  Ti508  1  0.46861652  0.47163667  0.98414345  1.0
  Ti  Ti509  1  0.46861652  0.80497000  0.98414345  1.0
  Ti  Ti510  1  0.80194985  0.13830333  0.98414345  1.0
  Ti  Ti511  1  0.80194985  0.47163667  0.98414345  1.0
  Ti  Ti512  1  0.80194985  0.80497000  0.98414345  1.0
  Ti  Ti513  1  0.31861652  0.13830333  0.93414345  1.0
  Ti  Ti514  1  0.31861652  0.47163667  0.93414345  1.0
  Ti  Ti515  1  0.31861652  0.80497000  0.93414345  1.0
  Ti  Ti516  1  0.65194985  0.13830333  0.93414345  1.0
  Ti  Ti517  1  0.65194985  0.47163667  0.93414345  1.0
  Ti  Ti518  1  0.65194985  0.80497000  0.93414345  1.0
  Ti  Ti519  1  0.98528318  0.13830333  0.93414345  1.0
  Ti  Ti520  1  0.98528318  0.47163667  0.93414345  1.0
  Ti  Ti521  1  0.98528318  0.80497000  0.93414345  1.0
  Ti  Ti522  1  0.08717195  0.24960533  0.97619115  1.0
  Ti  Ti523  1  0.08717195  0.58293867  0.97619115  1.0
  Ti  Ti524  1  0.08717195  0.91627200  0.97619115  1.0
  Ti  Ti525  1  0.42050528  0.24960533  0.97619115  1.0
  Ti  Ti526  1  0.42050528  0.58293867  0.97619115  1.0
  Ti  Ti527  1  0.42050528  0.91627200  0.97619115  1.0
  Ti  Ti528  1  0.75383862  0.24960533  0.97619115  1.0
  Ti  Ti529  1  0.75383862  0.58293867  0.97619115  1.0
  Ti  Ti530  1  0.75383862  0.91627200  0.97619115  1.0
  Ti  Ti531  1  0.27050528  0.24960533  0.92619115  1.0
  Ti  Ti532  1  0.27050528  0.58293867  0.92619115  1.0
  Ti  Ti533  1  0.27050528  0.91627200  0.92619115  1.0
  Ti  Ti534  1  0.60383862  0.24960533  0.92619115  1.0
  Ti  Ti535  1  0.60383862  0.58293867  0.92619115  1.0
  Ti  Ti536  1  0.60383862  0.91627200  0.92619115  1.0
  Ti  Ti537  1  0.93717195  0.24960533  0.92619115  1.0
  Ti  Ti538  1  0.93717195  0.58293867  0.92619115  1.0
  Ti  Ti539  1  0.93717195  0.91627200  0.92619115  1.0
  Ti  Ti540  1  0.25246960  0.02747200  0.80274770  1.0
  Ti  Ti541  1  0.25246960  0.36080533  0.80274770  1.0
  Ti  Ti542  1  0.25246960  0.69413867  0.80274770  1.0
  Ti  Ti543  1  0.58580293  0.02747200  0.80274770  1.0
  Ti  Ti544  1  0.58580293  0.36080533  0.80274770  1.0
  Ti  Ti545  1  0.58580293  0.69413867  0.80274770  1.0
  Ti  Ti546  1  0.91913627  0.02747200  0.80274770  1.0
  Ti  Ti547  1  0.91913627  0.36080533  0.80274770  1.0
  Ti  Ti548  1  0.91913627  0.69413867  0.80274770  1.0
  Ti  Ti549  1  0.06913627  0.02747200  0.85274770  1.0
  Ti  Ti550  1  0.06913627  0.36080533  0.85274770  1.0
  Ti  Ti551  1  0.06913627  0.69413867  0.85274770  1.0
  Ti  Ti552  1  0.40246960  0.02747200  0.85274770  1.0
  Ti  Ti553  1  0.40246960  0.36080533  0.85274770  1.0
  Ti  Ti554  1  0.40246960  0.69413867  0.85274770  1.0
  Ti  Ti555  1  0.73580293  0.02747200  0.85274770  1.0
  Ti  Ti556  1  0.73580293  0.36080533  0.85274770  1.0
  Ti  Ti557  1  0.73580293  0.69413867  0.85274770  1.0
  Ti  Ti558  1  0.21118477  0.30586133  0.80628920  1.0
  Ti  Ti559  1  0.21118477  0.63919467  0.80628920  1.0
  Ti  Ti560  1  0.21118477  0.97252800  0.80628920  1.0
  Ti  Ti561  1  0.54451810  0.30586133  0.80628920  1.0
  Ti  Ti562  1  0.54451810  0.63919467  0.80628920  1.0
  Ti  Ti563  1  0.54451810  0.97252800  0.80628920  1.0
  Ti  Ti564  1  0.87785143  0.30586133  0.80628920  1.0
  Ti  Ti565  1  0.87785143  0.63919467  0.80628920  1.0
  Ti  Ti566  1  0.87785143  0.97252800  0.80628920  1.0
  Ti  Ti567  1  0.02785143  0.30586133  0.85628920  1.0
  Ti  Ti568  1  0.02785143  0.63919467  0.85628920  1.0
  Ti  Ti569  1  0.02785143  0.97252800  0.85628920  1.0
  Ti  Ti570  1  0.36118477  0.30586133  0.85628920  1.0
  Ti  Ti571  1  0.36118477  0.63919467  0.85628920  1.0
  Ti  Ti572  1  0.36118477  0.97252800  0.85628920  1.0
  Ti  Ti573  1  0.69451810  0.30586133  0.85628920  1.0
  Ti  Ti574  1  0.69451810  0.63919467  0.85628920  1.0
  Ti  Ti575  1  0.69451810  0.97252800  0.85628920  1.0
  Ti  Ti576  1  0.30981575  0.08372800  0.83284575  1.0
  Ti  Ti577  1  0.30981575  0.41706133  0.83284575  1.0
  Ti  Ti578  1  0.30981575  0.75039467  0.83284575  1.0
  Ti  Ti579  1  0.64314908  0.08372800  0.83284575  1.0
  Ti  Ti580  1  0.64314908  0.41706133  0.83284575  1.0
  Ti  Ti581  1  0.64314908  0.75039467  0.83284575  1.0
  Ti  Ti582  1  0.97648242  0.08372800  0.83284575  1.0
  Ti  Ti583  1  0.97648242  0.41706133  0.83284575  1.0
  Ti  Ti584  1  0.97648242  0.75039467  0.83284575  1.0
  Ti  Ti585  1  0.12648242  0.08372800  0.88284575  1.0
  Ti  Ti586  1  0.12648242  0.41706133  0.88284575  1.0
  Ti  Ti587  1  0.12648242  0.75039467  0.88284575  1.0
  Ti  Ti588  1  0.45981575  0.08372800  0.88284575  1.0
  Ti  Ti589  1  0.45981575  0.41706133  0.88284575  1.0
  Ti  Ti590  1  0.45981575  0.75039467  0.88284575  1.0
  Ti  Ti591  1  0.79314908  0.08372800  0.88284575  1.0
  Ti  Ti592  1  0.79314908  0.41706133  0.88284575  1.0
  Ti  Ti593  1  0.79314908  0.75039467  0.88284575  1.0
  Ti  Ti594  1  0.26170452  0.19503000  0.82489345  1.0
  Ti  Ti595  1  0.26170452  0.52836333  0.82489345  1.0
  Ti  Ti596  1  0.26170452  0.86169667  0.82489345  1.0
  Ti  Ti597  1  0.59503785  0.19503000  0.82489345  1.0
  Ti  Ti598  1  0.59503785  0.52836333  0.82489345  1.0
  Ti  Ti599  1  0.59503785  0.86169667  0.82489345  1.0
  Ti  Ti600  1  0.92837118  0.19503000  0.82489345  1.0
  Ti  Ti601  1  0.92837118  0.52836333  0.82489345  1.0
  Ti  Ti602  1  0.92837118  0.86169667  0.82489345  1.0
  Ti  Ti603  1  0.07837118  0.19503000  0.87489345  1.0
  Ti  Ti604  1  0.07837118  0.52836333  0.87489345  1.0
  Ti  Ti605  1  0.07837118  0.86169667  0.87489345  1.0
  Ti  Ti606  1  0.41170452  0.19503000  0.87489345  1.0
  Ti  Ti607  1  0.41170452  0.52836333  0.87489345  1.0
  Ti  Ti608  1  0.41170452  0.86169667  0.87489345  1.0
  Ti  Ti609  1  0.74503785  0.19503000  0.87489345  1.0
  Ti  Ti610  1  0.74503785  0.52836333  0.87489345  1.0
  Ti  Ti611  1  0.74503785  0.86169667  0.87489345  1.0
  Ti  Ti612  1  0.16861652  0.13830333  0.88414345  1.0
  Ti  Ti613  1  0.16861652  0.47163667  0.88414345  1.0
  Ti  Ti614  1  0.16861652  0.80497000  0.88414345  1.0
  Ti  Ti615  1  0.50194985  0.13830333  0.88414345  1.0
  Ti  Ti616  1  0.50194985  0.47163667  0.88414345  1.0
  Ti  Ti617  1  0.50194985  0.80497000  0.88414345  1.0
  Ti  Ti618  1  0.83528318  0.13830333  0.88414345  1.0
  Ti  Ti619  1  0.83528318  0.47163667  0.88414345  1.0
  Ti  Ti620  1  0.83528318  0.80497000  0.88414345  1.0
  Ti  Ti621  1  0.01861652  0.13830333  0.83414345  1.0
  Ti  Ti622  1  0.01861652  0.47163667  0.83414345  1.0
  Ti  Ti623  1  0.01861652  0.80497000  0.83414345  1.0
  Ti  Ti624  1  0.35194985  0.13830333  0.83414345  1.0
  Ti  Ti625  1  0.35194985  0.47163667  0.83414345  1.0
  Ti  Ti626  1  0.35194985  0.80497000  0.83414345  1.0
  Ti  Ti627  1  0.68528318  0.13830333  0.83414345  1.0
  Ti  Ti628  1  0.68528318  0.47163667  0.83414345  1.0
  Ti  Ti629  1  0.68528318  0.80497000  0.83414345  1.0
  Ti  Ti630  1  0.12050528  0.24960533  0.87619115  1.0
  Ti  Ti631  1  0.12050528  0.58293867  0.87619115  1.0
  Ti  Ti632  1  0.12050528  0.91627200  0.87619115  1.0
  Ti  Ti633  1  0.45383862  0.24960533  0.87619115  1.0
  Ti  Ti634  1  0.45383862  0.58293867  0.87619115  1.0
  Ti  Ti635  1  0.45383862  0.91627200  0.87619115  1.0
  Ti  Ti636  1  0.78717195  0.24960533  0.87619115  1.0
  Ti  Ti637  1  0.78717195  0.58293867  0.87619115  1.0
  Ti  Ti638  1  0.78717195  0.91627200  0.87619115  1.0
  Ti  Ti639  1  0.30383862  0.24960533  0.82619115  1.0
  Ti  Ti640  1  0.30383862  0.58293867  0.82619115  1.0
  Ti  Ti641  1  0.30383862  0.91627200  0.82619115  1.0
  Ti  Ti642  1  0.63717195  0.24960533  0.82619115  1.0
  Ti  Ti643  1  0.63717195  0.58293867  0.82619115  1.0
  Ti  Ti644  1  0.63717195  0.91627200  0.82619115  1.0
  Ti  Ti645  1  0.97050528  0.24960533  0.82619115  1.0
  Ti  Ti646  1  0.97050528  0.58293867  0.82619115  1.0
  Ti  Ti647  1  0.97050528  0.91627200  0.82619115  1.0
  Ti  Ti648  1  0.28580293  0.02747200  0.70274770  1.0
  Ti  Ti649  1  0.28580293  0.36080533  0.70274770  1.0
  Ti  Ti650  1  0.28580293  0.69413867  0.70274770  1.0
  Ti  Ti651  1  0.61913627  0.02747200  0.70274770  1.0
  Ti  Ti652  1  0.61913627  0.36080533  0.70274770  1.0
  Ti  Ti653  1  0.61913627  0.69413867  0.70274770  1.0
  Ti  Ti654  1  0.95246960  0.02747200  0.70274770  1.0
  Ti  Ti655  1  0.95246960  0.36080533  0.70274770  1.0
  Ti  Ti656  1  0.95246960  0.69413867  0.70274770  1.0
  Ti  Ti657  1  0.10246960  0.02747200  0.75274770  1.0
  Ti  Ti658  1  0.10246960  0.36080533  0.75274770  1.0
  Ti  Ti659  1  0.10246960  0.69413867  0.75274770  1.0
  Ti  Ti660  1  0.43580293  0.02747200  0.75274770  1.0
  Ti  Ti661  1  0.43580293  0.36080533  0.75274770  1.0
  Ti  Ti662  1  0.43580293  0.69413867  0.75274770  1.0
  Ti  Ti663  1  0.76913627  0.02747200  0.75274770  1.0
  Ti  Ti664  1  0.76913627  0.36080533  0.75274770  1.0
  Ti  Ti665  1  0.76913627  0.69413867  0.75274770  1.0
  Ti  Ti666  1  0.24451810  0.30586133  0.70628920  1.0
  Ti  Ti667  1  0.24451810  0.63919467  0.70628920  1.0
  Ti  Ti668  1  0.24451810  0.97252800  0.70628920  1.0
  Ti  Ti669  1  0.57785143  0.30586133  0.70628920  1.0
  Ti  Ti670  1  0.57785143  0.63919467  0.70628920  1.0
  Ti  Ti671  1  0.57785143  0.97252800  0.70628920  1.0
  Ti  Ti672  1  0.91118477  0.30586133  0.70628920  1.0
  Ti  Ti673  1  0.91118477  0.63919467  0.70628920  1.0
  Ti  Ti674  1  0.91118477  0.97252800  0.70628920  1.0
  Ti  Ti675  1  0.06118477  0.30586133  0.75628920  1.0
  Ti  Ti676  1  0.06118477  0.63919467  0.75628920  1.0
  Ti  Ti677  1  0.06118477  0.97252800  0.75628920  1.0
  Ti  Ti678  1  0.39451810  0.30586133  0.75628920  1.0
  Ti  Ti679  1  0.39451810  0.63919467  0.75628920  1.0
  Ti  Ti680  1  0.39451810  0.97252800  0.75628920  1.0
  Ti  Ti681  1  0.72785143  0.30586133  0.75628920  1.0
  Ti  Ti682  1  0.72785143  0.63919467  0.75628920  1.0
  Ti  Ti683  1  0.72785143  0.97252800  0.75628920  1.0
  Ti  Ti684  1  0.00981575  0.08372800  0.73284575  1.0
  Ti  Ti685  1  0.00981575  0.41706133  0.73284575  1.0
  Ti  Ti686  1  0.00981575  0.75039467  0.73284575  1.0
  Ti  Ti687  1  0.34314908  0.08372800  0.73284575  1.0
  Ti  Ti688  1  0.34314908  0.41706133  0.73284575  1.0
  Ti  Ti689  1  0.34314908  0.75039467  0.73284575  1.0
  Ti  Ti690  1  0.67648242  0.08372800  0.73284575  1.0
  Ti  Ti691  1  0.67648242  0.41706133  0.73284575  1.0
  Ti  Ti692  1  0.67648242  0.75039467  0.73284575  1.0
  Ti  Ti693  1  0.15981575  0.08372800  0.78284575  1.0
  Ti  Ti694  1  0.15981575  0.41706133  0.78284575  1.0
  Ti  Ti695  1  0.15981575  0.75039467  0.78284575  1.0
  Ti  Ti696  1  0.49314908  0.08372800  0.78284575  1.0
  Ti  Ti697  1  0.49314908  0.41706133  0.78284575  1.0
  Ti  Ti698  1  0.49314908  0.75039467  0.78284575  1.0
  Ti  Ti699  1  0.82648242  0.08372800  0.78284575  1.0
  Ti  Ti700  1  0.82648242  0.41706133  0.78284575  1.0
  Ti  Ti701  1  0.82648242  0.75039467  0.78284575  1.0
  Ti  Ti702  1  0.29503785  0.19503000  0.72489345  1.0
  Ti  Ti703  1  0.29503785  0.52836333  0.72489345  1.0
  Ti  Ti704  1  0.29503785  0.86169667  0.72489345  1.0
  Ti  Ti705  1  0.62837118  0.19503000  0.72489345  1.0
  Ti  Ti706  1  0.62837118  0.52836333  0.72489345  1.0
  Ti  Ti707  1  0.62837118  0.86169667  0.72489345  1.0
  Ti  Ti708  1  0.96170452  0.19503000  0.72489345  1.0
  Ti  Ti709  1  0.96170452  0.52836333  0.72489345  1.0
  Ti  Ti710  1  0.96170452  0.86169667  0.72489345  1.0
  Ti  Ti711  1  0.11170452  0.19503000  0.77489345  1.0
  Ti  Ti712  1  0.11170452  0.52836333  0.77489345  1.0
  Ti  Ti713  1  0.11170452  0.86169667  0.77489345  1.0
  Ti  Ti714  1  0.44503785  0.19503000  0.77489345  1.0
  Ti  Ti715  1  0.44503785  0.52836333  0.77489345  1.0
  Ti  Ti716  1  0.44503785  0.86169667  0.77489345  1.0
  Ti  Ti717  1  0.77837118  0.19503000  0.77489345  1.0
  Ti  Ti718  1  0.77837118  0.52836333  0.77489345  1.0
  Ti  Ti719  1  0.77837118  0.86169667  0.77489345  1.0
  Ti  Ti720  1  0.20194985  0.13830333  0.78414345  1.0
  Ti  Ti721  1  0.20194985  0.47163667  0.78414345  1.0
  Ti  Ti722  1  0.20194985  0.80497000  0.78414345  1.0
  Ti  Ti723  1  0.53528318  0.13830333  0.78414345  1.0
  Ti  Ti724  1  0.53528318  0.47163667  0.78414345  1.0
  Ti  Ti725  1  0.53528318  0.80497000  0.78414345  1.0
  Ti  Ti726  1  0.86861652  0.13830333  0.78414345  1.0
  Ti  Ti727  1  0.86861652  0.47163667  0.78414345  1.0
  Ti  Ti728  1  0.86861652  0.80497000  0.78414345  1.0
  Ti  Ti729  1  0.05194985  0.13830333  0.73414345  1.0
  Ti  Ti730  1  0.05194985  0.47163667  0.73414345  1.0
  Ti  Ti731  1  0.05194985  0.80497000  0.73414345  1.0
  Ti  Ti732  1  0.38528318  0.13830333  0.73414345  1.0
  Ti  Ti733  1  0.38528318  0.47163667  0.73414345  1.0
  Ti  Ti734  1  0.38528318  0.80497000  0.73414345  1.0
  Ti  Ti735  1  0.71861652  0.13830333  0.73414345  1.0
  Ti  Ti736  1  0.71861652  0.47163667  0.73414345  1.0
  Ti  Ti737  1  0.71861652  0.80497000  0.73414345  1.0
  Ti  Ti738  1  0.15383862  0.24960533  0.77619115  1.0
  Ti  Ti739  1  0.15383862  0.58293867  0.77619115  1.0
  Ti  Ti740  1  0.15383862  0.91627200  0.77619115  1.0
  Ti  Ti741  1  0.48717195  0.24960533  0.77619115  1.0
  Ti  Ti742  1  0.48717195  0.58293867  0.77619115  1.0
  Ti  Ti743  1  0.48717195  0.91627200  0.77619115  1.0
  Ti  Ti744  1  0.82050528  0.24960533  0.77619115  1.0
  Ti  Ti745  1  0.82050528  0.58293867  0.77619115  1.0
  Ti  Ti746  1  0.82050528  0.91627200  0.77619115  1.0
  Ti  Ti747  1  0.00383862  0.24960533  0.72619115  1.0
  Ti  Ti748  1  0.00383862  0.58293867  0.72619115  1.0
  Ti  Ti749  1  0.00383862  0.91627200  0.72619115  1.0
  Ti  Ti750  1  0.33717195  0.24960533  0.72619115  1.0
  Ti  Ti751  1  0.33717195  0.58293867  0.72619115  1.0
  Ti  Ti752  1  0.33717195  0.91627200  0.72619115  1.0
  Ti  Ti753  1  0.67050528  0.24960533  0.72619115  1.0
  Ti  Ti754  1  0.67050528  0.58293867  0.72619115  1.0
  Ti  Ti755  1  0.67050528  0.91627200  0.72619115  1.0
  Ti  Ti756  1  0.31913627  0.02747200  0.60274770  1.0
  Ti  Ti757  1  0.31913627  0.36080533  0.60274770  1.0
  Ti  Ti758  1  0.31913627  0.69413867  0.60274770  1.0
  Ti  Ti759  1  0.65246960  0.02747200  0.60274770  1.0
  Ti  Ti760  1  0.65246960  0.36080533  0.60274770  1.0
  Ti  Ti761  1  0.65246960  0.69413867  0.60274770  1.0
  Ti  Ti762  1  0.98580293  0.02747200  0.60274770  1.0
  Ti  Ti763  1  0.98580293  0.36080533  0.60274770  1.0
  Ti  Ti764  1  0.98580293  0.69413867  0.60274770  1.0
  Ti  Ti765  1  0.13580293  0.02747200  0.65274770  1.0
  Ti  Ti766  1  0.13580293  0.36080533  0.65274770  1.0
  Ti  Ti767  1  0.13580293  0.69413867  0.65274770  1.0
  Ti  Ti768  1  0.46913627  0.02747200  0.65274770  1.0
  Ti  Ti769  1  0.46913627  0.36080533  0.65274770  1.0
  Ti  Ti770  1  0.46913627  0.69413867  0.65274770  1.0
  Ti  Ti771  1  0.80246960  0.02747200  0.65274770  1.0
  Ti  Ti772  1  0.80246960  0.36080533  0.65274770  1.0
  Ti  Ti773  1  0.80246960  0.69413867  0.65274770  1.0
  Ti  Ti774  1  0.27785143  0.30586133  0.60628920  1.0
  Ti  Ti775  1  0.27785143  0.63919467  0.60628920  1.0
  Ti  Ti776  1  0.27785143  0.97252800  0.60628920  1.0
  Ti  Ti777  1  0.61118477  0.30586133  0.60628920  1.0
  Ti  Ti778  1  0.61118477  0.63919467  0.60628920  1.0
  Ti  Ti779  1  0.61118477  0.97252800  0.60628920  1.0
  Ti  Ti780  1  0.94451810  0.30586133  0.60628920  1.0
  Ti  Ti781  1  0.94451810  0.63919467  0.60628920  1.0
  Ti  Ti782  1  0.94451810  0.97252800  0.60628920  1.0
  Ti  Ti783  1  0.09451810  0.30586133  0.65628920  1.0
  Ti  Ti784  1  0.09451810  0.63919467  0.65628920  1.0
  Ti  Ti785  1  0.09451810  0.97252800  0.65628920  1.0
  Ti  Ti786  1  0.42785143  0.30586133  0.65628920  1.0
  Ti  Ti787  1  0.42785143  0.63919467  0.65628920  1.0
  Ti  Ti788  1  0.42785143  0.97252800  0.65628920  1.0
  Ti  Ti789  1  0.76118477  0.30586133  0.65628920  1.0
  Ti  Ti790  1  0.76118477  0.63919467  0.65628920  1.0
  Ti  Ti791  1  0.76118477  0.97252800  0.65628920  1.0
  Ti  Ti792  1  0.04314908  0.08372800  0.63284575  1.0
  Ti  Ti793  1  0.04314908  0.41706133  0.63284575  1.0
  Ti  Ti794  1  0.04314908  0.75039467  0.63284575  1.0
  Ti  Ti795  1  0.37648242  0.08372800  0.63284575  1.0
  Ti  Ti796  1  0.37648242  0.41706133  0.63284575  1.0
  Ti  Ti797  1  0.37648242  0.75039467  0.63284575  1.0
  Ti  Ti798  1  0.70981575  0.08372800  0.63284575  1.0
  Ti  Ti799  1  0.70981575  0.41706133  0.63284575  1.0
  Ti  Ti800  1  0.70981575  0.75039467  0.63284575  1.0
  Ti  Ti801  1  0.19314908  0.08372800  0.68284575  1.0
  Ti  Ti802  1  0.19314908  0.41706133  0.68284575  1.0
  Ti  Ti803  1  0.19314908  0.75039467  0.68284575  1.0
  Ti  Ti804  1  0.52648242  0.08372800  0.68284575  1.0
  Ti  Ti805  1  0.52648242  0.41706133  0.68284575  1.0
  Ti  Ti806  1  0.52648242  0.75039467  0.68284575  1.0
  Ti  Ti807  1  0.85981575  0.08372800  0.68284575  1.0
  Ti  Ti808  1  0.85981575  0.41706133  0.68284575  1.0
  Ti  Ti809  1  0.85981575  0.75039467  0.68284575  1.0
  Ti  Ti810  1  0.32837118  0.19503000  0.62489345  1.0
  Ti  Ti811  1  0.32837118  0.52836333  0.62489345  1.0
  Ti  Ti812  1  0.32837118  0.86169667  0.62489345  1.0
  Ti  Ti813  1  0.66170452  0.19503000  0.62489345  1.0
  Ti  Ti814  1  0.66170452  0.52836333  0.62489345  1.0
  Ti  Ti815  1  0.66170452  0.86169667  0.62489345  1.0
  Ti  Ti816  1  0.99503785  0.19503000  0.62489345  1.0
  Ti  Ti817  1  0.99503785  0.52836333  0.62489345  1.0
  Ti  Ti818  1  0.99503785  0.86169667  0.62489345  1.0
  Ti  Ti819  1  0.14503785  0.19503000  0.67489345  1.0
  Ti  Ti820  1  0.14503785  0.52836333  0.67489345  1.0
  Ti  Ti821  1  0.14503785  0.86169667  0.67489345  1.0
  Ti  Ti822  1  0.47837118  0.19503000  0.67489345  1.0
  Ti  Ti823  1  0.47837118  0.52836333  0.67489345  1.0
  Ti  Ti824  1  0.47837118  0.86169667  0.67489345  1.0
  Ti  Ti825  1  0.81170452  0.19503000  0.67489345  1.0
  Ti  Ti826  1  0.81170452  0.52836333  0.67489345  1.0
  Ti  Ti827  1  0.81170452  0.86169667  0.67489345  1.0
  Ti  Ti828  1  0.23528318  0.13830333  0.68414345  1.0
  Ti  Ti829  1  0.23528318  0.47163667  0.68414345  1.0
  Ti  Ti830  1  0.23528318  0.80497000  0.68414345  1.0
  Ti  Ti831  1  0.56861652  0.13830333  0.68414345  1.0
  Ti  Ti832  1  0.56861652  0.47163667  0.68414345  1.0
  Ti  Ti833  1  0.56861652  0.80497000  0.68414345  1.0
  Ti  Ti834  1  0.90194985  0.13830333  0.68414345  1.0
  Ti  Ti835  1  0.90194985  0.47163667  0.68414345  1.0
  Ti  Ti836  1  0.90194985  0.80497000  0.68414345  1.0
  Ti  Ti837  1  0.08528318  0.13830333  0.63414345  1.0
  Ti  Ti838  1  0.08528318  0.47163667  0.63414345  1.0
  Ti  Ti839  1  0.08528318  0.80497000  0.63414345  1.0
  Ti  Ti840  1  0.41861652  0.13830333  0.63414345  1.0
  Ti  Ti841  1  0.41861652  0.47163667  0.63414345  1.0
  Ti  Ti842  1  0.41861652  0.80497000  0.63414345  1.0
  Ti  Ti843  1  0.75194985  0.13830333  0.63414345  1.0
  Ti  Ti844  1  0.75194985  0.47163667  0.63414345  1.0
  Ti  Ti845  1  0.75194985  0.80497000  0.63414345  1.0
  Ti  Ti846  1  0.18717195  0.24960533  0.67619115  1.0
  Ti  Ti847  1  0.18717195  0.58293867  0.67619115  1.0
  Ti  Ti848  1  0.18717195  0.91627200  0.67619115  1.0
  Ti  Ti849  1  0.52050528  0.24960533  0.67619115  1.0
  Ti  Ti850  1  0.52050528  0.58293867  0.67619115  1.0
  Ti  Ti851  1  0.52050528  0.91627200  0.67619115  1.0
  Ti  Ti852  1  0.85383862  0.24960533  0.67619115  1.0
  Ti  Ti853  1  0.85383862  0.58293867  0.67619115  1.0
  Ti  Ti854  1  0.85383862  0.91627200  0.67619115  1.0
  Ti  Ti855  1  0.03717195  0.24960533  0.62619115  1.0
  Ti  Ti856  1  0.03717195  0.58293867  0.62619115  1.0
  Ti  Ti857  1  0.03717195  0.91627200  0.62619115  1.0
  Ti  Ti858  1  0.37050528  0.24960533  0.62619115  1.0
  Ti  Ti859  1  0.37050528  0.58293867  0.62619115  1.0
  Ti  Ti860  1  0.37050528  0.91627200  0.62619115  1.0
  Ti  Ti861  1  0.70383862  0.24960533  0.62619115  1.0
  Ti  Ti862  1  0.70383862  0.58293867  0.62619115  1.0
  Ti  Ti863  1  0.70383862  0.91627200  0.62619115  1.0
