# generated using pymatgen
data_TiNi
_symmetry_space_group_name_H-M   'P 1'
_cell_length_a   33.94995619
_cell_length_b   39.22695659
_cell_length_c   28.55938900
_cell_angle_alpha   92.96045422
_cell_angle_beta   98.40456404
_cell_angle_gamma   108.75023476
_symmetry_Int_Tables_number   1
_chemical_formula_structural   TiNi
_chemical_formula_sum   'Ti576 Ni576'
_cell_volume   35430.73752272
_cell_formula_units_Z   576
loop_
 _symmetry_equiv_pos_site_id
 _symmetry_equiv_pos_as_xyz
  1  'x, y, z'
loop_
 _atom_site_type_symbol
 _atom_site_label
 _atom_site_symmetry_multiplicity
 _atom_site_fract_x
 _atom_site_fract_y
 _atom_site_fract_z
 _atom_site_occupancy
  Ni  Ni0  1  0.03039407  0.28630385  0.96385244  1.0
  Ni  Ni1  1  0.03039407  0.61963719  0.96385244  1.0
  Ni  Ni2  1  0.03039407  0.95297052  0.96385244  1.0
  Ni  Ni3  1  0.36372741  0.28630385  0.96385244  1.0
  Ni  Ni4  1  0.36372741  0.61963719  0.96385244  1.0
  Ni  Ni5  1  0.36372741  0.95297052  0.96385244  1.0
  Ni  Ni6  1  0.69706074  0.28630385  0.96385244  1.0
  Ni  Ni7  1  0.69706074  0.61963719  0.96385244  1.0
  Ni  Ni8  1  0.69706074  0.95297052  0.96385244  1.0
  Ni  Ni9  1  0.10446815  0.13815570  0.90829689  1.0
  Ni  Ni10  1  0.10446815  0.47148904  0.90829689  1.0
  Ni  Ni11  1  0.10446815  0.80482237  0.90829689  1.0
  Ni  Ni12  1  0.43780148  0.13815570  0.90829689  1.0
  Ni  Ni13  1  0.43780148  0.47148904  0.90829689  1.0
  Ni  Ni14  1  0.43780148  0.80482237  0.90829689  1.0
  Ni  Ni15  1  0.77113481  0.13815570  0.90829689  1.0
  Ni  Ni16  1  0.77113481  0.47148904  0.90829689  1.0
  Ni  Ni17  1  0.77113481  0.80482237  0.90829689  1.0
  Ni  Ni18  1  0.16190681  0.02327837  0.97750689  1.0
  Ni  Ni19  1  0.16190681  0.35661170  0.97750689  1.0
  Ni  Ni20  1  0.16190681  0.68994504  0.97750689  1.0
  Ni  Ni21  1  0.49524015  0.02327837  0.97750689  1.0
  Ni  Ni22  1  0.49524015  0.35661170  0.97750689  1.0
  Ni  Ni23  1  0.49524015  0.68994504  0.97750689  1.0
  Ni  Ni24  1  0.82857348  0.02327837  0.97750689  1.0
  Ni  Ni25  1  0.82857348  0.35661170  0.97750689  1.0
  Ni  Ni26  1  0.82857348  0.68994504  0.97750689  1.0
  Ni  Ni27  1  0.23598089  0.20846356  0.92195133  1.0
  Ni  Ni28  1  0.23598089  0.54179689  0.92195133  1.0
  Ni  Ni29  1  0.23598089  0.87513022  0.92195133  1.0
  Ni  Ni30  1  0.56931422  0.20846356  0.92195133  1.0
  Ni  Ni31  1  0.56931422  0.54179689  0.92195133  1.0
  Ni  Ni32  1  0.56931422  0.87513022  0.92195133  1.0
  Ni  Ni33  1  0.90264756  0.20846356  0.92195133  1.0
  Ni  Ni34  1  0.90264756  0.54179689  0.92195133  1.0
  Ni  Ni35  1  0.90264756  0.87513022  0.92195133  1.0
  Ni  Ni36  1  0.03792652  0.12152030  0.95820311  1.0
  Ni  Ni37  1  0.03792652  0.45485363  0.95820311  1.0
  Ni  Ni38  1  0.03792652  0.78818696  0.95820311  1.0
  Ni  Ni39  1  0.37125985  0.12152030  0.95820311  1.0
  Ni  Ni40  1  0.37125985  0.45485363  0.95820311  1.0
  Ni  Ni41  1  0.37125985  0.78818696  0.95820311  1.0
  Ni  Ni42  1  0.70459319  0.12152030  0.95820311  1.0
  Ni  Ni43  1  0.70459319  0.45485363  0.95820311  1.0
  Ni  Ni44  1  0.70459319  0.78818696  0.95820311  1.0
  Ni  Ni45  1  0.11200059  0.30670548  0.90264756  1.0
  Ni  Ni46  1  0.11200059  0.64003881  0.90264756  1.0
  Ni  Ni47  1  0.11200059  0.97337215  0.90264756  1.0
  Ni  Ni48  1  0.44533393  0.30670548  0.90264756  1.0
  Ni  Ni49  1  0.44533393  0.64003881  0.90264756  1.0
  Ni  Ni50  1  0.44533393  0.97337215  0.90264756  1.0
  Ni  Ni51  1  0.77866726  0.30670548  0.90264756  1.0
  Ni  Ni52  1  0.77866726  0.64003881  0.90264756  1.0
  Ni  Ni53  1  0.77866726  0.97337215  0.90264756  1.0
  Ni  Ni54  1  0.22844844  0.03991378  0.92760067  1.0
  Ni  Ni55  1  0.22844844  0.37324711  0.92760067  1.0
  Ni  Ni56  1  0.22844844  0.70658044  0.92760067  1.0
  Ni  Ni57  1  0.56178178  0.03991378  0.92760067  1.0
  Ni  Ni58  1  0.56178178  0.37324711  0.92760067  1.0
  Ni  Ni59  1  0.56178178  0.70658044  0.92760067  1.0
  Ni  Ni60  1  0.89511511  0.03991378  0.92760067  1.0
  Ni  Ni61  1  0.89511511  0.37324711  0.92760067  1.0
  Ni  Ni62  1  0.89511511  0.70658044  0.92760067  1.0
  Ni  Ni63  1  0.15437437  0.18806193  0.98315622  1.0
  Ni  Ni64  1  0.15437437  0.52139526  0.98315622  1.0
  Ni  Ni65  1  0.15437437  0.85472859  0.98315622  1.0
  Ni  Ni66  1  0.48770770  0.18806193  0.98315622  1.0
  Ni  Ni67  1  0.48770770  0.52139526  0.98315622  1.0
  Ni  Ni68  1  0.48770770  0.85472859  0.98315622  1.0
  Ni  Ni69  1  0.82104104  0.18806193  0.98315622  1.0
  Ni  Ni70  1  0.82104104  0.52139526  0.98315622  1.0
  Ni  Ni71  1  0.82104104  0.85472859  0.98315622  1.0
  Ni  Ni72  1  0.13304148  0.08100904  0.93420889  1.0
  Ni  Ni73  1  0.13304148  0.41434237  0.93420889  1.0
  Ni  Ni74  1  0.13304148  0.74767570  0.93420889  1.0
  Ni  Ni75  1  0.46637481  0.08100904  0.93420889  1.0
  Ni  Ni76  1  0.46637481  0.41434237  0.93420889  1.0
  Ni  Ni77  1  0.46637481  0.74767570  0.93420889  1.0
  Ni  Ni78  1  0.79970815  0.08100904  0.93420889  1.0
  Ni  Ni79  1  0.79970815  0.41434237  0.93420889  1.0
  Ni  Ni80  1  0.79970815  0.74767570  0.93420889  1.0
  Ni  Ni81  1  0.05896741  0.22915719  0.98976444  1.0
  Ni  Ni82  1  0.05896741  0.56249052  0.98976444  1.0
  Ni  Ni83  1  0.05896741  0.89582385  0.98976444  1.0
  Ni  Ni84  1  0.39230074  0.22915719  0.98976444  1.0
  Ni  Ni85  1  0.39230074  0.56249052  0.98976444  1.0
  Ni  Ni86  1  0.39230074  0.89582385  0.98976444  1.0
  Ni  Ni87  1  0.72563407  0.22915719  0.98976444  1.0
  Ni  Ni88  1  0.72563407  0.56249052  0.98976444  1.0
  Ni  Ni89  1  0.72563407  0.89582385  0.98976444  1.0
  Ni  Ni90  1  0.00152874  0.01070119  0.92055444  1.0
  Ni  Ni91  1  0.00152874  0.34403452  0.92055444  1.0
  Ni  Ni92  1  0.00152874  0.67736785  0.92055444  1.0
  Ni  Ni93  1  0.33486207  0.01070119  0.92055444  1.0
  Ni  Ni94  1  0.33486207  0.34403452  0.92055444  1.0
  Ni  Ni95  1  0.33486207  0.67736785  0.92055444  1.0
  Ni  Ni96  1  0.66819541  0.01070119  0.92055444  1.0
  Ni  Ni97  1  0.66819541  0.34403452  0.92055444  1.0
  Ni  Ni98  1  0.66819541  0.67736785  0.92055444  1.0
  Ni  Ni99  1  0.26078800  0.15884933  0.97611000  1.0
  Ni  Ni100  1  0.26078800  0.49218267  0.97611000  1.0
  Ni  Ni101  1  0.26078800  0.82551600  0.97611000  1.0
  Ni  Ni102  1  0.59412133  0.15884933  0.97611000  1.0
  Ni  Ni103  1  0.59412133  0.49218267  0.97611000  1.0
  Ni  Ni104  1  0.59412133  0.82551600  0.97611000  1.0
  Ni  Ni105  1  0.92745467  0.15884933  0.97611000  1.0
  Ni  Ni106  1  0.92745467  0.49218267  0.97611000  1.0
  Ni  Ni107  1  0.92745467  0.82551600  0.97611000  1.0
  Ni  Ni108  1  0.05143496  0.06060741  0.99541378  1.0
  Ni  Ni109  1  0.05143496  0.39394074  0.99541378  1.0
  Ni  Ni110  1  0.05143496  0.72727407  0.99541378  1.0
  Ni  Ni111  1  0.38476830  0.06060741  0.99541378  1.0
  Ni  Ni112  1  0.38476830  0.39394074  0.99541378  1.0
  Ni  Ni113  1  0.38476830  0.72727407  0.99541378  1.0
  Ni  Ni114  1  0.71810163  0.06060741  0.99541378  1.0
  Ni  Ni115  1  0.71810163  0.39394074  0.99541378  1.0
  Ni  Ni116  1  0.71810163  0.72727407  0.99541378  1.0
  Ni  Ni117  1  0.12550904  0.24579259  0.93985822  1.0
  Ni  Ni118  1  0.12550904  0.57912593  0.93985822  1.0
  Ni  Ni119  1  0.12550904  0.91245926  0.93985822  1.0
  Ni  Ni120  1  0.45884237  0.24579259  0.93985822  1.0
  Ni  Ni121  1  0.45884237  0.57912593  0.93985822  1.0
  Ni  Ni122  1  0.45884237  0.91245926  0.93985822  1.0
  Ni  Ni123  1  0.79217570  0.24579259  0.93985822  1.0
  Ni  Ni124  1  0.79217570  0.57912593  0.93985822  1.0
  Ni  Ni125  1  0.79217570  0.91245926  0.93985822  1.0
  Ni  Ni126  1  0.00906119  0.17925096  0.91490511  1.0
  Ni  Ni127  1  0.00906119  0.51258430  0.91490511  1.0
  Ni  Ni128  1  0.00906119  0.84591763  0.91490511  1.0
  Ni  Ni129  1  0.34239452  0.17925096  0.91490511  1.0
  Ni  Ni130  1  0.34239452  0.51258430  0.91490511  1.0
  Ni  Ni131  1  0.34239452  0.84591763  0.91490511  1.0
  Ni  Ni132  1  0.67572785  0.17925096  0.91490511  1.0
  Ni  Ni133  1  0.67572785  0.51258430  0.91490511  1.0
  Ni  Ni134  1  0.67572785  0.84591763  0.91490511  1.0
  Ni  Ni135  1  0.26832044  0.32739911  0.97046067  1.0
  Ni  Ni136  1  0.26832044  0.66073244  0.97046067  1.0
  Ni  Ni137  1  0.26832044  0.99406578  0.97046067  1.0
  Ni  Ni138  1  0.60165378  0.32739911  0.97046067  1.0
  Ni  Ni139  1  0.60165378  0.66073244  0.97046067  1.0
  Ni  Ni140  1  0.60165378  0.99406578  0.97046067  1.0
  Ni  Ni141  1  0.93498711  0.32739911  0.97046067  1.0
  Ni  Ni142  1  0.93498711  0.66073244  0.97046067  1.0
  Ni  Ni143  1  0.93498711  0.99406578  0.97046067  1.0
  Ni  Ni144  1  0.17854222  0.32334089  0.85274133  1.0
  Ni  Ni145  1  0.17854222  0.65667422  0.85274133  1.0
  Ni  Ni146  1  0.17854222  0.99000756  0.85274133  1.0
  Ni  Ni147  1  0.51187556  0.32334089  0.85274133  1.0
  Ni  Ni148  1  0.51187556  0.65667422  0.85274133  1.0
  Ni  Ni149  1  0.51187556  0.99000756  0.85274133  1.0
  Ni  Ni150  1  0.84520889  0.32334089  0.85274133  1.0
  Ni  Ni151  1  0.84520889  0.65667422  0.85274133  1.0
  Ni  Ni152  1  0.84520889  0.99000756  0.85274133  1.0
  Ni  Ni153  1  0.25261630  0.17519274  0.79718578  1.0
  Ni  Ni154  1  0.25261630  0.50852607  0.79718578  1.0
  Ni  Ni155  1  0.25261630  0.84185941  0.79718578  1.0
  Ni  Ni156  1  0.58594963  0.17519274  0.79718578  1.0
  Ni  Ni157  1  0.58594963  0.50852607  0.79718578  1.0
  Ni  Ni158  1  0.58594963  0.84185941  0.79718578  1.0
  Ni  Ni159  1  0.91928296  0.17519274  0.79718578  1.0
  Ni  Ni160  1  0.91928296  0.50852607  0.79718578  1.0
  Ni  Ni161  1  0.91928296  0.84185941  0.79718578  1.0
  Ni  Ni162  1  0.31005496  0.06031541  0.86639578  1.0
  Ni  Ni163  1  0.31005496  0.39364874  0.86639578  1.0
  Ni  Ni164  1  0.31005496  0.72698207  0.86639578  1.0
  Ni  Ni165  1  0.64338830  0.06031541  0.86639578  1.0
  Ni  Ni166  1  0.64338830  0.39364874  0.86639578  1.0
  Ni  Ni167  1  0.64338830  0.72698207  0.86639578  1.0
  Ni  Ni168  1  0.97672163  0.06031541  0.86639578  1.0
  Ni  Ni169  1  0.97672163  0.39364874  0.86639578  1.0
  Ni  Ni170  1  0.97672163  0.72698207  0.86639578  1.0
  Ni  Ni171  1  0.05079570  0.24550059  0.81084022  1.0
  Ni  Ni172  1  0.05079570  0.57883393  0.81084022  1.0
  Ni  Ni173  1  0.05079570  0.91216726  0.81084022  1.0
  Ni  Ni174  1  0.38412904  0.24550059  0.81084022  1.0
  Ni  Ni175  1  0.38412904  0.57883393  0.81084022  1.0
  Ni  Ni176  1  0.38412904  0.91216726  0.81084022  1.0
  Ni  Ni177  1  0.71746237  0.24550059  0.81084022  1.0
  Ni  Ni178  1  0.71746237  0.57883393  0.81084022  1.0
  Ni  Ni179  1  0.71746237  0.91216726  0.81084022  1.0
  Ni  Ni180  1  0.18607467  0.15855733  0.84709200  1.0
  Ni  Ni181  1  0.18607467  0.49189067  0.84709200  1.0
  Ni  Ni182  1  0.18607467  0.82522400  0.84709200  1.0
  Ni  Ni183  1  0.51940800  0.15855733  0.84709200  1.0
  Ni  Ni184  1  0.51940800  0.49189067  0.84709200  1.0
  Ni  Ni185  1  0.51940800  0.82522400  0.84709200  1.0
  Ni  Ni186  1  0.85274133  0.15855733  0.84709200  1.0
  Ni  Ni187  1  0.85274133  0.49189067  0.84709200  1.0
  Ni  Ni188  1  0.85274133  0.82522400  0.84709200  1.0
  Ni  Ni189  1  0.26014874  0.01040919  0.79153644  1.0
  Ni  Ni190  1  0.26014874  0.34374252  0.79153644  1.0
  Ni  Ni191  1  0.26014874  0.67707585  0.79153644  1.0
  Ni  Ni192  1  0.59348207  0.01040919  0.79153644  1.0
  Ni  Ni193  1  0.59348207  0.34374252  0.79153644  1.0
  Ni  Ni194  1  0.59348207  0.67707585  0.79153644  1.0
  Ni  Ni195  1  0.92681541  0.01040919  0.79153644  1.0
  Ni  Ni196  1  0.92681541  0.34374252  0.79153644  1.0
  Ni  Ni197  1  0.92681541  0.67707585  0.79153644  1.0
  Ni  Ni198  1  0.04326326  0.07695081  0.81648956  1.0
  Ni  Ni199  1  0.04326326  0.41028415  0.81648956  1.0
  Ni  Ni200  1  0.04326326  0.74361748  0.81648956  1.0
  Ni  Ni201  1  0.37659659  0.07695081  0.81648956  1.0
  Ni  Ni202  1  0.37659659  0.41028415  0.81648956  1.0
  Ni  Ni203  1  0.37659659  0.74361748  0.81648956  1.0
  Ni  Ni204  1  0.70992993  0.07695081  0.81648956  1.0
  Ni  Ni205  1  0.70992993  0.41028415  0.81648956  1.0
  Ni  Ni206  1  0.70992993  0.74361748  0.81648956  1.0
  Ni  Ni207  1  0.30252252  0.22509896  0.87204511  1.0
  Ni  Ni208  1  0.30252252  0.55843230  0.87204511  1.0
  Ni  Ni209  1  0.30252252  0.89176563  0.87204511  1.0
  Ni  Ni210  1  0.63585585  0.22509896  0.87204511  1.0
  Ni  Ni211  1  0.63585585  0.55843230  0.87204511  1.0
  Ni  Ni212  1  0.63585585  0.89176563  0.87204511  1.0
  Ni  Ni213  1  0.96918919  0.22509896  0.87204511  1.0
  Ni  Ni214  1  0.96918919  0.55843230  0.87204511  1.0
  Ni  Ni215  1  0.96918919  0.89176563  0.87204511  1.0
  Ni  Ni216  1  0.28118963  0.11804607  0.82309778  1.0
  Ni  Ni217  1  0.28118963  0.45137941  0.82309778  1.0
  Ni  Ni218  1  0.28118963  0.78471274  0.82309778  1.0
  Ni  Ni219  1  0.61452296  0.11804607  0.82309778  1.0
  Ni  Ni220  1  0.61452296  0.45137941  0.82309778  1.0
  Ni  Ni221  1  0.61452296  0.78471274  0.82309778  1.0
  Ni  Ni222  1  0.94785630  0.11804607  0.82309778  1.0
  Ni  Ni223  1  0.94785630  0.45137941  0.82309778  1.0
  Ni  Ni224  1  0.94785630  0.78471274  0.82309778  1.0
  Ni  Ni225  1  0.20711556  0.26619422  0.87865333  1.0
  Ni  Ni226  1  0.20711556  0.59952756  0.87865333  1.0
  Ni  Ni227  1  0.20711556  0.93286089  0.87865333  1.0
  Ni  Ni228  1  0.54044889  0.26619422  0.87865333  1.0
  Ni  Ni229  1  0.54044889  0.59952756  0.87865333  1.0
  Ni  Ni230  1  0.54044889  0.93286089  0.87865333  1.0
  Ni  Ni231  1  0.87378222  0.26619422  0.87865333  1.0
  Ni  Ni232  1  0.87378222  0.59952756  0.87865333  1.0
  Ni  Ni233  1  0.87378222  0.93286089  0.87865333  1.0
  Ni  Ni234  1  0.14967689  0.04773822  0.80944333  1.0
  Ni  Ni235  1  0.14967689  0.38107156  0.80944333  1.0
  Ni  Ni236  1  0.14967689  0.71440489  0.80944333  1.0
  Ni  Ni237  1  0.48301022  0.04773822  0.80944333  1.0
  Ni  Ni238  1  0.48301022  0.38107156  0.80944333  1.0
  Ni  Ni239  1  0.48301022  0.71440489  0.80944333  1.0
  Ni  Ni240  1  0.81634356  0.04773822  0.80944333  1.0
  Ni  Ni241  1  0.81634356  0.38107156  0.80944333  1.0
  Ni  Ni242  1  0.81634356  0.71440489  0.80944333  1.0
  Ni  Ni243  1  0.07560281  0.19588637  0.86499889  1.0
  Ni  Ni244  1  0.07560281  0.52921970  0.86499889  1.0
  Ni  Ni245  1  0.07560281  0.86255304  0.86499889  1.0
  Ni  Ni246  1  0.40893615  0.19588637  0.86499889  1.0
  Ni  Ni247  1  0.40893615  0.52921970  0.86499889  1.0
  Ni  Ni248  1  0.40893615  0.86255304  0.86499889  1.0
  Ni  Ni249  1  0.74226948  0.19588637  0.86499889  1.0
  Ni  Ni250  1  0.74226948  0.52921970  0.86499889  1.0
  Ni  Ni251  1  0.74226948  0.86255304  0.86499889  1.0
  Ni  Ni252  1  0.19958311  0.09764444  0.88430267  1.0
  Ni  Ni253  1  0.19958311  0.43097778  0.88430267  1.0
  Ni  Ni254  1  0.19958311  0.76431111  0.88430267  1.0
  Ni  Ni255  1  0.53291644  0.09764444  0.88430267  1.0
  Ni  Ni256  1  0.53291644  0.43097778  0.88430267  1.0
  Ni  Ni257  1  0.53291644  0.76431111  0.88430267  1.0
  Ni  Ni258  1  0.86624978  0.09764444  0.88430267  1.0
  Ni  Ni259  1  0.86624978  0.43097778  0.88430267  1.0
  Ni  Ni260  1  0.86624978  0.76431111  0.88430267  1.0
  Ni  Ni261  1  0.27365719  0.28282963  0.82874711  1.0
  Ni  Ni262  1  0.27365719  0.61616296  0.82874711  1.0
  Ni  Ni263  1  0.27365719  0.94949630  0.82874711  1.0
  Ni  Ni264  1  0.60699052  0.28282963  0.82874711  1.0
  Ni  Ni265  1  0.60699052  0.61616296  0.82874711  1.0
  Ni  Ni266  1  0.60699052  0.94949630  0.82874711  1.0
  Ni  Ni267  1  0.94032385  0.28282963  0.82874711  1.0
  Ni  Ni268  1  0.94032385  0.61616296  0.82874711  1.0
  Ni  Ni269  1  0.94032385  0.94949630  0.82874711  1.0
  Ni  Ni270  1  0.15720933  0.21628800  0.80379400  1.0
  Ni  Ni271  1  0.15720933  0.54962133  0.80379400  1.0
  Ni  Ni272  1  0.15720933  0.88295467  0.80379400  1.0
  Ni  Ni273  1  0.49054267  0.21628800  0.80379400  1.0
  Ni  Ni274  1  0.49054267  0.54962133  0.80379400  1.0
  Ni  Ni275  1  0.49054267  0.88295467  0.80379400  1.0
  Ni  Ni276  1  0.82387600  0.21628800  0.80379400  1.0
  Ni  Ni277  1  0.82387600  0.54962133  0.80379400  1.0
  Ni  Ni278  1  0.82387600  0.88295467  0.80379400  1.0
  Ni  Ni279  1  0.08313526  0.03110281  0.85934956  1.0
  Ni  Ni280  1  0.08313526  0.36443615  0.85934956  1.0
  Ni  Ni281  1  0.08313526  0.69776948  0.85934956  1.0
  Ni  Ni282  1  0.41646859  0.03110281  0.85934956  1.0
  Ni  Ni283  1  0.41646859  0.36443615  0.85934956  1.0
  Ni  Ni284  1  0.41646859  0.69776948  0.85934956  1.0
  Ni  Ni285  1  0.74980193  0.03110281  0.85934956  1.0
  Ni  Ni286  1  0.74980193  0.36443615  0.85934956  1.0
  Ni  Ni287  1  0.74980193  0.69776948  0.85934956  1.0
  Ni  Ni288  1  0.32669037  0.02704459  0.74163022  1.0
  Ni  Ni289  1  0.32669037  0.36037793  0.74163022  1.0
  Ni  Ni290  1  0.32669037  0.69371126  0.74163022  1.0
  Ni  Ni291  1  0.66002370  0.02704459  0.74163022  1.0
  Ni  Ni292  1  0.66002370  0.36037793  0.74163022  1.0
  Ni  Ni293  1  0.66002370  0.69371126  0.74163022  1.0
  Ni  Ni294  1  0.99335704  0.02704459  0.74163022  1.0
  Ni  Ni295  1  0.99335704  0.36037793  0.74163022  1.0
  Ni  Ni296  1  0.99335704  0.69371126  0.74163022  1.0
  Ni  Ni297  1  0.06743111  0.21222978  0.68607467  1.0
  Ni  Ni298  1  0.06743111  0.54556311  0.68607467  1.0
  Ni  Ni299  1  0.06743111  0.87889644  0.68607467  1.0
  Ni  Ni300  1  0.40076444  0.21222978  0.68607467  1.0
  Ni  Ni301  1  0.40076444  0.54556311  0.68607467  1.0
  Ni  Ni302  1  0.40076444  0.87889644  0.68607467  1.0
  Ni  Ni303  1  0.73409778  0.21222978  0.68607467  1.0
  Ni  Ni304  1  0.73409778  0.54556311  0.68607467  1.0
  Ni  Ni305  1  0.73409778  0.87889644  0.68607467  1.0
  Ni  Ni306  1  0.12486978  0.09735244  0.75528467  1.0
  Ni  Ni307  1  0.12486978  0.43068578  0.75528467  1.0
  Ni  Ni308  1  0.12486978  0.76401911  0.75528467  1.0
  Ni  Ni309  1  0.45820311  0.09735244  0.75528467  1.0
  Ni  Ni310  1  0.45820311  0.43068578  0.75528467  1.0
  Ni  Ni311  1  0.45820311  0.76401911  0.75528467  1.0
  Ni  Ni312  1  0.79153644  0.09735244  0.75528467  1.0
  Ni  Ni313  1  0.79153644  0.43068578  0.75528467  1.0
  Ni  Ni314  1  0.79153644  0.76401911  0.75528467  1.0
  Ni  Ni315  1  0.19894385  0.28253763  0.69972911  1.0
  Ni  Ni316  1  0.19894385  0.61587096  0.69972911  1.0
  Ni  Ni317  1  0.19894385  0.94920430  0.69972911  1.0
  Ni  Ni318  1  0.53227719  0.28253763  0.69972911  1.0
  Ni  Ni319  1  0.53227719  0.61587096  0.69972911  1.0
  Ni  Ni320  1  0.53227719  0.94920430  0.69972911  1.0
  Ni  Ni321  1  0.86561052  0.28253763  0.69972911  1.0
  Ni  Ni322  1  0.86561052  0.61587096  0.69972911  1.0
  Ni  Ni323  1  0.86561052  0.94920430  0.69972911  1.0
  Ni  Ni324  1  0.00088948  0.19559437  0.73598089  1.0
  Ni  Ni325  1  0.00088948  0.52892770  0.73598089  1.0
  Ni  Ni326  1  0.00088948  0.86226104  0.73598089  1.0
  Ni  Ni327  1  0.33422281  0.19559437  0.73598089  1.0
  Ni  Ni328  1  0.33422281  0.52892770  0.73598089  1.0
  Ni  Ni329  1  0.33422281  0.86226104  0.73598089  1.0
  Ni  Ni330  1  0.66755615  0.19559437  0.73598089  1.0
  Ni  Ni331  1  0.66755615  0.52892770  0.73598089  1.0
  Ni  Ni332  1  0.66755615  0.86226104  0.73598089  1.0
  Ni  Ni333  1  0.07496356  0.04744622  0.68042533  1.0
  Ni  Ni334  1  0.07496356  0.38077956  0.68042533  1.0
  Ni  Ni335  1  0.07496356  0.71411289  0.68042533  1.0
  Ni  Ni336  1  0.40829689  0.04744622  0.68042533  1.0
  Ni  Ni337  1  0.40829689  0.38077956  0.68042533  1.0
  Ni  Ni338  1  0.40829689  0.71411289  0.68042533  1.0
  Ni  Ni339  1  0.74163022  0.04744622  0.68042533  1.0
  Ni  Ni340  1  0.74163022  0.38077956  0.68042533  1.0
  Ni  Ni341  1  0.74163022  0.71411289  0.68042533  1.0
  Ni  Ni342  1  0.19141141  0.11398785  0.70537844  1.0
  Ni  Ni343  1  0.19141141  0.44732119  0.70537844  1.0
  Ni  Ni344  1  0.19141141  0.78065452  0.70537844  1.0
  Ni  Ni345  1  0.52474474  0.11398785  0.70537844  1.0
  Ni  Ni346  1  0.52474474  0.44732119  0.70537844  1.0
  Ni  Ni347  1  0.52474474  0.78065452  0.70537844  1.0
  Ni  Ni348  1  0.85807807  0.11398785  0.70537844  1.0
  Ni  Ni349  1  0.85807807  0.44732119  0.70537844  1.0
  Ni  Ni350  1  0.85807807  0.78065452  0.70537844  1.0
  Ni  Ni351  1  0.11733733  0.26213600  0.76093400  1.0
  Ni  Ni352  1  0.11733733  0.59546933  0.76093400  1.0
  Ni  Ni353  1  0.11733733  0.92880267  0.76093400  1.0
  Ni  Ni354  1  0.45067067  0.26213600  0.76093400  1.0
  Ni  Ni355  1  0.45067067  0.59546933  0.76093400  1.0
  Ni  Ni356  1  0.45067067  0.92880267  0.76093400  1.0
  Ni  Ni357  1  0.78400400  0.26213600  0.76093400  1.0
  Ni  Ni358  1  0.78400400  0.59546933  0.76093400  1.0
  Ni  Ni359  1  0.78400400  0.92880267  0.76093400  1.0
  Ni  Ni360  1  0.09600444  0.15508311  0.71198667  1.0
  Ni  Ni361  1  0.09600444  0.48841644  0.71198667  1.0
  Ni  Ni362  1  0.09600444  0.82174978  0.71198667  1.0
  Ni  Ni363  1  0.42933778  0.15508311  0.71198667  1.0
  Ni  Ni364  1  0.42933778  0.48841644  0.71198667  1.0
  Ni  Ni365  1  0.42933778  0.82174978  0.71198667  1.0
  Ni  Ni366  1  0.76267111  0.15508311  0.71198667  1.0
  Ni  Ni367  1  0.76267111  0.48841644  0.71198667  1.0
  Ni  Ni368  1  0.76267111  0.82174978  0.71198667  1.0
  Ni  Ni369  1  0.02193037  0.30323126  0.76754222  1.0
  Ni  Ni370  1  0.02193037  0.63656459  0.76754222  1.0
  Ni  Ni371  1  0.02193037  0.96989793  0.76754222  1.0
  Ni  Ni372  1  0.35526370  0.30323126  0.76754222  1.0
  Ni  Ni373  1  0.35526370  0.63656459  0.76754222  1.0
  Ni  Ni374  1  0.35526370  0.96989793  0.76754222  1.0
  Ni  Ni375  1  0.68859704  0.30323126  0.76754222  1.0
  Ni  Ni376  1  0.68859704  0.63656459  0.76754222  1.0
  Ni  Ni377  1  0.68859704  0.96989793  0.76754222  1.0
  Ni  Ni378  1  0.29782504  0.08477526  0.69833222  1.0
  Ni  Ni379  1  0.29782504  0.41810859  0.69833222  1.0
  Ni  Ni380  1  0.29782504  0.75144193  0.69833222  1.0
  Ni  Ni381  1  0.63115837  0.08477526  0.69833222  1.0
  Ni  Ni382  1  0.63115837  0.41810859  0.69833222  1.0
  Ni  Ni383  1  0.63115837  0.75144193  0.69833222  1.0
  Ni  Ni384  1  0.96449170  0.08477526  0.69833222  1.0
  Ni  Ni385  1  0.96449170  0.41810859  0.69833222  1.0
  Ni  Ni386  1  0.96449170  0.75144193  0.69833222  1.0
  Ni  Ni387  1  0.22375096  0.23292341  0.75388778  1.0
  Ni  Ni388  1  0.22375096  0.56625674  0.75388778  1.0
  Ni  Ni389  1  0.22375096  0.89959007  0.75388778  1.0
  Ni  Ni390  1  0.55708430  0.23292341  0.75388778  1.0
  Ni  Ni391  1  0.55708430  0.56625674  0.75388778  1.0
  Ni  Ni392  1  0.55708430  0.89959007  0.75388778  1.0
  Ni  Ni393  1  0.89041763  0.23292341  0.75388778  1.0
  Ni  Ni394  1  0.89041763  0.56625674  0.75388778  1.0
  Ni  Ni395  1  0.89041763  0.89959007  0.75388778  1.0
  Ni  Ni396  1  0.01439793  0.13468148  0.77319156  1.0
  Ni  Ni397  1  0.01439793  0.46801481  0.77319156  1.0
  Ni  Ni398  1  0.01439793  0.80134815  0.77319156  1.0
  Ni  Ni399  1  0.34773126  0.13468148  0.77319156  1.0
  Ni  Ni400  1  0.34773126  0.46801481  0.77319156  1.0
  Ni  Ni401  1  0.34773126  0.80134815  0.77319156  1.0
  Ni  Ni402  1  0.68106459  0.13468148  0.77319156  1.0
  Ni  Ni403  1  0.68106459  0.46801481  0.77319156  1.0
  Ni  Ni404  1  0.68106459  0.80134815  0.77319156  1.0
  Ni  Ni405  1  0.08847200  0.31986667  0.71763600  1.0
  Ni  Ni406  1  0.08847200  0.65320000  0.71763600  1.0
  Ni  Ni407  1  0.08847200  0.98653333  0.71763600  1.0
  Ni  Ni408  1  0.42180533  0.31986667  0.71763600  1.0
  Ni  Ni409  1  0.42180533  0.65320000  0.71763600  1.0
  Ni  Ni410  1  0.42180533  0.98653333  0.71763600  1.0
  Ni  Ni411  1  0.75513867  0.31986667  0.71763600  1.0
  Ni  Ni412  1  0.75513867  0.65320000  0.71763600  1.0
  Ni  Ni413  1  0.75513867  0.98653333  0.71763600  1.0
  Ni  Ni414  1  0.30535748  0.25332504  0.69268289  1.0
  Ni  Ni415  1  0.30535748  0.58665837  0.69268289  1.0
  Ni  Ni416  1  0.30535748  0.91999170  0.69268289  1.0
  Ni  Ni417  1  0.63869081  0.25332504  0.69268289  1.0
  Ni  Ni418  1  0.63869081  0.58665837  0.69268289  1.0
  Ni  Ni419  1  0.63869081  0.91999170  0.69268289  1.0
  Ni  Ni420  1  0.97202415  0.25332504  0.69268289  1.0
  Ni  Ni421  1  0.97202415  0.58665837  0.69268289  1.0
  Ni  Ni422  1  0.97202415  0.91999170  0.69268289  1.0
  Ni  Ni423  1  0.23128341  0.06813985  0.74823844  1.0
  Ni  Ni424  1  0.23128341  0.40147319  0.74823844  1.0
  Ni  Ni425  1  0.23128341  0.73480652  0.74823844  1.0
  Ni  Ni426  1  0.56461674  0.06813985  0.74823844  1.0
  Ni  Ni427  1  0.56461674  0.40147319  0.74823844  1.0
  Ni  Ni428  1  0.56461674  0.73480652  0.74823844  1.0
  Ni  Ni429  1  0.89795007  0.06813985  0.74823844  1.0
  Ni  Ni430  1  0.89795007  0.40147319  0.74823844  1.0
  Ni  Ni431  1  0.89795007  0.73480652  0.74823844  1.0
  Ni  Ni432  1  0.14150519  0.06408163  0.63051911  1.0
  Ni  Ni433  1  0.14150519  0.39741496  0.63051911  1.0
  Ni  Ni434  1  0.14150519  0.73074830  0.63051911  1.0
  Ni  Ni435  1  0.47483852  0.06408163  0.63051911  1.0
  Ni  Ni436  1  0.47483852  0.39741496  0.63051911  1.0
  Ni  Ni437  1  0.47483852  0.73074830  0.63051911  1.0
  Ni  Ni438  1  0.80817185  0.06408163  0.63051911  1.0
  Ni  Ni439  1  0.80817185  0.39741496  0.63051911  1.0
  Ni  Ni440  1  0.80817185  0.73074830  0.63051911  1.0
  Ni  Ni441  1  0.21557926  0.24926681  0.57496356  1.0
  Ni  Ni442  1  0.21557926  0.58260015  0.57496356  1.0
  Ni  Ni443  1  0.21557926  0.91593348  0.57496356  1.0
  Ni  Ni444  1  0.54891259  0.24926681  0.57496356  1.0
  Ni  Ni445  1  0.54891259  0.58260015  0.57496356  1.0
  Ni  Ni446  1  0.54891259  0.91593348  0.57496356  1.0
  Ni  Ni447  1  0.88224593  0.24926681  0.57496356  1.0
  Ni  Ni448  1  0.88224593  0.58260015  0.57496356  1.0
  Ni  Ni449  1  0.88224593  0.91593348  0.57496356  1.0
  Ni  Ni450  1  0.27301793  0.13438948  0.64417356  1.0
  Ni  Ni451  1  0.27301793  0.46772281  0.64417356  1.0
  Ni  Ni452  1  0.27301793  0.80105615  0.64417356  1.0
  Ni  Ni453  1  0.60635126  0.13438948  0.64417356  1.0
  Ni  Ni454  1  0.60635126  0.46772281  0.64417356  1.0
  Ni  Ni455  1  0.60635126  0.80105615  0.64417356  1.0
  Ni  Ni456  1  0.93968459  0.13438948  0.64417356  1.0
  Ni  Ni457  1  0.93968459  0.46772281  0.64417356  1.0
  Ni  Ni458  1  0.93968459  0.80105615  0.64417356  1.0
  Ni  Ni459  1  0.01375867  0.31957467  0.58861800  1.0
  Ni  Ni460  1  0.01375867  0.65290800  0.58861800  1.0
  Ni  Ni461  1  0.01375867  0.98624133  0.58861800  1.0
  Ni  Ni462  1  0.34709200  0.31957467  0.58861800  1.0
  Ni  Ni463  1  0.34709200  0.65290800  0.58861800  1.0
  Ni  Ni464  1  0.34709200  0.98624133  0.58861800  1.0
  Ni  Ni465  1  0.68042533  0.31957467  0.58861800  1.0
  Ni  Ni466  1  0.68042533  0.65290800  0.58861800  1.0
  Ni  Ni467  1  0.68042533  0.98624133  0.58861800  1.0
  Ni  Ni468  1  0.14903763  0.23263141  0.62486978  1.0
  Ni  Ni469  1  0.14903763  0.56596474  0.62486978  1.0
  Ni  Ni470  1  0.14903763  0.89929807  0.62486978  1.0
  Ni  Ni471  1  0.48237096  0.23263141  0.62486978  1.0
  Ni  Ni472  1  0.48237096  0.56596474  0.62486978  1.0
  Ni  Ni473  1  0.48237096  0.89929807  0.62486978  1.0
  Ni  Ni474  1  0.81570430  0.23263141  0.62486978  1.0
  Ni  Ni475  1  0.81570430  0.56596474  0.62486978  1.0
  Ni  Ni476  1  0.81570430  0.89929807  0.62486978  1.0
  Ni  Ni477  1  0.22311170  0.08448326  0.56931422  1.0
  Ni  Ni478  1  0.22311170  0.41781659  0.56931422  1.0
  Ni  Ni479  1  0.22311170  0.75114993  0.56931422  1.0
  Ni  Ni480  1  0.55644504  0.08448326  0.56931422  1.0
  Ni  Ni481  1  0.55644504  0.41781659  0.56931422  1.0
  Ni  Ni482  1  0.55644504  0.75114993  0.56931422  1.0
  Ni  Ni483  1  0.88977837  0.08448326  0.56931422  1.0
  Ni  Ni484  1  0.88977837  0.41781659  0.56931422  1.0
  Ni  Ni485  1  0.88977837  0.75114993  0.56931422  1.0
  Ni  Ni486  1  0.00622622  0.15102489  0.59426733  1.0
  Ni  Ni487  1  0.00622622  0.48435822  0.59426733  1.0
  Ni  Ni488  1  0.00622622  0.81769156  0.59426733  1.0
  Ni  Ni489  1  0.33955956  0.15102489  0.59426733  1.0
  Ni  Ni490  1  0.33955956  0.48435822  0.59426733  1.0
  Ni  Ni491  1  0.33955956  0.81769156  0.59426733  1.0
  Ni  Ni492  1  0.67289289  0.15102489  0.59426733  1.0
  Ni  Ni493  1  0.67289289  0.48435822  0.59426733  1.0
  Ni  Ni494  1  0.67289289  0.81769156  0.59426733  1.0
  Ni  Ni495  1  0.26548548  0.29917304  0.64982289  1.0
  Ni  Ni496  1  0.26548548  0.63250637  0.64982289  1.0
  Ni  Ni497  1  0.26548548  0.96583970  0.64982289  1.0
  Ni  Ni498  1  0.59881881  0.29917304  0.64982289  1.0
  Ni  Ni499  1  0.59881881  0.63250637  0.64982289  1.0
  Ni  Ni500  1  0.59881881  0.96583970  0.64982289  1.0
  Ni  Ni501  1  0.93215215  0.29917304  0.64982289  1.0
  Ni  Ni502  1  0.93215215  0.63250637  0.64982289  1.0
  Ni  Ni503  1  0.93215215  0.96583970  0.64982289  1.0
  Ni  Ni504  1  0.24415259  0.19212015  0.60087556  1.0
  Ni  Ni505  1  0.24415259  0.52545348  0.60087556  1.0
  Ni  Ni506  1  0.24415259  0.85878681  0.60087556  1.0
  Ni  Ni507  1  0.57748593  0.19212015  0.60087556  1.0
  Ni  Ni508  1  0.57748593  0.52545348  0.60087556  1.0
  Ni  Ni509  1  0.57748593  0.85878681  0.60087556  1.0
  Ni  Ni510  1  0.91081926  0.19212015  0.60087556  1.0
  Ni  Ni511  1  0.91081926  0.52545348  0.60087556  1.0
  Ni  Ni512  1  0.91081926  0.85878681  0.60087556  1.0
  Ni  Ni513  1  0.17007852  0.00693496  0.65643111  1.0
  Ni  Ni514  1  0.17007852  0.34026830  0.65643111  1.0
  Ni  Ni515  1  0.17007852  0.67360163  0.65643111  1.0
  Ni  Ni516  1  0.50341185  0.00693496  0.65643111  1.0
  Ni  Ni517  1  0.50341185  0.34026830  0.65643111  1.0
  Ni  Ni518  1  0.50341185  0.67360163  0.65643111  1.0
  Ni  Ni519  1  0.83674519  0.00693496  0.65643111  1.0
  Ni  Ni520  1  0.83674519  0.34026830  0.65643111  1.0
  Ni  Ni521  1  0.83674519  0.67360163  0.65643111  1.0
  Ni  Ni522  1  0.11263985  0.12181230  0.58722111  1.0
  Ni  Ni523  1  0.11263985  0.45514563  0.58722111  1.0
  Ni  Ni524  1  0.11263985  0.78847896  0.58722111  1.0
  Ni  Ni525  1  0.44597319  0.12181230  0.58722111  1.0
  Ni  Ni526  1  0.44597319  0.45514563  0.58722111  1.0
  Ni  Ni527  1  0.44597319  0.78847896  0.58722111  1.0
  Ni  Ni528  1  0.77930652  0.12181230  0.58722111  1.0
  Ni  Ni529  1  0.77930652  0.45514563  0.58722111  1.0
  Ni  Ni530  1  0.77930652  0.78847896  0.58722111  1.0
  Ni  Ni531  1  0.03856578  0.26996044  0.64277667  1.0
  Ni  Ni532  1  0.03856578  0.60329378  0.64277667  1.0
  Ni  Ni533  1  0.03856578  0.93662711  0.64277667  1.0
  Ni  Ni534  1  0.37189911  0.26996044  0.64277667  1.0
  Ni  Ni535  1  0.37189911  0.60329378  0.64277667  1.0
  Ni  Ni536  1  0.37189911  0.93662711  0.64277667  1.0
  Ni  Ni537  1  0.70523244  0.26996044  0.64277667  1.0
  Ni  Ni538  1  0.70523244  0.60329378  0.64277667  1.0
  Ni  Ni539  1  0.70523244  0.93662711  0.64277667  1.0
  Ni  Ni540  1  0.16254607  0.17171852  0.66208044  1.0
  Ni  Ni541  1  0.16254607  0.50505185  0.66208044  1.0
  Ni  Ni542  1  0.16254607  0.83838519  0.66208044  1.0
  Ni  Ni543  1  0.49587941  0.17171852  0.66208044  1.0
  Ni  Ni544  1  0.49587941  0.50505185  0.66208044  1.0
  Ni  Ni545  1  0.49587941  0.83838519  0.66208044  1.0
  Ni  Ni546  1  0.82921274  0.17171852  0.66208044  1.0
  Ni  Ni547  1  0.82921274  0.50505185  0.66208044  1.0
  Ni  Ni548  1  0.82921274  0.83838519  0.66208044  1.0
  Ni  Ni549  1  0.23662015  0.02357037  0.60652489  1.0
  Ni  Ni550  1  0.23662015  0.35690370  0.60652489  1.0
  Ni  Ni551  1  0.23662015  0.69023704  0.60652489  1.0
  Ni  Ni552  1  0.56995348  0.02357037  0.60652489  1.0
  Ni  Ni553  1  0.56995348  0.35690370  0.60652489  1.0
  Ni  Ni554  1  0.56995348  0.69023704  0.60652489  1.0
  Ni  Ni555  1  0.90328681  0.02357037  0.60652489  1.0
  Ni  Ni556  1  0.90328681  0.35690370  0.60652489  1.0
  Ni  Ni557  1  0.90328681  0.69023704  0.60652489  1.0
  Ni  Ni558  1  0.12017230  0.29036207  0.58157178  1.0
  Ni  Ni559  1  0.12017230  0.62369541  0.58157178  1.0
  Ni  Ni560  1  0.12017230  0.95702874  0.58157178  1.0
  Ni  Ni561  1  0.45350563  0.29036207  0.58157178  1.0
  Ni  Ni562  1  0.45350563  0.62369541  0.58157178  1.0
  Ni  Ni563  1  0.45350563  0.95702874  0.58157178  1.0
  Ni  Ni564  1  0.78683896  0.29036207  0.58157178  1.0
  Ni  Ni565  1  0.78683896  0.62369541  0.58157178  1.0
  Ni  Ni566  1  0.78683896  0.95702874  0.58157178  1.0
  Ni  Ni567  1  0.04609822  0.10517689  0.63712733  1.0
  Ni  Ni568  1  0.04609822  0.43851022  0.63712733  1.0
  Ni  Ni569  1  0.04609822  0.77184356  0.63712733  1.0
  Ni  Ni570  1  0.37943156  0.10517689  0.63712733  1.0
  Ni  Ni571  1  0.37943156  0.43851022  0.63712733  1.0
  Ni  Ni572  1  0.37943156  0.77184356  0.63712733  1.0
  Ni  Ni573  1  0.71276489  0.10517689  0.63712733  1.0
  Ni  Ni574  1  0.71276489  0.43851022  0.63712733  1.0
  Ni  Ni575  1  0.71276489  0.77184356  0.63712733  1.0
  Ti  Ti576  1  0.11192222  0.12324756  0.99433733  1.0
  Ti  Ti577  1  0.11192222  0.45658089  0.99433733  1.0
  Ti  Ti578  1  0.11192222  0.78991422  0.99433733  1.0
  Ti  Ti579  1  0.44525556  0.12324756  0.99433733  1.0
  Ti  Ti580  1  0.44525556  0.45658089  0.99433733  1.0
  Ti  Ti581  1  0.44525556  0.78991422  0.99433733  1.0
  Ti  Ti582  1  0.77858889  0.12324756  0.99433733  1.0
  Ti  Ti583  1  0.77858889  0.45658089  0.99433733  1.0
  Ti  Ti584  1  0.77858889  0.78991422  0.99433733  1.0
  Ti  Ti585  1  0.18599630  0.30843274  0.93878178  1.0
  Ti  Ti586  1  0.18599630  0.64176607  0.93878178  1.0
  Ti  Ti587  1  0.18599630  0.97509941  0.93878178  1.0
  Ti  Ti588  1  0.51932963  0.30843274  0.93878178  1.0
  Ti  Ti589  1  0.51932963  0.64176607  0.93878178  1.0
  Ti  Ti590  1  0.51932963  0.97509941  0.93878178  1.0
  Ti  Ti591  1  0.85266296  0.30843274  0.93878178  1.0
  Ti  Ti592  1  0.85266296  0.64176607  0.93878178  1.0
  Ti  Ti593  1  0.85266296  0.97509941  0.93878178  1.0
  Ti  Ti594  1  0.31077259  0.05888015  0.95927956  1.0
  Ti  Ti595  1  0.31077259  0.39221348  0.95927956  1.0
  Ti  Ti596  1  0.31077259  0.72554681  0.95927956  1.0
  Ti  Ti597  1  0.64410593  0.05888015  0.95927956  1.0
  Ti  Ti598  1  0.64410593  0.39221348  0.95927956  1.0
  Ti  Ti599  1  0.64410593  0.72554681  0.95927956  1.0
  Ti  Ti600  1  0.97743926  0.05888015  0.95927956  1.0
  Ti  Ti601  1  0.97743926  0.39221348  0.95927956  1.0
  Ti  Ti602  1  0.97743926  0.72554681  0.95927956  1.0
  Ti  Ti603  1  0.05151333  0.24406533  0.90372400  1.0
  Ti  Ti604  1  0.05151333  0.57739867  0.90372400  1.0
  Ti  Ti605  1  0.05151333  0.91073200  0.90372400  1.0
  Ti  Ti606  1  0.38484667  0.24406533  0.90372400  1.0
  Ti  Ti607  1  0.38484667  0.57739867  0.90372400  1.0
  Ti  Ti608  1  0.38484667  0.91073200  0.90372400  1.0
  Ti  Ti609  1  0.71818000  0.24406533  0.90372400  1.0
  Ti  Ti610  1  0.71818000  0.57739867  0.90372400  1.0
  Ti  Ti611  1  0.71818000  0.91073200  0.90372400  1.0
  Ti  Ti612  1  0.10949556  0.29476756  0.99069733  1.0
  Ti  Ti613  1  0.10949556  0.62810089  0.99069733  1.0
  Ti  Ti614  1  0.10949556  0.96143422  0.99069733  1.0
  Ti  Ti615  1  0.44282889  0.29476756  0.99069733  1.0
  Ti  Ti616  1  0.44282889  0.62810089  0.99069733  1.0
  Ti  Ti617  1  0.44282889  0.96143422  0.99069733  1.0
  Ti  Ti618  1  0.77616222  0.29476756  0.99069733  1.0
  Ti  Ti619  1  0.77616222  0.62810089  0.99069733  1.0
  Ti  Ti620  1  0.77616222  0.96143422  0.99069733  1.0
  Ti  Ti621  1  0.18356963  0.14661941  0.93514178  1.0
  Ti  Ti622  1  0.18356963  0.47995274  0.93514178  1.0
  Ti  Ti623  1  0.18356963  0.81328607  0.93514178  1.0
  Ti  Ti624  1  0.51690296  0.14661941  0.93514178  1.0
  Ti  Ti625  1  0.51690296  0.47995274  0.93514178  1.0
  Ti  Ti626  1  0.51690296  0.81328607  0.93514178  1.0
  Ti  Ti627  1  0.85023630  0.14661941  0.93514178  1.0
  Ti  Ti628  1  0.85023630  0.47995274  0.93514178  1.0
  Ti  Ti629  1  0.85023630  0.81328607  0.93514178  1.0
  Ti  Ti630  1  0.05394000  0.07254533  0.90736400  1.0
  Ti  Ti631  1  0.05394000  0.40587867  0.90736400  1.0
  Ti  Ti632  1  0.05394000  0.73921200  0.90736400  1.0
  Ti  Ti633  1  0.38727333  0.07254533  0.90736400  1.0
  Ti  Ti634  1  0.38727333  0.40587867  0.90736400  1.0
  Ti  Ti635  1  0.38727333  0.73921200  0.90736400  1.0
  Ti  Ti636  1  0.72060667  0.07254533  0.90736400  1.0
  Ti  Ti637  1  0.72060667  0.40587867  0.90736400  1.0
  Ti  Ti638  1  0.72060667  0.73921200  0.90736400  1.0
  Ti  Ti639  1  0.31319926  0.22069348  0.96291956  1.0
  Ti  Ti640  1  0.31319926  0.55402681  0.96291956  1.0
  Ti  Ti641  1  0.31319926  0.88736015  0.96291956  1.0
  Ti  Ti642  1  0.64653259  0.22069348  0.96291956  1.0
  Ti  Ti643  1  0.64653259  0.55402681  0.96291956  1.0
  Ti  Ti644  1  0.64653259  0.88736015  0.96291956  1.0
  Ti  Ti645  1  0.97986593  0.22069348  0.96291956  1.0
  Ti  Ti646  1  0.97986593  0.55402681  0.96291956  1.0
  Ti  Ti647  1  0.97986593  0.88736015  0.96291956  1.0
  Ti  Ti648  1  0.08171778  0.01698978  0.94903067  1.0
  Ti  Ti649  1  0.08171778  0.35032311  0.94903067  1.0
  Ti  Ti650  1  0.08171778  0.68365644  0.94903067  1.0
  Ti  Ti651  1  0.41505111  0.01698978  0.94903067  1.0
  Ti  Ti652  1  0.41505111  0.35032311  0.94903067  1.0
  Ti  Ti653  1  0.41505111  0.68365644  0.94903067  1.0
  Ti  Ti654  1  0.74838444  0.01698978  0.94903067  1.0
  Ti  Ti655  1  0.74838444  0.35032311  0.94903067  1.0
  Ti  Ti656  1  0.74838444  0.68365644  0.94903067  1.0
  Ti  Ti657  1  0.15579185  0.20217496  0.89347511  1.0
  Ti  Ti658  1  0.15579185  0.53550830  0.89347511  1.0
  Ti  Ti659  1  0.15579185  0.86884163  0.89347511  1.0
  Ti  Ti660  1  0.48912519  0.20217496  0.89347511  1.0
  Ti  Ti661  1  0.48912519  0.53550830  0.89347511  1.0
  Ti  Ti662  1  0.48912519  0.86884163  0.89347511  1.0
  Ti  Ti663  1  0.82245852  0.20217496  0.89347511  1.0
  Ti  Ti664  1  0.82245852  0.53550830  0.89347511  1.0
  Ti  Ti665  1  0.82245852  0.86884163  0.89347511  1.0
  Ti  Ti666  1  0.28542148  0.27624904  0.92125289  1.0
  Ti  Ti667  1  0.28542148  0.60958237  0.92125289  1.0
  Ti  Ti668  1  0.28542148  0.94291570  0.92125289  1.0
  Ti  Ti669  1  0.61875481  0.27624904  0.92125289  1.0
  Ti  Ti670  1  0.61875481  0.60958237  0.92125289  1.0
  Ti  Ti671  1  0.61875481  0.94291570  0.92125289  1.0
  Ti  Ti672  1  0.95208815  0.27624904  0.92125289  1.0
  Ti  Ti673  1  0.95208815  0.60958237  0.92125289  1.0
  Ti  Ti674  1  0.95208815  0.94291570  0.92125289  1.0
  Ti  Ti675  1  0.21134741  0.09106385  0.97680844  1.0
  Ti  Ti676  1  0.21134741  0.42439719  0.97680844  1.0
  Ti  Ti677  1  0.21134741  0.75773052  0.97680844  1.0
  Ti  Ti678  1  0.54468074  0.09106385  0.97680844  1.0
  Ti  Ti679  1  0.54468074  0.42439719  0.97680844  1.0
  Ti  Ti680  1  0.54468074  0.75773052  0.97680844  1.0
  Ti  Ti681  1  0.87801407  0.09106385  0.97680844  1.0
  Ti  Ti682  1  0.87801407  0.42439719  0.97680844  1.0
  Ti  Ti683  1  0.87801407  0.75773052  0.97680844  1.0
  Ti  Ti684  1  0.28542148  0.10958237  0.92125289  1.0
  Ti  Ti685  1  0.28542148  0.44291570  0.92125289  1.0
  Ti  Ti686  1  0.28542148  0.77624904  0.92125289  1.0
  Ti  Ti687  1  0.61875481  0.10958237  0.92125289  1.0
  Ti  Ti688  1  0.61875481  0.44291570  0.92125289  1.0
  Ti  Ti689  1  0.61875481  0.77624904  0.92125289  1.0
  Ti  Ti690  1  0.95208815  0.10958237  0.92125289  1.0
  Ti  Ti691  1  0.95208815  0.44291570  0.92125289  1.0
  Ti  Ti692  1  0.95208815  0.77624904  0.92125289  1.0
  Ti  Ti693  1  0.21134741  0.25773052  0.97680844  1.0
  Ti  Ti694  1  0.21134741  0.59106385  0.97680844  1.0
  Ti  Ti695  1  0.21134741  0.92439719  0.97680844  1.0
  Ti  Ti696  1  0.54468074  0.25773052  0.97680844  1.0
  Ti  Ti697  1  0.54468074  0.59106385  0.97680844  1.0
  Ti  Ti698  1  0.54468074  0.92439719  0.97680844  1.0
  Ti  Ti699  1  0.87801407  0.25773052  0.97680844  1.0
  Ti  Ti700  1  0.87801407  0.59106385  0.97680844  1.0
  Ti  Ti701  1  0.87801407  0.92439719  0.97680844  1.0
  Ti  Ti702  1  0.15579185  0.03550830  0.89347511  1.0
  Ti  Ti703  1  0.15579185  0.36884163  0.89347511  1.0
  Ti  Ti704  1  0.15579185  0.70217496  0.89347511  1.0
  Ti  Ti705  1  0.48912519  0.03550830  0.89347511  1.0
  Ti  Ti706  1  0.48912519  0.36884163  0.89347511  1.0
  Ti  Ti707  1  0.48912519  0.70217496  0.89347511  1.0
  Ti  Ti708  1  0.82245852  0.03550830  0.89347511  1.0
  Ti  Ti709  1  0.82245852  0.36884163  0.89347511  1.0
  Ti  Ti710  1  0.82245852  0.70217496  0.89347511  1.0
  Ti  Ti711  1  0.08171778  0.18365644  0.94903067  1.0
  Ti  Ti712  1  0.08171778  0.51698978  0.94903067  1.0
  Ti  Ti713  1  0.08171778  0.85032311  0.94903067  1.0
  Ti  Ti714  1  0.41505111  0.18365644  0.94903067  1.0
  Ti  Ti715  1  0.41505111  0.51698978  0.94903067  1.0
  Ti  Ti716  1  0.41505111  0.85032311  0.94903067  1.0
  Ti  Ti717  1  0.74838444  0.18365644  0.94903067  1.0
  Ti  Ti718  1  0.74838444  0.51698978  0.94903067  1.0
  Ti  Ti719  1  0.74838444  0.85032311  0.94903067  1.0
  Ti  Ti720  1  0.26007037  0.16028459  0.88322622  1.0
  Ti  Ti721  1  0.26007037  0.49361793  0.88322622  1.0
  Ti  Ti722  1  0.26007037  0.82695126  0.88322622  1.0
  Ti  Ti723  1  0.59340370  0.16028459  0.88322622  1.0
  Ti  Ti724  1  0.59340370  0.49361793  0.88322622  1.0
  Ti  Ti725  1  0.59340370  0.82695126  0.88322622  1.0
  Ti  Ti726  1  0.92673704  0.16028459  0.88322622  1.0
  Ti  Ti727  1  0.92673704  0.49361793  0.88322622  1.0
  Ti  Ti728  1  0.92673704  0.82695126  0.88322622  1.0
  Ti  Ti729  1  0.00081111  0.01213644  0.82767067  1.0
  Ti  Ti730  1  0.00081111  0.34546978  0.82767067  1.0
  Ti  Ti731  1  0.00081111  0.67880311  0.82767067  1.0
  Ti  Ti732  1  0.33414444  0.01213644  0.82767067  1.0
  Ti  Ti733  1  0.33414444  0.34546978  0.82767067  1.0
  Ti  Ti734  1  0.33414444  0.67880311  0.82767067  1.0
  Ti  Ti735  1  0.66747778  0.01213644  0.82767067  1.0
  Ti  Ti736  1  0.66747778  0.34546978  0.82767067  1.0
  Ti  Ti737  1  0.66747778  0.67880311  0.82767067  1.0
  Ti  Ti738  1  0.12558741  0.09591719  0.84816844  1.0
  Ti  Ti739  1  0.12558741  0.42925052  0.84816844  1.0
  Ti  Ti740  1  0.12558741  0.76258385  0.84816844  1.0
  Ti  Ti741  1  0.45892074  0.09591719  0.84816844  1.0
  Ti  Ti742  1  0.45892074  0.42925052  0.84816844  1.0
  Ti  Ti743  1  0.45892074  0.76258385  0.84816844  1.0
  Ti  Ti744  1  0.79225407  0.09591719  0.84816844  1.0
  Ti  Ti745  1  0.79225407  0.42925052  0.84816844  1.0
  Ti  Ti746  1  0.79225407  0.76258385  0.84816844  1.0
  Ti  Ti747  1  0.19966148  0.28110237  0.79261289  1.0
  Ti  Ti748  1  0.19966148  0.61443570  0.79261289  1.0
  Ti  Ti749  1  0.19966148  0.94776904  0.79261289  1.0
  Ti  Ti750  1  0.53299481  0.28110237  0.79261289  1.0
  Ti  Ti751  1  0.53299481  0.61443570  0.79261289  1.0
  Ti  Ti752  1  0.53299481  0.94776904  0.79261289  1.0
  Ti  Ti753  1  0.86632815  0.28110237  0.79261289  1.0
  Ti  Ti754  1  0.86632815  0.61443570  0.79261289  1.0
  Ti  Ti755  1  0.86632815  0.94776904  0.79261289  1.0
  Ti  Ti756  1  0.25764370  0.33180459  0.87958622  1.0
  Ti  Ti757  1  0.25764370  0.66513793  0.87958622  1.0
  Ti  Ti758  1  0.25764370  0.99847126  0.87958622  1.0
  Ti  Ti759  1  0.59097704  0.33180459  0.87958622  1.0
  Ti  Ti760  1  0.59097704  0.66513793  0.87958622  1.0
  Ti  Ti761  1  0.59097704  0.99847126  0.87958622  1.0
  Ti  Ti762  1  0.92431037  0.33180459  0.87958622  1.0
  Ti  Ti763  1  0.92431037  0.66513793  0.87958622  1.0
  Ti  Ti764  1  0.92431037  0.99847126  0.87958622  1.0
  Ti  Ti765  1  0.33171778  0.18365644  0.82403067  1.0
  Ti  Ti766  1  0.33171778  0.51698978  0.82403067  1.0
  Ti  Ti767  1  0.33171778  0.85032311  0.82403067  1.0
  Ti  Ti768  1  0.66505111  0.18365644  0.82403067  1.0
  Ti  Ti769  1  0.66505111  0.51698978  0.82403067  1.0
  Ti  Ti770  1  0.66505111  0.85032311  0.82403067  1.0
  Ti  Ti771  1  0.99838444  0.18365644  0.82403067  1.0
  Ti  Ti772  1  0.99838444  0.51698978  0.82403067  1.0
  Ti  Ti773  1  0.99838444  0.85032311  0.82403067  1.0
  Ti  Ti774  1  0.20208815  0.10958237  0.79625289  1.0
  Ti  Ti775  1  0.20208815  0.44291570  0.79625289  1.0
  Ti  Ti776  1  0.20208815  0.77624904  0.79625289  1.0
  Ti  Ti777  1  0.53542148  0.10958237  0.79625289  1.0
  Ti  Ti778  1  0.53542148  0.44291570  0.79625289  1.0
  Ti  Ti779  1  0.53542148  0.77624904  0.79625289  1.0
  Ti  Ti780  1  0.86875481  0.10958237  0.79625289  1.0
  Ti  Ti781  1  0.86875481  0.44291570  0.79625289  1.0
  Ti  Ti782  1  0.86875481  0.77624904  0.79625289  1.0
  Ti  Ti783  1  0.12801407  0.25773052  0.85180844  1.0
  Ti  Ti784  1  0.12801407  0.59106385  0.85180844  1.0
  Ti  Ti785  1  0.12801407  0.92439719  0.85180844  1.0
  Ti  Ti786  1  0.46134741  0.25773052  0.85180844  1.0
  Ti  Ti787  1  0.46134741  0.59106385  0.85180844  1.0
  Ti  Ti788  1  0.46134741  0.92439719  0.85180844  1.0
  Ti  Ti789  1  0.79468074  0.25773052  0.85180844  1.0
  Ti  Ti790  1  0.79468074  0.59106385  0.85180844  1.0
  Ti  Ti791  1  0.79468074  0.92439719  0.85180844  1.0
  Ti  Ti792  1  0.22986593  0.05402681  0.83791956  1.0
  Ti  Ti793  1  0.22986593  0.38736015  0.83791956  1.0
  Ti  Ti794  1  0.22986593  0.72069348  0.83791956  1.0
  Ti  Ti795  1  0.56319926  0.05402681  0.83791956  1.0
  Ti  Ti796  1  0.56319926  0.38736015  0.83791956  1.0
  Ti  Ti797  1  0.56319926  0.72069348  0.83791956  1.0
  Ti  Ti798  1  0.89653259  0.05402681  0.83791956  1.0
  Ti  Ti799  1  0.89653259  0.38736015  0.83791956  1.0
  Ti  Ti800  1  0.89653259  0.72069348  0.83791956  1.0
  Ti  Ti801  1  0.30394000  0.23921200  0.78236400  1.0
  Ti  Ti802  1  0.30394000  0.57254533  0.78236400  1.0
  Ti  Ti803  1  0.30394000  0.90587867  0.78236400  1.0
  Ti  Ti804  1  0.63727333  0.23921200  0.78236400  1.0
  Ti  Ti805  1  0.63727333  0.57254533  0.78236400  1.0
  Ti  Ti806  1  0.63727333  0.90587867  0.78236400  1.0
  Ti  Ti807  1  0.97060667  0.23921200  0.78236400  1.0
  Ti  Ti808  1  0.97060667  0.57254533  0.78236400  1.0
  Ti  Ti809  1  0.97060667  0.90587867  0.78236400  1.0
  Ti  Ti810  1  0.10023630  0.31328607  0.81014178  1.0
  Ti  Ti811  1  0.10023630  0.64661941  0.81014178  1.0
  Ti  Ti812  1  0.10023630  0.97995274  0.81014178  1.0
  Ti  Ti813  1  0.43356963  0.31328607  0.81014178  1.0
  Ti  Ti814  1  0.43356963  0.64661941  0.81014178  1.0
  Ti  Ti815  1  0.43356963  0.97995274  0.81014178  1.0
  Ti  Ti816  1  0.76690296  0.31328607  0.81014178  1.0
  Ti  Ti817  1  0.76690296  0.64661941  0.81014178  1.0
  Ti  Ti818  1  0.76690296  0.97995274  0.81014178  1.0
  Ti  Ti819  1  0.02616222  0.12810089  0.86569733  1.0
  Ti  Ti820  1  0.02616222  0.46143422  0.86569733  1.0
  Ti  Ti821  1  0.02616222  0.79476756  0.86569733  1.0
  Ti  Ti822  1  0.35949556  0.12810089  0.86569733  1.0
  Ti  Ti823  1  0.35949556  0.46143422  0.86569733  1.0
  Ti  Ti824  1  0.35949556  0.79476756  0.86569733  1.0
  Ti  Ti825  1  0.69282889  0.12810089  0.86569733  1.0
  Ti  Ti826  1  0.69282889  0.46143422  0.86569733  1.0
  Ti  Ti827  1  0.69282889  0.79476756  0.86569733  1.0
  Ti  Ti828  1  0.10023630  0.14661941  0.81014178  1.0
  Ti  Ti829  1  0.10023630  0.47995274  0.81014178  1.0
  Ti  Ti830  1  0.10023630  0.81328607  0.81014178  1.0
  Ti  Ti831  1  0.43356963  0.14661941  0.81014178  1.0
  Ti  Ti832  1  0.43356963  0.47995274  0.81014178  1.0
  Ti  Ti833  1  0.43356963  0.81328607  0.81014178  1.0
  Ti  Ti834  1  0.76690296  0.14661941  0.81014178  1.0
  Ti  Ti835  1  0.76690296  0.47995274  0.81014178  1.0
  Ti  Ti836  1  0.76690296  0.81328607  0.81014178  1.0
  Ti  Ti837  1  0.02616222  0.29476756  0.86569733  1.0
  Ti  Ti838  1  0.02616222  0.62810089  0.86569733  1.0
  Ti  Ti839  1  0.02616222  0.96143422  0.86569733  1.0
  Ti  Ti840  1  0.35949556  0.29476756  0.86569733  1.0
  Ti  Ti841  1  0.35949556  0.62810089  0.86569733  1.0
  Ti  Ti842  1  0.35949556  0.96143422  0.86569733  1.0
  Ti  Ti843  1  0.69282889  0.29476756  0.86569733  1.0
  Ti  Ti844  1  0.69282889  0.62810089  0.86569733  1.0
  Ti  Ti845  1  0.69282889  0.96143422  0.86569733  1.0
  Ti  Ti846  1  0.30394000  0.07254533  0.78236400  1.0
  Ti  Ti847  1  0.30394000  0.40587867  0.78236400  1.0
  Ti  Ti848  1  0.30394000  0.73921200  0.78236400  1.0
  Ti  Ti849  1  0.63727333  0.07254533  0.78236400  1.0
  Ti  Ti850  1  0.63727333  0.40587867  0.78236400  1.0
  Ti  Ti851  1  0.63727333  0.73921200  0.78236400  1.0
  Ti  Ti852  1  0.97060667  0.07254533  0.78236400  1.0
  Ti  Ti853  1  0.97060667  0.40587867  0.78236400  1.0
  Ti  Ti854  1  0.97060667  0.73921200  0.78236400  1.0
  Ti  Ti855  1  0.22986593  0.22069348  0.83791956  1.0
  Ti  Ti856  1  0.22986593  0.55402681  0.83791956  1.0
  Ti  Ti857  1  0.22986593  0.88736015  0.83791956  1.0
  Ti  Ti858  1  0.56319926  0.22069348  0.83791956  1.0
  Ti  Ti859  1  0.56319926  0.55402681  0.83791956  1.0
  Ti  Ti860  1  0.56319926  0.88736015  0.83791956  1.0
  Ti  Ti861  1  0.89653259  0.22069348  0.83791956  1.0
  Ti  Ti862  1  0.89653259  0.55402681  0.83791956  1.0
  Ti  Ti863  1  0.89653259  0.88736015  0.83791956  1.0
  Ti  Ti864  1  0.07488519  0.19732163  0.77211511  1.0
  Ti  Ti865  1  0.07488519  0.53065496  0.77211511  1.0
  Ti  Ti866  1  0.07488519  0.86398830  0.77211511  1.0
  Ti  Ti867  1  0.40821852  0.19732163  0.77211511  1.0
  Ti  Ti868  1  0.40821852  0.53065496  0.77211511  1.0
  Ti  Ti869  1  0.40821852  0.86398830  0.77211511  1.0
  Ti  Ti870  1  0.74155185  0.19732163  0.77211511  1.0
  Ti  Ti871  1  0.74155185  0.53065496  0.77211511  1.0
  Ti  Ti872  1  0.74155185  0.86398830  0.77211511  1.0
  Ti  Ti873  1  0.14895926  0.04917348  0.71655956  1.0
  Ti  Ti874  1  0.14895926  0.38250681  0.71655956  1.0
  Ti  Ti875  1  0.14895926  0.71584015  0.71655956  1.0
  Ti  Ti876  1  0.48229259  0.04917348  0.71655956  1.0
  Ti  Ti877  1  0.48229259  0.38250681  0.71655956  1.0
  Ti  Ti878  1  0.48229259  0.71584015  0.71655956  1.0
  Ti  Ti879  1  0.81562593  0.04917348  0.71655956  1.0
  Ti  Ti880  1  0.81562593  0.38250681  0.71655956  1.0
  Ti  Ti881  1  0.81562593  0.71584015  0.71655956  1.0
  Ti  Ti882  1  0.27373556  0.13295422  0.73705733  1.0
  Ti  Ti883  1  0.27373556  0.46628756  0.73705733  1.0
  Ti  Ti884  1  0.27373556  0.79962089  0.73705733  1.0
  Ti  Ti885  1  0.60706889  0.13295422  0.73705733  1.0
  Ti  Ti886  1  0.60706889  0.46628756  0.73705733  1.0
  Ti  Ti887  1  0.60706889  0.79962089  0.73705733  1.0
  Ti  Ti888  1  0.94040222  0.13295422  0.73705733  1.0
  Ti  Ti889  1  0.94040222  0.46628756  0.73705733  1.0
  Ti  Ti890  1  0.94040222  0.79962089  0.73705733  1.0
  Ti  Ti891  1  0.01447630  0.31813941  0.68150178  1.0
  Ti  Ti892  1  0.01447630  0.65147274  0.68150178  1.0
  Ti  Ti893  1  0.01447630  0.98480607  0.68150178  1.0
  Ti  Ti894  1  0.34780963  0.31813941  0.68150178  1.0
  Ti  Ti895  1  0.34780963  0.65147274  0.68150178  1.0
  Ti  Ti896  1  0.34780963  0.98480607  0.68150178  1.0
  Ti  Ti897  1  0.68114296  0.31813941  0.68150178  1.0
  Ti  Ti898  1  0.68114296  0.65147274  0.68150178  1.0
  Ti  Ti899  1  0.68114296  0.98480607  0.68150178  1.0
  Ti  Ti900  1  0.07245852  0.03550830  0.76847511  1.0
  Ti  Ti901  1  0.07245852  0.36884163  0.76847511  1.0
  Ti  Ti902  1  0.07245852  0.70217496  0.76847511  1.0
  Ti  Ti903  1  0.40579185  0.03550830  0.76847511  1.0
  Ti  Ti904  1  0.40579185  0.36884163  0.76847511  1.0
  Ti  Ti905  1  0.40579185  0.70217496  0.76847511  1.0
  Ti  Ti906  1  0.73912519  0.03550830  0.76847511  1.0
  Ti  Ti907  1  0.73912519  0.36884163  0.76847511  1.0
  Ti  Ti908  1  0.73912519  0.70217496  0.76847511  1.0
  Ti  Ti909  1  0.14653259  0.22069348  0.71291956  1.0
  Ti  Ti910  1  0.14653259  0.55402681  0.71291956  1.0
  Ti  Ti911  1  0.14653259  0.88736015  0.71291956  1.0
  Ti  Ti912  1  0.47986593  0.22069348  0.71291956  1.0
  Ti  Ti913  1  0.47986593  0.55402681  0.71291956  1.0
  Ti  Ti914  1  0.47986593  0.88736015  0.71291956  1.0
  Ti  Ti915  1  0.81319926  0.22069348  0.71291956  1.0
  Ti  Ti916  1  0.81319926  0.55402681  0.71291956  1.0
  Ti  Ti917  1  0.81319926  0.88736015  0.71291956  1.0
  Ti  Ti918  1  0.01690296  0.14661941  0.68514178  1.0
  Ti  Ti919  1  0.01690296  0.47995274  0.68514178  1.0
  Ti  Ti920  1  0.01690296  0.81328607  0.68514178  1.0
  Ti  Ti921  1  0.35023630  0.14661941  0.68514178  1.0
  Ti  Ti922  1  0.35023630  0.47995274  0.68514178  1.0
  Ti  Ti923  1  0.35023630  0.81328607  0.68514178  1.0
  Ti  Ti924  1  0.68356963  0.14661941  0.68514178  1.0
  Ti  Ti925  1  0.68356963  0.47995274  0.68514178  1.0
  Ti  Ti926  1  0.68356963  0.81328607  0.68514178  1.0
  Ti  Ti927  1  0.27616222  0.29476756  0.74069733  1.0
  Ti  Ti928  1  0.27616222  0.62810089  0.74069733  1.0
  Ti  Ti929  1  0.27616222  0.96143422  0.74069733  1.0
  Ti  Ti930  1  0.60949556  0.29476756  0.74069733  1.0
  Ti  Ti931  1  0.60949556  0.62810089  0.74069733  1.0
  Ti  Ti932  1  0.60949556  0.96143422  0.74069733  1.0
  Ti  Ti933  1  0.94282889  0.29476756  0.74069733  1.0
  Ti  Ti934  1  0.94282889  0.62810089  0.74069733  1.0
  Ti  Ti935  1  0.94282889  0.96143422  0.74069733  1.0
  Ti  Ti936  1  0.04468074  0.09106385  0.72680844  1.0
  Ti  Ti937  1  0.04468074  0.42439719  0.72680844  1.0
  Ti  Ti938  1  0.04468074  0.75773052  0.72680844  1.0
  Ti  Ti939  1  0.37801407  0.09106385  0.72680844  1.0
  Ti  Ti940  1  0.37801407  0.42439719  0.72680844  1.0
  Ti  Ti941  1  0.37801407  0.75773052  0.72680844  1.0
  Ti  Ti942  1  0.71134741  0.09106385  0.72680844  1.0
  Ti  Ti943  1  0.71134741  0.42439719  0.72680844  1.0
  Ti  Ti944  1  0.71134741  0.75773052  0.72680844  1.0
  Ti  Ti945  1  0.11875481  0.27624904  0.67125289  1.0
  Ti  Ti946  1  0.11875481  0.60958237  0.67125289  1.0
  Ti  Ti947  1  0.11875481  0.94291570  0.67125289  1.0
  Ti  Ti948  1  0.45208815  0.27624904  0.67125289  1.0
  Ti  Ti949  1  0.45208815  0.60958237  0.67125289  1.0
  Ti  Ti950  1  0.45208815  0.94291570  0.67125289  1.0
  Ti  Ti951  1  0.78542148  0.27624904  0.67125289  1.0
  Ti  Ti952  1  0.78542148  0.60958237  0.67125289  1.0
  Ti  Ti953  1  0.78542148  0.94291570  0.67125289  1.0
  Ti  Ti954  1  0.24838444  0.01698978  0.69903067  1.0
  Ti  Ti955  1  0.24838444  0.35032311  0.69903067  1.0
  Ti  Ti956  1  0.24838444  0.68365644  0.69903067  1.0
  Ti  Ti957  1  0.58171778  0.01698978  0.69903067  1.0
  Ti  Ti958  1  0.58171778  0.35032311  0.69903067  1.0
  Ti  Ti959  1  0.58171778  0.68365644  0.69903067  1.0
  Ti  Ti960  1  0.91505111  0.01698978  0.69903067  1.0
  Ti  Ti961  1  0.91505111  0.35032311  0.69903067  1.0
  Ti  Ti962  1  0.91505111  0.68365644  0.69903067  1.0
  Ti  Ti963  1  0.17431037  0.16513793  0.75458622  1.0
  Ti  Ti964  1  0.17431037  0.49847126  0.75458622  1.0
  Ti  Ti965  1  0.17431037  0.83180459  0.75458622  1.0
  Ti  Ti966  1  0.50764370  0.16513793  0.75458622  1.0
  Ti  Ti967  1  0.50764370  0.49847126  0.75458622  1.0
  Ti  Ti968  1  0.50764370  0.83180459  0.75458622  1.0
  Ti  Ti969  1  0.84097704  0.16513793  0.75458622  1.0
  Ti  Ti970  1  0.84097704  0.49847126  0.75458622  1.0
  Ti  Ti971  1  0.84097704  0.83180459  0.75458622  1.0
  Ti  Ti972  1  0.24838444  0.18365644  0.69903067  1.0
  Ti  Ti973  1  0.24838444  0.51698978  0.69903067  1.0
  Ti  Ti974  1  0.24838444  0.85032311  0.69903067  1.0
  Ti  Ti975  1  0.58171778  0.18365644  0.69903067  1.0
  Ti  Ti976  1  0.58171778  0.51698978  0.69903067  1.0
  Ti  Ti977  1  0.58171778  0.85032311  0.69903067  1.0
  Ti  Ti978  1  0.91505111  0.18365644  0.69903067  1.0
  Ti  Ti979  1  0.91505111  0.51698978  0.69903067  1.0
  Ti  Ti980  1  0.91505111  0.85032311  0.69903067  1.0
  Ti  Ti981  1  0.17431037  0.33180459  0.75458622  1.0
  Ti  Ti982  1  0.17431037  0.66513793  0.75458622  1.0
  Ti  Ti983  1  0.17431037  0.99847126  0.75458622  1.0
  Ti  Ti984  1  0.50764370  0.33180459  0.75458622  1.0
  Ti  Ti985  1  0.50764370  0.66513793  0.75458622  1.0
  Ti  Ti986  1  0.50764370  0.99847126  0.75458622  1.0
  Ti  Ti987  1  0.84097704  0.33180459  0.75458622  1.0
  Ti  Ti988  1  0.84097704  0.66513793  0.75458622  1.0
  Ti  Ti989  1  0.84097704  0.99847126  0.75458622  1.0
  Ti  Ti990  1  0.11875481  0.10958237  0.67125289  1.0
  Ti  Ti991  1  0.11875481  0.44291570  0.67125289  1.0
  Ti  Ti992  1  0.11875481  0.77624904  0.67125289  1.0
  Ti  Ti993  1  0.45208815  0.10958237  0.67125289  1.0
  Ti  Ti994  1  0.45208815  0.44291570  0.67125289  1.0
  Ti  Ti995  1  0.45208815  0.77624904  0.67125289  1.0
  Ti  Ti996  1  0.78542148  0.10958237  0.67125289  1.0
  Ti  Ti997  1  0.78542148  0.44291570  0.67125289  1.0
  Ti  Ti998  1  0.78542148  0.77624904  0.67125289  1.0
  Ti  Ti999  1  0.04468074  0.25773052  0.72680844  1.0
  Ti  Ti1000  1  0.04468074  0.59106385  0.72680844  1.0
  Ti  Ti1001  1  0.04468074  0.92439719  0.72680844  1.0
  Ti  Ti1002  1  0.37801407  0.25773052  0.72680844  1.0
  Ti  Ti1003  1  0.37801407  0.59106385  0.72680844  1.0
  Ti  Ti1004  1  0.37801407  0.92439719  0.72680844  1.0
  Ti  Ti1005  1  0.71134741  0.25773052  0.72680844  1.0
  Ti  Ti1006  1  0.71134741  0.59106385  0.72680844  1.0
  Ti  Ti1007  1  0.71134741  0.92439719  0.72680844  1.0
  Ti  Ti1008  1  0.22303333  0.23435867  0.66100400  1.0
  Ti  Ti1009  1  0.22303333  0.56769200  0.66100400  1.0
  Ti  Ti1010  1  0.22303333  0.90102533  0.66100400  1.0
  Ti  Ti1011  1  0.55636667  0.23435867  0.66100400  1.0
  Ti  Ti1012  1  0.55636667  0.56769200  0.66100400  1.0
  Ti  Ti1013  1  0.55636667  0.90102533  0.66100400  1.0
  Ti  Ti1014  1  0.88970000  0.23435867  0.66100400  1.0
  Ti  Ti1015  1  0.88970000  0.56769200  0.66100400  1.0
  Ti  Ti1016  1  0.88970000  0.90102533  0.66100400  1.0
  Ti  Ti1017  1  0.29710741  0.08621052  0.60544844  1.0
  Ti  Ti1018  1  0.29710741  0.41954385  0.60544844  1.0
  Ti  Ti1019  1  0.29710741  0.75287719  0.60544844  1.0
  Ti  Ti1020  1  0.63044074  0.08621052  0.60544844  1.0
  Ti  Ti1021  1  0.63044074  0.41954385  0.60544844  1.0
  Ti  Ti1022  1  0.63044074  0.75287719  0.60544844  1.0
  Ti  Ti1023  1  0.96377407  0.08621052  0.60544844  1.0
  Ti  Ti1024  1  0.96377407  0.41954385  0.60544844  1.0
  Ti  Ti1025  1  0.96377407  0.75287719  0.60544844  1.0
  Ti  Ti1026  1  0.08855037  0.16999126  0.62594622  1.0
  Ti  Ti1027  1  0.08855037  0.50332459  0.62594622  1.0
  Ti  Ti1028  1  0.08855037  0.83665793  0.62594622  1.0
  Ti  Ti1029  1  0.42188370  0.16999126  0.62594622  1.0
  Ti  Ti1030  1  0.42188370  0.50332459  0.62594622  1.0
  Ti  Ti1031  1  0.42188370  0.83665793  0.62594622  1.0
  Ti  Ti1032  1  0.75521704  0.16999126  0.62594622  1.0
  Ti  Ti1033  1  0.75521704  0.50332459  0.62594622  1.0
  Ti  Ti1034  1  0.75521704  0.83665793  0.62594622  1.0
  Ti  Ti1035  1  0.16262444  0.02184311  0.57039067  1.0
  Ti  Ti1036  1  0.16262444  0.35517644  0.57039067  1.0
  Ti  Ti1037  1  0.16262444  0.68850978  0.57039067  1.0
  Ti  Ti1038  1  0.49595778  0.02184311  0.57039067  1.0
  Ti  Ti1039  1  0.49595778  0.35517644  0.57039067  1.0
  Ti  Ti1040  1  0.49595778  0.68850978  0.57039067  1.0
  Ti  Ti1041  1  0.82929111  0.02184311  0.57039067  1.0
  Ti  Ti1042  1  0.82929111  0.35517644  0.57039067  1.0
  Ti  Ti1043  1  0.82929111  0.68850978  0.57039067  1.0
  Ti  Ti1044  1  0.22060667  0.07254533  0.65736400  1.0
  Ti  Ti1045  1  0.22060667  0.40587867  0.65736400  1.0
  Ti  Ti1046  1  0.22060667  0.73921200  0.65736400  1.0
  Ti  Ti1047  1  0.55394000  0.07254533  0.65736400  1.0
  Ti  Ti1048  1  0.55394000  0.40587867  0.65736400  1.0
  Ti  Ti1049  1  0.55394000  0.73921200  0.65736400  1.0
  Ti  Ti1050  1  0.88727333  0.07254533  0.65736400  1.0
  Ti  Ti1051  1  0.88727333  0.40587867  0.65736400  1.0
  Ti  Ti1052  1  0.88727333  0.73921200  0.65736400  1.0
  Ti  Ti1053  1  0.29468074  0.25773052  0.60180844  1.0
  Ti  Ti1054  1  0.29468074  0.59106385  0.60180844  1.0
  Ti  Ti1055  1  0.29468074  0.92439719  0.60180844  1.0
  Ti  Ti1056  1  0.62801407  0.25773052  0.60180844  1.0
  Ti  Ti1057  1  0.62801407  0.59106385  0.60180844  1.0
  Ti  Ti1058  1  0.62801407  0.92439719  0.60180844  1.0
  Ti  Ti1059  1  0.96134741  0.25773052  0.60180844  1.0
  Ti  Ti1060  1  0.96134741  0.59106385  0.60180844  1.0
  Ti  Ti1061  1  0.96134741  0.92439719  0.60180844  1.0
  Ti  Ti1062  1  0.16505111  0.18365644  0.57403067  1.0
  Ti  Ti1063  1  0.16505111  0.51698978  0.57403067  1.0
  Ti  Ti1064  1  0.16505111  0.85032311  0.57403067  1.0
  Ti  Ti1065  1  0.49838444  0.18365644  0.57403067  1.0
  Ti  Ti1066  1  0.49838444  0.51698978  0.57403067  1.0
  Ti  Ti1067  1  0.49838444  0.85032311  0.57403067  1.0
  Ti  Ti1068  1  0.83171778  0.18365644  0.57403067  1.0
  Ti  Ti1069  1  0.83171778  0.51698978  0.57403067  1.0
  Ti  Ti1070  1  0.83171778  0.85032311  0.57403067  1.0
  Ti  Ti1071  1  0.09097704  0.33180459  0.62958622  1.0
  Ti  Ti1072  1  0.09097704  0.66513793  0.62958622  1.0
  Ti  Ti1073  1  0.09097704  0.99847126  0.62958622  1.0
  Ti  Ti1074  1  0.42431037  0.33180459  0.62958622  1.0
  Ti  Ti1075  1  0.42431037  0.66513793  0.62958622  1.0
  Ti  Ti1076  1  0.42431037  0.99847126  0.62958622  1.0
  Ti  Ti1077  1  0.75764370  0.33180459  0.62958622  1.0
  Ti  Ti1078  1  0.75764370  0.66513793  0.62958622  1.0
  Ti  Ti1079  1  0.75764370  0.99847126  0.62958622  1.0
  Ti  Ti1080  1  0.19282889  0.12810089  0.61569733  1.0
  Ti  Ti1081  1  0.19282889  0.46143422  0.61569733  1.0
  Ti  Ti1082  1  0.19282889  0.79476756  0.61569733  1.0
  Ti  Ti1083  1  0.52616222  0.12810089  0.61569733  1.0
  Ti  Ti1084  1  0.52616222  0.46143422  0.61569733  1.0
  Ti  Ti1085  1  0.52616222  0.79476756  0.61569733  1.0
  Ti  Ti1086  1  0.85949556  0.12810089  0.61569733  1.0
  Ti  Ti1087  1  0.85949556  0.46143422  0.61569733  1.0
  Ti  Ti1088  1  0.85949556  0.79476756  0.61569733  1.0
  Ti  Ti1089  1  0.26690296  0.31328607  0.56014178  1.0
  Ti  Ti1090  1  0.26690296  0.64661941  0.56014178  1.0
  Ti  Ti1091  1  0.26690296  0.97995274  0.56014178  1.0
  Ti  Ti1092  1  0.60023630  0.31328607  0.56014178  1.0
  Ti  Ti1093  1  0.60023630  0.64661941  0.56014178  1.0
  Ti  Ti1094  1  0.60023630  0.97995274  0.56014178  1.0
  Ti  Ti1095  1  0.93356963  0.31328607  0.56014178  1.0
  Ti  Ti1096  1  0.93356963  0.64661941  0.56014178  1.0
  Ti  Ti1097  1  0.93356963  0.97995274  0.56014178  1.0
  Ti  Ti1098  1  0.06319926  0.05402681  0.58791956  1.0
  Ti  Ti1099  1  0.06319926  0.38736015  0.58791956  1.0
  Ti  Ti1100  1  0.06319926  0.72069348  0.58791956  1.0
  Ti  Ti1101  1  0.39653259  0.05402681  0.58791956  1.0
  Ti  Ti1102  1  0.39653259  0.38736015  0.58791956  1.0
  Ti  Ti1103  1  0.39653259  0.72069348  0.58791956  1.0
  Ti  Ti1104  1  0.72986593  0.05402681  0.58791956  1.0
  Ti  Ti1105  1  0.72986593  0.38736015  0.58791956  1.0
  Ti  Ti1106  1  0.72986593  0.72069348  0.58791956  1.0
  Ti  Ti1107  1  0.32245852  0.20217496  0.64347511  1.0
  Ti  Ti1108  1  0.32245852  0.53550830  0.64347511  1.0
  Ti  Ti1109  1  0.32245852  0.86884163  0.64347511  1.0
  Ti  Ti1110  1  0.65579185  0.20217496  0.64347511  1.0
  Ti  Ti1111  1  0.65579185  0.53550830  0.64347511  1.0
  Ti  Ti1112  1  0.65579185  0.86884163  0.64347511  1.0
  Ti  Ti1113  1  0.98912519  0.20217496  0.64347511  1.0
  Ti  Ti1114  1  0.98912519  0.53550830  0.64347511  1.0
  Ti  Ti1115  1  0.98912519  0.86884163  0.64347511  1.0
  Ti  Ti1116  1  0.06319926  0.22069348  0.58791956  1.0
  Ti  Ti1117  1  0.06319926  0.55402681  0.58791956  1.0
  Ti  Ti1118  1  0.06319926  0.88736015  0.58791956  1.0
  Ti  Ti1119  1  0.39653259  0.22069348  0.58791956  1.0
  Ti  Ti1120  1  0.39653259  0.55402681  0.58791956  1.0
  Ti  Ti1121  1  0.39653259  0.88736015  0.58791956  1.0
  Ti  Ti1122  1  0.72986593  0.22069348  0.58791956  1.0
  Ti  Ti1123  1  0.72986593  0.55402681  0.58791956  1.0
  Ti  Ti1124  1  0.72986593  0.88736015  0.58791956  1.0
  Ti  Ti1125  1  0.32245852  0.03550830  0.64347511  1.0
  Ti  Ti1126  1  0.32245852  0.36884163  0.64347511  1.0
  Ti  Ti1127  1  0.32245852  0.70217496  0.64347511  1.0
  Ti  Ti1128  1  0.65579185  0.03550830  0.64347511  1.0
  Ti  Ti1129  1  0.65579185  0.36884163  0.64347511  1.0
  Ti  Ti1130  1  0.65579185  0.70217496  0.64347511  1.0
  Ti  Ti1131  1  0.98912519  0.03550830  0.64347511  1.0
  Ti  Ti1132  1  0.98912519  0.36884163  0.64347511  1.0
  Ti  Ti1133  1  0.98912519  0.70217496  0.64347511  1.0
  Ti  Ti1134  1  0.26690296  0.14661941  0.56014178  1.0
  Ti  Ti1135  1  0.26690296  0.47995274  0.56014178  1.0
  Ti  Ti1136  1  0.26690296  0.81328607  0.56014178  1.0
  Ti  Ti1137  1  0.60023630  0.14661941  0.56014178  1.0
  Ti  Ti1138  1  0.60023630  0.47995274  0.56014178  1.0
  Ti  Ti1139  1  0.60023630  0.81328607  0.56014178  1.0
  Ti  Ti1140  1  0.93356963  0.14661941  0.56014178  1.0
  Ti  Ti1141  1  0.93356963  0.47995274  0.56014178  1.0
  Ti  Ti1142  1  0.93356963  0.81328607  0.56014178  1.0
  Ti  Ti1143  1  0.19282889  0.29476756  0.61569733  1.0
  Ti  Ti1144  1  0.19282889  0.62810089  0.61569733  1.0
  Ti  Ti1145  1  0.19282889  0.96143422  0.61569733  1.0
  Ti  Ti1146  1  0.52616222  0.29476756  0.61569733  1.0
  Ti  Ti1147  1  0.52616222  0.62810089  0.61569733  1.0
  Ti  Ti1148  1  0.52616222  0.96143422  0.61569733  1.0
  Ti  Ti1149  1  0.85949556  0.29476756  0.61569733  1.0
  Ti  Ti1150  1  0.85949556  0.62810089  0.61569733  1.0
  Ti  Ti1151  1  0.85949556  0.96143422  0.61569733  1.0
