# generated using pymatgen
data_TiNi
_symmetry_space_group_name_H-M   'P 1'
_cell_length_a   15.67029434
_cell_length_b   77.21048557
_cell_length_c   32.87818800
_cell_angle_alpha   83.79400733
_cell_angle_beta   63.45594921
_cell_angle_gamma   87.22891069
_symmetry_Int_Tables_number   1
_chemical_formula_structural   TiNi
_chemical_formula_sum   'Ti540 Ni540'
_cell_volume   35377.99856239
_cell_formula_units_Z   540
loop_
 _symmetry_equiv_pos_site_id
 _symmetry_equiv_pos_as_xyz
  1  'x, y, z'
loop_
 _atom_site_type_symbol
 _atom_site_label
 _atom_site_symmetry_multiplicity
 _atom_site_fract_x
 _atom_site_fract_y
 _atom_site_fract_z
 _atom_site_occupancy
  Ti  Ti0  1  0.06757633  0.18040267  0.05227727  1.0
  Ti  Ti1  1  0.06757633  0.51373600  0.05227727  1.0
  Ti  Ti2  1  0.06757633  0.84706933  0.05227727  1.0
  Ti  Ti3  1  0.40090967  0.18040267  0.05227727  1.0
  Ti  Ti4  1  0.40090967  0.51373600  0.05227727  1.0
  Ti  Ti5  1  0.40090967  0.84706933  0.05227727  1.0
  Ti  Ti6  1  0.73424300  0.18040267  0.05227727  1.0
  Ti  Ti7  1  0.73424300  0.51373600  0.05227727  1.0
  Ti  Ti8  1  0.73424300  0.84706933  0.05227727  1.0
  Ti  Ti9  1  0.06757633  0.01373600  0.01061060  1.0
  Ti  Ti10  1  0.06757633  0.34706933  0.01061060  1.0
  Ti  Ti11  1  0.06757633  0.68040267  0.01061060  1.0
  Ti  Ti12  1  0.40090967  0.01373600  0.01061060  1.0
  Ti  Ti13  1  0.40090967  0.34706933  0.01061060  1.0
  Ti  Ti14  1  0.40090967  0.68040267  0.01061060  1.0
  Ti  Ti15  1  0.73424300  0.01373600  0.01061060  1.0
  Ti  Ti16  1  0.73424300  0.34706933  0.01061060  1.0
  Ti  Ti17  1  0.73424300  0.68040267  0.01061060  1.0
  Ti  Ti18  1  0.26575700  0.31959733  0.06424410  1.0
  Ti  Ti19  1  0.26575700  0.65293067  0.06424410  1.0
  Ti  Ti20  1  0.26575700  0.98626400  0.06424410  1.0
  Ti  Ti21  1  0.59909033  0.31959733  0.06424410  1.0
  Ti  Ti22  1  0.59909033  0.65293067  0.06424410  1.0
  Ti  Ti23  1  0.59909033  0.98626400  0.06424410  1.0
  Ti  Ti24  1  0.93242367  0.31959733  0.06424410  1.0
  Ti  Ti25  1  0.93242367  0.65293067  0.06424410  1.0
  Ti  Ti26  1  0.93242367  0.98626400  0.06424410  1.0
  Ti  Ti27  1  0.26575700  0.15293067  0.02257744  1.0
  Ti  Ti28  1  0.26575700  0.48626400  0.02257744  1.0
  Ti  Ti29  1  0.26575700  0.81959733  0.02257744  1.0
  Ti  Ti30  1  0.59909033  0.15293067  0.02257744  1.0
  Ti  Ti31  1  0.59909033  0.48626400  0.02257744  1.0
  Ti  Ti32  1  0.59909033  0.81959733  0.02257744  1.0
  Ti  Ti33  1  0.93242367  0.15293067  0.02257744  1.0
  Ti  Ti34  1  0.93242367  0.48626400  0.02257744  1.0
  Ti  Ti35  1  0.93242367  0.81959733  0.02257744  1.0
  Ti  Ti36  1  0.25859000  0.20853067  0.00572885  1.0
  Ti  Ti37  1  0.25859000  0.54186400  0.00572885  1.0
  Ti  Ti38  1  0.25859000  0.87519733  0.00572885  1.0
  Ti  Ti39  1  0.59192333  0.20853067  0.00572885  1.0
  Ti  Ti40  1  0.59192333  0.54186400  0.00572885  1.0
  Ti  Ti41  1  0.59192333  0.87519733  0.00572885  1.0
  Ti  Ti42  1  0.92525667  0.20853067  0.00572885  1.0
  Ti  Ti43  1  0.92525667  0.54186400  0.00572885  1.0
  Ti  Ti44  1  0.92525667  0.87519733  0.00572885  1.0
  Ti  Ti45  1  0.25859000  0.04186400  0.04739552  1.0
  Ti  Ti46  1  0.25859000  0.37519733  0.04739552  1.0
  Ti  Ti47  1  0.25859000  0.70853067  0.04739552  1.0
  Ti  Ti48  1  0.59192333  0.04186400  0.04739552  1.0
  Ti  Ti49  1  0.59192333  0.37519733  0.04739552  1.0
  Ti  Ti50  1  0.59192333  0.70853067  0.04739552  1.0
  Ti  Ti51  1  0.92525667  0.04186400  0.04739552  1.0
  Ti  Ti52  1  0.92525667  0.37519733  0.04739552  1.0
  Ti  Ti53  1  0.92525667  0.70853067  0.04739552  1.0
  Ti  Ti54  1  0.26836800  0.26418167  0.07876852  1.0
  Ti  Ti55  1  0.26836800  0.59751500  0.07876852  1.0
  Ti  Ti56  1  0.26836800  0.93084833  0.07876852  1.0
  Ti  Ti57  1  0.60170133  0.26418167  0.07876852  1.0
  Ti  Ti58  1  0.60170133  0.59751500  0.07876852  1.0
  Ti  Ti59  1  0.60170133  0.93084833  0.07876852  1.0
  Ti  Ti60  1  0.93503467  0.26418167  0.07876852  1.0
  Ti  Ti61  1  0.93503467  0.59751500  0.07876852  1.0
  Ti  Ti62  1  0.93503467  0.93084833  0.07876852  1.0
  Ti  Ti63  1  0.26836800  0.09751500  0.03710185  1.0
  Ti  Ti64  1  0.26836800  0.43084833  0.03710185  1.0
  Ti  Ti65  1  0.26836800  0.76418167  0.03710185  1.0
  Ti  Ti66  1  0.60170133  0.09751500  0.03710185  1.0
  Ti  Ti67  1  0.60170133  0.43084833  0.03710185  1.0
  Ti  Ti68  1  0.60170133  0.76418167  0.03710185  1.0
  Ti  Ti69  1  0.93503467  0.09751500  0.03710185  1.0
  Ti  Ti70  1  0.93503467  0.43084833  0.03710185  1.0
  Ti  Ti71  1  0.93503467  0.76418167  0.03710185  1.0
  Ti  Ti72  1  0.06496533  0.23581833  0.03775285  1.0
  Ti  Ti73  1  0.06496533  0.56915167  0.03775285  1.0
  Ti  Ti74  1  0.06496533  0.90248500  0.03775285  1.0
  Ti  Ti75  1  0.39829867  0.23581833  0.03775285  1.0
  Ti  Ti76  1  0.39829867  0.56915167  0.03775285  1.0
  Ti  Ti77  1  0.39829867  0.90248500  0.03775285  1.0
  Ti  Ti78  1  0.73163200  0.23581833  0.03775285  1.0
  Ti  Ti79  1  0.73163200  0.56915167  0.03775285  1.0
  Ti  Ti80  1  0.73163200  0.90248500  0.03775285  1.0
  Ti  Ti81  1  0.06496533  0.06915167  0.07941952  1.0
  Ti  Ti82  1  0.06496533  0.40248500  0.07941952  1.0
  Ti  Ti83  1  0.06496533  0.73581833  0.07941952  1.0
  Ti  Ti84  1  0.39829867  0.06915167  0.07941952  1.0
  Ti  Ti85  1  0.39829867  0.40248500  0.07941952  1.0
  Ti  Ti86  1  0.39829867  0.73581833  0.07941952  1.0
  Ti  Ti87  1  0.73163200  0.06915167  0.07941952  1.0
  Ti  Ti88  1  0.73163200  0.40248500  0.07941952  1.0
  Ti  Ti89  1  0.73163200  0.73581833  0.07941952  1.0
  Ti  Ti90  1  0.07474333  0.29146933  0.02745919  1.0
  Ti  Ti91  1  0.07474333  0.62480267  0.02745919  1.0
  Ti  Ti92  1  0.07474333  0.95813600  0.02745919  1.0
  Ti  Ti93  1  0.40807667  0.29146933  0.02745919  1.0
  Ti  Ti94  1  0.40807667  0.62480267  0.02745919  1.0
  Ti  Ti95  1  0.40807667  0.95813600  0.02745919  1.0
  Ti  Ti96  1  0.74141000  0.29146933  0.02745919  1.0
  Ti  Ti97  1  0.74141000  0.62480267  0.02745919  1.0
  Ti  Ti98  1  0.74141000  0.95813600  0.02745919  1.0
  Ti  Ti99  1  0.07474333  0.12480267  0.06912585  1.0
  Ti  Ti100  1  0.07474333  0.45813600  0.06912585  1.0
  Ti  Ti101  1  0.07474333  0.79146933  0.06912585  1.0
  Ti  Ti102  1  0.40807667  0.12480267  0.06912585  1.0
  Ti  Ti103  1  0.40807667  0.45813600  0.06912585  1.0
  Ti  Ti104  1  0.40807667  0.79146933  0.06912585  1.0
  Ti  Ti105  1  0.74141000  0.12480267  0.06912585  1.0
  Ti  Ti106  1  0.74141000  0.45813600  0.06912585  1.0
  Ti  Ti107  1  0.74141000  0.79146933  0.06912585  1.0
  Ni  Ni108  1  0.10905400  0.31919550  0.05596673  1.0
  Ni  Ni109  1  0.10905400  0.65252883  0.05596673  1.0
  Ni  Ni110  1  0.10905400  0.98586217  0.05596673  1.0
  Ni  Ni111  1  0.44238733  0.31919550  0.05596673  1.0
  Ni  Ni112  1  0.44238733  0.65252883  0.05596673  1.0
  Ni  Ni113  1  0.44238733  0.98586217  0.05596673  1.0
  Ni  Ni114  1  0.77572067  0.31919550  0.05596673  1.0
  Ni  Ni115  1  0.77572067  0.65252883  0.05596673  1.0
  Ni  Ni116  1  0.77572067  0.98586217  0.05596673  1.0
  Ni  Ni117  1  0.10905400  0.15252883  0.01430006  1.0
  Ni  Ni118  1  0.10905400  0.48586217  0.01430006  1.0
  Ni  Ni119  1  0.10905400  0.81919550  0.01430006  1.0
  Ni  Ni120  1  0.44238733  0.15252883  0.01430006  1.0
  Ni  Ni121  1  0.44238733  0.48586217  0.01430006  1.0
  Ni  Ni122  1  0.44238733  0.81919550  0.01430006  1.0
  Ni  Ni123  1  0.77572067  0.15252883  0.01430006  1.0
  Ni  Ni124  1  0.77572067  0.48586217  0.01430006  1.0
  Ni  Ni125  1  0.77572067  0.81919550  0.01430006  1.0
  Ni  Ni126  1  0.11131233  0.26371700  0.06963452  1.0
  Ni  Ni127  1  0.11131233  0.59705033  0.06963452  1.0
  Ni  Ni128  1  0.11131233  0.93038367  0.06963452  1.0
  Ni  Ni129  1  0.44464567  0.26371700  0.06963452  1.0
  Ni  Ni130  1  0.44464567  0.59705033  0.06963452  1.0
  Ni  Ni131  1  0.44464567  0.93038367  0.06963452  1.0
  Ni  Ni132  1  0.77797900  0.26371700  0.06963452  1.0
  Ni  Ni133  1  0.77797900  0.59705033  0.06963452  1.0
  Ni  Ni134  1  0.77797900  0.93038367  0.06963452  1.0
  Ni  Ni135  1  0.11131233  0.09705033  0.02796785  1.0
  Ni  Ni136  1  0.11131233  0.43038367  0.02796785  1.0
  Ni  Ni137  1  0.11131233  0.76371700  0.02796785  1.0
  Ni  Ni138  1  0.44464567  0.09705033  0.02796785  1.0
  Ni  Ni139  1  0.44464567  0.43038367  0.02796785  1.0
  Ni  Ni140  1  0.44464567  0.76371700  0.02796785  1.0
  Ni  Ni141  1  0.77797900  0.09705033  0.02796785  1.0
  Ni  Ni142  1  0.77797900  0.43038367  0.02796785  1.0
  Ni  Ni143  1  0.77797900  0.76371700  0.02796785  1.0
  Ni  Ni144  1  0.10355333  0.20793317  0.08007490  1.0
  Ni  Ni145  1  0.10355333  0.54126650  0.08007490  1.0
  Ni  Ni146  1  0.10355333  0.87459983  0.08007490  1.0
  Ni  Ni147  1  0.43688667  0.20793317  0.08007490  1.0
  Ni  Ni148  1  0.43688667  0.54126650  0.08007490  1.0
  Ni  Ni149  1  0.43688667  0.87459983  0.08007490  1.0
  Ni  Ni150  1  0.77022000  0.20793317  0.08007490  1.0
  Ni  Ni151  1  0.77022000  0.54126650  0.08007490  1.0
  Ni  Ni152  1  0.77022000  0.87459983  0.08007490  1.0
  Ni  Ni153  1  0.10355333  0.04126650  0.03840823  1.0
  Ni  Ni154  1  0.10355333  0.37459983  0.03840823  1.0
  Ni  Ni155  1  0.10355333  0.70793317  0.03840823  1.0
  Ni  Ni156  1  0.43688667  0.04126650  0.03840823  1.0
  Ni  Ni157  1  0.43688667  0.37459983  0.03840823  1.0
  Ni  Ni158  1  0.43688667  0.70793317  0.03840823  1.0
  Ni  Ni159  1  0.77022000  0.04126650  0.03840823  1.0
  Ni  Ni160  1  0.77022000  0.37459983  0.03840823  1.0
  Ni  Ni161  1  0.77022000  0.70793317  0.03840823  1.0
  Ni  Ni162  1  0.22427933  0.18080450  0.06055465  1.0
  Ni  Ni163  1  0.22427933  0.51413783  0.06055465  1.0
  Ni  Ni164  1  0.22427933  0.84747117  0.06055465  1.0
  Ni  Ni165  1  0.55761267  0.18080450  0.06055465  1.0
  Ni  Ni166  1  0.55761267  0.51413783  0.06055465  1.0
  Ni  Ni167  1  0.55761267  0.84747117  0.06055465  1.0
  Ni  Ni168  1  0.89094600  0.18080450  0.06055465  1.0
  Ni  Ni169  1  0.89094600  0.51413783  0.06055465  1.0
  Ni  Ni170  1  0.89094600  0.84747117  0.06055465  1.0
  Ni  Ni171  1  0.22427933  0.01413783  0.01888798  1.0
  Ni  Ni172  1  0.22427933  0.34747117  0.01888798  1.0
  Ni  Ni173  1  0.22427933  0.68080450  0.01888798  1.0
  Ni  Ni174  1  0.55761267  0.01413783  0.01888798  1.0
  Ni  Ni175  1  0.55761267  0.34747117  0.01888798  1.0
  Ni  Ni176  1  0.55761267  0.68080450  0.01888798  1.0
  Ni  Ni177  1  0.89094600  0.01413783  0.01888798  1.0
  Ni  Ni178  1  0.89094600  0.34747117  0.01888798  1.0
  Ni  Ni179  1  0.89094600  0.68080450  0.01888798  1.0
  Ni  Ni180  1  0.22202100  0.23628300  0.04688685  1.0
  Ni  Ni181  1  0.22202100  0.56961633  0.04688685  1.0
  Ni  Ni182  1  0.22202100  0.90294967  0.04688685  1.0
  Ni  Ni183  1  0.55535433  0.23628300  0.04688685  1.0
  Ni  Ni184  1  0.55535433  0.56961633  0.04688685  1.0
  Ni  Ni185  1  0.55535433  0.90294967  0.04688685  1.0
  Ni  Ni186  1  0.88868767  0.23628300  0.04688685  1.0
  Ni  Ni187  1  0.88868767  0.56961633  0.04688685  1.0
  Ni  Ni188  1  0.88868767  0.90294967  0.04688685  1.0
  Ni  Ni189  1  0.22202100  0.06961633  0.00522019  1.0
  Ni  Ni190  1  0.22202100  0.40294967  0.00522019  1.0
  Ni  Ni191  1  0.22202100  0.73628300  0.00522019  1.0
  Ni  Ni192  1  0.55535433  0.06961633  0.00522019  1.0
  Ni  Ni193  1  0.55535433  0.40294967  0.00522019  1.0
  Ni  Ni194  1  0.55535433  0.73628300  0.00522019  1.0
  Ni  Ni195  1  0.88868767  0.06961633  0.00522019  1.0
  Ni  Ni196  1  0.88868767  0.40294967  0.00522019  1.0
  Ni  Ni197  1  0.88868767  0.73628300  0.00522019  1.0
  Ni  Ni198  1  0.22978000  0.29206683  0.03644648  1.0
  Ni  Ni199  1  0.22978000  0.62540017  0.03644648  1.0
  Ni  Ni200  1  0.22978000  0.95873350  0.03644648  1.0
  Ni  Ni201  1  0.56311333  0.29206683  0.03644648  1.0
  Ni  Ni202  1  0.56311333  0.62540017  0.03644648  1.0
  Ni  Ni203  1  0.56311333  0.95873350  0.03644648  1.0
  Ni  Ni204  1  0.89644667  0.29206683  0.03644648  1.0
  Ni  Ni205  1  0.89644667  0.62540017  0.03644648  1.0
  Ni  Ni206  1  0.89644667  0.95873350  0.03644648  1.0
  Ni  Ni207  1  0.22978000  0.12540017  0.07811315  1.0
  Ni  Ni208  1  0.22978000  0.45873350  0.07811315  1.0
  Ni  Ni209  1  0.22978000  0.79206683  0.07811315  1.0
  Ni  Ni210  1  0.56311333  0.12540017  0.07811315  1.0
  Ni  Ni211  1  0.56311333  0.45873350  0.07811315  1.0
  Ni  Ni212  1  0.56311333  0.79206683  0.07811315  1.0
  Ni  Ni213  1  0.89644667  0.12540017  0.07811315  1.0
  Ni  Ni214  1  0.89644667  0.45873350  0.07811315  1.0
  Ni  Ni215  1  0.89644667  0.79206683  0.07811315  1.0
  Ti  Ti216  1  0.06757633  0.18040267  0.13561060  1.0
  Ti  Ti217  1  0.06757633  0.51373600  0.13561060  1.0
  Ti  Ti218  1  0.06757633  0.84706933  0.13561060  1.0
  Ti  Ti219  1  0.40090967  0.18040267  0.13561060  1.0
  Ti  Ti220  1  0.40090967  0.51373600  0.13561060  1.0
  Ti  Ti221  1  0.40090967  0.84706933  0.13561060  1.0
  Ti  Ti222  1  0.73424300  0.18040267  0.13561060  1.0
  Ti  Ti223  1  0.73424300  0.51373600  0.13561060  1.0
  Ti  Ti224  1  0.73424300  0.84706933  0.13561060  1.0
  Ti  Ti225  1  0.06757633  0.01373600  0.09394394  1.0
  Ti  Ti226  1  0.06757633  0.34706933  0.09394394  1.0
  Ti  Ti227  1  0.06757633  0.68040267  0.09394394  1.0
  Ti  Ti228  1  0.40090967  0.01373600  0.09394394  1.0
  Ti  Ti229  1  0.40090967  0.34706933  0.09394394  1.0
  Ti  Ti230  1  0.40090967  0.68040267  0.09394394  1.0
  Ti  Ti231  1  0.73424300  0.01373600  0.09394394  1.0
  Ti  Ti232  1  0.73424300  0.34706933  0.09394394  1.0
  Ti  Ti233  1  0.73424300  0.68040267  0.09394394  1.0
  Ti  Ti234  1  0.26575700  0.31959733  0.14757744  1.0
  Ti  Ti235  1  0.26575700  0.65293067  0.14757744  1.0
  Ti  Ti236  1  0.26575700  0.98626400  0.14757744  1.0
  Ti  Ti237  1  0.59909033  0.31959733  0.14757744  1.0
  Ti  Ti238  1  0.59909033  0.65293067  0.14757744  1.0
  Ti  Ti239  1  0.59909033  0.98626400  0.14757744  1.0
  Ti  Ti240  1  0.93242367  0.31959733  0.14757744  1.0
  Ti  Ti241  1  0.93242367  0.65293067  0.14757744  1.0
  Ti  Ti242  1  0.93242367  0.98626400  0.14757744  1.0
  Ti  Ti243  1  0.26575700  0.15293067  0.10591077  1.0
  Ti  Ti244  1  0.26575700  0.48626400  0.10591077  1.0
  Ti  Ti245  1  0.26575700  0.81959733  0.10591077  1.0
  Ti  Ti246  1  0.59909033  0.15293067  0.10591077  1.0
  Ti  Ti247  1  0.59909033  0.48626400  0.10591077  1.0
  Ti  Ti248  1  0.59909033  0.81959733  0.10591077  1.0
  Ti  Ti249  1  0.93242367  0.15293067  0.10591077  1.0
  Ti  Ti250  1  0.93242367  0.48626400  0.10591077  1.0
  Ti  Ti251  1  0.93242367  0.81959733  0.10591077  1.0
  Ti  Ti252  1  0.25859000  0.20853067  0.08906219  1.0
  Ti  Ti253  1  0.25859000  0.54186400  0.08906219  1.0
  Ti  Ti254  1  0.25859000  0.87519733  0.08906219  1.0
  Ti  Ti255  1  0.59192333  0.20853067  0.08906219  1.0
  Ti  Ti256  1  0.59192333  0.54186400  0.08906219  1.0
  Ti  Ti257  1  0.59192333  0.87519733  0.08906219  1.0
  Ti  Ti258  1  0.92525667  0.20853067  0.08906219  1.0
  Ti  Ti259  1  0.92525667  0.54186400  0.08906219  1.0
  Ti  Ti260  1  0.92525667  0.87519733  0.08906219  1.0
  Ti  Ti261  1  0.25859000  0.04186400  0.13072885  1.0
  Ti  Ti262  1  0.25859000  0.37519733  0.13072885  1.0
  Ti  Ti263  1  0.25859000  0.70853067  0.13072885  1.0
  Ti  Ti264  1  0.59192333  0.04186400  0.13072885  1.0
  Ti  Ti265  1  0.59192333  0.37519733  0.13072885  1.0
  Ti  Ti266  1  0.59192333  0.70853067  0.13072885  1.0
  Ti  Ti267  1  0.92525667  0.04186400  0.13072885  1.0
  Ti  Ti268  1  0.92525667  0.37519733  0.13072885  1.0
  Ti  Ti269  1  0.92525667  0.70853067  0.13072885  1.0
  Ti  Ti270  1  0.26836800  0.26418167  0.16210185  1.0
  Ti  Ti271  1  0.26836800  0.59751500  0.16210185  1.0
  Ti  Ti272  1  0.26836800  0.93084833  0.16210185  1.0
  Ti  Ti273  1  0.60170133  0.26418167  0.16210185  1.0
  Ti  Ti274  1  0.60170133  0.59751500  0.16210185  1.0
  Ti  Ti275  1  0.60170133  0.93084833  0.16210185  1.0
  Ti  Ti276  1  0.93503467  0.26418167  0.16210185  1.0
  Ti  Ti277  1  0.93503467  0.59751500  0.16210185  1.0
  Ti  Ti278  1  0.93503467  0.93084833  0.16210185  1.0
  Ti  Ti279  1  0.26836800  0.09751500  0.12043519  1.0
  Ti  Ti280  1  0.26836800  0.43084833  0.12043519  1.0
  Ti  Ti281  1  0.26836800  0.76418167  0.12043519  1.0
  Ti  Ti282  1  0.60170133  0.09751500  0.12043519  1.0
  Ti  Ti283  1  0.60170133  0.43084833  0.12043519  1.0
  Ti  Ti284  1  0.60170133  0.76418167  0.12043519  1.0
  Ti  Ti285  1  0.93503467  0.09751500  0.12043519  1.0
  Ti  Ti286  1  0.93503467  0.43084833  0.12043519  1.0
  Ti  Ti287  1  0.93503467  0.76418167  0.12043519  1.0
  Ti  Ti288  1  0.06496533  0.23581833  0.12108619  1.0
  Ti  Ti289  1  0.06496533  0.56915167  0.12108619  1.0
  Ti  Ti290  1  0.06496533  0.90248500  0.12108619  1.0
  Ti  Ti291  1  0.39829867  0.23581833  0.12108619  1.0
  Ti  Ti292  1  0.39829867  0.56915167  0.12108619  1.0
  Ti  Ti293  1  0.39829867  0.90248500  0.12108619  1.0
  Ti  Ti294  1  0.73163200  0.23581833  0.12108619  1.0
  Ti  Ti295  1  0.73163200  0.56915167  0.12108619  1.0
  Ti  Ti296  1  0.73163200  0.90248500  0.12108619  1.0
  Ti  Ti297  1  0.06496533  0.06915167  0.16275285  1.0
  Ti  Ti298  1  0.06496533  0.40248500  0.16275285  1.0
  Ti  Ti299  1  0.06496533  0.73581833  0.16275285  1.0
  Ti  Ti300  1  0.39829867  0.06915167  0.16275285  1.0
  Ti  Ti301  1  0.39829867  0.40248500  0.16275285  1.0
  Ti  Ti302  1  0.39829867  0.73581833  0.16275285  1.0
  Ti  Ti303  1  0.73163200  0.06915167  0.16275285  1.0
  Ti  Ti304  1  0.73163200  0.40248500  0.16275285  1.0
  Ti  Ti305  1  0.73163200  0.73581833  0.16275285  1.0
  Ti  Ti306  1  0.07474333  0.29146933  0.11079252  1.0
  Ti  Ti307  1  0.07474333  0.62480267  0.11079252  1.0
  Ti  Ti308  1  0.07474333  0.95813600  0.11079252  1.0
  Ti  Ti309  1  0.40807667  0.29146933  0.11079252  1.0
  Ti  Ti310  1  0.40807667  0.62480267  0.11079252  1.0
  Ti  Ti311  1  0.40807667  0.95813600  0.11079252  1.0
  Ti  Ti312  1  0.74141000  0.29146933  0.11079252  1.0
  Ti  Ti313  1  0.74141000  0.62480267  0.11079252  1.0
  Ti  Ti314  1  0.74141000  0.95813600  0.11079252  1.0
  Ti  Ti315  1  0.07474333  0.12480267  0.15245919  1.0
  Ti  Ti316  1  0.07474333  0.45813600  0.15245919  1.0
  Ti  Ti317  1  0.07474333  0.79146933  0.15245919  1.0
  Ti  Ti318  1  0.40807667  0.12480267  0.15245919  1.0
  Ti  Ti319  1  0.40807667  0.45813600  0.15245919  1.0
  Ti  Ti320  1  0.40807667  0.79146933  0.15245919  1.0
  Ti  Ti321  1  0.74141000  0.12480267  0.15245919  1.0
  Ti  Ti322  1  0.74141000  0.45813600  0.15245919  1.0
  Ti  Ti323  1  0.74141000  0.79146933  0.15245919  1.0
  Ni  Ni324  1  0.10905400  0.31919550  0.13930006  1.0
  Ni  Ni325  1  0.10905400  0.65252883  0.13930006  1.0
  Ni  Ni326  1  0.10905400  0.98586217  0.13930006  1.0
  Ni  Ni327  1  0.44238733  0.31919550  0.13930006  1.0
  Ni  Ni328  1  0.44238733  0.65252883  0.13930006  1.0
  Ni  Ni329  1  0.44238733  0.98586217  0.13930006  1.0
  Ni  Ni330  1  0.77572067  0.31919550  0.13930006  1.0
  Ni  Ni331  1  0.77572067  0.65252883  0.13930006  1.0
  Ni  Ni332  1  0.77572067  0.98586217  0.13930006  1.0
  Ni  Ni333  1  0.10905400  0.15252883  0.09763340  1.0
  Ni  Ni334  1  0.10905400  0.48586217  0.09763340  1.0
  Ni  Ni335  1  0.10905400  0.81919550  0.09763340  1.0
  Ni  Ni336  1  0.44238733  0.15252883  0.09763340  1.0
  Ni  Ni337  1  0.44238733  0.48586217  0.09763340  1.0
  Ni  Ni338  1  0.44238733  0.81919550  0.09763340  1.0
  Ni  Ni339  1  0.77572067  0.15252883  0.09763340  1.0
  Ni  Ni340  1  0.77572067  0.48586217  0.09763340  1.0
  Ni  Ni341  1  0.77572067  0.81919550  0.09763340  1.0
  Ni  Ni342  1  0.11131233  0.26371700  0.15296785  1.0
  Ni  Ni343  1  0.11131233  0.59705033  0.15296785  1.0
  Ni  Ni344  1  0.11131233  0.93038367  0.15296785  1.0
  Ni  Ni345  1  0.44464567  0.26371700  0.15296785  1.0
  Ni  Ni346  1  0.44464567  0.59705033  0.15296785  1.0
  Ni  Ni347  1  0.44464567  0.93038367  0.15296785  1.0
  Ni  Ni348  1  0.77797900  0.26371700  0.15296785  1.0
  Ni  Ni349  1  0.77797900  0.59705033  0.15296785  1.0
  Ni  Ni350  1  0.77797900  0.93038367  0.15296785  1.0
  Ni  Ni351  1  0.11131233  0.09705033  0.11130119  1.0
  Ni  Ni352  1  0.11131233  0.43038367  0.11130119  1.0
  Ni  Ni353  1  0.11131233  0.76371700  0.11130119  1.0
  Ni  Ni354  1  0.44464567  0.09705033  0.11130119  1.0
  Ni  Ni355  1  0.44464567  0.43038367  0.11130119  1.0
  Ni  Ni356  1  0.44464567  0.76371700  0.11130119  1.0
  Ni  Ni357  1  0.77797900  0.09705033  0.11130119  1.0
  Ni  Ni358  1  0.77797900  0.43038367  0.11130119  1.0
  Ni  Ni359  1  0.77797900  0.76371700  0.11130119  1.0
  Ni  Ni360  1  0.10355333  0.20793317  0.16340823  1.0
  Ni  Ni361  1  0.10355333  0.54126650  0.16340823  1.0
  Ni  Ni362  1  0.10355333  0.87459983  0.16340823  1.0
  Ni  Ni363  1  0.43688667  0.20793317  0.16340823  1.0
  Ni  Ni364  1  0.43688667  0.54126650  0.16340823  1.0
  Ni  Ni365  1  0.43688667  0.87459983  0.16340823  1.0
  Ni  Ni366  1  0.77022000  0.20793317  0.16340823  1.0
  Ni  Ni367  1  0.77022000  0.54126650  0.16340823  1.0
  Ni  Ni368  1  0.77022000  0.87459983  0.16340823  1.0
  Ni  Ni369  1  0.10355333  0.04126650  0.12174156  1.0
  Ni  Ni370  1  0.10355333  0.37459983  0.12174156  1.0
  Ni  Ni371  1  0.10355333  0.70793317  0.12174156  1.0
  Ni  Ni372  1  0.43688667  0.04126650  0.12174156  1.0
  Ni  Ni373  1  0.43688667  0.37459983  0.12174156  1.0
  Ni  Ni374  1  0.43688667  0.70793317  0.12174156  1.0
  Ni  Ni375  1  0.77022000  0.04126650  0.12174156  1.0
  Ni  Ni376  1  0.77022000  0.37459983  0.12174156  1.0
  Ni  Ni377  1  0.77022000  0.70793317  0.12174156  1.0
  Ni  Ni378  1  0.22427933  0.18080450  0.14388798  1.0
  Ni  Ni379  1  0.22427933  0.51413783  0.14388798  1.0
  Ni  Ni380  1  0.22427933  0.84747117  0.14388798  1.0
  Ni  Ni381  1  0.55761267  0.18080450  0.14388798  1.0
  Ni  Ni382  1  0.55761267  0.51413783  0.14388798  1.0
  Ni  Ni383  1  0.55761267  0.84747117  0.14388798  1.0
  Ni  Ni384  1  0.89094600  0.18080450  0.14388798  1.0
  Ni  Ni385  1  0.89094600  0.51413783  0.14388798  1.0
  Ni  Ni386  1  0.89094600  0.84747117  0.14388798  1.0
  Ni  Ni387  1  0.22427933  0.01413783  0.10222131  1.0
  Ni  Ni388  1  0.22427933  0.34747117  0.10222131  1.0
  Ni  Ni389  1  0.22427933  0.68080450  0.10222131  1.0
  Ni  Ni390  1  0.55761267  0.01413783  0.10222131  1.0
  Ni  Ni391  1  0.55761267  0.34747117  0.10222131  1.0
  Ni  Ni392  1  0.55761267  0.68080450  0.10222131  1.0
  Ni  Ni393  1  0.89094600  0.01413783  0.10222131  1.0
  Ni  Ni394  1  0.89094600  0.34747117  0.10222131  1.0
  Ni  Ni395  1  0.89094600  0.68080450  0.10222131  1.0
  Ni  Ni396  1  0.22202100  0.23628300  0.13022019  1.0
  Ni  Ni397  1  0.22202100  0.56961633  0.13022019  1.0
  Ni  Ni398  1  0.22202100  0.90294967  0.13022019  1.0
  Ni  Ni399  1  0.55535433  0.23628300  0.13022019  1.0
  Ni  Ni400  1  0.55535433  0.56961633  0.13022019  1.0
  Ni  Ni401  1  0.55535433  0.90294967  0.13022019  1.0
  Ni  Ni402  1  0.88868767  0.23628300  0.13022019  1.0
  Ni  Ni403  1  0.88868767  0.56961633  0.13022019  1.0
  Ni  Ni404  1  0.88868767  0.90294967  0.13022019  1.0
  Ni  Ni405  1  0.22202100  0.06961633  0.08855352  1.0
  Ni  Ni406  1  0.22202100  0.40294967  0.08855352  1.0
  Ni  Ni407  1  0.22202100  0.73628300  0.08855352  1.0
  Ni  Ni408  1  0.55535433  0.06961633  0.08855352  1.0
  Ni  Ni409  1  0.55535433  0.40294967  0.08855352  1.0
  Ni  Ni410  1  0.55535433  0.73628300  0.08855352  1.0
  Ni  Ni411  1  0.88868767  0.06961633  0.08855352  1.0
  Ni  Ni412  1  0.88868767  0.40294967  0.08855352  1.0
  Ni  Ni413  1  0.88868767  0.73628300  0.08855352  1.0
  Ni  Ni414  1  0.22978000  0.29206683  0.11977981  1.0
  Ni  Ni415  1  0.22978000  0.62540017  0.11977981  1.0
  Ni  Ni416  1  0.22978000  0.95873350  0.11977981  1.0
  Ni  Ni417  1  0.56311333  0.29206683  0.11977981  1.0
  Ni  Ni418  1  0.56311333  0.62540017  0.11977981  1.0
  Ni  Ni419  1  0.56311333  0.95873350  0.11977981  1.0
  Ni  Ni420  1  0.89644667  0.29206683  0.11977981  1.0
  Ni  Ni421  1  0.89644667  0.62540017  0.11977981  1.0
  Ni  Ni422  1  0.89644667  0.95873350  0.11977981  1.0
  Ni  Ni423  1  0.22978000  0.12540017  0.16144648  1.0
  Ni  Ni424  1  0.22978000  0.45873350  0.16144648  1.0
  Ni  Ni425  1  0.22978000  0.79206683  0.16144648  1.0
  Ni  Ni426  1  0.56311333  0.12540017  0.16144648  1.0
  Ni  Ni427  1  0.56311333  0.45873350  0.16144648  1.0
  Ni  Ni428  1  0.56311333  0.79206683  0.16144648  1.0
  Ni  Ni429  1  0.89644667  0.12540017  0.16144648  1.0
  Ni  Ni430  1  0.89644667  0.45873350  0.16144648  1.0
  Ni  Ni431  1  0.89644667  0.79206683  0.16144648  1.0
  Ti  Ti432  1  0.06757633  0.18040267  0.21894394  1.0
  Ti  Ti433  1  0.06757633  0.51373600  0.21894394  1.0
  Ti  Ti434  1  0.06757633  0.84706933  0.21894394  1.0
  Ti  Ti435  1  0.40090967  0.18040267  0.21894394  1.0
  Ti  Ti436  1  0.40090967  0.51373600  0.21894394  1.0
  Ti  Ti437  1  0.40090967  0.84706933  0.21894394  1.0
  Ti  Ti438  1  0.73424300  0.18040267  0.21894394  1.0
  Ti  Ti439  1  0.73424300  0.51373600  0.21894394  1.0
  Ti  Ti440  1  0.73424300  0.84706933  0.21894394  1.0
  Ti  Ti441  1  0.06757633  0.01373600  0.17727727  1.0
  Ti  Ti442  1  0.06757633  0.34706933  0.17727727  1.0
  Ti  Ti443  1  0.06757633  0.68040267  0.17727727  1.0
  Ti  Ti444  1  0.40090967  0.01373600  0.17727727  1.0
  Ti  Ti445  1  0.40090967  0.34706933  0.17727727  1.0
  Ti  Ti446  1  0.40090967  0.68040267  0.17727727  1.0
  Ti  Ti447  1  0.73424300  0.01373600  0.17727727  1.0
  Ti  Ti448  1  0.73424300  0.34706933  0.17727727  1.0
  Ti  Ti449  1  0.73424300  0.68040267  0.17727727  1.0
  Ti  Ti450  1  0.26575700  0.31959733  0.23091077  1.0
  Ti  Ti451  1  0.26575700  0.65293067  0.23091077  1.0
  Ti  Ti452  1  0.26575700  0.98626400  0.23091077  1.0
  Ti  Ti453  1  0.59909033  0.31959733  0.23091077  1.0
  Ti  Ti454  1  0.59909033  0.65293067  0.23091077  1.0
  Ti  Ti455  1  0.59909033  0.98626400  0.23091077  1.0
  Ti  Ti456  1  0.93242367  0.31959733  0.23091077  1.0
  Ti  Ti457  1  0.93242367  0.65293067  0.23091077  1.0
  Ti  Ti458  1  0.93242367  0.98626400  0.23091077  1.0
  Ti  Ti459  1  0.26575700  0.15293067  0.18924410  1.0
  Ti  Ti460  1  0.26575700  0.48626400  0.18924410  1.0
  Ti  Ti461  1  0.26575700  0.81959733  0.18924410  1.0
  Ti  Ti462  1  0.59909033  0.15293067  0.18924410  1.0
  Ti  Ti463  1  0.59909033  0.48626400  0.18924410  1.0
  Ti  Ti464  1  0.59909033  0.81959733  0.18924410  1.0
  Ti  Ti465  1  0.93242367  0.15293067  0.18924410  1.0
  Ti  Ti466  1  0.93242367  0.48626400  0.18924410  1.0
  Ti  Ti467  1  0.93242367  0.81959733  0.18924410  1.0
  Ti  Ti468  1  0.25859000  0.20853067  0.17239552  1.0
  Ti  Ti469  1  0.25859000  0.54186400  0.17239552  1.0
  Ti  Ti470  1  0.25859000  0.87519733  0.17239552  1.0
  Ti  Ti471  1  0.59192333  0.20853067  0.17239552  1.0
  Ti  Ti472  1  0.59192333  0.54186400  0.17239552  1.0
  Ti  Ti473  1  0.59192333  0.87519733  0.17239552  1.0
  Ti  Ti474  1  0.92525667  0.20853067  0.17239552  1.0
  Ti  Ti475  1  0.92525667  0.54186400  0.17239552  1.0
  Ti  Ti476  1  0.92525667  0.87519733  0.17239552  1.0
  Ti  Ti477  1  0.25859000  0.04186400  0.21406219  1.0
  Ti  Ti478  1  0.25859000  0.37519733  0.21406219  1.0
  Ti  Ti479  1  0.25859000  0.70853067  0.21406219  1.0
  Ti  Ti480  1  0.59192333  0.04186400  0.21406219  1.0
  Ti  Ti481  1  0.59192333  0.37519733  0.21406219  1.0
  Ti  Ti482  1  0.59192333  0.70853067  0.21406219  1.0
  Ti  Ti483  1  0.92525667  0.04186400  0.21406219  1.0
  Ti  Ti484  1  0.92525667  0.37519733  0.21406219  1.0
  Ti  Ti485  1  0.92525667  0.70853067  0.21406219  1.0
  Ti  Ti486  1  0.26836800  0.26418167  0.24543519  1.0
  Ti  Ti487  1  0.26836800  0.59751500  0.24543519  1.0
  Ti  Ti488  1  0.26836800  0.93084833  0.24543519  1.0
  Ti  Ti489  1  0.60170133  0.26418167  0.24543519  1.0
  Ti  Ti490  1  0.60170133  0.59751500  0.24543519  1.0
  Ti  Ti491  1  0.60170133  0.93084833  0.24543519  1.0
  Ti  Ti492  1  0.93503467  0.26418167  0.24543519  1.0
  Ti  Ti493  1  0.93503467  0.59751500  0.24543519  1.0
  Ti  Ti494  1  0.93503467  0.93084833  0.24543519  1.0
  Ti  Ti495  1  0.26836800  0.09751500  0.20376852  1.0
  Ti  Ti496  1  0.26836800  0.43084833  0.20376852  1.0
  Ti  Ti497  1  0.26836800  0.76418167  0.20376852  1.0
  Ti  Ti498  1  0.60170133  0.09751500  0.20376852  1.0
  Ti  Ti499  1  0.60170133  0.43084833  0.20376852  1.0
  Ti  Ti500  1  0.60170133  0.76418167  0.20376852  1.0
  Ti  Ti501  1  0.93503467  0.09751500  0.20376852  1.0
  Ti  Ti502  1  0.93503467  0.43084833  0.20376852  1.0
  Ti  Ti503  1  0.93503467  0.76418167  0.20376852  1.0
  Ti  Ti504  1  0.06496533  0.23581833  0.20441952  1.0
  Ti  Ti505  1  0.06496533  0.56915167  0.20441952  1.0
  Ti  Ti506  1  0.06496533  0.90248500  0.20441952  1.0
  Ti  Ti507  1  0.39829867  0.23581833  0.20441952  1.0
  Ti  Ti508  1  0.39829867  0.56915167  0.20441952  1.0
  Ti  Ti509  1  0.39829867  0.90248500  0.20441952  1.0
  Ti  Ti510  1  0.73163200  0.23581833  0.20441952  1.0
  Ti  Ti511  1  0.73163200  0.56915167  0.20441952  1.0
  Ti  Ti512  1  0.73163200  0.90248500  0.20441952  1.0
  Ti  Ti513  1  0.06496533  0.06915167  0.24608619  1.0
  Ti  Ti514  1  0.06496533  0.40248500  0.24608619  1.0
  Ti  Ti515  1  0.06496533  0.73581833  0.24608619  1.0
  Ti  Ti516  1  0.39829867  0.06915167  0.24608619  1.0
  Ti  Ti517  1  0.39829867  0.40248500  0.24608619  1.0
  Ti  Ti518  1  0.39829867  0.73581833  0.24608619  1.0
  Ti  Ti519  1  0.73163200  0.06915167  0.24608619  1.0
  Ti  Ti520  1  0.73163200  0.40248500  0.24608619  1.0
  Ti  Ti521  1  0.73163200  0.73581833  0.24608619  1.0
  Ti  Ti522  1  0.07474333  0.29146933  0.19412585  1.0
  Ti  Ti523  1  0.07474333  0.62480267  0.19412585  1.0
  Ti  Ti524  1  0.07474333  0.95813600  0.19412585  1.0
  Ti  Ti525  1  0.40807667  0.29146933  0.19412585  1.0
  Ti  Ti526  1  0.40807667  0.62480267  0.19412585  1.0
  Ti  Ti527  1  0.40807667  0.95813600  0.19412585  1.0
  Ti  Ti528  1  0.74141000  0.29146933  0.19412585  1.0
  Ti  Ti529  1  0.74141000  0.62480267  0.19412585  1.0
  Ti  Ti530  1  0.74141000  0.95813600  0.19412585  1.0
  Ti  Ti531  1  0.07474333  0.12480267  0.23579252  1.0
  Ti  Ti532  1  0.07474333  0.45813600  0.23579252  1.0
  Ti  Ti533  1  0.07474333  0.79146933  0.23579252  1.0
  Ti  Ti534  1  0.40807667  0.12480267  0.23579252  1.0
  Ti  Ti535  1  0.40807667  0.45813600  0.23579252  1.0
  Ti  Ti536  1  0.40807667  0.79146933  0.23579252  1.0
  Ti  Ti537  1  0.74141000  0.12480267  0.23579252  1.0
  Ti  Ti538  1  0.74141000  0.45813600  0.23579252  1.0
  Ti  Ti539  1  0.74141000  0.79146933  0.23579252  1.0
  Ni  Ni540  1  0.10905400  0.31919550  0.22263340  1.0
  Ni  Ni541  1  0.10905400  0.65252883  0.22263340  1.0
  Ni  Ni542  1  0.10905400  0.98586217  0.22263340  1.0
  Ni  Ni543  1  0.44238733  0.31919550  0.22263340  1.0
  Ni  Ni544  1  0.44238733  0.65252883  0.22263340  1.0
  Ni  Ni545  1  0.44238733  0.98586217  0.22263340  1.0
  Ni  Ni546  1  0.77572067  0.31919550  0.22263340  1.0
  Ni  Ni547  1  0.77572067  0.65252883  0.22263340  1.0
  Ni  Ni548  1  0.77572067  0.98586217  0.22263340  1.0
  Ni  Ni549  1  0.10905400  0.15252883  0.18096673  1.0
  Ni  Ni550  1  0.10905400  0.48586217  0.18096673  1.0
  Ni  Ni551  1  0.10905400  0.81919550  0.18096673  1.0
  Ni  Ni552  1  0.44238733  0.15252883  0.18096673  1.0
  Ni  Ni553  1  0.44238733  0.48586217  0.18096673  1.0
  Ni  Ni554  1  0.44238733  0.81919550  0.18096673  1.0
  Ni  Ni555  1  0.77572067  0.15252883  0.18096673  1.0
  Ni  Ni556  1  0.77572067  0.48586217  0.18096673  1.0
  Ni  Ni557  1  0.77572067  0.81919550  0.18096673  1.0
  Ni  Ni558  1  0.11131233  0.26371700  0.23630119  1.0
  Ni  Ni559  1  0.11131233  0.59705033  0.23630119  1.0
  Ni  Ni560  1  0.11131233  0.93038367  0.23630119  1.0
  Ni  Ni561  1  0.44464567  0.26371700  0.23630119  1.0
  Ni  Ni562  1  0.44464567  0.59705033  0.23630119  1.0
  Ni  Ni563  1  0.44464567  0.93038367  0.23630119  1.0
  Ni  Ni564  1  0.77797900  0.26371700  0.23630119  1.0
  Ni  Ni565  1  0.77797900  0.59705033  0.23630119  1.0
  Ni  Ni566  1  0.77797900  0.93038367  0.23630119  1.0
  Ni  Ni567  1  0.11131233  0.09705033  0.19463452  1.0
  Ni  Ni568  1  0.11131233  0.43038367  0.19463452  1.0
  Ni  Ni569  1  0.11131233  0.76371700  0.19463452  1.0
  Ni  Ni570  1  0.44464567  0.09705033  0.19463452  1.0
  Ni  Ni571  1  0.44464567  0.43038367  0.19463452  1.0
  Ni  Ni572  1  0.44464567  0.76371700  0.19463452  1.0
  Ni  Ni573  1  0.77797900  0.09705033  0.19463452  1.0
  Ni  Ni574  1  0.77797900  0.43038367  0.19463452  1.0
  Ni  Ni575  1  0.77797900  0.76371700  0.19463452  1.0
  Ni  Ni576  1  0.10355333  0.20793317  0.24674156  1.0
  Ni  Ni577  1  0.10355333  0.54126650  0.24674156  1.0
  Ni  Ni578  1  0.10355333  0.87459983  0.24674156  1.0
  Ni  Ni579  1  0.43688667  0.20793317  0.24674156  1.0
  Ni  Ni580  1  0.43688667  0.54126650  0.24674156  1.0
  Ni  Ni581  1  0.43688667  0.87459983  0.24674156  1.0
  Ni  Ni582  1  0.77022000  0.20793317  0.24674156  1.0
  Ni  Ni583  1  0.77022000  0.54126650  0.24674156  1.0
  Ni  Ni584  1  0.77022000  0.87459983  0.24674156  1.0
  Ni  Ni585  1  0.10355333  0.04126650  0.20507490  1.0
  Ni  Ni586  1  0.10355333  0.37459983  0.20507490  1.0
  Ni  Ni587  1  0.10355333  0.70793317  0.20507490  1.0
  Ni  Ni588  1  0.43688667  0.04126650  0.20507490  1.0
  Ni  Ni589  1  0.43688667  0.37459983  0.20507490  1.0
  Ni  Ni590  1  0.43688667  0.70793317  0.20507490  1.0
  Ni  Ni591  1  0.77022000  0.04126650  0.20507490  1.0
  Ni  Ni592  1  0.77022000  0.37459983  0.20507490  1.0
  Ni  Ni593  1  0.77022000  0.70793317  0.20507490  1.0
  Ni  Ni594  1  0.22427933  0.18080450  0.22722131  1.0
  Ni  Ni595  1  0.22427933  0.51413783  0.22722131  1.0
  Ni  Ni596  1  0.22427933  0.84747117  0.22722131  1.0
  Ni  Ni597  1  0.55761267  0.18080450  0.22722131  1.0
  Ni  Ni598  1  0.55761267  0.51413783  0.22722131  1.0
  Ni  Ni599  1  0.55761267  0.84747117  0.22722131  1.0
  Ni  Ni600  1  0.89094600  0.18080450  0.22722131  1.0
  Ni  Ni601  1  0.89094600  0.51413783  0.22722131  1.0
  Ni  Ni602  1  0.89094600  0.84747117  0.22722131  1.0
  Ni  Ni603  1  0.22427933  0.01413783  0.18555465  1.0
  Ni  Ni604  1  0.22427933  0.34747117  0.18555465  1.0
  Ni  Ni605  1  0.22427933  0.68080450  0.18555465  1.0
  Ni  Ni606  1  0.55761267  0.01413783  0.18555465  1.0
  Ni  Ni607  1  0.55761267  0.34747117  0.18555465  1.0
  Ni  Ni608  1  0.55761267  0.68080450  0.18555465  1.0
  Ni  Ni609  1  0.89094600  0.01413783  0.18555465  1.0
  Ni  Ni610  1  0.89094600  0.34747117  0.18555465  1.0
  Ni  Ni611  1  0.89094600  0.68080450  0.18555465  1.0
  Ni  Ni612  1  0.22202100  0.23628300  0.21355352  1.0
  Ni  Ni613  1  0.22202100  0.56961633  0.21355352  1.0
  Ni  Ni614  1  0.22202100  0.90294967  0.21355352  1.0
  Ni  Ni615  1  0.55535433  0.23628300  0.21355352  1.0
  Ni  Ni616  1  0.55535433  0.56961633  0.21355352  1.0
  Ni  Ni617  1  0.55535433  0.90294967  0.21355352  1.0
  Ni  Ni618  1  0.88868767  0.23628300  0.21355352  1.0
  Ni  Ni619  1  0.88868767  0.56961633  0.21355352  1.0
  Ni  Ni620  1  0.88868767  0.90294967  0.21355352  1.0
  Ni  Ni621  1  0.22202100  0.06961633  0.17188685  1.0
  Ni  Ni622  1  0.22202100  0.40294967  0.17188685  1.0
  Ni  Ni623  1  0.22202100  0.73628300  0.17188685  1.0
  Ni  Ni624  1  0.55535433  0.06961633  0.17188685  1.0
  Ni  Ni625  1  0.55535433  0.40294967  0.17188685  1.0
  Ni  Ni626  1  0.55535433  0.73628300  0.17188685  1.0
  Ni  Ni627  1  0.88868767  0.06961633  0.17188685  1.0
  Ni  Ni628  1  0.88868767  0.40294967  0.17188685  1.0
  Ni  Ni629  1  0.88868767  0.73628300  0.17188685  1.0
  Ni  Ni630  1  0.22978000  0.29206683  0.20311315  1.0
  Ni  Ni631  1  0.22978000  0.62540017  0.20311315  1.0
  Ni  Ni632  1  0.22978000  0.95873350  0.20311315  1.0
  Ni  Ni633  1  0.56311333  0.29206683  0.20311315  1.0
  Ni  Ni634  1  0.56311333  0.62540017  0.20311315  1.0
  Ni  Ni635  1  0.56311333  0.95873350  0.20311315  1.0
  Ni  Ni636  1  0.89644667  0.29206683  0.20311315  1.0
  Ni  Ni637  1  0.89644667  0.62540017  0.20311315  1.0
  Ni  Ni638  1  0.89644667  0.95873350  0.20311315  1.0
  Ni  Ni639  1  0.22978000  0.12540017  0.24477981  1.0
  Ni  Ni640  1  0.22978000  0.45873350  0.24477981  1.0
  Ni  Ni641  1  0.22978000  0.79206683  0.24477981  1.0
  Ni  Ni642  1  0.56311333  0.12540017  0.24477981  1.0
  Ni  Ni643  1  0.56311333  0.45873350  0.24477981  1.0
  Ni  Ni644  1  0.56311333  0.79206683  0.24477981  1.0
  Ni  Ni645  1  0.89644667  0.12540017  0.24477981  1.0
  Ni  Ni646  1  0.89644667  0.45873350  0.24477981  1.0
  Ni  Ni647  1  0.89644667  0.79206683  0.24477981  1.0
  Ti  Ti648  1  0.06757633  0.18040267  0.30227727  1.0
  Ti  Ti649  1  0.06757633  0.51373600  0.30227727  1.0
  Ti  Ti650  1  0.06757633  0.84706933  0.30227727  1.0
  Ti  Ti651  1  0.40090967  0.18040267  0.30227727  1.0
  Ti  Ti652  1  0.40090967  0.51373600  0.30227727  1.0
  Ti  Ti653  1  0.40090967  0.84706933  0.30227727  1.0
  Ti  Ti654  1  0.73424300  0.18040267  0.30227727  1.0
  Ti  Ti655  1  0.73424300  0.51373600  0.30227727  1.0
  Ti  Ti656  1  0.73424300  0.84706933  0.30227727  1.0
  Ti  Ti657  1  0.06757633  0.01373600  0.26061060  1.0
  Ti  Ti658  1  0.06757633  0.34706933  0.26061060  1.0
  Ti  Ti659  1  0.06757633  0.68040267  0.26061060  1.0
  Ti  Ti660  1  0.40090967  0.01373600  0.26061060  1.0
  Ti  Ti661  1  0.40090967  0.34706933  0.26061060  1.0
  Ti  Ti662  1  0.40090967  0.68040267  0.26061060  1.0
  Ti  Ti663  1  0.73424300  0.01373600  0.26061060  1.0
  Ti  Ti664  1  0.73424300  0.34706933  0.26061060  1.0
  Ti  Ti665  1  0.73424300  0.68040267  0.26061060  1.0
  Ti  Ti666  1  0.26575700  0.31959733  0.31424410  1.0
  Ti  Ti667  1  0.26575700  0.65293067  0.31424410  1.0
  Ti  Ti668  1  0.26575700  0.98626400  0.31424410  1.0
  Ti  Ti669  1  0.59909033  0.31959733  0.31424410  1.0
  Ti  Ti670  1  0.59909033  0.65293067  0.31424410  1.0
  Ti  Ti671  1  0.59909033  0.98626400  0.31424410  1.0
  Ti  Ti672  1  0.93242367  0.31959733  0.31424410  1.0
  Ti  Ti673  1  0.93242367  0.65293067  0.31424410  1.0
  Ti  Ti674  1  0.93242367  0.98626400  0.31424410  1.0
  Ti  Ti675  1  0.26575700  0.15293067  0.27257744  1.0
  Ti  Ti676  1  0.26575700  0.48626400  0.27257744  1.0
  Ti  Ti677  1  0.26575700  0.81959733  0.27257744  1.0
  Ti  Ti678  1  0.59909033  0.15293067  0.27257744  1.0
  Ti  Ti679  1  0.59909033  0.48626400  0.27257744  1.0
  Ti  Ti680  1  0.59909033  0.81959733  0.27257744  1.0
  Ti  Ti681  1  0.93242367  0.15293067  0.27257744  1.0
  Ti  Ti682  1  0.93242367  0.48626400  0.27257744  1.0
  Ti  Ti683  1  0.93242367  0.81959733  0.27257744  1.0
  Ti  Ti684  1  0.25859000  0.20853067  0.25572885  1.0
  Ti  Ti685  1  0.25859000  0.54186400  0.25572885  1.0
  Ti  Ti686  1  0.25859000  0.87519733  0.25572885  1.0
  Ti  Ti687  1  0.59192333  0.20853067  0.25572885  1.0
  Ti  Ti688  1  0.59192333  0.54186400  0.25572885  1.0
  Ti  Ti689  1  0.59192333  0.87519733  0.25572885  1.0
  Ti  Ti690  1  0.92525667  0.20853067  0.25572885  1.0
  Ti  Ti691  1  0.92525667  0.54186400  0.25572885  1.0
  Ti  Ti692  1  0.92525667  0.87519733  0.25572885  1.0
  Ti  Ti693  1  0.25859000  0.04186400  0.29739552  1.0
  Ti  Ti694  1  0.25859000  0.37519733  0.29739552  1.0
  Ti  Ti695  1  0.25859000  0.70853067  0.29739552  1.0
  Ti  Ti696  1  0.59192333  0.04186400  0.29739552  1.0
  Ti  Ti697  1  0.59192333  0.37519733  0.29739552  1.0
  Ti  Ti698  1  0.59192333  0.70853067  0.29739552  1.0
  Ti  Ti699  1  0.92525667  0.04186400  0.29739552  1.0
  Ti  Ti700  1  0.92525667  0.37519733  0.29739552  1.0
  Ti  Ti701  1  0.92525667  0.70853067  0.29739552  1.0
  Ti  Ti702  1  0.26836800  0.26418167  0.32876852  1.0
  Ti  Ti703  1  0.26836800  0.59751500  0.32876852  1.0
  Ti  Ti704  1  0.26836800  0.93084833  0.32876852  1.0
  Ti  Ti705  1  0.60170133  0.26418167  0.32876852  1.0
  Ti  Ti706  1  0.60170133  0.59751500  0.32876852  1.0
  Ti  Ti707  1  0.60170133  0.93084833  0.32876852  1.0
  Ti  Ti708  1  0.93503467  0.26418167  0.32876852  1.0
  Ti  Ti709  1  0.93503467  0.59751500  0.32876852  1.0
  Ti  Ti710  1  0.93503467  0.93084833  0.32876852  1.0
  Ti  Ti711  1  0.26836800  0.09751500  0.28710185  1.0
  Ti  Ti712  1  0.26836800  0.43084833  0.28710185  1.0
  Ti  Ti713  1  0.26836800  0.76418167  0.28710185  1.0
  Ti  Ti714  1  0.60170133  0.09751500  0.28710185  1.0
  Ti  Ti715  1  0.60170133  0.43084833  0.28710185  1.0
  Ti  Ti716  1  0.60170133  0.76418167  0.28710185  1.0
  Ti  Ti717  1  0.93503467  0.09751500  0.28710185  1.0
  Ti  Ti718  1  0.93503467  0.43084833  0.28710185  1.0
  Ti  Ti719  1  0.93503467  0.76418167  0.28710185  1.0
  Ti  Ti720  1  0.06496533  0.23581833  0.28775285  1.0
  Ti  Ti721  1  0.06496533  0.56915167  0.28775285  1.0
  Ti  Ti722  1  0.06496533  0.90248500  0.28775285  1.0
  Ti  Ti723  1  0.39829867  0.23581833  0.28775285  1.0
  Ti  Ti724  1  0.39829867  0.56915167  0.28775285  1.0
  Ti  Ti725  1  0.39829867  0.90248500  0.28775285  1.0
  Ti  Ti726  1  0.73163200  0.23581833  0.28775285  1.0
  Ti  Ti727  1  0.73163200  0.56915167  0.28775285  1.0
  Ti  Ti728  1  0.73163200  0.90248500  0.28775285  1.0
  Ti  Ti729  1  0.06496533  0.06915167  0.32941952  1.0
  Ti  Ti730  1  0.06496533  0.40248500  0.32941952  1.0
  Ti  Ti731  1  0.06496533  0.73581833  0.32941952  1.0
  Ti  Ti732  1  0.39829867  0.06915167  0.32941952  1.0
  Ti  Ti733  1  0.39829867  0.40248500  0.32941952  1.0
  Ti  Ti734  1  0.39829867  0.73581833  0.32941952  1.0
  Ti  Ti735  1  0.73163200  0.06915167  0.32941952  1.0
  Ti  Ti736  1  0.73163200  0.40248500  0.32941952  1.0
  Ti  Ti737  1  0.73163200  0.73581833  0.32941952  1.0
  Ti  Ti738  1  0.07474333  0.29146933  0.27745919  1.0
  Ti  Ti739  1  0.07474333  0.62480267  0.27745919  1.0
  Ti  Ti740  1  0.07474333  0.95813600  0.27745919  1.0
  Ti  Ti741  1  0.40807667  0.29146933  0.27745919  1.0
  Ti  Ti742  1  0.40807667  0.62480267  0.27745919  1.0
  Ti  Ti743  1  0.40807667  0.95813600  0.27745919  1.0
  Ti  Ti744  1  0.74141000  0.29146933  0.27745919  1.0
  Ti  Ti745  1  0.74141000  0.62480267  0.27745919  1.0
  Ti  Ti746  1  0.74141000  0.95813600  0.27745919  1.0
  Ti  Ti747  1  0.07474333  0.12480267  0.31912585  1.0
  Ti  Ti748  1  0.07474333  0.45813600  0.31912585  1.0
  Ti  Ti749  1  0.07474333  0.79146933  0.31912585  1.0
  Ti  Ti750  1  0.40807667  0.12480267  0.31912585  1.0
  Ti  Ti751  1  0.40807667  0.45813600  0.31912585  1.0
  Ti  Ti752  1  0.40807667  0.79146933  0.31912585  1.0
  Ti  Ti753  1  0.74141000  0.12480267  0.31912585  1.0
  Ti  Ti754  1  0.74141000  0.45813600  0.31912585  1.0
  Ti  Ti755  1  0.74141000  0.79146933  0.31912585  1.0
  Ni  Ni756  1  0.10905400  0.31919550  0.30596673  1.0
  Ni  Ni757  1  0.10905400  0.65252883  0.30596673  1.0
  Ni  Ni758  1  0.10905400  0.98586217  0.30596673  1.0
  Ni  Ni759  1  0.44238733  0.31919550  0.30596673  1.0
  Ni  Ni760  1  0.44238733  0.65252883  0.30596673  1.0
  Ni  Ni761  1  0.44238733  0.98586217  0.30596673  1.0
  Ni  Ni762  1  0.77572067  0.31919550  0.30596673  1.0
  Ni  Ni763  1  0.77572067  0.65252883  0.30596673  1.0
  Ni  Ni764  1  0.77572067  0.98586217  0.30596673  1.0
  Ni  Ni765  1  0.10905400  0.15252883  0.26430006  1.0
  Ni  Ni766  1  0.10905400  0.48586217  0.26430006  1.0
  Ni  Ni767  1  0.10905400  0.81919550  0.26430006  1.0
  Ni  Ni768  1  0.44238733  0.15252883  0.26430006  1.0
  Ni  Ni769  1  0.44238733  0.48586217  0.26430006  1.0
  Ni  Ni770  1  0.44238733  0.81919550  0.26430006  1.0
  Ni  Ni771  1  0.77572067  0.15252883  0.26430006  1.0
  Ni  Ni772  1  0.77572067  0.48586217  0.26430006  1.0
  Ni  Ni773  1  0.77572067  0.81919550  0.26430006  1.0
  Ni  Ni774  1  0.11131233  0.26371700  0.31963452  1.0
  Ni  Ni775  1  0.11131233  0.59705033  0.31963452  1.0
  Ni  Ni776  1  0.11131233  0.93038367  0.31963452  1.0
  Ni  Ni777  1  0.44464567  0.26371700  0.31963452  1.0
  Ni  Ni778  1  0.44464567  0.59705033  0.31963452  1.0
  Ni  Ni779  1  0.44464567  0.93038367  0.31963452  1.0
  Ni  Ni780  1  0.77797900  0.26371700  0.31963452  1.0
  Ni  Ni781  1  0.77797900  0.59705033  0.31963452  1.0
  Ni  Ni782  1  0.77797900  0.93038367  0.31963452  1.0
  Ni  Ni783  1  0.11131233  0.09705033  0.27796785  1.0
  Ni  Ni784  1  0.11131233  0.43038367  0.27796785  1.0
  Ni  Ni785  1  0.11131233  0.76371700  0.27796785  1.0
  Ni  Ni786  1  0.44464567  0.09705033  0.27796785  1.0
  Ni  Ni787  1  0.44464567  0.43038367  0.27796785  1.0
  Ni  Ni788  1  0.44464567  0.76371700  0.27796785  1.0
  Ni  Ni789  1  0.77797900  0.09705033  0.27796785  1.0
  Ni  Ni790  1  0.77797900  0.43038367  0.27796785  1.0
  Ni  Ni791  1  0.77797900  0.76371700  0.27796785  1.0
  Ni  Ni792  1  0.10355333  0.20793317  0.33007490  1.0
  Ni  Ni793  1  0.10355333  0.54126650  0.33007490  1.0
  Ni  Ni794  1  0.10355333  0.87459983  0.33007490  1.0
  Ni  Ni795  1  0.43688667  0.20793317  0.33007490  1.0
  Ni  Ni796  1  0.43688667  0.54126650  0.33007490  1.0
  Ni  Ni797  1  0.43688667  0.87459983  0.33007490  1.0
  Ni  Ni798  1  0.77022000  0.20793317  0.33007490  1.0
  Ni  Ni799  1  0.77022000  0.54126650  0.33007490  1.0
  Ni  Ni800  1  0.77022000  0.87459983  0.33007490  1.0
  Ni  Ni801  1  0.10355333  0.04126650  0.28840823  1.0
  Ni  Ni802  1  0.10355333  0.37459983  0.28840823  1.0
  Ni  Ni803  1  0.10355333  0.70793317  0.28840823  1.0
  Ni  Ni804  1  0.43688667  0.04126650  0.28840823  1.0
  Ni  Ni805  1  0.43688667  0.37459983  0.28840823  1.0
  Ni  Ni806  1  0.43688667  0.70793317  0.28840823  1.0
  Ni  Ni807  1  0.77022000  0.04126650  0.28840823  1.0
  Ni  Ni808  1  0.77022000  0.37459983  0.28840823  1.0
  Ni  Ni809  1  0.77022000  0.70793317  0.28840823  1.0
  Ni  Ni810  1  0.22427933  0.18080450  0.31055465  1.0
  Ni  Ni811  1  0.22427933  0.51413783  0.31055465  1.0
  Ni  Ni812  1  0.22427933  0.84747117  0.31055465  1.0
  Ni  Ni813  1  0.55761267  0.18080450  0.31055465  1.0
  Ni  Ni814  1  0.55761267  0.51413783  0.31055465  1.0
  Ni  Ni815  1  0.55761267  0.84747117  0.31055465  1.0
  Ni  Ni816  1  0.89094600  0.18080450  0.31055465  1.0
  Ni  Ni817  1  0.89094600  0.51413783  0.31055465  1.0
  Ni  Ni818  1  0.89094600  0.84747117  0.31055465  1.0
  Ni  Ni819  1  0.22427933  0.01413783  0.26888798  1.0
  Ni  Ni820  1  0.22427933  0.34747117  0.26888798  1.0
  Ni  Ni821  1  0.22427933  0.68080450  0.26888798  1.0
  Ni  Ni822  1  0.55761267  0.01413783  0.26888798  1.0
  Ni  Ni823  1  0.55761267  0.34747117  0.26888798  1.0
  Ni  Ni824  1  0.55761267  0.68080450  0.26888798  1.0
  Ni  Ni825  1  0.89094600  0.01413783  0.26888798  1.0
  Ni  Ni826  1  0.89094600  0.34747117  0.26888798  1.0
  Ni  Ni827  1  0.89094600  0.68080450  0.26888798  1.0
  Ni  Ni828  1  0.22202100  0.23628300  0.29688685  1.0
  Ni  Ni829  1  0.22202100  0.56961633  0.29688685  1.0
  Ni  Ni830  1  0.22202100  0.90294967  0.29688685  1.0
  Ni  Ni831  1  0.55535433  0.23628300  0.29688685  1.0
  Ni  Ni832  1  0.55535433  0.56961633  0.29688685  1.0
  Ni  Ni833  1  0.55535433  0.90294967  0.29688685  1.0
  Ni  Ni834  1  0.88868767  0.23628300  0.29688685  1.0
  Ni  Ni835  1  0.88868767  0.56961633  0.29688685  1.0
  Ni  Ni836  1  0.88868767  0.90294967  0.29688685  1.0
  Ni  Ni837  1  0.22202100  0.06961633  0.25522019  1.0
  Ni  Ni838  1  0.22202100  0.40294967  0.25522019  1.0
  Ni  Ni839  1  0.22202100  0.73628300  0.25522019  1.0
  Ni  Ni840  1  0.55535433  0.06961633  0.25522019  1.0
  Ni  Ni841  1  0.55535433  0.40294967  0.25522019  1.0
  Ni  Ni842  1  0.55535433  0.73628300  0.25522019  1.0
  Ni  Ni843  1  0.88868767  0.06961633  0.25522019  1.0
  Ni  Ni844  1  0.88868767  0.40294967  0.25522019  1.0
  Ni  Ni845  1  0.88868767  0.73628300  0.25522019  1.0
  Ni  Ni846  1  0.22978000  0.29206683  0.28644648  1.0
  Ni  Ni847  1  0.22978000  0.62540017  0.28644648  1.0
  Ni  Ni848  1  0.22978000  0.95873350  0.28644648  1.0
  Ni  Ni849  1  0.56311333  0.29206683  0.28644648  1.0
  Ni  Ni850  1  0.56311333  0.62540017  0.28644648  1.0
  Ni  Ni851  1  0.56311333  0.95873350  0.28644648  1.0
  Ni  Ni852  1  0.89644667  0.29206683  0.28644648  1.0
  Ni  Ni853  1  0.89644667  0.62540017  0.28644648  1.0
  Ni  Ni854  1  0.89644667  0.95873350  0.28644648  1.0
  Ni  Ni855  1  0.22978000  0.12540017  0.32811315  1.0
  Ni  Ni856  1  0.22978000  0.45873350  0.32811315  1.0
  Ni  Ni857  1  0.22978000  0.79206683  0.32811315  1.0
  Ni  Ni858  1  0.56311333  0.12540017  0.32811315  1.0
  Ni  Ni859  1  0.56311333  0.45873350  0.32811315  1.0
  Ni  Ni860  1  0.56311333  0.79206683  0.32811315  1.0
  Ni  Ni861  1  0.89644667  0.12540017  0.32811315  1.0
  Ni  Ni862  1  0.89644667  0.45873350  0.32811315  1.0
  Ni  Ni863  1  0.89644667  0.79206683  0.32811315  1.0
  Ti  Ti864  1  0.06757633  0.18040267  0.38561060  1.0
  Ti  Ti865  1  0.06757633  0.51373600  0.38561060  1.0
  Ti  Ti866  1  0.06757633  0.84706933  0.38561060  1.0
  Ti  Ti867  1  0.40090967  0.18040267  0.38561060  1.0
  Ti  Ti868  1  0.40090967  0.51373600  0.38561060  1.0
  Ti  Ti869  1  0.40090967  0.84706933  0.38561060  1.0
  Ti  Ti870  1  0.73424300  0.18040267  0.38561060  1.0
  Ti  Ti871  1  0.73424300  0.51373600  0.38561060  1.0
  Ti  Ti872  1  0.73424300  0.84706933  0.38561060  1.0
  Ti  Ti873  1  0.06757633  0.01373600  0.34394394  1.0
  Ti  Ti874  1  0.06757633  0.34706933  0.34394394  1.0
  Ti  Ti875  1  0.06757633  0.68040267  0.34394394  1.0
  Ti  Ti876  1  0.40090967  0.01373600  0.34394394  1.0
  Ti  Ti877  1  0.40090967  0.34706933  0.34394394  1.0
  Ti  Ti878  1  0.40090967  0.68040267  0.34394394  1.0
  Ti  Ti879  1  0.73424300  0.01373600  0.34394394  1.0
  Ti  Ti880  1  0.73424300  0.34706933  0.34394394  1.0
  Ti  Ti881  1  0.73424300  0.68040267  0.34394394  1.0
  Ti  Ti882  1  0.26575700  0.31959733  0.39757744  1.0
  Ti  Ti883  1  0.26575700  0.65293067  0.39757744  1.0
  Ti  Ti884  1  0.26575700  0.98626400  0.39757744  1.0
  Ti  Ti885  1  0.59909033  0.31959733  0.39757744  1.0
  Ti  Ti886  1  0.59909033  0.65293067  0.39757744  1.0
  Ti  Ti887  1  0.59909033  0.98626400  0.39757744  1.0
  Ti  Ti888  1  0.93242367  0.31959733  0.39757744  1.0
  Ti  Ti889  1  0.93242367  0.65293067  0.39757744  1.0
  Ti  Ti890  1  0.93242367  0.98626400  0.39757744  1.0
  Ti  Ti891  1  0.26575700  0.15293067  0.35591077  1.0
  Ti  Ti892  1  0.26575700  0.48626400  0.35591077  1.0
  Ti  Ti893  1  0.26575700  0.81959733  0.35591077  1.0
  Ti  Ti894  1  0.59909033  0.15293067  0.35591077  1.0
  Ti  Ti895  1  0.59909033  0.48626400  0.35591077  1.0
  Ti  Ti896  1  0.59909033  0.81959733  0.35591077  1.0
  Ti  Ti897  1  0.93242367  0.15293067  0.35591077  1.0
  Ti  Ti898  1  0.93242367  0.48626400  0.35591077  1.0
  Ti  Ti899  1  0.93242367  0.81959733  0.35591077  1.0
  Ti  Ti900  1  0.25859000  0.20853067  0.33906219  1.0
  Ti  Ti901  1  0.25859000  0.54186400  0.33906219  1.0
  Ti  Ti902  1  0.25859000  0.87519733  0.33906219  1.0
  Ti  Ti903  1  0.59192333  0.20853067  0.33906219  1.0
  Ti  Ti904  1  0.59192333  0.54186400  0.33906219  1.0
  Ti  Ti905  1  0.59192333  0.87519733  0.33906219  1.0
  Ti  Ti906  1  0.92525667  0.20853067  0.33906219  1.0
  Ti  Ti907  1  0.92525667  0.54186400  0.33906219  1.0
  Ti  Ti908  1  0.92525667  0.87519733  0.33906219  1.0
  Ti  Ti909  1  0.25859000  0.04186400  0.38072885  1.0
  Ti  Ti910  1  0.25859000  0.37519733  0.38072885  1.0
  Ti  Ti911  1  0.25859000  0.70853067  0.38072885  1.0
  Ti  Ti912  1  0.59192333  0.04186400  0.38072885  1.0
  Ti  Ti913  1  0.59192333  0.37519733  0.38072885  1.0
  Ti  Ti914  1  0.59192333  0.70853067  0.38072885  1.0
  Ti  Ti915  1  0.92525667  0.04186400  0.38072885  1.0
  Ti  Ti916  1  0.92525667  0.37519733  0.38072885  1.0
  Ti  Ti917  1  0.92525667  0.70853067  0.38072885  1.0
  Ti  Ti918  1  0.26836800  0.26418167  0.41210185  1.0
  Ti  Ti919  1  0.26836800  0.59751500  0.41210185  1.0
  Ti  Ti920  1  0.26836800  0.93084833  0.41210185  1.0
  Ti  Ti921  1  0.60170133  0.26418167  0.41210185  1.0
  Ti  Ti922  1  0.60170133  0.59751500  0.41210185  1.0
  Ti  Ti923  1  0.60170133  0.93084833  0.41210185  1.0
  Ti  Ti924  1  0.93503467  0.26418167  0.41210185  1.0
  Ti  Ti925  1  0.93503467  0.59751500  0.41210185  1.0
  Ti  Ti926  1  0.93503467  0.93084833  0.41210185  1.0
  Ti  Ti927  1  0.26836800  0.09751500  0.37043519  1.0
  Ti  Ti928  1  0.26836800  0.43084833  0.37043519  1.0
  Ti  Ti929  1  0.26836800  0.76418167  0.37043519  1.0
  Ti  Ti930  1  0.60170133  0.09751500  0.37043519  1.0
  Ti  Ti931  1  0.60170133  0.43084833  0.37043519  1.0
  Ti  Ti932  1  0.60170133  0.76418167  0.37043519  1.0
  Ti  Ti933  1  0.93503467  0.09751500  0.37043519  1.0
  Ti  Ti934  1  0.93503467  0.43084833  0.37043519  1.0
  Ti  Ti935  1  0.93503467  0.76418167  0.37043519  1.0
  Ti  Ti936  1  0.06496533  0.23581833  0.37108619  1.0
  Ti  Ti937  1  0.06496533  0.56915167  0.37108619  1.0
  Ti  Ti938  1  0.06496533  0.90248500  0.37108619  1.0
  Ti  Ti939  1  0.39829867  0.23581833  0.37108619  1.0
  Ti  Ti940  1  0.39829867  0.56915167  0.37108619  1.0
  Ti  Ti941  1  0.39829867  0.90248500  0.37108619  1.0
  Ti  Ti942  1  0.73163200  0.23581833  0.37108619  1.0
  Ti  Ti943  1  0.73163200  0.56915167  0.37108619  1.0
  Ti  Ti944  1  0.73163200  0.90248500  0.37108619  1.0
  Ti  Ti945  1  0.06496533  0.06915167  0.41275285  1.0
  Ti  Ti946  1  0.06496533  0.40248500  0.41275285  1.0
  Ti  Ti947  1  0.06496533  0.73581833  0.41275285  1.0
  Ti  Ti948  1  0.39829867  0.06915167  0.41275285  1.0
  Ti  Ti949  1  0.39829867  0.40248500  0.41275285  1.0
  Ti  Ti950  1  0.39829867  0.73581833  0.41275285  1.0
  Ti  Ti951  1  0.73163200  0.06915167  0.41275285  1.0
  Ti  Ti952  1  0.73163200  0.40248500  0.41275285  1.0
  Ti  Ti953  1  0.73163200  0.73581833  0.41275285  1.0
  Ti  Ti954  1  0.07474333  0.29146933  0.36079252  1.0
  Ti  Ti955  1  0.07474333  0.62480267  0.36079252  1.0
  Ti  Ti956  1  0.07474333  0.95813600  0.36079252  1.0
  Ti  Ti957  1  0.40807667  0.29146933  0.36079252  1.0
  Ti  Ti958  1  0.40807667  0.62480267  0.36079252  1.0
  Ti  Ti959  1  0.40807667  0.95813600  0.36079252  1.0
  Ti  Ti960  1  0.74141000  0.29146933  0.36079252  1.0
  Ti  Ti961  1  0.74141000  0.62480267  0.36079252  1.0
  Ti  Ti962  1  0.74141000  0.95813600  0.36079252  1.0
  Ti  Ti963  1  0.07474333  0.12480267  0.40245919  1.0
  Ti  Ti964  1  0.07474333  0.45813600  0.40245919  1.0
  Ti  Ti965  1  0.07474333  0.79146933  0.40245919  1.0
  Ti  Ti966  1  0.40807667  0.12480267  0.40245919  1.0
  Ti  Ti967  1  0.40807667  0.45813600  0.40245919  1.0
  Ti  Ti968  1  0.40807667  0.79146933  0.40245919  1.0
  Ti  Ti969  1  0.74141000  0.12480267  0.40245919  1.0
  Ti  Ti970  1  0.74141000  0.45813600  0.40245919  1.0
  Ti  Ti971  1  0.74141000  0.79146933  0.40245919  1.0
  Ni  Ni972  1  0.10905400  0.31919550  0.38930006  1.0
  Ni  Ni973  1  0.10905400  0.65252883  0.38930006  1.0
  Ni  Ni974  1  0.10905400  0.98586217  0.38930006  1.0
  Ni  Ni975  1  0.44238733  0.31919550  0.38930006  1.0
  Ni  Ni976  1  0.44238733  0.65252883  0.38930006  1.0
  Ni  Ni977  1  0.44238733  0.98586217  0.38930006  1.0
  Ni  Ni978  1  0.77572067  0.31919550  0.38930006  1.0
  Ni  Ni979  1  0.77572067  0.65252883  0.38930006  1.0
  Ni  Ni980  1  0.77572067  0.98586217  0.38930006  1.0
  Ni  Ni981  1  0.10905400  0.15252883  0.34763340  1.0
  Ni  Ni982  1  0.10905400  0.48586217  0.34763340  1.0
  Ni  Ni983  1  0.10905400  0.81919550  0.34763340  1.0
  Ni  Ni984  1  0.44238733  0.15252883  0.34763340  1.0
  Ni  Ni985  1  0.44238733  0.48586217  0.34763340  1.0
  Ni  Ni986  1  0.44238733  0.81919550  0.34763340  1.0
  Ni  Ni987  1  0.77572067  0.15252883  0.34763340  1.0
  Ni  Ni988  1  0.77572067  0.48586217  0.34763340  1.0
  Ni  Ni989  1  0.77572067  0.81919550  0.34763340  1.0
  Ni  Ni990  1  0.11131233  0.26371700  0.40296785  1.0
  Ni  Ni991  1  0.11131233  0.59705033  0.40296785  1.0
  Ni  Ni992  1  0.11131233  0.93038367  0.40296785  1.0
  Ni  Ni993  1  0.44464567  0.26371700  0.40296785  1.0
  Ni  Ni994  1  0.44464567  0.59705033  0.40296785  1.0
  Ni  Ni995  1  0.44464567  0.93038367  0.40296785  1.0
  Ni  Ni996  1  0.77797900  0.26371700  0.40296785  1.0
  Ni  Ni997  1  0.77797900  0.59705033  0.40296785  1.0
  Ni  Ni998  1  0.77797900  0.93038367  0.40296785  1.0
  Ni  Ni999  1  0.11131233  0.09705033  0.36130119  1.0
  Ni  Ni1000  1  0.11131233  0.43038367  0.36130119  1.0
  Ni  Ni1001  1  0.11131233  0.76371700  0.36130119  1.0
  Ni  Ni1002  1  0.44464567  0.09705033  0.36130119  1.0
  Ni  Ni1003  1  0.44464567  0.43038367  0.36130119  1.0
  Ni  Ni1004  1  0.44464567  0.76371700  0.36130119  1.0
  Ni  Ni1005  1  0.77797900  0.09705033  0.36130119  1.0
  Ni  Ni1006  1  0.77797900  0.43038367  0.36130119  1.0
  Ni  Ni1007  1  0.77797900  0.76371700  0.36130119  1.0
  Ni  Ni1008  1  0.10355333  0.20793317  0.41340823  1.0
  Ni  Ni1009  1  0.10355333  0.54126650  0.41340823  1.0
  Ni  Ni1010  1  0.10355333  0.87459983  0.41340823  1.0
  Ni  Ni1011  1  0.43688667  0.20793317  0.41340823  1.0
  Ni  Ni1012  1  0.43688667  0.54126650  0.41340823  1.0
  Ni  Ni1013  1  0.43688667  0.87459983  0.41340823  1.0
  Ni  Ni1014  1  0.77022000  0.20793317  0.41340823  1.0
  Ni  Ni1015  1  0.77022000  0.54126650  0.41340823  1.0
  Ni  Ni1016  1  0.77022000  0.87459983  0.41340823  1.0
  Ni  Ni1017  1  0.10355333  0.04126650  0.37174156  1.0
  Ni  Ni1018  1  0.10355333  0.37459983  0.37174156  1.0
  Ni  Ni1019  1  0.10355333  0.70793317  0.37174156  1.0
  Ni  Ni1020  1  0.43688667  0.04126650  0.37174156  1.0
  Ni  Ni1021  1  0.43688667  0.37459983  0.37174156  1.0
  Ni  Ni1022  1  0.43688667  0.70793317  0.37174156  1.0
  Ni  Ni1023  1  0.77022000  0.04126650  0.37174156  1.0
  Ni  Ni1024  1  0.77022000  0.37459983  0.37174156  1.0
  Ni  Ni1025  1  0.77022000  0.70793317  0.37174156  1.0
  Ni  Ni1026  1  0.22427933  0.18080450  0.39388798  1.0
  Ni  Ni1027  1  0.22427933  0.51413783  0.39388798  1.0
  Ni  Ni1028  1  0.22427933  0.84747117  0.39388798  1.0
  Ni  Ni1029  1  0.55761267  0.18080450  0.39388798  1.0
  Ni  Ni1030  1  0.55761267  0.51413783  0.39388798  1.0
  Ni  Ni1031  1  0.55761267  0.84747117  0.39388798  1.0
  Ni  Ni1032  1  0.89094600  0.18080450  0.39388798  1.0
  Ni  Ni1033  1  0.89094600  0.51413783  0.39388798  1.0
  Ni  Ni1034  1  0.89094600  0.84747117  0.39388798  1.0
  Ni  Ni1035  1  0.22427933  0.01413783  0.35222131  1.0
  Ni  Ni1036  1  0.22427933  0.34747117  0.35222131  1.0
  Ni  Ni1037  1  0.22427933  0.68080450  0.35222131  1.0
  Ni  Ni1038  1  0.55761267  0.01413783  0.35222131  1.0
  Ni  Ni1039  1  0.55761267  0.34747117  0.35222131  1.0
  Ni  Ni1040  1  0.55761267  0.68080450  0.35222131  1.0
  Ni  Ni1041  1  0.89094600  0.01413783  0.35222131  1.0
  Ni  Ni1042  1  0.89094600  0.34747117  0.35222131  1.0
  Ni  Ni1043  1  0.89094600  0.68080450  0.35222131  1.0
  Ni  Ni1044  1  0.22202100  0.23628300  0.38022019  1.0
  Ni  Ni1045  1  0.22202100  0.56961633  0.38022019  1.0
  Ni  Ni1046  1  0.22202100  0.90294967  0.38022019  1.0
  Ni  Ni1047  1  0.55535433  0.23628300  0.38022019  1.0
  Ni  Ni1048  1  0.55535433  0.56961633  0.38022019  1.0
  Ni  Ni1049  1  0.55535433  0.90294967  0.38022019  1.0
  Ni  Ni1050  1  0.88868767  0.23628300  0.38022019  1.0
  Ni  Ni1051  1  0.88868767  0.56961633  0.38022019  1.0
  Ni  Ni1052  1  0.88868767  0.90294967  0.38022019  1.0
  Ni  Ni1053  1  0.22202100  0.06961633  0.33855352  1.0
  Ni  Ni1054  1  0.22202100  0.40294967  0.33855352  1.0
  Ni  Ni1055  1  0.22202100  0.73628300  0.33855352  1.0
  Ni  Ni1056  1  0.55535433  0.06961633  0.33855352  1.0
  Ni  Ni1057  1  0.55535433  0.40294967  0.33855352  1.0
  Ni  Ni1058  1  0.55535433  0.73628300  0.33855352  1.0
  Ni  Ni1059  1  0.88868767  0.06961633  0.33855352  1.0
  Ni  Ni1060  1  0.88868767  0.40294967  0.33855352  1.0
  Ni  Ni1061  1  0.88868767  0.73628300  0.33855352  1.0
  Ni  Ni1062  1  0.22978000  0.29206683  0.36977981  1.0
  Ni  Ni1063  1  0.22978000  0.62540017  0.36977981  1.0
  Ni  Ni1064  1  0.22978000  0.95873350  0.36977981  1.0
  Ni  Ni1065  1  0.56311333  0.29206683  0.36977981  1.0
  Ni  Ni1066  1  0.56311333  0.62540017  0.36977981  1.0
  Ni  Ni1067  1  0.56311333  0.95873350  0.36977981  1.0
  Ni  Ni1068  1  0.89644667  0.29206683  0.36977981  1.0
  Ni  Ni1069  1  0.89644667  0.62540017  0.36977981  1.0
  Ni  Ni1070  1  0.89644667  0.95873350  0.36977981  1.0
  Ni  Ni1071  1  0.22978000  0.12540017  0.41144648  1.0
  Ni  Ni1072  1  0.22978000  0.45873350  0.41144648  1.0
  Ni  Ni1073  1  0.22978000  0.79206683  0.41144648  1.0
  Ni  Ni1074  1  0.56311333  0.12540017  0.41144648  1.0
  Ni  Ni1075  1  0.56311333  0.45873350  0.41144648  1.0
  Ni  Ni1076  1  0.56311333  0.79206683  0.41144648  1.0
  Ni  Ni1077  1  0.89644667  0.12540017  0.41144648  1.0
  Ni  Ni1078  1  0.89644667  0.45873350  0.41144648  1.0
  Ni  Ni1079  1  0.89644667  0.79206683  0.41144648  1.0
