# generated using pymatgen
data_TiNi3
_symmetry_space_group_name_H-M   'P 1'
_cell_length_a   29.24801029
_cell_length_b   36.37116283
_cell_length_c   29.56476281
_cell_angle_alpha   85.17791047
_cell_angle_beta   86.58950117
_cell_angle_gamma   75.23132076
_symmetry_Int_Tables_number   1
_chemical_formula_structural   TiNi3
_chemical_formula_sum   'Ti288 Ni864'
_cell_volume   30280.19976536
_cell_formula_units_Z   288
loop_
 _symmetry_equiv_pos_site_id
 _symmetry_equiv_pos_as_xyz
  1  'x, y, z'
loop_
 _atom_site_type_symbol
 _atom_site_label
 _atom_site_symmetry_multiplicity
 _atom_site_fract_x
 _atom_site_fract_y
 _atom_site_fract_z
 _atom_site_occupancy
  Ni  Ni0  1  0.19645417  0.33031875  0.91968125  1.0
  Ni  Ni1  1  0.19645417  0.66365208  0.91968125  1.0
  Ni  Ni2  1  0.19645417  0.99698542  0.91968125  1.0
  Ni  Ni3  1  0.52978750  0.33031875  0.91968125  1.0
  Ni  Ni4  1  0.52978750  0.66365208  0.91968125  1.0
  Ni  Ni5  1  0.52978750  0.99698542  0.91968125  1.0
  Ni  Ni6  1  0.86312083  0.33031875  0.91968125  1.0
  Ni  Ni7  1  0.86312083  0.66365208  0.91968125  1.0
  Ni  Ni8  1  0.86312083  0.99698542  0.91968125  1.0
  Ni  Ni9  1  0.06682454  0.10809653  0.97523681  1.0
  Ni  Ni10  1  0.06682454  0.44142986  0.97523681  1.0
  Ni  Ni11  1  0.06682454  0.77476319  0.97523681  1.0
  Ni  Ni12  1  0.40015787  0.10809653  0.97523681  1.0
  Ni  Ni13  1  0.40015787  0.44142986  0.97523681  1.0
  Ni  Ni14  1  0.40015787  0.77476319  0.97523681  1.0
  Ni  Ni15  1  0.73349120  0.10809653  0.97523681  1.0
  Ni  Ni16  1  0.73349120  0.44142986  0.97523681  1.0
  Ni  Ni17  1  0.73349120  0.77476319  0.97523681  1.0
  Ni  Ni18  1  0.06682454  0.27476319  0.97523681  1.0
  Ni  Ni19  1  0.06682454  0.60809653  0.97523681  1.0
  Ni  Ni20  1  0.06682454  0.94142986  0.97523681  1.0
  Ni  Ni21  1  0.40015787  0.27476319  0.97523681  1.0
  Ni  Ni22  1  0.40015787  0.60809653  0.97523681  1.0
  Ni  Ni23  1  0.40015787  0.94142986  0.97523681  1.0
  Ni  Ni24  1  0.73349120  0.27476319  0.97523681  1.0
  Ni  Ni25  1  0.73349120  0.60809653  0.97523681  1.0
  Ni  Ni26  1  0.73349120  0.94142986  0.97523681  1.0
  Ni  Ni27  1  0.19645417  0.16365208  0.91968125  1.0
  Ni  Ni28  1  0.19645417  0.49698542  0.91968125  1.0
  Ni  Ni29  1  0.19645417  0.83031875  0.91968125  1.0
  Ni  Ni30  1  0.52978750  0.16365208  0.91968125  1.0
  Ni  Ni31  1  0.52978750  0.49698542  0.91968125  1.0
  Ni  Ni32  1  0.52978750  0.83031875  0.91968125  1.0
  Ni  Ni33  1  0.86312083  0.16365208  0.91968125  1.0
  Ni  Ni34  1  0.86312083  0.49698542  0.91968125  1.0
  Ni  Ni35  1  0.86312083  0.83031875  0.91968125  1.0
  Ni  Ni36  1  0.31537463  0.11679597  0.95348819  1.0
  Ni  Ni37  1  0.31537463  0.45012931  0.95348819  1.0
  Ni  Ni38  1  0.31537463  0.78346264  0.95348819  1.0
  Ni  Ni39  1  0.64870796  0.11679597  0.95348819  1.0
  Ni  Ni40  1  0.64870796  0.45012931  0.95348819  1.0
  Ni  Ni41  1  0.64870796  0.78346264  0.95348819  1.0
  Ni  Ni42  1  0.98204130  0.11679597  0.95348819  1.0
  Ni  Ni43  1  0.98204130  0.45012931  0.95348819  1.0
  Ni  Ni44  1  0.98204130  0.78346264  0.95348819  1.0
  Ni  Ni45  1  0.11167093  0.00568486  0.89793264  1.0
  Ni  Ni46  1  0.11167093  0.33901819  0.89793264  1.0
  Ni  Ni47  1  0.11167093  0.67235153  0.89793264  1.0
  Ni  Ni48  1  0.44500426  0.00568486  0.89793264  1.0
  Ni  Ni49  1  0.44500426  0.33901819  0.89793264  1.0
  Ni  Ni50  1  0.44500426  0.67235153  0.89793264  1.0
  Ni  Ni51  1  0.77833759  0.00568486  0.89793264  1.0
  Ni  Ni52  1  0.77833759  0.33901819  0.89793264  1.0
  Ni  Ni53  1  0.77833759  0.67235153  0.89793264  1.0
  Ni  Ni54  1  0.04891620  0.21050819  0.97172681  1.0
  Ni  Ni55  1  0.04891620  0.54384153  0.97172681  1.0
  Ni  Ni56  1  0.04891620  0.87717486  0.97172681  1.0
  Ni  Ni57  1  0.38224954  0.21050819  0.97172681  1.0
  Ni  Ni58  1  0.38224954  0.54384153  0.97172681  1.0
  Ni  Ni59  1  0.38224954  0.87717486  0.97172681  1.0
  Ni  Ni60  1  0.71558287  0.21050819  0.97172681  1.0
  Ni  Ni61  1  0.71558287  0.54384153  0.97172681  1.0
  Ni  Ni62  1  0.71558287  0.87717486  0.97172681  1.0
  Ni  Ni63  1  0.17854583  0.09939708  0.91617125  1.0
  Ni  Ni64  1  0.17854583  0.43273042  0.91617125  1.0
  Ni  Ni65  1  0.17854583  0.76606375  0.91617125  1.0
  Ni  Ni66  1  0.51187917  0.09939708  0.91617125  1.0
  Ni  Ni67  1  0.51187917  0.43273042  0.91617125  1.0
  Ni  Ni68  1  0.51187917  0.76606375  0.91617125  1.0
  Ni  Ni69  1  0.84521250  0.09939708  0.91617125  1.0
  Ni  Ni70  1  0.84521250  0.43273042  0.91617125  1.0
  Ni  Ni71  1  0.84521250  0.76606375  0.91617125  1.0
  Ni  Ni72  1  0.31939407  0.26438431  0.99866486  1.0
  Ni  Ni73  1  0.31939407  0.59771764  0.99866486  1.0
  Ni  Ni74  1  0.31939407  0.93105097  0.99866486  1.0
  Ni  Ni75  1  0.65272741  0.26438431  0.99866486  1.0
  Ni  Ni76  1  0.65272741  0.59771764  0.99866486  1.0
  Ni  Ni77  1  0.65272741  0.93105097  0.99866486  1.0
  Ni  Ni78  1  0.98606074  0.26438431  0.99866486  1.0
  Ni  Ni79  1  0.98606074  0.59771764  0.99866486  1.0
  Ni  Ni80  1  0.98606074  0.93105097  0.99866486  1.0
  Ni  Ni81  1  0.11569037  0.15327319  0.94310931  1.0
  Ni  Ni82  1  0.11569037  0.48660653  0.94310931  1.0
  Ni  Ni83  1  0.11569037  0.81993986  0.94310931  1.0
  Ni  Ni84  1  0.44902370  0.15327319  0.94310931  1.0
  Ni  Ni85  1  0.44902370  0.48660653  0.94310931  1.0
  Ni  Ni86  1  0.44902370  0.81993986  0.94310931  1.0
  Ni  Ni87  1  0.78235704  0.15327319  0.94310931  1.0
  Ni  Ni88  1  0.78235704  0.48660653  0.94310931  1.0
  Ni  Ni89  1  0.78235704  0.81993986  0.94310931  1.0
  Ni  Ni90  1  0.27721796  0.17403097  0.89625319  1.0
  Ni  Ni91  1  0.27721796  0.50736431  0.89625319  1.0
  Ni  Ni92  1  0.27721796  0.84069764  0.89625319  1.0
  Ni  Ni93  1  0.61055130  0.17403097  0.89625319  1.0
  Ni  Ni94  1  0.61055130  0.50736431  0.89625319  1.0
  Ni  Ni95  1  0.61055130  0.84069764  0.89625319  1.0
  Ni  Ni96  1  0.94388463  0.17403097  0.89625319  1.0
  Ni  Ni97  1  0.94388463  0.50736431  0.89625319  1.0
  Ni  Ni98  1  0.94388463  0.84069764  0.89625319  1.0
  Ni  Ni99  1  0.14758833  0.28514208  0.95180875  1.0
  Ni  Ni100  1  0.14758833  0.61847542  0.95180875  1.0
  Ni  Ni101  1  0.14758833  0.95180875  0.95180875  1.0
  Ni  Ni102  1  0.48092167  0.28514208  0.95180875  1.0
  Ni  Ni103  1  0.48092167  0.61847542  0.95180875  1.0
  Ni  Ni104  1  0.48092167  0.95180875  0.95180875  1.0
  Ni  Ni105  1  0.81425500  0.28514208  0.95180875  1.0
  Ni  Ni106  1  0.81425500  0.61847542  0.95180875  1.0
  Ni  Ni107  1  0.81425500  0.95180875  0.95180875  1.0
  Ni  Ni108  1  0.21436250  0.22790708  0.92319125  1.0
  Ni  Ni109  1  0.21436250  0.56124042  0.92319125  1.0
  Ni  Ni110  1  0.21436250  0.89457375  0.92319125  1.0
  Ni  Ni111  1  0.54769583  0.22790708  0.92319125  1.0
  Ni  Ni112  1  0.54769583  0.56124042  0.92319125  1.0
  Ni  Ni113  1  0.54769583  0.89457375  0.92319125  1.0
  Ni  Ni114  1  0.88102917  0.22790708  0.92319125  1.0
  Ni  Ni115  1  0.88102917  0.56124042  0.92319125  1.0
  Ni  Ni116  1  0.88102917  0.89457375  0.92319125  1.0
  Ni  Ni117  1  0.08473287  0.00568486  0.97874681  1.0
  Ni  Ni118  1  0.08473287  0.33901819  0.97874681  1.0
  Ni  Ni119  1  0.08473287  0.67235153  0.97874681  1.0
  Ni  Ni120  1  0.41806620  0.00568486  0.97874681  1.0
  Ni  Ni121  1  0.41806620  0.33901819  0.97874681  1.0
  Ni  Ni122  1  0.41806620  0.67235153  0.97874681  1.0
  Ni  Ni123  1  0.75139954  0.00568486  0.97874681  1.0
  Ni  Ni124  1  0.75139954  0.33901819  0.97874681  1.0
  Ni  Ni125  1  0.75139954  0.67235153  0.97874681  1.0
  Ni  Ni126  1  0.28123741  0.32161931  0.94142986  1.0
  Ni  Ni127  1  0.28123741  0.65495264  0.94142986  1.0
  Ni  Ni128  1  0.28123741  0.98828597  0.94142986  1.0
  Ni  Ni129  1  0.61457074  0.32161931  0.94142986  1.0
  Ni  Ni130  1  0.61457074  0.65495264  0.94142986  1.0
  Ni  Ni131  1  0.61457074  0.98828597  0.94142986  1.0
  Ni  Ni132  1  0.94790407  0.32161931  0.94142986  1.0
  Ni  Ni133  1  0.94790407  0.65495264  0.94142986  1.0
  Ni  Ni134  1  0.94790407  0.98828597  0.94142986  1.0
  Ni  Ni135  1  0.15160778  0.09939708  0.99698542  1.0
  Ni  Ni136  1  0.15160778  0.43273042  0.99698542  1.0
  Ni  Ni137  1  0.15160778  0.76606375  0.99698542  1.0
  Ni  Ni138  1  0.48494111  0.09939708  0.99698542  1.0
  Ni  Ni139  1  0.48494111  0.43273042  0.99698542  1.0
  Ni  Ni140  1  0.48494111  0.76606375  0.99698542  1.0
  Ni  Ni141  1  0.81827444  0.09939708  0.99698542  1.0
  Ni  Ni142  1  0.81827444  0.43273042  0.99698542  1.0
  Ni  Ni143  1  0.81827444  0.76606375  0.99698542  1.0
  Ni  Ni144  1  0.26126898  0.27476319  0.89190347  1.0
  Ni  Ni145  1  0.26126898  0.60809653  0.89190347  1.0
  Ni  Ni146  1  0.26126898  0.94142986  0.89190347  1.0
  Ni  Ni147  1  0.59460231  0.27476319  0.89190347  1.0
  Ni  Ni148  1  0.59460231  0.60809653  0.89190347  1.0
  Ni  Ni149  1  0.59460231  0.94142986  0.89190347  1.0
  Ni  Ni150  1  0.92793565  0.27476319  0.89190347  1.0
  Ni  Ni151  1  0.92793565  0.60809653  0.89190347  1.0
  Ni  Ni152  1  0.92793565  0.94142986  0.89190347  1.0
  Ni  Ni153  1  0.13163935  0.05254097  0.94745903  1.0
  Ni  Ni154  1  0.13163935  0.38587431  0.94745903  1.0
  Ni  Ni155  1  0.13163935  0.71920764  0.94745903  1.0
  Ni  Ni156  1  0.46497269  0.05254097  0.94745903  1.0
  Ni  Ni157  1  0.46497269  0.38587431  0.94745903  1.0
  Ni  Ni158  1  0.46497269  0.71920764  0.94745903  1.0
  Ni  Ni159  1  0.79830602  0.05254097  0.94745903  1.0
  Ni  Ni160  1  0.79830602  0.38587431  0.94745903  1.0
  Ni  Ni161  1  0.79830602  0.71920764  0.94745903  1.0
  Ni  Ni162  1  0.02978750  0.33031875  0.91968125  1.0
  Ni  Ni163  1  0.02978750  0.66365208  0.91968125  1.0
  Ni  Ni164  1  0.02978750  0.99698542  0.91968125  1.0
  Ni  Ni165  1  0.36312083  0.33031875  0.91968125  1.0
  Ni  Ni166  1  0.36312083  0.66365208  0.91968125  1.0
  Ni  Ni167  1  0.36312083  0.99698542  0.91968125  1.0
  Ni  Ni168  1  0.69645417  0.33031875  0.91968125  1.0
  Ni  Ni169  1  0.69645417  0.66365208  0.91968125  1.0
  Ni  Ni170  1  0.69645417  0.99698542  0.91968125  1.0
  Ni  Ni171  1  0.23349120  0.10809653  0.97523681  1.0
  Ni  Ni172  1  0.23349120  0.44142986  0.97523681  1.0
  Ni  Ni173  1  0.23349120  0.77476319  0.97523681  1.0
  Ni  Ni174  1  0.56682454  0.10809653  0.97523681  1.0
  Ni  Ni175  1  0.56682454  0.44142986  0.97523681  1.0
  Ni  Ni176  1  0.56682454  0.77476319  0.97523681  1.0
  Ni  Ni177  1  0.90015787  0.10809653  0.97523681  1.0
  Ni  Ni178  1  0.90015787  0.44142986  0.97523681  1.0
  Ni  Ni179  1  0.90015787  0.77476319  0.97523681  1.0
  Ni  Ni180  1  0.29830602  0.05254097  0.94745903  1.0
  Ni  Ni181  1  0.29830602  0.38587431  0.94745903  1.0
  Ni  Ni182  1  0.29830602  0.71920764  0.94745903  1.0
  Ni  Ni183  1  0.63163935  0.05254097  0.94745903  1.0
  Ni  Ni184  1  0.63163935  0.38587431  0.94745903  1.0
  Ni  Ni185  1  0.63163935  0.71920764  0.94745903  1.0
  Ni  Ni186  1  0.96497269  0.05254097  0.94745903  1.0
  Ni  Ni187  1  0.96497269  0.38587431  0.94745903  1.0
  Ni  Ni188  1  0.96497269  0.71920764  0.94745903  1.0
  Ni  Ni189  1  0.09460231  0.27476319  0.89190347  1.0
  Ni  Ni190  1  0.09460231  0.60809653  0.89190347  1.0
  Ni  Ni191  1  0.09460231  0.94142986  0.89190347  1.0
  Ni  Ni192  1  0.42793565  0.27476319  0.89190347  1.0
  Ni  Ni193  1  0.42793565  0.60809653  0.89190347  1.0
  Ni  Ni194  1  0.42793565  0.94142986  0.89190347  1.0
  Ni  Ni195  1  0.76126898  0.27476319  0.89190347  1.0
  Ni  Ni196  1  0.76126898  0.60809653  0.89190347  1.0
  Ni  Ni197  1  0.76126898  0.94142986  0.89190347  1.0
  Ni  Ni198  1  0.29830602  0.21920764  0.94745903  1.0
  Ni  Ni199  1  0.29830602  0.55254097  0.94745903  1.0
  Ni  Ni200  1  0.29830602  0.88587431  0.94745903  1.0
  Ni  Ni201  1  0.63163935  0.21920764  0.94745903  1.0
  Ni  Ni202  1  0.63163935  0.55254097  0.94745903  1.0
  Ni  Ni203  1  0.63163935  0.88587431  0.94745903  1.0
  Ni  Ni204  1  0.96497269  0.21920764  0.94745903  1.0
  Ni  Ni205  1  0.96497269  0.55254097  0.94745903  1.0
  Ni  Ni206  1  0.96497269  0.88587431  0.94745903  1.0
  Ni  Ni207  1  0.09460231  0.10809653  0.89190347  1.0
  Ni  Ni208  1  0.09460231  0.44142986  0.89190347  1.0
  Ni  Ni209  1  0.09460231  0.77476319  0.89190347  1.0
  Ni  Ni210  1  0.42793565  0.10809653  0.89190347  1.0
  Ni  Ni211  1  0.42793565  0.44142986  0.89190347  1.0
  Ni  Ni212  1  0.42793565  0.77476319  0.89190347  1.0
  Ni  Ni213  1  0.76126898  0.10809653  0.89190347  1.0
  Ni  Ni214  1  0.76126898  0.44142986  0.89190347  1.0
  Ni  Ni215  1  0.76126898  0.77476319  0.89190347  1.0
  Ni  Ni216  1  0.12238009  0.10809653  0.80857014  1.0
  Ni  Ni217  1  0.12238009  0.44142986  0.80857014  1.0
  Ni  Ni218  1  0.12238009  0.77476319  0.80857014  1.0
  Ni  Ni219  1  0.45571343  0.10809653  0.80857014  1.0
  Ni  Ni220  1  0.45571343  0.44142986  0.80857014  1.0
  Ni  Ni221  1  0.45571343  0.77476319  0.80857014  1.0
  Ni  Ni222  1  0.78904676  0.10809653  0.80857014  1.0
  Ni  Ni223  1  0.78904676  0.44142986  0.80857014  1.0
  Ni  Ni224  1  0.78904676  0.77476319  0.80857014  1.0
  Ni  Ni225  1  0.32608380  0.21920764  0.86412569  1.0
  Ni  Ni226  1  0.32608380  0.55254097  0.86412569  1.0
  Ni  Ni227  1  0.32608380  0.88587431  0.86412569  1.0
  Ni  Ni228  1  0.65941713  0.21920764  0.86412569  1.0
  Ni  Ni229  1  0.65941713  0.55254097  0.86412569  1.0
  Ni  Ni230  1  0.65941713  0.88587431  0.86412569  1.0
  Ni  Ni231  1  0.99275046  0.21920764  0.86412569  1.0
  Ni  Ni232  1  0.99275046  0.55254097  0.86412569  1.0
  Ni  Ni233  1  0.99275046  0.88587431  0.86412569  1.0
  Ni  Ni234  1  0.32608380  0.05254097  0.86412569  1.0
  Ni  Ni235  1  0.32608380  0.38587431  0.86412569  1.0
  Ni  Ni236  1  0.32608380  0.71920764  0.86412569  1.0
  Ni  Ni237  1  0.65941713  0.05254097  0.86412569  1.0
  Ni  Ni238  1  0.65941713  0.38587431  0.86412569  1.0
  Ni  Ni239  1  0.65941713  0.71920764  0.86412569  1.0
  Ni  Ni240  1  0.99275046  0.05254097  0.86412569  1.0
  Ni  Ni241  1  0.99275046  0.38587431  0.86412569  1.0
  Ni  Ni242  1  0.99275046  0.71920764  0.86412569  1.0
  Ni  Ni243  1  0.12238009  0.27476319  0.80857014  1.0
  Ni  Ni244  1  0.12238009  0.60809653  0.80857014  1.0
  Ni  Ni245  1  0.12238009  0.94142986  0.80857014  1.0
  Ni  Ni246  1  0.45571343  0.27476319  0.80857014  1.0
  Ni  Ni247  1  0.45571343  0.60809653  0.80857014  1.0
  Ni  Ni248  1  0.45571343  0.94142986  0.80857014  1.0
  Ni  Ni249  1  0.78904676  0.27476319  0.80857014  1.0
  Ni  Ni250  1  0.78904676  0.60809653  0.80857014  1.0
  Ni  Ni251  1  0.78904676  0.94142986  0.80857014  1.0
  Ni  Ni252  1  0.24130056  0.22790708  0.84237708  1.0
  Ni  Ni253  1  0.24130056  0.56124042  0.84237708  1.0
  Ni  Ni254  1  0.24130056  0.89457375  0.84237708  1.0
  Ni  Ni255  1  0.57463389  0.22790708  0.84237708  1.0
  Ni  Ni256  1  0.57463389  0.56124042  0.84237708  1.0
  Ni  Ni257  1  0.57463389  0.89457375  0.84237708  1.0
  Ni  Ni258  1  0.90796722  0.22790708  0.84237708  1.0
  Ni  Ni259  1  0.90796722  0.56124042  0.84237708  1.0
  Ni  Ni260  1  0.90796722  0.89457375  0.84237708  1.0
  Ni  Ni261  1  0.03759685  0.11679597  0.78682153  1.0
  Ni  Ni262  1  0.03759685  0.45012931  0.78682153  1.0
  Ni  Ni263  1  0.03759685  0.78346264  0.78682153  1.0
  Ni  Ni264  1  0.37093019  0.11679597  0.78682153  1.0
  Ni  Ni265  1  0.37093019  0.45012931  0.78682153  1.0
  Ni  Ni266  1  0.37093019  0.78346264  0.78682153  1.0
  Ni  Ni267  1  0.70426352  0.11679597  0.78682153  1.0
  Ni  Ni268  1  0.70426352  0.45012931  0.78682153  1.0
  Ni  Ni269  1  0.70426352  0.78346264  0.78682153  1.0
  Ni  Ni270  1  0.30817546  0.32161931  0.86061569  1.0
  Ni  Ni271  1  0.30817546  0.65495264  0.86061569  1.0
  Ni  Ni272  1  0.30817546  0.98828597  0.86061569  1.0
  Ni  Ni273  1  0.64150880  0.32161931  0.86061569  1.0
  Ni  Ni274  1  0.64150880  0.65495264  0.86061569  1.0
  Ni  Ni275  1  0.64150880  0.98828597  0.86061569  1.0
  Ni  Ni276  1  0.97484213  0.32161931  0.86061569  1.0
  Ni  Ni277  1  0.97484213  0.65495264  0.86061569  1.0
  Ni  Ni278  1  0.97484213  0.98828597  0.86061569  1.0
  Ni  Ni279  1  0.10447176  0.21050819  0.80506014  1.0
  Ni  Ni280  1  0.10447176  0.54384153  0.80506014  1.0
  Ni  Ni281  1  0.10447176  0.87717486  0.80506014  1.0
  Ni  Ni282  1  0.43780509  0.21050819  0.80506014  1.0
  Ni  Ni283  1  0.43780509  0.54384153  0.80506014  1.0
  Ni  Ni284  1  0.43780509  0.87717486  0.80506014  1.0
  Ni  Ni285  1  0.77113843  0.21050819  0.80506014  1.0
  Ni  Ni286  1  0.77113843  0.54384153  0.80506014  1.0
  Ni  Ni287  1  0.77113843  0.87717486  0.80506014  1.0
  Ni  Ni288  1  0.24532000  0.04216208  0.88755375  1.0
  Ni  Ni289  1  0.24532000  0.37549542  0.88755375  1.0
  Ni  Ni290  1  0.24532000  0.70882875  0.88755375  1.0
  Ni  Ni291  1  0.57865333  0.04216208  0.88755375  1.0
  Ni  Ni292  1  0.57865333  0.37549542  0.88755375  1.0
  Ni  Ni293  1  0.57865333  0.70882875  0.88755375  1.0
  Ni  Ni294  1  0.91198667  0.04216208  0.88755375  1.0
  Ni  Ni295  1  0.91198667  0.37549542  0.88755375  1.0
  Ni  Ni296  1  0.91198667  0.70882875  0.88755375  1.0
  Ni  Ni297  1  0.04161630  0.26438431  0.83199819  1.0
  Ni  Ni298  1  0.04161630  0.59771764  0.83199819  1.0
  Ni  Ni299  1  0.04161630  0.93105097  0.83199819  1.0
  Ni  Ni300  1  0.37494963  0.26438431  0.83199819  1.0
  Ni  Ni301  1  0.37494963  0.59771764  0.83199819  1.0
  Ni  Ni302  1  0.37494963  0.93105097  0.83199819  1.0
  Ni  Ni303  1  0.70828296  0.26438431  0.83199819  1.0
  Ni  Ni304  1  0.70828296  0.59771764  0.83199819  1.0
  Ni  Ni305  1  0.70828296  0.93105097  0.83199819  1.0
  Ni  Ni306  1  0.20314389  0.28514208  0.78514208  1.0
  Ni  Ni307  1  0.20314389  0.61847542  0.78514208  1.0
  Ni  Ni308  1  0.20314389  0.95180875  0.78514208  1.0
  Ni  Ni309  1  0.53647722  0.28514208  0.78514208  1.0
  Ni  Ni310  1  0.53647722  0.61847542  0.78514208  1.0
  Ni  Ni311  1  0.53647722  0.95180875  0.78514208  1.0
  Ni  Ni312  1  0.86981056  0.28514208  0.78514208  1.0
  Ni  Ni313  1  0.86981056  0.61847542  0.78514208  1.0
  Ni  Ni314  1  0.86981056  0.95180875  0.78514208  1.0
  Ni  Ni315  1  0.07351426  0.06291986  0.84069764  1.0
  Ni  Ni316  1  0.07351426  0.39625319  0.84069764  1.0
  Ni  Ni317  1  0.07351426  0.72958653  0.84069764  1.0
  Ni  Ni318  1  0.40684759  0.06291986  0.84069764  1.0
  Ni  Ni319  1  0.40684759  0.39625319  0.84069764  1.0
  Ni  Ni320  1  0.40684759  0.72958653  0.84069764  1.0
  Ni  Ni321  1  0.74018093  0.06291986  0.84069764  1.0
  Ni  Ni322  1  0.74018093  0.39625319  0.84069764  1.0
  Ni  Ni323  1  0.74018093  0.72958653  0.84069764  1.0
  Ni  Ni324  1  0.14028843  0.00568486  0.81208014  1.0
  Ni  Ni325  1  0.14028843  0.33901819  0.81208014  1.0
  Ni  Ni326  1  0.14028843  0.67235153  0.81208014  1.0
  Ni  Ni327  1  0.47362176  0.00568486  0.81208014  1.0
  Ni  Ni328  1  0.47362176  0.33901819  0.81208014  1.0
  Ni  Ni329  1  0.47362176  0.67235153  0.81208014  1.0
  Ni  Ni330  1  0.80695509  0.00568486  0.81208014  1.0
  Ni  Ni331  1  0.80695509  0.33901819  0.81208014  1.0
  Ni  Ni332  1  0.80695509  0.67235153  0.81208014  1.0
  Ni  Ni333  1  0.01065880  0.11679597  0.86763569  1.0
  Ni  Ni334  1  0.01065880  0.45012931  0.86763569  1.0
  Ni  Ni335  1  0.01065880  0.78346264  0.86763569  1.0
  Ni  Ni336  1  0.34399213  0.11679597  0.86763569  1.0
  Ni  Ni337  1  0.34399213  0.45012931  0.86763569  1.0
  Ni  Ni338  1  0.34399213  0.78346264  0.86763569  1.0
  Ni  Ni339  1  0.67732546  0.11679597  0.86763569  1.0
  Ni  Ni340  1  0.67732546  0.45012931  0.86763569  1.0
  Ni  Ni341  1  0.67732546  0.78346264  0.86763569  1.0
  Ni  Ni342  1  0.20716333  0.09939708  0.83031875  1.0
  Ni  Ni343  1  0.20716333  0.43273042  0.83031875  1.0
  Ni  Ni344  1  0.20716333  0.76606375  0.83031875  1.0
  Ni  Ni345  1  0.54049667  0.09939708  0.83031875  1.0
  Ni  Ni346  1  0.54049667  0.43273042  0.83031875  1.0
  Ni  Ni347  1  0.54049667  0.76606375  0.83031875  1.0
  Ni  Ni348  1  0.87383000  0.09939708  0.83031875  1.0
  Ni  Ni349  1  0.87383000  0.43273042  0.83031875  1.0
  Ni  Ni350  1  0.87383000  0.76606375  0.83031875  1.0
  Ni  Ni351  1  0.07753370  0.21050819  0.88587431  1.0
  Ni  Ni352  1  0.07753370  0.54384153  0.88587431  1.0
  Ni  Ni353  1  0.07753370  0.87717486  0.88587431  1.0
  Ni  Ni354  1  0.41086704  0.21050819  0.88587431  1.0
  Ni  Ni355  1  0.41086704  0.54384153  0.88587431  1.0
  Ni  Ni356  1  0.41086704  0.87717486  0.88587431  1.0
  Ni  Ni357  1  0.74420037  0.21050819  0.88587431  1.0
  Ni  Ni358  1  0.74420037  0.54384153  0.88587431  1.0
  Ni  Ni359  1  0.74420037  0.87717486  0.88587431  1.0
  Ni  Ni360  1  0.18719491  0.05254097  0.78079236  1.0
  Ni  Ni361  1  0.18719491  0.38587431  0.78079236  1.0
  Ni  Ni362  1  0.18719491  0.71920764  0.78079236  1.0
  Ni  Ni363  1  0.52052824  0.05254097  0.78079236  1.0
  Ni  Ni364  1  0.52052824  0.38587431  0.78079236  1.0
  Ni  Ni365  1  0.52052824  0.71920764  0.78079236  1.0
  Ni  Ni366  1  0.85386157  0.05254097  0.78079236  1.0
  Ni  Ni367  1  0.85386157  0.38587431  0.78079236  1.0
  Ni  Ni368  1  0.85386157  0.71920764  0.78079236  1.0
  Ni  Ni369  1  0.05756528  0.16365208  0.83634792  1.0
  Ni  Ni370  1  0.05756528  0.49698542  0.83634792  1.0
  Ni  Ni371  1  0.05756528  0.83031875  0.83634792  1.0
  Ni  Ni372  1  0.39089861  0.16365208  0.83634792  1.0
  Ni  Ni373  1  0.39089861  0.49698542  0.83634792  1.0
  Ni  Ni374  1  0.39089861  0.83031875  0.83634792  1.0
  Ni  Ni375  1  0.72423194  0.16365208  0.83634792  1.0
  Ni  Ni376  1  0.72423194  0.49698542  0.83634792  1.0
  Ni  Ni377  1  0.72423194  0.83031875  0.83634792  1.0
  Ni  Ni378  1  0.28904676  0.10809653  0.80857014  1.0
  Ni  Ni379  1  0.28904676  0.44142986  0.80857014  1.0
  Ni  Ni380  1  0.28904676  0.77476319  0.80857014  1.0
  Ni  Ni381  1  0.62238009  0.10809653  0.80857014  1.0
  Ni  Ni382  1  0.62238009  0.44142986  0.80857014  1.0
  Ni  Ni383  1  0.62238009  0.77476319  0.80857014  1.0
  Ni  Ni384  1  0.95571343  0.10809653  0.80857014  1.0
  Ni  Ni385  1  0.95571343  0.44142986  0.80857014  1.0
  Ni  Ni386  1  0.95571343  0.77476319  0.80857014  1.0
  Ni  Ni387  1  0.15941713  0.21920764  0.86412569  1.0
  Ni  Ni388  1  0.15941713  0.55254097  0.86412569  1.0
  Ni  Ni389  1  0.15941713  0.88587431  0.86412569  1.0
  Ni  Ni390  1  0.49275046  0.21920764  0.86412569  1.0
  Ni  Ni391  1  0.49275046  0.55254097  0.86412569  1.0
  Ni  Ni392  1  0.49275046  0.88587431  0.86412569  1.0
  Ni  Ni393  1  0.82608380  0.21920764  0.86412569  1.0
  Ni  Ni394  1  0.82608380  0.55254097  0.86412569  1.0
  Ni  Ni395  1  0.82608380  0.88587431  0.86412569  1.0
  Ni  Ni396  1  0.22423194  0.16365208  0.83634792  1.0
  Ni  Ni397  1  0.22423194  0.49698542  0.83634792  1.0
  Ni  Ni398  1  0.22423194  0.83031875  0.83634792  1.0
  Ni  Ni399  1  0.55756528  0.16365208  0.83634792  1.0
  Ni  Ni400  1  0.55756528  0.49698542  0.83634792  1.0
  Ni  Ni401  1  0.55756528  0.83031875  0.83634792  1.0
  Ni  Ni402  1  0.89089861  0.16365208  0.83634792  1.0
  Ni  Ni403  1  0.89089861  0.49698542  0.83634792  1.0
  Ni  Ni404  1  0.89089861  0.83031875  0.83634792  1.0
  Ni  Ni405  1  0.02052824  0.05254097  0.78079236  1.0
  Ni  Ni406  1  0.02052824  0.38587431  0.78079236  1.0
  Ni  Ni407  1  0.02052824  0.71920764  0.78079236  1.0
  Ni  Ni408  1  0.35386157  0.05254097  0.78079236  1.0
  Ni  Ni409  1  0.35386157  0.38587431  0.78079236  1.0
  Ni  Ni410  1  0.35386157  0.71920764  0.78079236  1.0
  Ni  Ni411  1  0.68719491  0.05254097  0.78079236  1.0
  Ni  Ni412  1  0.68719491  0.38587431  0.78079236  1.0
  Ni  Ni413  1  0.68719491  0.71920764  0.78079236  1.0
  Ni  Ni414  1  0.22423194  0.33031875  0.83634792  1.0
  Ni  Ni415  1  0.22423194  0.66365208  0.83634792  1.0
  Ni  Ni416  1  0.22423194  0.99698542  0.83634792  1.0
  Ni  Ni417  1  0.55756528  0.33031875  0.83634792  1.0
  Ni  Ni418  1  0.55756528  0.66365208  0.83634792  1.0
  Ni  Ni419  1  0.55756528  0.99698542  0.83634792  1.0
  Ni  Ni420  1  0.89089861  0.33031875  0.83634792  1.0
  Ni  Ni421  1  0.89089861  0.66365208  0.83634792  1.0
  Ni  Ni422  1  0.89089861  0.99698542  0.83634792  1.0
  Ni  Ni423  1  0.02052824  0.21920764  0.78079236  1.0
  Ni  Ni424  1  0.02052824  0.55254097  0.78079236  1.0
  Ni  Ni425  1  0.02052824  0.88587431  0.78079236  1.0
  Ni  Ni426  1  0.35386157  0.21920764  0.78079236  1.0
  Ni  Ni427  1  0.35386157  0.55254097  0.78079236  1.0
  Ni  Ni428  1  0.35386157  0.88587431  0.78079236  1.0
  Ni  Ni429  1  0.68719491  0.21920764  0.78079236  1.0
  Ni  Ni430  1  0.68719491  0.55254097  0.78079236  1.0
  Ni  Ni431  1  0.68719491  0.88587431  0.78079236  1.0
  Ni  Ni432  1  0.04830602  0.21920764  0.69745903  1.0
  Ni  Ni433  1  0.04830602  0.55254097  0.69745903  1.0
  Ni  Ni434  1  0.04830602  0.88587431  0.69745903  1.0
  Ni  Ni435  1  0.38163935  0.21920764  0.69745903  1.0
  Ni  Ni436  1  0.38163935  0.55254097  0.69745903  1.0
  Ni  Ni437  1  0.38163935  0.88587431  0.69745903  1.0
  Ni  Ni438  1  0.71497269  0.21920764  0.69745903  1.0
  Ni  Ni439  1  0.71497269  0.55254097  0.69745903  1.0
  Ni  Ni440  1  0.71497269  0.88587431  0.69745903  1.0
  Ni  Ni441  1  0.25200972  0.33031875  0.75301458  1.0
  Ni  Ni442  1  0.25200972  0.66365208  0.75301458  1.0
  Ni  Ni443  1  0.25200972  0.99698542  0.75301458  1.0
  Ni  Ni444  1  0.58534306  0.33031875  0.75301458  1.0
  Ni  Ni445  1  0.58534306  0.66365208  0.75301458  1.0
  Ni  Ni446  1  0.58534306  0.99698542  0.75301458  1.0
  Ni  Ni447  1  0.91867639  0.33031875  0.75301458  1.0
  Ni  Ni448  1  0.91867639  0.66365208  0.75301458  1.0
  Ni  Ni449  1  0.91867639  0.99698542  0.75301458  1.0
  Ni  Ni450  1  0.25200972  0.16365208  0.75301458  1.0
  Ni  Ni451  1  0.25200972  0.49698542  0.75301458  1.0
  Ni  Ni452  1  0.25200972  0.83031875  0.75301458  1.0
  Ni  Ni453  1  0.58534306  0.16365208  0.75301458  1.0
  Ni  Ni454  1  0.58534306  0.49698542  0.75301458  1.0
  Ni  Ni455  1  0.58534306  0.83031875  0.75301458  1.0
  Ni  Ni456  1  0.91867639  0.16365208  0.75301458  1.0
  Ni  Ni457  1  0.91867639  0.49698542  0.75301458  1.0
  Ni  Ni458  1  0.91867639  0.83031875  0.75301458  1.0
  Ni  Ni459  1  0.04830602  0.05254097  0.69745903  1.0
  Ni  Ni460  1  0.04830602  0.38587431  0.69745903  1.0
  Ni  Ni461  1  0.04830602  0.71920764  0.69745903  1.0
  Ni  Ni462  1  0.38163935  0.05254097  0.69745903  1.0
  Ni  Ni463  1  0.38163935  0.38587431  0.69745903  1.0
  Ni  Ni464  1  0.38163935  0.71920764  0.69745903  1.0
  Ni  Ni465  1  0.71497269  0.05254097  0.69745903  1.0
  Ni  Ni466  1  0.71497269  0.38587431  0.69745903  1.0
  Ni  Ni467  1  0.71497269  0.71920764  0.69745903  1.0
  Ni  Ni468  1  0.16722648  0.00568486  0.73126597  1.0
  Ni  Ni469  1  0.16722648  0.33901819  0.73126597  1.0
  Ni  Ni470  1  0.16722648  0.67235153  0.73126597  1.0
  Ni  Ni471  1  0.50055981  0.00568486  0.73126597  1.0
  Ni  Ni472  1  0.50055981  0.33901819  0.73126597  1.0
  Ni  Ni473  1  0.50055981  0.67235153  0.73126597  1.0
  Ni  Ni474  1  0.83389315  0.00568486  0.73126597  1.0
  Ni  Ni475  1  0.83389315  0.33901819  0.73126597  1.0
  Ni  Ni476  1  0.83389315  0.67235153  0.73126597  1.0
  Ni  Ni477  1  0.29685611  0.22790708  0.67571042  1.0
  Ni  Ni478  1  0.29685611  0.56124042  0.67571042  1.0
  Ni  Ni479  1  0.29685611  0.89457375  0.67571042  1.0
  Ni  Ni480  1  0.63018944  0.22790708  0.67571042  1.0
  Ni  Ni481  1  0.63018944  0.56124042  0.67571042  1.0
  Ni  Ni482  1  0.63018944  0.89457375  0.67571042  1.0
  Ni  Ni483  1  0.96352278  0.22790708  0.67571042  1.0
  Ni  Ni484  1  0.96352278  0.56124042  0.67571042  1.0
  Ni  Ni485  1  0.96352278  0.89457375  0.67571042  1.0
  Ni  Ni486  1  0.23410139  0.09939708  0.74950458  1.0
  Ni  Ni487  1  0.23410139  0.43273042  0.74950458  1.0
  Ni  Ni488  1  0.23410139  0.76606375  0.74950458  1.0
  Ni  Ni489  1  0.56743472  0.09939708  0.74950458  1.0
  Ni  Ni490  1  0.56743472  0.43273042  0.74950458  1.0
  Ni  Ni491  1  0.56743472  0.76606375  0.74950458  1.0
  Ni  Ni492  1  0.90076806  0.09939708  0.74950458  1.0
  Ni  Ni493  1  0.90076806  0.43273042  0.74950458  1.0
  Ni  Ni494  1  0.90076806  0.76606375  0.74950458  1.0
  Ni  Ni495  1  0.03039769  0.32161931  0.69394903  1.0
  Ni  Ni496  1  0.03039769  0.65495264  0.69394903  1.0
  Ni  Ni497  1  0.03039769  0.98828597  0.69394903  1.0
  Ni  Ni498  1  0.36373102  0.32161931  0.69394903  1.0
  Ni  Ni499  1  0.36373102  0.65495264  0.69394903  1.0
  Ni  Ni500  1  0.36373102  0.98828597  0.69394903  1.0
  Ni  Ni501  1  0.69706435  0.32161931  0.69394903  1.0
  Ni  Ni502  1  0.69706435  0.65495264  0.69394903  1.0
  Ni  Ni503  1  0.69706435  0.98828597  0.69394903  1.0
  Ni  Ni504  1  0.17124593  0.15327319  0.77644264  1.0
  Ni  Ni505  1  0.17124593  0.48660653  0.77644264  1.0
  Ni  Ni506  1  0.17124593  0.81993986  0.77644264  1.0
  Ni  Ni507  1  0.50457926  0.15327319  0.77644264  1.0
  Ni  Ni508  1  0.50457926  0.48660653  0.77644264  1.0
  Ni  Ni509  1  0.50457926  0.81993986  0.77644264  1.0
  Ni  Ni510  1  0.83791259  0.15327319  0.77644264  1.0
  Ni  Ni511  1  0.83791259  0.48660653  0.77644264  1.0
  Ni  Ni512  1  0.83791259  0.81993986  0.77644264  1.0
  Ni  Ni513  1  0.30087556  0.04216208  0.72088708  1.0
  Ni  Ni514  1  0.30087556  0.37549542  0.72088708  1.0
  Ni  Ni515  1  0.30087556  0.70882875  0.72088708  1.0
  Ni  Ni516  1  0.63420889  0.04216208  0.72088708  1.0
  Ni  Ni517  1  0.63420889  0.37549542  0.72088708  1.0
  Ni  Ni518  1  0.63420889  0.70882875  0.72088708  1.0
  Ni  Ni519  1  0.96754222  0.04216208  0.72088708  1.0
  Ni  Ni520  1  0.96754222  0.37549542  0.72088708  1.0
  Ni  Ni521  1  0.96754222  0.70882875  0.72088708  1.0
  Ni  Ni522  1  0.12906981  0.06291986  0.67403097  1.0
  Ni  Ni523  1  0.12906981  0.39625319  0.67403097  1.0
  Ni  Ni524  1  0.12906981  0.72958653  0.67403097  1.0
  Ni  Ni525  1  0.46240315  0.06291986  0.67403097  1.0
  Ni  Ni526  1  0.46240315  0.39625319  0.67403097  1.0
  Ni  Ni527  1  0.46240315  0.72958653  0.67403097  1.0
  Ni  Ni528  1  0.79573648  0.06291986  0.67403097  1.0
  Ni  Ni529  1  0.79573648  0.39625319  0.67403097  1.0
  Ni  Ni530  1  0.79573648  0.72958653  0.67403097  1.0
  Ni  Ni531  1  0.33277352  0.17403097  0.72958653  1.0
  Ni  Ni532  1  0.33277352  0.50736431  0.72958653  1.0
  Ni  Ni533  1  0.33277352  0.84069764  0.72958653  1.0
  Ni  Ni534  1  0.66610685  0.17403097  0.72958653  1.0
  Ni  Ni535  1  0.66610685  0.50736431  0.72958653  1.0
  Ni  Ni536  1  0.66610685  0.84069764  0.72958653  1.0
  Ni  Ni537  1  0.99944019  0.17403097  0.72958653  1.0
  Ni  Ni538  1  0.99944019  0.50736431  0.72958653  1.0
  Ni  Ni539  1  0.99944019  0.84069764  0.72958653  1.0
  Ni  Ni540  1  0.06621435  0.11679597  0.70096903  1.0
  Ni  Ni541  1  0.06621435  0.45012931  0.70096903  1.0
  Ni  Ni542  1  0.06621435  0.78346264  0.70096903  1.0
  Ni  Ni543  1  0.39954769  0.11679597  0.70096903  1.0
  Ni  Ni544  1  0.39954769  0.45012931  0.70096903  1.0
  Ni  Ni545  1  0.39954769  0.78346264  0.70096903  1.0
  Ni  Ni546  1  0.73288102  0.11679597  0.70096903  1.0
  Ni  Ni547  1  0.73288102  0.45012931  0.70096903  1.0
  Ni  Ni548  1  0.73288102  0.78346264  0.70096903  1.0
  Ni  Ni549  1  0.26991806  0.22790708  0.75652458  1.0
  Ni  Ni550  1  0.26991806  0.56124042  0.75652458  1.0
  Ni  Ni551  1  0.26991806  0.89457375  0.75652458  1.0
  Ni  Ni552  1  0.60325139  0.22790708  0.75652458  1.0
  Ni  Ni553  1  0.60325139  0.56124042  0.75652458  1.0
  Ni  Ni554  1  0.60325139  0.89457375  0.75652458  1.0
  Ni  Ni555  1  0.93658472  0.22790708  0.75652458  1.0
  Ni  Ni556  1  0.93658472  0.56124042  0.75652458  1.0
  Ni  Ni557  1  0.93658472  0.89457375  0.75652458  1.0
  Ni  Ni558  1  0.13308926  0.21050819  0.71920764  1.0
  Ni  Ni559  1  0.13308926  0.54384153  0.71920764  1.0
  Ni  Ni560  1  0.13308926  0.87717486  0.71920764  1.0
  Ni  Ni561  1  0.46642259  0.21050819  0.71920764  1.0
  Ni  Ni562  1  0.46642259  0.54384153  0.71920764  1.0
  Ni  Ni563  1  0.46642259  0.87717486  0.71920764  1.0
  Ni  Ni564  1  0.79975593  0.21050819  0.71920764  1.0
  Ni  Ni565  1  0.79975593  0.54384153  0.71920764  1.0
  Ni  Ni566  1  0.79975593  0.87717486  0.71920764  1.0
  Ni  Ni567  1  0.00345963  0.32161931  0.77476319  1.0
  Ni  Ni568  1  0.00345963  0.65495264  0.77476319  1.0
  Ni  Ni569  1  0.00345963  0.98828597  0.77476319  1.0
  Ni  Ni570  1  0.33679296  0.32161931  0.77476319  1.0
  Ni  Ni571  1  0.33679296  0.65495264  0.77476319  1.0
  Ni  Ni572  1  0.33679296  0.98828597  0.77476319  1.0
  Ni  Ni573  1  0.67012630  0.32161931  0.77476319  1.0
  Ni  Ni574  1  0.67012630  0.65495264  0.77476319  1.0
  Ni  Ni575  1  0.67012630  0.98828597  0.77476319  1.0
  Ni  Ni576  1  0.11312083  0.16365208  0.66968125  1.0
  Ni  Ni577  1  0.11312083  0.49698542  0.66968125  1.0
  Ni  Ni578  1  0.11312083  0.83031875  0.66968125  1.0
  Ni  Ni579  1  0.44645417  0.16365208  0.66968125  1.0
  Ni  Ni580  1  0.44645417  0.49698542  0.66968125  1.0
  Ni  Ni581  1  0.44645417  0.83031875  0.66968125  1.0
  Ni  Ni582  1  0.77978750  0.16365208  0.66968125  1.0
  Ni  Ni583  1  0.77978750  0.49698542  0.66968125  1.0
  Ni  Ni584  1  0.77978750  0.83031875  0.66968125  1.0
  Ni  Ni585  1  0.31682454  0.27476319  0.72523681  1.0
  Ni  Ni586  1  0.31682454  0.60809653  0.72523681  1.0
  Ni  Ni587  1  0.31682454  0.94142986  0.72523681  1.0
  Ni  Ni588  1  0.65015787  0.27476319  0.72523681  1.0
  Ni  Ni589  1  0.65015787  0.60809653  0.72523681  1.0
  Ni  Ni590  1  0.65015787  0.94142986  0.72523681  1.0
  Ni  Ni591  1  0.98349120  0.27476319  0.72523681  1.0
  Ni  Ni592  1  0.98349120  0.60809653  0.72523681  1.0
  Ni  Ni593  1  0.98349120  0.94142986  0.72523681  1.0
  Ni  Ni594  1  0.21497269  0.21920764  0.69745903  1.0
  Ni  Ni595  1  0.21497269  0.55254097  0.69745903  1.0
  Ni  Ni596  1  0.21497269  0.88587431  0.69745903  1.0
  Ni  Ni597  1  0.54830602  0.21920764  0.69745903  1.0
  Ni  Ni598  1  0.54830602  0.55254097  0.69745903  1.0
  Ni  Ni599  1  0.54830602  0.88587431  0.69745903  1.0
  Ni  Ni600  1  0.88163935  0.21920764  0.69745903  1.0
  Ni  Ni601  1  0.88163935  0.55254097  0.69745903  1.0
  Ni  Ni602  1  0.88163935  0.88587431  0.69745903  1.0
  Ni  Ni603  1  0.08534306  0.33031875  0.75301458  1.0
  Ni  Ni604  1  0.08534306  0.66365208  0.75301458  1.0
  Ni  Ni605  1  0.08534306  0.99698542  0.75301458  1.0
  Ni  Ni606  1  0.41867639  0.33031875  0.75301458  1.0
  Ni  Ni607  1  0.41867639  0.66365208  0.75301458  1.0
  Ni  Ni608  1  0.41867639  0.99698542  0.75301458  1.0
  Ni  Ni609  1  0.75200972  0.33031875  0.75301458  1.0
  Ni  Ni610  1  0.75200972  0.66365208  0.75301458  1.0
  Ni  Ni611  1  0.75200972  0.99698542  0.75301458  1.0
  Ni  Ni612  1  0.15015787  0.27476319  0.72523681  1.0
  Ni  Ni613  1  0.15015787  0.60809653  0.72523681  1.0
  Ni  Ni614  1  0.15015787  0.94142986  0.72523681  1.0
  Ni  Ni615  1  0.48349120  0.27476319  0.72523681  1.0
  Ni  Ni616  1  0.48349120  0.60809653  0.72523681  1.0
  Ni  Ni617  1  0.48349120  0.94142986  0.72523681  1.0
  Ni  Ni618  1  0.81682454  0.27476319  0.72523681  1.0
  Ni  Ni619  1  0.81682454  0.60809653  0.72523681  1.0
  Ni  Ni620  1  0.81682454  0.94142986  0.72523681  1.0
  Ni  Ni621  1  0.27978750  0.16365208  0.66968125  1.0
  Ni  Ni622  1  0.27978750  0.49698542  0.66968125  1.0
  Ni  Ni623  1  0.27978750  0.83031875  0.66968125  1.0
  Ni  Ni624  1  0.61312083  0.16365208  0.66968125  1.0
  Ni  Ni625  1  0.61312083  0.49698542  0.66968125  1.0
  Ni  Ni626  1  0.61312083  0.83031875  0.66968125  1.0
  Ni  Ni627  1  0.94645417  0.16365208  0.66968125  1.0
  Ni  Ni628  1  0.94645417  0.49698542  0.66968125  1.0
  Ni  Ni629  1  0.94645417  0.83031875  0.66968125  1.0
  Ni  Ni630  1  0.15015787  0.10809653  0.72523681  1.0
  Ni  Ni631  1  0.15015787  0.44142986  0.72523681  1.0
  Ni  Ni632  1  0.15015787  0.77476319  0.72523681  1.0
  Ni  Ni633  1  0.48349120  0.10809653  0.72523681  1.0
  Ni  Ni634  1  0.48349120  0.44142986  0.72523681  1.0
  Ni  Ni635  1  0.48349120  0.77476319  0.72523681  1.0
  Ni  Ni636  1  0.81682454  0.10809653  0.72523681  1.0
  Ni  Ni637  1  0.81682454  0.44142986  0.72523681  1.0
  Ni  Ni638  1  0.81682454  0.77476319  0.72523681  1.0
  Ni  Ni639  1  0.27978750  0.33031875  0.66968125  1.0
  Ni  Ni640  1  0.27978750  0.66365208  0.66968125  1.0
  Ni  Ni641  1  0.27978750  0.99698542  0.66968125  1.0
  Ni  Ni642  1  0.61312083  0.33031875  0.66968125  1.0
  Ni  Ni643  1  0.61312083  0.66365208  0.66968125  1.0
  Ni  Ni644  1  0.61312083  0.99698542  0.66968125  1.0
  Ni  Ni645  1  0.94645417  0.33031875  0.66968125  1.0
  Ni  Ni646  1  0.94645417  0.66365208  0.66968125  1.0
  Ni  Ni647  1  0.94645417  0.99698542  0.66968125  1.0
  Ni  Ni648  1  0.30756528  0.33031875  0.58634792  1.0
  Ni  Ni649  1  0.30756528  0.66365208  0.58634792  1.0
  Ni  Ni650  1  0.30756528  0.99698542  0.58634792  1.0
  Ni  Ni651  1  0.64089861  0.33031875  0.58634792  1.0
  Ni  Ni652  1  0.64089861  0.66365208  0.58634792  1.0
  Ni  Ni653  1  0.64089861  0.99698542  0.58634792  1.0
  Ni  Ni654  1  0.97423194  0.33031875  0.58634792  1.0
  Ni  Ni655  1  0.97423194  0.66365208  0.58634792  1.0
  Ni  Ni656  1  0.97423194  0.99698542  0.58634792  1.0
  Ni  Ni657  1  0.17793565  0.10809653  0.64190347  1.0
  Ni  Ni658  1  0.17793565  0.44142986  0.64190347  1.0
  Ni  Ni659  1  0.17793565  0.77476319  0.64190347  1.0
  Ni  Ni660  1  0.51126898  0.10809653  0.64190347  1.0
  Ni  Ni661  1  0.51126898  0.44142986  0.64190347  1.0
  Ni  Ni662  1  0.51126898  0.77476319  0.64190347  1.0
  Ni  Ni663  1  0.84460231  0.10809653  0.64190347  1.0
  Ni  Ni664  1  0.84460231  0.44142986  0.64190347  1.0
  Ni  Ni665  1  0.84460231  0.77476319  0.64190347  1.0
  Ni  Ni666  1  0.17793565  0.27476319  0.64190347  1.0
  Ni  Ni667  1  0.17793565  0.60809653  0.64190347  1.0
  Ni  Ni668  1  0.17793565  0.94142986  0.64190347  1.0
  Ni  Ni669  1  0.51126898  0.27476319  0.64190347  1.0
  Ni  Ni670  1  0.51126898  0.60809653  0.64190347  1.0
  Ni  Ni671  1  0.51126898  0.94142986  0.64190347  1.0
  Ni  Ni672  1  0.84460231  0.27476319  0.64190347  1.0
  Ni  Ni673  1  0.84460231  0.60809653  0.64190347  1.0
  Ni  Ni674  1  0.84460231  0.94142986  0.64190347  1.0
  Ni  Ni675  1  0.30756528  0.16365208  0.58634792  1.0
  Ni  Ni676  1  0.30756528  0.49698542  0.58634792  1.0
  Ni  Ni677  1  0.30756528  0.83031875  0.58634792  1.0
  Ni  Ni678  1  0.64089861  0.16365208  0.58634792  1.0
  Ni  Ni679  1  0.64089861  0.49698542  0.58634792  1.0
  Ni  Ni680  1  0.64089861  0.83031875  0.58634792  1.0
  Ni  Ni681  1  0.97423194  0.16365208  0.58634792  1.0
  Ni  Ni682  1  0.97423194  0.49698542  0.58634792  1.0
  Ni  Ni683  1  0.97423194  0.83031875  0.58634792  1.0
  Ni  Ni684  1  0.09315241  0.11679597  0.62015486  1.0
  Ni  Ni685  1  0.09315241  0.45012931  0.62015486  1.0
  Ni  Ni686  1  0.09315241  0.78346264  0.62015486  1.0
  Ni  Ni687  1  0.42648574  0.11679597  0.62015486  1.0
  Ni  Ni688  1  0.42648574  0.45012931  0.62015486  1.0
  Ni  Ni689  1  0.42648574  0.78346264  0.62015486  1.0
  Ni  Ni690  1  0.75981907  0.11679597  0.62015486  1.0
  Ni  Ni691  1  0.75981907  0.45012931  0.62015486  1.0
  Ni  Ni692  1  0.75981907  0.78346264  0.62015486  1.0
  Ni  Ni693  1  0.22278204  0.00568486  0.56459931  1.0
  Ni  Ni694  1  0.22278204  0.33901819  0.56459931  1.0
  Ni  Ni695  1  0.22278204  0.67235153  0.56459931  1.0
  Ni  Ni696  1  0.55611537  0.00568486  0.56459931  1.0
  Ni  Ni697  1  0.55611537  0.33901819  0.56459931  1.0
  Ni  Ni698  1  0.55611537  0.67235153  0.56459931  1.0
  Ni  Ni699  1  0.88944870  0.00568486  0.56459931  1.0
  Ni  Ni700  1  0.88944870  0.33901819  0.56459931  1.0
  Ni  Ni701  1  0.88944870  0.67235153  0.56459931  1.0
  Ni  Ni702  1  0.16002731  0.21050819  0.63839347  1.0
  Ni  Ni703  1  0.16002731  0.54384153  0.63839347  1.0
  Ni  Ni704  1  0.16002731  0.87717486  0.63839347  1.0
  Ni  Ni705  1  0.49336065  0.21050819  0.63839347  1.0
  Ni  Ni706  1  0.49336065  0.54384153  0.63839347  1.0
  Ni  Ni707  1  0.49336065  0.87717486  0.63839347  1.0
  Ni  Ni708  1  0.82669398  0.21050819  0.63839347  1.0
  Ni  Ni709  1  0.82669398  0.54384153  0.63839347  1.0
  Ni  Ni710  1  0.82669398  0.87717486  0.63839347  1.0
  Ni  Ni711  1  0.28965694  0.09939708  0.58283792  1.0
  Ni  Ni712  1  0.28965694  0.43273042  0.58283792  1.0
  Ni  Ni713  1  0.28965694  0.76606375  0.58283792  1.0
  Ni  Ni714  1  0.62299028  0.09939708  0.58283792  1.0
  Ni  Ni715  1  0.62299028  0.43273042  0.58283792  1.0
  Ni  Ni716  1  0.62299028  0.76606375  0.58283792  1.0
  Ni  Ni717  1  0.95632361  0.09939708  0.58283792  1.0
  Ni  Ni718  1  0.95632361  0.43273042  0.58283792  1.0
  Ni  Ni719  1  0.95632361  0.76606375  0.58283792  1.0
  Ni  Ni720  1  0.09717185  0.26438431  0.66533153  1.0
  Ni  Ni721  1  0.09717185  0.59771764  0.66533153  1.0
  Ni  Ni722  1  0.09717185  0.93105097  0.66533153  1.0
  Ni  Ni723  1  0.43050519  0.26438431  0.66533153  1.0
  Ni  Ni724  1  0.43050519  0.59771764  0.66533153  1.0
  Ni  Ni725  1  0.43050519  0.93105097  0.66533153  1.0
  Ni  Ni726  1  0.76383852  0.26438431  0.66533153  1.0
  Ni  Ni727  1  0.76383852  0.59771764  0.66533153  1.0
  Ni  Ni728  1  0.76383852  0.93105097  0.66533153  1.0
  Ni  Ni729  1  0.22680148  0.15327319  0.60977597  1.0
  Ni  Ni730  1  0.22680148  0.48660653  0.60977597  1.0
  Ni  Ni731  1  0.22680148  0.81993986  0.60977597  1.0
  Ni  Ni732  1  0.56013481  0.15327319  0.60977597  1.0
  Ni  Ni733  1  0.56013481  0.48660653  0.60977597  1.0
  Ni  Ni734  1  0.56013481  0.81993986  0.60977597  1.0
  Ni  Ni735  1  0.89346815  0.15327319  0.60977597  1.0
  Ni  Ni736  1  0.89346815  0.48660653  0.60977597  1.0
  Ni  Ni737  1  0.89346815  0.81993986  0.60977597  1.0
  Ni  Ni738  1  0.05499574  0.17403097  0.56291986  1.0
  Ni  Ni739  1  0.05499574  0.50736431  0.56291986  1.0
  Ni  Ni740  1  0.05499574  0.84069764  0.56291986  1.0
  Ni  Ni741  1  0.38832907  0.17403097  0.56291986  1.0
  Ni  Ni742  1  0.38832907  0.50736431  0.56291986  1.0
  Ni  Ni743  1  0.38832907  0.84069764  0.56291986  1.0
  Ni  Ni744  1  0.72166241  0.17403097  0.56291986  1.0
  Ni  Ni745  1  0.72166241  0.50736431  0.56291986  1.0
  Ni  Ni746  1  0.72166241  0.84069764  0.56291986  1.0
  Ni  Ni747  1  0.25869944  0.28514208  0.61847542  1.0
  Ni  Ni748  1  0.25869944  0.61847542  0.61847542  1.0
  Ni  Ni749  1  0.25869944  0.95180875  0.61847542  1.0
  Ni  Ni750  1  0.59203278  0.28514208  0.61847542  1.0
  Ni  Ni751  1  0.59203278  0.61847542  0.61847542  1.0
  Ni  Ni752  1  0.59203278  0.95180875  0.61847542  1.0
  Ni  Ni753  1  0.92536611  0.28514208  0.61847542  1.0
  Ni  Ni754  1  0.92536611  0.61847542  0.61847542  1.0
  Ni  Ni755  1  0.92536611  0.95180875  0.61847542  1.0
  Ni  Ni756  1  0.32547361  0.22790708  0.58985792  1.0
  Ni  Ni757  1  0.32547361  0.56124042  0.58985792  1.0
  Ni  Ni758  1  0.32547361  0.89457375  0.58985792  1.0
  Ni  Ni759  1  0.65880694  0.22790708  0.58985792  1.0
  Ni  Ni760  1  0.65880694  0.56124042  0.58985792  1.0
  Ni  Ni761  1  0.65880694  0.89457375  0.58985792  1.0
  Ni  Ni762  1  0.99214028  0.22790708  0.58985792  1.0
  Ni  Ni763  1  0.99214028  0.56124042  0.58985792  1.0
  Ni  Ni764  1  0.99214028  0.89457375  0.58985792  1.0
  Ni  Ni765  1  0.19584398  0.00568486  0.64541347  1.0
  Ni  Ni766  1  0.19584398  0.33901819  0.64541347  1.0
  Ni  Ni767  1  0.19584398  0.67235153  0.64541347  1.0
  Ni  Ni768  1  0.52917731  0.00568486  0.64541347  1.0
  Ni  Ni769  1  0.52917731  0.33901819  0.64541347  1.0
  Ni  Ni770  1  0.52917731  0.67235153  0.64541347  1.0
  Ni  Ni771  1  0.86251065  0.00568486  0.64541347  1.0
  Ni  Ni772  1  0.86251065  0.33901819  0.64541347  1.0
  Ni  Ni773  1  0.86251065  0.67235153  0.64541347  1.0
  Ni  Ni774  1  0.05901519  0.32161931  0.60809653  1.0
  Ni  Ni775  1  0.05901519  0.65495264  0.60809653  1.0
  Ni  Ni776  1  0.05901519  0.98828597  0.60809653  1.0
  Ni  Ni777  1  0.39234852  0.32161931  0.60809653  1.0
  Ni  Ni778  1  0.39234852  0.65495264  0.60809653  1.0
  Ni  Ni779  1  0.39234852  0.98828597  0.60809653  1.0
  Ni  Ni780  1  0.72568185  0.32161931  0.60809653  1.0
  Ni  Ni781  1  0.72568185  0.65495264  0.60809653  1.0
  Ni  Ni782  1  0.72568185  0.98828597  0.60809653  1.0
  Ni  Ni783  1  0.26271889  0.09939708  0.66365208  1.0
  Ni  Ni784  1  0.26271889  0.43273042  0.66365208  1.0
  Ni  Ni785  1  0.26271889  0.76606375  0.66365208  1.0
  Ni  Ni786  1  0.59605222  0.09939708  0.66365208  1.0
  Ni  Ni787  1  0.59605222  0.43273042  0.66365208  1.0
  Ni  Ni788  1  0.59605222  0.76606375  0.66365208  1.0
  Ni  Ni789  1  0.92938556  0.09939708  0.66365208  1.0
  Ni  Ni790  1  0.92938556  0.43273042  0.66365208  1.0
  Ni  Ni791  1  0.92938556  0.76606375  0.66365208  1.0
  Ni  Ni792  1  0.03904676  0.27476319  0.55857014  1.0
  Ni  Ni793  1  0.03904676  0.60809653  0.55857014  1.0
  Ni  Ni794  1  0.03904676  0.94142986  0.55857014  1.0
  Ni  Ni795  1  0.37238009  0.27476319  0.55857014  1.0
  Ni  Ni796  1  0.37238009  0.60809653  0.55857014  1.0
  Ni  Ni797  1  0.37238009  0.94142986  0.55857014  1.0
  Ni  Ni798  1  0.70571343  0.27476319  0.55857014  1.0
  Ni  Ni799  1  0.70571343  0.60809653  0.55857014  1.0
  Ni  Ni800  1  0.70571343  0.94142986  0.55857014  1.0
  Ni  Ni801  1  0.24275046  0.05254097  0.61412569  1.0
  Ni  Ni802  1  0.24275046  0.38587431  0.61412569  1.0
  Ni  Ni803  1  0.24275046  0.71920764  0.61412569  1.0
  Ni  Ni804  1  0.57608380  0.05254097  0.61412569  1.0
  Ni  Ni805  1  0.57608380  0.38587431  0.61412569  1.0
  Ni  Ni806  1  0.57608380  0.71920764  0.61412569  1.0
  Ni  Ni807  1  0.90941713  0.05254097  0.61412569  1.0
  Ni  Ni808  1  0.90941713  0.38587431  0.61412569  1.0
  Ni  Ni809  1  0.90941713  0.71920764  0.61412569  1.0
  Ni  Ni810  1  0.14089861  0.33031875  0.58634792  1.0
  Ni  Ni811  1  0.14089861  0.66365208  0.58634792  1.0
  Ni  Ni812  1  0.14089861  0.99698542  0.58634792  1.0
  Ni  Ni813  1  0.47423194  0.33031875  0.58634792  1.0
  Ni  Ni814  1  0.47423194  0.66365208  0.58634792  1.0
  Ni  Ni815  1  0.47423194  0.99698542  0.58634792  1.0
  Ni  Ni816  1  0.80756528  0.33031875  0.58634792  1.0
  Ni  Ni817  1  0.80756528  0.66365208  0.58634792  1.0
  Ni  Ni818  1  0.80756528  0.99698542  0.58634792  1.0
  Ni  Ni819  1  0.01126898  0.10809653  0.64190347  1.0
  Ni  Ni820  1  0.01126898  0.44142986  0.64190347  1.0
  Ni  Ni821  1  0.01126898  0.77476319  0.64190347  1.0
  Ni  Ni822  1  0.34460231  0.10809653  0.64190347  1.0
  Ni  Ni823  1  0.34460231  0.44142986  0.64190347  1.0
  Ni  Ni824  1  0.34460231  0.77476319  0.64190347  1.0
  Ni  Ni825  1  0.67793565  0.10809653  0.64190347  1.0
  Ni  Ni826  1  0.67793565  0.44142986  0.64190347  1.0
  Ni  Ni827  1  0.67793565  0.77476319  0.64190347  1.0
  Ni  Ni828  1  0.07608380  0.05254097  0.61412569  1.0
  Ni  Ni829  1  0.07608380  0.38587431  0.61412569  1.0
  Ni  Ni830  1  0.07608380  0.71920764  0.61412569  1.0
  Ni  Ni831  1  0.40941713  0.05254097  0.61412569  1.0
  Ni  Ni832  1  0.40941713  0.38587431  0.61412569  1.0
  Ni  Ni833  1  0.40941713  0.71920764  0.61412569  1.0
  Ni  Ni834  1  0.74275046  0.05254097  0.61412569  1.0
  Ni  Ni835  1  0.74275046  0.38587431  0.61412569  1.0
  Ni  Ni836  1  0.74275046  0.71920764  0.61412569  1.0
  Ni  Ni837  1  0.20571343  0.27476319  0.55857014  1.0
  Ni  Ni838  1  0.20571343  0.60809653  0.55857014  1.0
  Ni  Ni839  1  0.20571343  0.94142986  0.55857014  1.0
  Ni  Ni840  1  0.53904676  0.27476319  0.55857014  1.0
  Ni  Ni841  1  0.53904676  0.60809653  0.55857014  1.0
  Ni  Ni842  1  0.53904676  0.94142986  0.55857014  1.0
  Ni  Ni843  1  0.87238009  0.27476319  0.55857014  1.0
  Ni  Ni844  1  0.87238009  0.60809653  0.55857014  1.0
  Ni  Ni845  1  0.87238009  0.94142986  0.55857014  1.0
  Ni  Ni846  1  0.07608380  0.21920764  0.61412569  1.0
  Ni  Ni847  1  0.07608380  0.55254097  0.61412569  1.0
  Ni  Ni848  1  0.07608380  0.88587431  0.61412569  1.0
  Ni  Ni849  1  0.40941713  0.21920764  0.61412569  1.0
  Ni  Ni850  1  0.40941713  0.55254097  0.61412569  1.0
  Ni  Ni851  1  0.40941713  0.88587431  0.61412569  1.0
  Ni  Ni852  1  0.74275046  0.21920764  0.61412569  1.0
  Ni  Ni853  1  0.74275046  0.55254097  0.61412569  1.0
  Ni  Ni854  1  0.74275046  0.88587431  0.61412569  1.0
  Ni  Ni855  1  0.20571343  0.10809653  0.55857014  1.0
  Ni  Ni856  1  0.20571343  0.44142986  0.55857014  1.0
  Ni  Ni857  1  0.20571343  0.77476319  0.55857014  1.0
  Ni  Ni858  1  0.53904676  0.10809653  0.55857014  1.0
  Ni  Ni859  1  0.53904676  0.44142986  0.55857014  1.0
  Ni  Ni860  1  0.53904676  0.77476319  0.55857014  1.0
  Ni  Ni861  1  0.87238009  0.10809653  0.55857014  1.0
  Ni  Ni862  1  0.87238009  0.44142986  0.55857014  1.0
  Ni  Ni863  1  0.87238009  0.77476319  0.55857014  1.0
  Ti  Ti864  1  0.01281219  0.26550394  0.91505162  1.0
  Ti  Ti865  1  0.01281219  0.59883727  0.91505162  1.0
  Ti  Ti866  1  0.01281219  0.93217060  0.91505162  1.0
  Ti  Ti867  1  0.34614552  0.26550394  0.91505162  1.0
  Ti  Ti868  1  0.34614552  0.59883727  0.91505162  1.0
  Ti  Ti869  1  0.34614552  0.93217060  0.91505162  1.0
  Ti  Ti870  1  0.67947886  0.26550394  0.91505162  1.0
  Ti  Ti871  1  0.67947886  0.59883727  0.91505162  1.0
  Ti  Ti872  1  0.67947886  0.93217060  0.91505162  1.0
  Ti  Ti873  1  0.21651590  0.04328171  0.97060718  1.0
  Ti  Ti874  1  0.21651590  0.37661505  0.97060718  1.0
  Ti  Ti875  1  0.21651590  0.70994838  0.97060718  1.0
  Ti  Ti876  1  0.54984923  0.04328171  0.97060718  1.0
  Ti  Ti877  1  0.54984923  0.37661505  0.97060718  1.0
  Ti  Ti878  1  0.54984923  0.70994838  0.97060718  1.0
  Ti  Ti879  1  0.88318256  0.04328171  0.97060718  1.0
  Ti  Ti880  1  0.88318256  0.37661505  0.97060718  1.0
  Ti  Ti881  1  0.88318256  0.70994838  0.97060718  1.0
  Ti  Ti882  1  0.25046651  0.17291134  0.97986644  1.0
  Ti  Ti883  1  0.25046651  0.50624468  0.97986644  1.0
  Ti  Ti884  1  0.25046651  0.83957801  0.97986644  1.0
  Ti  Ti885  1  0.58379985  0.17291134  0.97986644  1.0
  Ti  Ti886  1  0.58379985  0.50624468  0.97986644  1.0
  Ti  Ti887  1  0.58379985  0.83957801  0.97986644  1.0
  Ti  Ti888  1  0.91713318  0.17291134  0.97986644  1.0
  Ti  Ti889  1  0.91713318  0.50624468  0.97986644  1.0
  Ti  Ti890  1  0.91713318  0.83957801  0.97986644  1.0
  Ti  Ti891  1  0.04676281  0.06180023  0.92431088  1.0
  Ti  Ti892  1  0.04676281  0.39513356  0.92431088  1.0
  Ti  Ti893  1  0.04676281  0.72846690  0.92431088  1.0
  Ti  Ti894  1  0.38009614  0.06180023  0.92431088  1.0
  Ti  Ti895  1  0.38009614  0.39513356  0.92431088  1.0
  Ti  Ti896  1  0.38009614  0.72846690  0.92431088  1.0
  Ti  Ti897  1  0.71342948  0.06180023  0.92431088  1.0
  Ti  Ti898  1  0.71342948  0.39513356  0.92431088  1.0
  Ti  Ti899  1  0.71342948  0.72846690  0.92431088  1.0
  Ti  Ti900  1  0.26126898  0.10809653  0.89190347  1.0
  Ti  Ti901  1  0.26126898  0.44142986  0.89190347  1.0
  Ti  Ti902  1  0.26126898  0.77476319  0.89190347  1.0
  Ti  Ti903  1  0.59460231  0.10809653  0.89190347  1.0
  Ti  Ti904  1  0.59460231  0.44142986  0.89190347  1.0
  Ti  Ti905  1  0.59460231  0.77476319  0.89190347  1.0
  Ti  Ti906  1  0.92793565  0.10809653  0.89190347  1.0
  Ti  Ti907  1  0.92793565  0.44142986  0.89190347  1.0
  Ti  Ti908  1  0.92793565  0.77476319  0.89190347  1.0
  Ti  Ti909  1  0.13163935  0.21920764  0.94745903  1.0
  Ti  Ti910  1  0.13163935  0.55254097  0.94745903  1.0
  Ti  Ti911  1  0.13163935  0.88587431  0.94745903  1.0
  Ti  Ti912  1  0.46497269  0.21920764  0.94745903  1.0
  Ti  Ti913  1  0.46497269  0.55254097  0.94745903  1.0
  Ti  Ti914  1  0.46497269  0.88587431  0.94745903  1.0
  Ti  Ti915  1  0.79830602  0.21920764  0.94745903  1.0
  Ti  Ti916  1  0.79830602  0.55254097  0.94745903  1.0
  Ti  Ti917  1  0.79830602  0.88587431  0.94745903  1.0
  Ti  Ti918  1  0.23349120  0.27476319  0.97523681  1.0
  Ti  Ti919  1  0.23349120  0.60809653  0.97523681  1.0
  Ti  Ti920  1  0.23349120  0.94142986  0.97523681  1.0
  Ti  Ti921  1  0.56682454  0.27476319  0.97523681  1.0
  Ti  Ti922  1  0.56682454  0.60809653  0.97523681  1.0
  Ti  Ti923  1  0.56682454  0.94142986  0.97523681  1.0
  Ti  Ti924  1  0.90015787  0.27476319  0.97523681  1.0
  Ti  Ti925  1  0.90015787  0.60809653  0.97523681  1.0
  Ti  Ti926  1  0.90015787  0.94142986  0.97523681  1.0
  Ti  Ti927  1  0.02978750  0.16365208  0.91968125  1.0
  Ti  Ti928  1  0.02978750  0.49698542  0.91968125  1.0
  Ti  Ti929  1  0.02978750  0.83031875  0.91968125  1.0
  Ti  Ti930  1  0.36312083  0.16365208  0.91968125  1.0
  Ti  Ti931  1  0.36312083  0.49698542  0.91968125  1.0
  Ti  Ti932  1  0.36312083  0.83031875  0.91968125  1.0
  Ti  Ti933  1  0.69645417  0.16365208  0.91968125  1.0
  Ti  Ti934  1  0.69645417  0.49698542  0.91968125  1.0
  Ti  Ti935  1  0.69645417  0.83031875  0.91968125  1.0
  Ti  Ti936  1  0.27207145  0.04328171  0.80394051  1.0
  Ti  Ti937  1  0.27207145  0.37661505  0.80394051  1.0
  Ti  Ti938  1  0.27207145  0.70994838  0.80394051  1.0
  Ti  Ti939  1  0.60540478  0.04328171  0.80394051  1.0
  Ti  Ti940  1  0.60540478  0.37661505  0.80394051  1.0
  Ti  Ti941  1  0.60540478  0.70994838  0.80394051  1.0
  Ti  Ti942  1  0.93873812  0.04328171  0.80394051  1.0
  Ti  Ti943  1  0.93873812  0.37661505  0.80394051  1.0
  Ti  Ti944  1  0.93873812  0.70994838  0.80394051  1.0
  Ti  Ti945  1  0.14244182  0.15439282  0.85949606  1.0
  Ti  Ti946  1  0.14244182  0.48772616  0.85949606  1.0
  Ti  Ti947  1  0.14244182  0.82105949  0.85949606  1.0
  Ti  Ti948  1  0.47577515  0.15439282  0.85949606  1.0
  Ti  Ti949  1  0.47577515  0.48772616  0.85949606  1.0
  Ti  Ti950  1  0.47577515  0.82105949  0.85949606  1.0
  Ti  Ti951  1  0.80910849  0.15439282  0.85949606  1.0
  Ti  Ti952  1  0.80910849  0.48772616  0.85949606  1.0
  Ti  Ti953  1  0.80910849  0.82105949  0.85949606  1.0
  Ti  Ti954  1  0.17639244  0.28402245  0.86875532  1.0
  Ti  Ti955  1  0.17639244  0.61735579  0.86875532  1.0
  Ti  Ti956  1  0.17639244  0.95068912  0.86875532  1.0
  Ti  Ti957  1  0.50972577  0.28402245  0.86875532  1.0
  Ti  Ti958  1  0.50972577  0.61735579  0.86875532  1.0
  Ti  Ti959  1  0.50972577  0.95068912  0.86875532  1.0
  Ti  Ti960  1  0.84305910  0.28402245  0.86875532  1.0
  Ti  Ti961  1  0.84305910  0.61735579  0.86875532  1.0
  Ti  Ti962  1  0.84305910  0.95068912  0.86875532  1.0
  Ti  Ti963  1  0.30602207  0.17291134  0.81319977  1.0
  Ti  Ti964  1  0.30602207  0.50624468  0.81319977  1.0
  Ti  Ti965  1  0.30602207  0.83957801  0.81319977  1.0
  Ti  Ti966  1  0.63935540  0.17291134  0.81319977  1.0
  Ti  Ti967  1  0.63935540  0.50624468  0.81319977  1.0
  Ti  Ti968  1  0.63935540  0.83957801  0.81319977  1.0
  Ti  Ti969  1  0.97268873  0.17291134  0.81319977  1.0
  Ti  Ti970  1  0.97268873  0.50624468  0.81319977  1.0
  Ti  Ti971  1  0.97268873  0.83957801  0.81319977  1.0
  Ti  Ti972  1  0.18719491  0.21920764  0.78079236  1.0
  Ti  Ti973  1  0.18719491  0.55254097  0.78079236  1.0
  Ti  Ti974  1  0.18719491  0.88587431  0.78079236  1.0
  Ti  Ti975  1  0.52052824  0.21920764  0.78079236  1.0
  Ti  Ti976  1  0.52052824  0.55254097  0.78079236  1.0
  Ti  Ti977  1  0.52052824  0.88587431  0.78079236  1.0
  Ti  Ti978  1  0.85386157  0.21920764  0.78079236  1.0
  Ti  Ti979  1  0.85386157  0.55254097  0.78079236  1.0
  Ti  Ti980  1  0.85386157  0.88587431  0.78079236  1.0
  Ti  Ti981  1  0.05756528  0.33031875  0.83634792  1.0
  Ti  Ti982  1  0.05756528  0.66365208  0.83634792  1.0
  Ti  Ti983  1  0.05756528  0.99698542  0.83634792  1.0
  Ti  Ti984  1  0.39089861  0.33031875  0.83634792  1.0
  Ti  Ti985  1  0.39089861  0.66365208  0.83634792  1.0
  Ti  Ti986  1  0.39089861  0.99698542  0.83634792  1.0
  Ti  Ti987  1  0.72423194  0.33031875  0.83634792  1.0
  Ti  Ti988  1  0.72423194  0.66365208  0.83634792  1.0
  Ti  Ti989  1  0.72423194  0.99698542  0.83634792  1.0
  Ti  Ti990  1  0.15941713  0.05254097  0.86412569  1.0
  Ti  Ti991  1  0.15941713  0.38587431  0.86412569  1.0
  Ti  Ti992  1  0.15941713  0.71920764  0.86412569  1.0
  Ti  Ti993  1  0.49275046  0.05254097  0.86412569  1.0
  Ti  Ti994  1  0.49275046  0.38587431  0.86412569  1.0
  Ti  Ti995  1  0.49275046  0.71920764  0.86412569  1.0
  Ti  Ti996  1  0.82608380  0.05254097  0.86412569  1.0
  Ti  Ti997  1  0.82608380  0.38587431  0.86412569  1.0
  Ti  Ti998  1  0.82608380  0.71920764  0.86412569  1.0
  Ti  Ti999  1  0.28904676  0.27476319  0.80857014  1.0
  Ti  Ti1000  1  0.28904676  0.60809653  0.80857014  1.0
  Ti  Ti1001  1  0.28904676  0.94142986  0.80857014  1.0
  Ti  Ti1002  1  0.62238009  0.27476319  0.80857014  1.0
  Ti  Ti1003  1  0.62238009  0.60809653  0.80857014  1.0
  Ti  Ti1004  1  0.62238009  0.94142986  0.80857014  1.0
  Ti  Ti1005  1  0.95571343  0.27476319  0.80857014  1.0
  Ti  Ti1006  1  0.95571343  0.60809653  0.80857014  1.0
  Ti  Ti1007  1  0.95571343  0.94142986  0.80857014  1.0
  Ti  Ti1008  1  0.19799738  0.15439282  0.69282940  1.0
  Ti  Ti1009  1  0.19799738  0.48772616  0.69282940  1.0
  Ti  Ti1010  1  0.19799738  0.82105949  0.69282940  1.0
  Ti  Ti1011  1  0.53133071  0.15439282  0.69282940  1.0
  Ti  Ti1012  1  0.53133071  0.48772616  0.69282940  1.0
  Ti  Ti1013  1  0.53133071  0.82105949  0.69282940  1.0
  Ti  Ti1014  1  0.86466404  0.15439282  0.69282940  1.0
  Ti  Ti1015  1  0.86466404  0.48772616  0.69282940  1.0
  Ti  Ti1016  1  0.86466404  0.82105949  0.69282940  1.0
  Ti  Ti1017  1  0.06836775  0.26550394  0.74838495  1.0
  Ti  Ti1018  1  0.06836775  0.59883727  0.74838495  1.0
  Ti  Ti1019  1  0.06836775  0.93217060  0.74838495  1.0
  Ti  Ti1020  1  0.40170108  0.26550394  0.74838495  1.0
  Ti  Ti1021  1  0.40170108  0.59883727  0.74838495  1.0
  Ti  Ti1022  1  0.40170108  0.93217060  0.74838495  1.0
  Ti  Ti1023  1  0.73503441  0.26550394  0.74838495  1.0
  Ti  Ti1024  1  0.73503441  0.59883727  0.74838495  1.0
  Ti  Ti1025  1  0.73503441  0.93217060  0.74838495  1.0
  Ti  Ti1026  1  0.10231836  0.06180023  0.75764421  1.0
  Ti  Ti1027  1  0.10231836  0.39513356  0.75764421  1.0
  Ti  Ti1028  1  0.10231836  0.72846690  0.75764421  1.0
  Ti  Ti1029  1  0.43565170  0.06180023  0.75764421  1.0
  Ti  Ti1030  1  0.43565170  0.39513356  0.75764421  1.0
  Ti  Ti1031  1  0.43565170  0.72846690  0.75764421  1.0
  Ti  Ti1032  1  0.76898503  0.06180023  0.75764421  1.0
  Ti  Ti1033  1  0.76898503  0.39513356  0.75764421  1.0
  Ti  Ti1034  1  0.76898503  0.72846690  0.75764421  1.0
  Ti  Ti1035  1  0.23194799  0.28402245  0.70208866  1.0
  Ti  Ti1036  1  0.23194799  0.61735579  0.70208866  1.0
  Ti  Ti1037  1  0.23194799  0.95068912  0.70208866  1.0
  Ti  Ti1038  1  0.56528133  0.28402245  0.70208866  1.0
  Ti  Ti1039  1  0.56528133  0.61735579  0.70208866  1.0
  Ti  Ti1040  1  0.56528133  0.95068912  0.70208866  1.0
  Ti  Ti1041  1  0.89861466  0.28402245  0.70208866  1.0
  Ti  Ti1042  1  0.89861466  0.61735579  0.70208866  1.0
  Ti  Ti1043  1  0.89861466  0.95068912  0.70208866  1.0
  Ti  Ti1044  1  0.11312083  0.33031875  0.66968125  1.0
  Ti  Ti1045  1  0.11312083  0.66365208  0.66968125  1.0
  Ti  Ti1046  1  0.11312083  0.99698542  0.66968125  1.0
  Ti  Ti1047  1  0.44645417  0.33031875  0.66968125  1.0
  Ti  Ti1048  1  0.44645417  0.66365208  0.66968125  1.0
  Ti  Ti1049  1  0.44645417  0.99698542  0.66968125  1.0
  Ti  Ti1050  1  0.77978750  0.33031875  0.66968125  1.0
  Ti  Ti1051  1  0.77978750  0.66365208  0.66968125  1.0
  Ti  Ti1052  1  0.77978750  0.99698542  0.66968125  1.0
  Ti  Ti1053  1  0.31682454  0.10809653  0.72523681  1.0
  Ti  Ti1054  1  0.31682454  0.44142986  0.72523681  1.0
  Ti  Ti1055  1  0.31682454  0.77476319  0.72523681  1.0
  Ti  Ti1056  1  0.65015787  0.10809653  0.72523681  1.0
  Ti  Ti1057  1  0.65015787  0.44142986  0.72523681  1.0
  Ti  Ti1058  1  0.65015787  0.77476319  0.72523681  1.0
  Ti  Ti1059  1  0.98349120  0.10809653  0.72523681  1.0
  Ti  Ti1060  1  0.98349120  0.44142986  0.72523681  1.0
  Ti  Ti1061  1  0.98349120  0.77476319  0.72523681  1.0
  Ti  Ti1062  1  0.08534306  0.16365208  0.75301458  1.0
  Ti  Ti1063  1  0.08534306  0.49698542  0.75301458  1.0
  Ti  Ti1064  1  0.08534306  0.83031875  0.75301458  1.0
  Ti  Ti1065  1  0.41867639  0.16365208  0.75301458  1.0
  Ti  Ti1066  1  0.41867639  0.49698542  0.75301458  1.0
  Ti  Ti1067  1  0.41867639  0.83031875  0.75301458  1.0
  Ti  Ti1068  1  0.75200972  0.16365208  0.75301458  1.0
  Ti  Ti1069  1  0.75200972  0.49698542  0.75301458  1.0
  Ti  Ti1070  1  0.75200972  0.83031875  0.75301458  1.0
  Ti  Ti1071  1  0.21497269  0.05254097  0.69745903  1.0
  Ti  Ti1072  1  0.21497269  0.38587431  0.69745903  1.0
  Ti  Ti1073  1  0.21497269  0.71920764  0.69745903  1.0
  Ti  Ti1074  1  0.54830602  0.05254097  0.69745903  1.0
  Ti  Ti1075  1  0.54830602  0.38587431  0.69745903  1.0
  Ti  Ti1076  1  0.54830602  0.71920764  0.69745903  1.0
  Ti  Ti1077  1  0.88163935  0.05254097  0.69745903  1.0
  Ti  Ti1078  1  0.88163935  0.38587431  0.69745903  1.0
  Ti  Ti1079  1  0.88163935  0.71920764  0.69745903  1.0
  Ti  Ti1080  1  0.12392330  0.26550394  0.58171829  1.0
  Ti  Ti1081  1  0.12392330  0.59883727  0.58171829  1.0
  Ti  Ti1082  1  0.12392330  0.93217060  0.58171829  1.0
  Ti  Ti1083  1  0.45725664  0.26550394  0.58171829  1.0
  Ti  Ti1084  1  0.45725664  0.59883727  0.58171829  1.0
  Ti  Ti1085  1  0.45725664  0.93217060  0.58171829  1.0
  Ti  Ti1086  1  0.79058997  0.26550394  0.58171829  1.0
  Ti  Ti1087  1  0.79058997  0.59883727  0.58171829  1.0
  Ti  Ti1088  1  0.79058997  0.93217060  0.58171829  1.0
  Ti  Ti1089  1  0.32762701  0.04328171  0.63727384  1.0
  Ti  Ti1090  1  0.32762701  0.37661505  0.63727384  1.0
  Ti  Ti1091  1  0.32762701  0.70994838  0.63727384  1.0
  Ti  Ti1092  1  0.66096034  0.04328171  0.63727384  1.0
  Ti  Ti1093  1  0.66096034  0.37661505  0.63727384  1.0
  Ti  Ti1094  1  0.66096034  0.70994838  0.63727384  1.0
  Ti  Ti1095  1  0.99429367  0.04328171  0.63727384  1.0
  Ti  Ti1096  1  0.99429367  0.37661505  0.63727384  1.0
  Ti  Ti1097  1  0.99429367  0.70994838  0.63727384  1.0
  Ti  Ti1098  1  0.02824429  0.17291134  0.64653310  1.0
  Ti  Ti1099  1  0.02824429  0.50624468  0.64653310  1.0
  Ti  Ti1100  1  0.02824429  0.83957801  0.64653310  1.0
  Ti  Ti1101  1  0.36157762  0.17291134  0.64653310  1.0
  Ti  Ti1102  1  0.36157762  0.50624468  0.64653310  1.0
  Ti  Ti1103  1  0.36157762  0.83957801  0.64653310  1.0
  Ti  Ti1104  1  0.69491096  0.17291134  0.64653310  1.0
  Ti  Ti1105  1  0.69491096  0.50624468  0.64653310  1.0
  Ti  Ti1106  1  0.69491096  0.83957801  0.64653310  1.0
  Ti  Ti1107  1  0.15787392  0.06180023  0.59097755  1.0
  Ti  Ti1108  1  0.15787392  0.39513356  0.59097755  1.0
  Ti  Ti1109  1  0.15787392  0.72846690  0.59097755  1.0
  Ti  Ti1110  1  0.49120725  0.06180023  0.59097755  1.0
  Ti  Ti1111  1  0.49120725  0.39513356  0.59097755  1.0
  Ti  Ti1112  1  0.49120725  0.72846690  0.59097755  1.0
  Ti  Ti1113  1  0.82454059  0.06180023  0.59097755  1.0
  Ti  Ti1114  1  0.82454059  0.39513356  0.59097755  1.0
  Ti  Ti1115  1  0.82454059  0.72846690  0.59097755  1.0
  Ti  Ti1116  1  0.03904676  0.10809653  0.55857014  1.0
  Ti  Ti1117  1  0.03904676  0.44142986  0.55857014  1.0
  Ti  Ti1118  1  0.03904676  0.77476319  0.55857014  1.0
  Ti  Ti1119  1  0.37238009  0.10809653  0.55857014  1.0
  Ti  Ti1120  1  0.37238009  0.44142986  0.55857014  1.0
  Ti  Ti1121  1  0.37238009  0.77476319  0.55857014  1.0
  Ti  Ti1122  1  0.70571343  0.10809653  0.55857014  1.0
  Ti  Ti1123  1  0.70571343  0.44142986  0.55857014  1.0
  Ti  Ti1124  1  0.70571343  0.77476319  0.55857014  1.0
  Ti  Ti1125  1  0.24275046  0.21920764  0.61412569  1.0
  Ti  Ti1126  1  0.24275046  0.55254097  0.61412569  1.0
  Ti  Ti1127  1  0.24275046  0.88587431  0.61412569  1.0
  Ti  Ti1128  1  0.57608380  0.21920764  0.61412569  1.0
  Ti  Ti1129  1  0.57608380  0.55254097  0.61412569  1.0
  Ti  Ti1130  1  0.57608380  0.88587431  0.61412569  1.0
  Ti  Ti1131  1  0.90941713  0.21920764  0.61412569  1.0
  Ti  Ti1132  1  0.90941713  0.55254097  0.61412569  1.0
  Ti  Ti1133  1  0.90941713  0.88587431  0.61412569  1.0
  Ti  Ti1134  1  0.01126898  0.27476319  0.64190347  1.0
  Ti  Ti1135  1  0.01126898  0.60809653  0.64190347  1.0
  Ti  Ti1136  1  0.01126898  0.94142986  0.64190347  1.0
  Ti  Ti1137  1  0.34460231  0.27476319  0.64190347  1.0
  Ti  Ti1138  1  0.34460231  0.60809653  0.64190347  1.0
  Ti  Ti1139  1  0.34460231  0.94142986  0.64190347  1.0
  Ti  Ti1140  1  0.67793565  0.27476319  0.64190347  1.0
  Ti  Ti1141  1  0.67793565  0.60809653  0.64190347  1.0
  Ti  Ti1142  1  0.67793565  0.94142986  0.64190347  1.0
  Ti  Ti1143  1  0.14089861  0.16365208  0.58634792  1.0
  Ti  Ti1144  1  0.14089861  0.49698542  0.58634792  1.0
  Ti  Ti1145  1  0.14089861  0.83031875  0.58634792  1.0
  Ti  Ti1146  1  0.47423194  0.16365208  0.58634792  1.0
  Ti  Ti1147  1  0.47423194  0.49698542  0.58634792  1.0
  Ti  Ti1148  1  0.47423194  0.83031875  0.58634792  1.0
  Ti  Ti1149  1  0.80756528  0.16365208  0.58634792  1.0
  Ti  Ti1150  1  0.80756528  0.49698542  0.58634792  1.0
  Ti  Ti1151  1  0.80756528  0.83031875  0.58634792  1.0
