# generated using pymatgen
data_TiNi
_symmetry_space_group_name_H-M   'P 1'
_cell_length_a   37.81806124
_cell_length_b   38.66681539
_cell_length_c   58.22471424
_cell_angle_alpha   73.60017156
_cell_angle_beta   30.00000000
_cell_angle_gamma   60.72349712
_symmetry_Int_Tables_number   1
_chemical_formula_structural   TiNi
_chemical_formula_sum   'Ti486 Ni486'
_cell_volume   35134.44770703
_cell_formula_units_Z   486
loop_
 _symmetry_equiv_pos_site_id
 _symmetry_equiv_pos_as_xyz
  1  'x, y, z'
loop_
 _atom_site_type_symbol
 _atom_site_label
 _atom_site_symmetry_multiplicity
 _atom_site_fract_x
 _atom_site_fract_y
 _atom_site_fract_z
 _atom_site_occupancy
  Ti  Ti0  1  0.16666667  0.16666667  0.04836056  1.0
  Ti  Ti1  1  0.16666667  0.50000000  0.04836056  1.0
  Ti  Ti2  1  0.16666667  0.83333333  0.04836056  1.0
  Ti  Ti3  1  0.50000000  0.16666667  0.04836056  1.0
  Ti  Ti4  1  0.50000000  0.50000000  0.04836056  1.0
  Ti  Ti5  1  0.50000000  0.83333333  0.04836056  1.0
  Ti  Ti6  1  0.83333333  0.16666667  0.04836056  1.0
  Ti  Ti7  1  0.83333333  0.50000000  0.04836056  1.0
  Ti  Ti8  1  0.83333333  0.83333333  0.04836056  1.0
  Ti  Ti9  1  0.00000000  0.00000000  0.11086056  1.0
  Ti  Ti10  1  0.00000000  0.33333333  0.11086056  1.0
  Ti  Ti11  1  0.00000000  0.66666667  0.11086056  1.0
  Ti  Ti12  1  0.33333333  0.00000000  0.11086056  1.0
  Ti  Ti13  1  0.33333333  0.33333333  0.11086056  1.0
  Ti  Ti14  1  0.33333333  0.66666667  0.11086056  1.0
  Ti  Ti15  1  0.66666667  0.00000000  0.11086056  1.0
  Ti  Ti16  1  0.66666667  0.33333333  0.11086056  1.0
  Ti  Ti17  1  0.66666667  0.66666667  0.11086056  1.0
  Ti  Ti18  1  0.04820622  0.17401600  0.05111656  1.0
  Ti  Ti19  1  0.04820622  0.50734933  0.05111656  1.0
  Ti  Ti20  1  0.04820622  0.84068267  0.05111656  1.0
  Ti  Ti21  1  0.38153956  0.17401600  0.05111656  1.0
  Ti  Ti22  1  0.38153956  0.50734933  0.05111656  1.0
  Ti  Ti23  1  0.38153956  0.84068267  0.05111656  1.0
  Ti  Ti24  1  0.71487289  0.17401600  0.05111656  1.0
  Ti  Ti25  1  0.71487289  0.50734933  0.05111656  1.0
  Ti  Ti26  1  0.71487289  0.84068267  0.05111656  1.0
  Ti  Ti27  1  0.21487289  0.00734933  0.11361656  1.0
  Ti  Ti28  1  0.21487289  0.34068267  0.11361656  1.0
  Ti  Ti29  1  0.21487289  0.67401600  0.11361656  1.0
  Ti  Ti30  1  0.54820622  0.00734933  0.11361656  1.0
  Ti  Ti31  1  0.54820622  0.34068267  0.11361656  1.0
  Ti  Ti32  1  0.54820622  0.67401600  0.11361656  1.0
  Ti  Ti33  1  0.88153956  0.00734933  0.11361656  1.0
  Ti  Ti34  1  0.88153956  0.34068267  0.11361656  1.0
  Ti  Ti35  1  0.88153956  0.67401600  0.11361656  1.0
  Ti  Ti36  1  0.11846044  0.32598400  0.10810456  1.0
  Ti  Ti37  1  0.11846044  0.65931733  0.10810456  1.0
  Ti  Ti38  1  0.11846044  0.99265067  0.10810456  1.0
  Ti  Ti39  1  0.45179378  0.32598400  0.10810456  1.0
  Ti  Ti40  1  0.45179378  0.65931733  0.10810456  1.0
  Ti  Ti41  1  0.45179378  0.99265067  0.10810456  1.0
  Ti  Ti42  1  0.78512711  0.32598400  0.10810456  1.0
  Ti  Ti43  1  0.78512711  0.65931733  0.10810456  1.0
  Ti  Ti44  1  0.78512711  0.99265067  0.10810456  1.0
  Ti  Ti45  1  0.28512711  0.15931733  0.04560456  1.0
  Ti  Ti46  1  0.28512711  0.49265067  0.04560456  1.0
  Ti  Ti47  1  0.28512711  0.82598400  0.04560456  1.0
  Ti  Ti48  1  0.61846044  0.15931733  0.04560456  1.0
  Ti  Ti49  1  0.61846044  0.49265067  0.04560456  1.0
  Ti  Ti50  1  0.61846044  0.82598400  0.04560456  1.0
  Ti  Ti51  1  0.95179378  0.15931733  0.04560456  1.0
  Ti  Ti52  1  0.95179378  0.49265067  0.04560456  1.0
  Ti  Ti53  1  0.95179378  0.82598400  0.04560456  1.0
  Ti  Ti54  1  0.33203883  0.22433583  0.10971112  1.0
  Ti  Ti55  1  0.33203883  0.55766917  0.10971113  1.0
  Ti  Ti56  1  0.33203883  0.89100250  0.10971112  1.0
  Ti  Ti57  1  0.66537217  0.22433583  0.10971113  1.0
  Ti  Ti58  1  0.66537217  0.55766917  0.10971112  1.0
  Ti  Ti59  1  0.66537217  0.89100250  0.10971112  1.0
  Ti  Ti60  1  0.99870550  0.22433583  0.10971112  1.0
  Ti  Ti61  1  0.99870550  0.55766917  0.10971112  1.0
  Ti  Ti62  1  0.99870550  0.89100250  0.10971113  1.0
  Ti  Ti63  1  0.16537217  0.05766917  0.04721113  1.0
  Ti  Ti64  1  0.16537217  0.39100250  0.04721113  1.0
  Ti  Ti65  1  0.16537217  0.72433583  0.04721112  1.0
  Ti  Ti66  1  0.49870550  0.05766917  0.04721113  1.0
  Ti  Ti67  1  0.49870550  0.39100250  0.04721113  1.0
  Ti  Ti68  1  0.49870550  0.72433583  0.04721112  1.0
  Ti  Ti69  1  0.83203883  0.05766917  0.04721112  1.0
  Ti  Ti70  1  0.83203883  0.39100250  0.04721112  1.0
  Ti  Ti71  1  0.83203883  0.72433583  0.04721112  1.0
  Ti  Ti72  1  0.10463783  0.22433583  0.11461575  1.0
  Ti  Ti73  1  0.10463783  0.55766917  0.11461575  1.0
  Ti  Ti74  1  0.10463783  0.89100250  0.11461575  1.0
  Ti  Ti75  1  0.43797117  0.22433583  0.11461575  1.0
  Ti  Ti76  1  0.43797117  0.55766917  0.11461575  1.0
  Ti  Ti77  1  0.43797117  0.89100250  0.11461575  1.0
  Ti  Ti78  1  0.77130450  0.22433583  0.11461575  1.0
  Ti  Ti79  1  0.77130450  0.55766917  0.11461575  1.0
  Ti  Ti80  1  0.77130450  0.89100250  0.11461575  1.0
  Ti  Ti81  1  0.27130450  0.05766917  0.05211575  1.0
  Ti  Ti82  1  0.27130450  0.39100250  0.05211575  1.0
  Ti  Ti83  1  0.27130450  0.72433583  0.05211575  1.0
  Ti  Ti84  1  0.60463783  0.05766917  0.05211575  1.0
  Ti  Ti85  1  0.60463783  0.39100250  0.05211575  1.0
  Ti  Ti86  1  0.60463783  0.72433583  0.05211575  1.0
  Ti  Ti87  1  0.93797117  0.05766917  0.05211575  1.0
  Ti  Ti88  1  0.93797117  0.39100250  0.05211575  1.0
  Ti  Ti89  1  0.93797117  0.72433583  0.05211575  1.0
  Ti  Ti90  1  0.22364917  0.22433583  0.11063262  1.0
  Ti  Ti91  1  0.22364917  0.55766917  0.11063262  1.0
  Ti  Ti92  1  0.22364917  0.89100250  0.11063262  1.0
  Ti  Ti93  1  0.55698250  0.22433583  0.11063262  1.0
  Ti  Ti94  1  0.55698250  0.55766917  0.11063262  1.0
  Ti  Ti95  1  0.55698250  0.89100250  0.11063262  1.0
  Ti  Ti96  1  0.89031583  0.22433583  0.11063262  1.0
  Ti  Ti97  1  0.89031583  0.55766917  0.11063262  1.0
  Ti  Ti98  1  0.89031583  0.89100250  0.11063262  1.0
  Ti  Ti99  1  0.05698250  0.05766917  0.04813262  1.0
  Ti  Ti100  1  0.05698250  0.39100250  0.04813262  1.0
  Ti  Ti101  1  0.05698250  0.72433583  0.04813262  1.0
  Ti  Ti102  1  0.39031583  0.05766917  0.04813262  1.0
  Ti  Ti103  1  0.39031583  0.39100250  0.04813262  1.0
  Ti  Ti104  1  0.39031583  0.72433583  0.04813262  1.0
  Ti  Ti105  1  0.72364917  0.05766917  0.04813262  1.0
  Ti  Ti106  1  0.72364917  0.39100250  0.04813263  1.0
  Ti  Ti107  1  0.72364917  0.72433583  0.04813262  1.0
  Ti  Ti108  1  0.16796117  0.27566417  0.04951000  1.0
  Ti  Ti109  1  0.16796117  0.60899750  0.04951000  1.0
  Ti  Ti110  1  0.16796117  0.94233083  0.04951000  1.0
  Ti  Ti111  1  0.50129450  0.27566417  0.04951000  1.0
  Ti  Ti112  1  0.50129450  0.60899750  0.04951000  1.0
  Ti  Ti113  1  0.50129450  0.94233083  0.04951000  1.0
  Ti  Ti114  1  0.83462783  0.27566417  0.04951000  1.0
  Ti  Ti115  1  0.83462783  0.60899750  0.04951000  1.0
  Ti  Ti116  1  0.83462783  0.94233083  0.04951000  1.0
  Ti  Ti117  1  0.00129450  0.10899750  0.11201000  1.0
  Ti  Ti118  1  0.00129450  0.44233083  0.11201000  1.0
  Ti  Ti119  1  0.00129450  0.77566417  0.11201000  1.0
  Ti  Ti120  1  0.33462783  0.10899750  0.11201000  1.0
  Ti  Ti121  1  0.33462783  0.44233083  0.11201000  1.0
  Ti  Ti122  1  0.33462783  0.77566417  0.11201000  1.0
  Ti  Ti123  1  0.66796117  0.10899750  0.11201000  1.0
  Ti  Ti124  1  0.66796117  0.44233083  0.11201000  1.0
  Ti  Ti125  1  0.66796117  0.77566417  0.11201000  1.0
  Ti  Ti126  1  0.06202883  0.27566417  0.04460537  1.0
  Ti  Ti127  1  0.06202883  0.60899750  0.04460537  1.0
  Ti  Ti128  1  0.06202883  0.94233083  0.04460537  1.0
  Ti  Ti129  1  0.39536217  0.27566417  0.04460537  1.0
  Ti  Ti130  1  0.39536217  0.60899750  0.04460537  1.0
  Ti  Ti131  1  0.39536217  0.94233083  0.04460537  1.0
  Ti  Ti132  1  0.72869550  0.27566417  0.04460537  1.0
  Ti  Ti133  1  0.72869550  0.60899750  0.04460537  1.0
  Ti  Ti134  1  0.72869550  0.94233083  0.04460537  1.0
  Ti  Ti135  1  0.22869550  0.10899750  0.10710538  1.0
  Ti  Ti136  1  0.22869550  0.44233083  0.10710537  1.0
  Ti  Ti137  1  0.22869550  0.77566417  0.10710537  1.0
  Ti  Ti138  1  0.56202883  0.10899750  0.10710537  1.0
  Ti  Ti139  1  0.56202883  0.44233083  0.10710537  1.0
  Ti  Ti140  1  0.56202883  0.77566417  0.10710537  1.0
  Ti  Ti141  1  0.89536217  0.10899750  0.10710537  1.0
  Ti  Ti142  1  0.89536217  0.44233083  0.10710537  1.0
  Ti  Ti143  1  0.89536217  0.77566417  0.10710537  1.0
  Ti  Ti144  1  0.27635083  0.27566417  0.04858850  1.0
  Ti  Ti145  1  0.27635083  0.60899750  0.04858850  1.0
  Ti  Ti146  1  0.27635083  0.94233083  0.04858850  1.0
  Ti  Ti147  1  0.60968417  0.27566417  0.04858850  1.0
  Ti  Ti148  1  0.60968417  0.60899750  0.04858850  1.0
  Ti  Ti149  1  0.60968417  0.94233083  0.04858850  1.0
  Ti  Ti150  1  0.94301750  0.27566417  0.04858850  1.0
  Ti  Ti151  1  0.94301750  0.60899750  0.04858850  1.0
  Ti  Ti152  1  0.94301750  0.94233083  0.04858850  1.0
  Ti  Ti153  1  0.10968417  0.10899750  0.11108850  1.0
  Ti  Ti154  1  0.10968417  0.44233083  0.11108850  1.0
  Ti  Ti155  1  0.10968417  0.77566417  0.11108850  1.0
  Ti  Ti156  1  0.44301750  0.10899750  0.11108850  1.0
  Ti  Ti157  1  0.44301750  0.44233083  0.11108850  1.0
  Ti  Ti158  1  0.44301750  0.77566417  0.11108850  1.0
  Ti  Ti159  1  0.77635083  0.10899750  0.11108850  1.0
  Ti  Ti160  1  0.77635083  0.44233083  0.11108850  1.0
  Ti  Ti161  1  0.77635083  0.77566417  0.11108850  1.0
  Ni  Ni162  1  0.08333333  0.25000000  0.07961056  1.0
  Ni  Ni163  1  0.08333333  0.58333333  0.07961056  1.0
  Ni  Ni164  1  0.08333333  0.91666667  0.07961056  1.0
  Ni  Ni165  1  0.41666667  0.25000000  0.07961056  1.0
  Ni  Ni166  1  0.41666667  0.58333333  0.07961056  1.0
  Ni  Ni167  1  0.41666667  0.91666667  0.07961056  1.0
  Ni  Ni168  1  0.75000000  0.25000000  0.07961056  1.0
  Ni  Ni169  1  0.75000000  0.58333333  0.07961056  1.0
  Ni  Ni170  1  0.75000000  0.91666667  0.07961056  1.0
  Ni  Ni171  1  0.25000000  0.08333333  0.01711056  1.0
  Ni  Ni172  1  0.25000000  0.41666667  0.01711056  1.0
  Ni  Ni173  1  0.25000000  0.75000000  0.01711056  1.0
  Ni  Ni174  1  0.58333333  0.08333333  0.01711056  1.0
  Ni  Ni175  1  0.58333333  0.41666667  0.01711056  1.0
  Ni  Ni176  1  0.58333333  0.75000000  0.01711056  1.0
  Ni  Ni177  1  0.91666667  0.08333333  0.01711056  1.0
  Ni  Ni178  1  0.91666667  0.41666667  0.01711056  1.0
  Ni  Ni179  1  0.91666667  0.75000000  0.01711056  1.0
  Ni  Ni180  1  0.29117372  0.26438183  0.08500375  1.0
  Ni  Ni181  1  0.29117372  0.59771517  0.08500375  1.0
  Ni  Ni182  1  0.29117372  0.93104850  0.08500375  1.0
  Ni  Ni183  1  0.62450706  0.26438183  0.08500375  1.0
  Ni  Ni184  1  0.62450706  0.59771517  0.08500375  1.0
  Ni  Ni185  1  0.62450706  0.93104850  0.08500375  1.0
  Ni  Ni186  1  0.95784039  0.26438183  0.08500375  1.0
  Ni  Ni187  1  0.95784039  0.59771517  0.08500375  1.0
  Ni  Ni188  1  0.95784039  0.93104850  0.08500375  1.0
  Ni  Ni189  1  0.12450706  0.09771517  0.02250375  1.0
  Ni  Ni190  1  0.12450706  0.43104850  0.02250375  1.0
  Ni  Ni191  1  0.12450706  0.76438183  0.02250375  1.0
  Ni  Ni192  1  0.45784039  0.09771517  0.02250375  1.0
  Ni  Ni193  1  0.45784039  0.43104850  0.02250375  1.0
  Ni  Ni194  1  0.45784039  0.76438183  0.02250375  1.0
  Ni  Ni195  1  0.79117372  0.09771517  0.02250375  1.0
  Ni  Ni196  1  0.79117372  0.43104850  0.02250375  1.0
  Ni  Ni197  1  0.79117372  0.76438183  0.02250375  1.0
  Ni  Ni198  1  0.20882628  0.23561817  0.07421738  1.0
  Ni  Ni199  1  0.20882628  0.56895150  0.07421738  1.0
  Ni  Ni200  1  0.20882628  0.90228483  0.07421737  1.0
  Ni  Ni201  1  0.54215961  0.23561817  0.07421738  1.0
  Ni  Ni202  1  0.54215961  0.56895150  0.07421737  1.0
  Ni  Ni203  1  0.54215961  0.90228483  0.07421737  1.0
  Ni  Ni204  1  0.87549294  0.23561817  0.07421737  1.0
  Ni  Ni205  1  0.87549294  0.56895150  0.07421737  1.0
  Ni  Ni206  1  0.87549294  0.90228483  0.07421738  1.0
  Ni  Ni207  1  0.04215961  0.06895150  0.01171737  1.0
  Ni  Ni208  1  0.04215961  0.40228483  0.01171737  1.0
  Ni  Ni209  1  0.04215961  0.73561817  0.01171737  1.0
  Ni  Ni210  1  0.37549294  0.06895150  0.01171737  1.0
  Ni  Ni211  1  0.37549294  0.40228483  0.01171737  1.0
  Ni  Ni212  1  0.37549294  0.73561817  0.01171737  1.0
  Ni  Ni213  1  0.70882628  0.06895150  0.01171738  1.0
  Ni  Ni214  1  0.70882628  0.40228483  0.01171737  1.0
  Ni  Ni215  1  0.70882628  0.73561817  0.01171738  1.0
  Ni  Ni216  1  0.25221217  0.30983450  0.01300712  1.0
  Ni  Ni217  1  0.25221217  0.64316783  0.01300713  1.0
  Ni  Ni218  1  0.25221217  0.97650117  0.01300712  1.0
  Ni  Ni219  1  0.58554550  0.30983450  0.01300713  1.0
  Ni  Ni220  1  0.58554550  0.64316783  0.01300712  1.0
  Ni  Ni221  1  0.58554550  0.97650117  0.01300712  1.0
  Ni  Ni222  1  0.91887883  0.30983450  0.01300712  1.0
  Ni  Ni223  1  0.91887883  0.64316783  0.01300712  1.0
  Ni  Ni224  1  0.91887883  0.97650117  0.01300712  1.0
  Ni  Ni225  1  0.08554550  0.14316783  0.07550712  1.0
  Ni  Ni226  1  0.08554550  0.47650117  0.07550712  1.0
  Ni  Ni227  1  0.08554550  0.80983450  0.07550712  1.0
  Ni  Ni228  1  0.41887883  0.14316783  0.07550712  1.0
  Ni  Ni229  1  0.41887883  0.47650117  0.07550712  1.0
  Ni  Ni230  1  0.41887883  0.80983450  0.07550712  1.0
  Ni  Ni231  1  0.75221217  0.14316783  0.07550712  1.0
  Ni  Ni232  1  0.75221217  0.47650117  0.07550713  1.0
  Ni  Ni233  1  0.75221217  0.80983450  0.07550712  1.0
  Ni  Ni234  1  0.01476850  0.30983450  0.02282875  1.0
  Ni  Ni235  1  0.01476850  0.64316783  0.02282875  1.0
  Ni  Ni236  1  0.01476850  0.97650117  0.02282875  1.0
  Ni  Ni237  1  0.34810183  0.30983450  0.02282875  1.0
  Ni  Ni238  1  0.34810183  0.64316783  0.02282875  1.0
  Ni  Ni239  1  0.34810183  0.97650117  0.02282875  1.0
  Ni  Ni240  1  0.68143517  0.30983450  0.02282875  1.0
  Ni  Ni241  1  0.68143517  0.64316783  0.02282875  1.0
  Ni  Ni242  1  0.68143517  0.97650117  0.02282875  1.0
  Ni  Ni243  1  0.18143517  0.14316783  0.08532875  1.0
  Ni  Ni244  1  0.18143517  0.47650117  0.08532875  1.0
  Ni  Ni245  1  0.18143517  0.80983450  0.08532875  1.0
  Ni  Ni246  1  0.51476850  0.14316783  0.08532875  1.0
  Ni  Ni247  1  0.51476850  0.47650117  0.08532875  1.0
  Ni  Ni248  1  0.51476850  0.80983450  0.08532875  1.0
  Ni  Ni249  1  0.84810183  0.14316783  0.08532875  1.0
  Ni  Ni250  1  0.84810183  0.47650117  0.08532875  1.0
  Ni  Ni251  1  0.84810183  0.80983450  0.08532875  1.0
  Ni  Ni252  1  0.13684917  0.30983450  0.02030962  1.0
  Ni  Ni253  1  0.13684917  0.64316783  0.02030962  1.0
  Ni  Ni254  1  0.13684917  0.97650117  0.02030962  1.0
  Ni  Ni255  1  0.47018250  0.30983450  0.02030962  1.0
  Ni  Ni256  1  0.47018250  0.64316783  0.02030962  1.0
  Ni  Ni257  1  0.47018250  0.97650117  0.02030962  1.0
  Ni  Ni258  1  0.80351583  0.30983450  0.02030962  1.0
  Ni  Ni259  1  0.80351583  0.64316783  0.02030962  1.0
  Ni  Ni260  1  0.80351583  0.97650117  0.02030962  1.0
  Ni  Ni261  1  0.30351583  0.14316783  0.08280962  1.0
  Ni  Ni262  1  0.30351583  0.47650117  0.08280962  1.0
  Ni  Ni263  1  0.30351583  0.80983450  0.08280962  1.0
  Ni  Ni264  1  0.63684917  0.14316783  0.08280962  1.0
  Ni  Ni265  1  0.63684917  0.47650117  0.08280962  1.0
  Ni  Ni266  1  0.63684917  0.80983450  0.08280962  1.0
  Ni  Ni267  1  0.97018250  0.14316783  0.08280962  1.0
  Ni  Ni268  1  0.97018250  0.47650117  0.08280962  1.0
  Ni  Ni269  1  0.97018250  0.80983450  0.08280962  1.0
  Ni  Ni270  1  0.24778783  0.19016550  0.02121400  1.0
  Ni  Ni271  1  0.24778783  0.52349883  0.02121400  1.0
  Ni  Ni272  1  0.24778783  0.85683217  0.02121400  1.0
  Ni  Ni273  1  0.58112117  0.19016550  0.02121400  1.0
  Ni  Ni274  1  0.58112117  0.52349883  0.02121400  1.0
  Ni  Ni275  1  0.58112117  0.85683217  0.02121400  1.0
  Ni  Ni276  1  0.91445450  0.19016550  0.02121400  1.0
  Ni  Ni277  1  0.91445450  0.52349883  0.02121400  1.0
  Ni  Ni278  1  0.91445450  0.85683217  0.02121400  1.0
  Ni  Ni279  1  0.08112117  0.02349883  0.08371400  1.0
  Ni  Ni280  1  0.08112117  0.35683217  0.08371400  1.0
  Ni  Ni281  1  0.08112117  0.69016550  0.08371400  1.0
  Ni  Ni282  1  0.41445450  0.02349883  0.08371400  1.0
  Ni  Ni283  1  0.41445450  0.35683217  0.08371400  1.0
  Ni  Ni284  1  0.41445450  0.69016550  0.08371400  1.0
  Ni  Ni285  1  0.74778783  0.02349883  0.08371400  1.0
  Ni  Ni286  1  0.74778783  0.35683217  0.08371400  1.0
  Ni  Ni287  1  0.74778783  0.69016550  0.08371400  1.0
  Ni  Ni288  1  0.15189817  0.19016550  0.01139237  1.0
  Ni  Ni289  1  0.15189817  0.52349883  0.01139237  1.0
  Ni  Ni290  1  0.15189817  0.85683217  0.01139237  1.0
  Ni  Ni291  1  0.48523150  0.19016550  0.01139238  1.0
  Ni  Ni292  1  0.48523150  0.52349883  0.01139238  1.0
  Ni  Ni293  1  0.48523150  0.85683217  0.01139237  1.0
  Ni  Ni294  1  0.81856483  0.19016550  0.01139237  1.0
  Ni  Ni295  1  0.81856483  0.52349883  0.01139238  1.0
  Ni  Ni296  1  0.81856483  0.85683217  0.01139237  1.0
  Ni  Ni297  1  0.31856483  0.02349883  0.07389238  1.0
  Ni  Ni298  1  0.31856483  0.35683217  0.07389237  1.0
  Ni  Ni299  1  0.31856483  0.69016550  0.07389237  1.0
  Ni  Ni300  1  0.65189817  0.02349883  0.07389237  1.0
  Ni  Ni301  1  0.65189817  0.35683217  0.07389238  1.0
  Ni  Ni302  1  0.65189817  0.69016550  0.07389237  1.0
  Ni  Ni303  1  0.98523150  0.02349883  0.07389238  1.0
  Ni  Ni304  1  0.98523150  0.35683217  0.07389238  1.0
  Ni  Ni305  1  0.98523150  0.69016550  0.07389238  1.0
  Ni  Ni306  1  0.02981750  0.19016550  0.01391150  1.0
  Ni  Ni307  1  0.02981750  0.52349883  0.01391150  1.0
  Ni  Ni308  1  0.02981750  0.85683217  0.01391150  1.0
  Ni  Ni309  1  0.36315083  0.19016550  0.01391150  1.0
  Ni  Ni310  1  0.36315083  0.52349883  0.01391150  1.0
  Ni  Ni311  1  0.36315083  0.85683217  0.01391150  1.0
  Ni  Ni312  1  0.69648417  0.19016550  0.01391150  1.0
  Ni  Ni313  1  0.69648417  0.52349883  0.01391150  1.0
  Ni  Ni314  1  0.69648417  0.85683217  0.01391150  1.0
  Ni  Ni315  1  0.19648417  0.02349883  0.07641150  1.0
  Ni  Ni316  1  0.19648417  0.35683217  0.07641150  1.0
  Ni  Ni317  1  0.19648417  0.69016550  0.07641150  1.0
  Ni  Ni318  1  0.52981750  0.02349883  0.07641150  1.0
  Ni  Ni319  1  0.52981750  0.35683217  0.07641150  1.0
  Ni  Ni320  1  0.52981750  0.69016550  0.07641150  1.0
  Ni  Ni321  1  0.86315083  0.02349883  0.07641150  1.0
  Ni  Ni322  1  0.86315083  0.35683217  0.07641150  1.0
  Ni  Ni323  1  0.86315083  0.69016550  0.07641150  1.0
  Ti  Ti324  1  0.16666667  0.16666667  0.17336056  1.0
  Ti  Ti325  1  0.16666667  0.50000000  0.17336056  1.0
  Ti  Ti326  1  0.16666667  0.83333333  0.17336056  1.0
  Ti  Ti327  1  0.50000000  0.16666667  0.17336056  1.0
  Ti  Ti328  1  0.50000000  0.50000000  0.17336056  1.0
  Ti  Ti329  1  0.50000000  0.83333333  0.17336056  1.0
  Ti  Ti330  1  0.83333333  0.16666667  0.17336056  1.0
  Ti  Ti331  1  0.83333333  0.50000000  0.17336056  1.0
  Ti  Ti332  1  0.83333333  0.83333333  0.17336056  1.0
  Ti  Ti333  1  0.00000000  0.00000000  0.23586056  1.0
  Ti  Ti334  1  0.00000000  0.33333333  0.23586056  1.0
  Ti  Ti335  1  0.00000000  0.66666667  0.23586056  1.0
  Ti  Ti336  1  0.33333333  0.00000000  0.23586056  1.0
  Ti  Ti337  1  0.33333333  0.33333333  0.23586056  1.0
  Ti  Ti338  1  0.33333333  0.66666667  0.23586056  1.0
  Ti  Ti339  1  0.66666667  0.00000000  0.23586056  1.0
  Ti  Ti340  1  0.66666667  0.33333333  0.23586056  1.0
  Ti  Ti341  1  0.66666667  0.66666667  0.23586056  1.0
  Ti  Ti342  1  0.04820622  0.17401600  0.17611656  1.0
  Ti  Ti343  1  0.04820622  0.50734933  0.17611656  1.0
  Ti  Ti344  1  0.04820622  0.84068267  0.17611656  1.0
  Ti  Ti345  1  0.38153956  0.17401600  0.17611656  1.0
  Ti  Ti346  1  0.38153956  0.50734933  0.17611656  1.0
  Ti  Ti347  1  0.38153956  0.84068267  0.17611656  1.0
  Ti  Ti348  1  0.71487289  0.17401600  0.17611656  1.0
  Ti  Ti349  1  0.71487289  0.50734933  0.17611656  1.0
  Ti  Ti350  1  0.71487289  0.84068267  0.17611656  1.0
  Ti  Ti351  1  0.21487289  0.00734933  0.23861656  1.0
  Ti  Ti352  1  0.21487289  0.34068267  0.23861656  1.0
  Ti  Ti353  1  0.21487289  0.67401600  0.23861656  1.0
  Ti  Ti354  1  0.54820622  0.00734933  0.23861656  1.0
  Ti  Ti355  1  0.54820622  0.34068267  0.23861656  1.0
  Ti  Ti356  1  0.54820622  0.67401600  0.23861656  1.0
  Ti  Ti357  1  0.88153956  0.00734933  0.23861656  1.0
  Ti  Ti358  1  0.88153956  0.34068267  0.23861656  1.0
  Ti  Ti359  1  0.88153956  0.67401600  0.23861656  1.0
  Ti  Ti360  1  0.11846044  0.32598400  0.23310456  1.0
  Ti  Ti361  1  0.11846044  0.65931733  0.23310456  1.0
  Ti  Ti362  1  0.11846044  0.99265067  0.23310456  1.0
  Ti  Ti363  1  0.45179378  0.32598400  0.23310456  1.0
  Ti  Ti364  1  0.45179378  0.65931733  0.23310456  1.0
  Ti  Ti365  1  0.45179378  0.99265067  0.23310456  1.0
  Ti  Ti366  1  0.78512711  0.32598400  0.23310456  1.0
  Ti  Ti367  1  0.78512711  0.65931733  0.23310456  1.0
  Ti  Ti368  1  0.78512711  0.99265067  0.23310456  1.0
  Ti  Ti369  1  0.28512711  0.15931733  0.17060456  1.0
  Ti  Ti370  1  0.28512711  0.49265067  0.17060456  1.0
  Ti  Ti371  1  0.28512711  0.82598400  0.17060456  1.0
  Ti  Ti372  1  0.61846044  0.15931733  0.17060456  1.0
  Ti  Ti373  1  0.61846044  0.49265067  0.17060456  1.0
  Ti  Ti374  1  0.61846044  0.82598400  0.17060456  1.0
  Ti  Ti375  1  0.95179378  0.15931733  0.17060456  1.0
  Ti  Ti376  1  0.95179378  0.49265067  0.17060456  1.0
  Ti  Ti377  1  0.95179378  0.82598400  0.17060456  1.0
  Ti  Ti378  1  0.33203883  0.22433583  0.23471112  1.0
  Ti  Ti379  1  0.33203883  0.55766917  0.23471113  1.0
  Ti  Ti380  1  0.33203883  0.89100250  0.23471112  1.0
  Ti  Ti381  1  0.66537217  0.22433583  0.23471113  1.0
  Ti  Ti382  1  0.66537217  0.55766917  0.23471112  1.0
  Ti  Ti383  1  0.66537217  0.89100250  0.23471112  1.0
  Ti  Ti384  1  0.99870550  0.22433583  0.23471112  1.0
  Ti  Ti385  1  0.99870550  0.55766917  0.23471113  1.0
  Ti  Ti386  1  0.99870550  0.89100250  0.23471113  1.0
  Ti  Ti387  1  0.16537217  0.05766917  0.17221113  1.0
  Ti  Ti388  1  0.16537217  0.39100250  0.17221113  1.0
  Ti  Ti389  1  0.16537217  0.72433583  0.17221112  1.0
  Ti  Ti390  1  0.49870550  0.05766917  0.17221113  1.0
  Ti  Ti391  1  0.49870550  0.39100250  0.17221113  1.0
  Ti  Ti392  1  0.49870550  0.72433583  0.17221112  1.0
  Ti  Ti393  1  0.83203883  0.05766917  0.17221112  1.0
  Ti  Ti394  1  0.83203883  0.39100250  0.17221113  1.0
  Ti  Ti395  1  0.83203883  0.72433583  0.17221112  1.0
  Ti  Ti396  1  0.10463783  0.22433583  0.23961575  1.0
  Ti  Ti397  1  0.10463783  0.55766917  0.23961575  1.0
  Ti  Ti398  1  0.10463783  0.89100250  0.23961575  1.0
  Ti  Ti399  1  0.43797117  0.22433583  0.23961575  1.0
  Ti  Ti400  1  0.43797117  0.55766917  0.23961575  1.0
  Ti  Ti401  1  0.43797117  0.89100250  0.23961575  1.0
  Ti  Ti402  1  0.77130450  0.22433583  0.23961575  1.0
  Ti  Ti403  1  0.77130450  0.55766917  0.23961575  1.0
  Ti  Ti404  1  0.77130450  0.89100250  0.23961575  1.0
  Ti  Ti405  1  0.27130450  0.05766917  0.17711575  1.0
  Ti  Ti406  1  0.27130450  0.39100250  0.17711575  1.0
  Ti  Ti407  1  0.27130450  0.72433583  0.17711575  1.0
  Ti  Ti408  1  0.60463783  0.05766917  0.17711575  1.0
  Ti  Ti409  1  0.60463783  0.39100250  0.17711575  1.0
  Ti  Ti410  1  0.60463783  0.72433583  0.17711575  1.0
  Ti  Ti411  1  0.93797117  0.05766917  0.17711575  1.0
  Ti  Ti412  1  0.93797117  0.39100250  0.17711575  1.0
  Ti  Ti413  1  0.93797117  0.72433583  0.17711575  1.0
  Ti  Ti414  1  0.22364917  0.22433583  0.23563262  1.0
  Ti  Ti415  1  0.22364917  0.55766917  0.23563263  1.0
  Ti  Ti416  1  0.22364917  0.89100250  0.23563262  1.0
  Ti  Ti417  1  0.55698250  0.22433583  0.23563262  1.0
  Ti  Ti418  1  0.55698250  0.55766917  0.23563262  1.0
  Ti  Ti419  1  0.55698250  0.89100250  0.23563262  1.0
  Ti  Ti420  1  0.89031583  0.22433583  0.23563262  1.0
  Ti  Ti421  1  0.89031583  0.55766917  0.23563262  1.0
  Ti  Ti422  1  0.89031583  0.89100250  0.23563262  1.0
  Ti  Ti423  1  0.05698250  0.05766917  0.17313262  1.0
  Ti  Ti424  1  0.05698250  0.39100250  0.17313262  1.0
  Ti  Ti425  1  0.05698250  0.72433583  0.17313262  1.0
  Ti  Ti426  1  0.39031583  0.05766917  0.17313263  1.0
  Ti  Ti427  1  0.39031583  0.39100250  0.17313262  1.0
  Ti  Ti428  1  0.39031583  0.72433583  0.17313262  1.0
  Ti  Ti429  1  0.72364917  0.05766917  0.17313262  1.0
  Ti  Ti430  1  0.72364917  0.39100250  0.17313262  1.0
  Ti  Ti431  1  0.72364917  0.72433583  0.17313262  1.0
  Ti  Ti432  1  0.16796117  0.27566417  0.17451000  1.0
  Ti  Ti433  1  0.16796117  0.60899750  0.17451000  1.0
  Ti  Ti434  1  0.16796117  0.94233083  0.17451000  1.0
  Ti  Ti435  1  0.50129450  0.27566417  0.17451000  1.0
  Ti  Ti436  1  0.50129450  0.60899750  0.17451000  1.0
  Ti  Ti437  1  0.50129450  0.94233083  0.17451000  1.0
  Ti  Ti438  1  0.83462783  0.27566417  0.17451000  1.0
  Ti  Ti439  1  0.83462783  0.60899750  0.17451000  1.0
  Ti  Ti440  1  0.83462783  0.94233083  0.17451000  1.0
  Ti  Ti441  1  0.00129450  0.10899750  0.23701000  1.0
  Ti  Ti442  1  0.00129450  0.44233083  0.23701000  1.0
  Ti  Ti443  1  0.00129450  0.77566417  0.23701000  1.0
  Ti  Ti444  1  0.33462783  0.10899750  0.23701000  1.0
  Ti  Ti445  1  0.33462783  0.44233083  0.23701000  1.0
  Ti  Ti446  1  0.33462783  0.77566417  0.23701000  1.0
  Ti  Ti447  1  0.66796117  0.10899750  0.23701000  1.0
  Ti  Ti448  1  0.66796117  0.44233083  0.23701000  1.0
  Ti  Ti449  1  0.66796117  0.77566417  0.23701000  1.0
  Ti  Ti450  1  0.06202883  0.27566417  0.16960537  1.0
  Ti  Ti451  1  0.06202883  0.60899750  0.16960537  1.0
  Ti  Ti452  1  0.06202883  0.94233083  0.16960537  1.0
  Ti  Ti453  1  0.39536217  0.27566417  0.16960537  1.0
  Ti  Ti454  1  0.39536217  0.60899750  0.16960537  1.0
  Ti  Ti455  1  0.39536217  0.94233083  0.16960538  1.0
  Ti  Ti456  1  0.72869550  0.27566417  0.16960537  1.0
  Ti  Ti457  1  0.72869550  0.60899750  0.16960537  1.0
  Ti  Ti458  1  0.72869550  0.94233083  0.16960537  1.0
  Ti  Ti459  1  0.22869550  0.10899750  0.23210538  1.0
  Ti  Ti460  1  0.22869550  0.44233083  0.23210537  1.0
  Ti  Ti461  1  0.22869550  0.77566417  0.23210537  1.0
  Ti  Ti462  1  0.56202883  0.10899750  0.23210537  1.0
  Ti  Ti463  1  0.56202883  0.44233083  0.23210538  1.0
  Ti  Ti464  1  0.56202883  0.77566417  0.23210537  1.0
  Ti  Ti465  1  0.89536217  0.10899750  0.23210537  1.0
  Ti  Ti466  1  0.89536217  0.44233083  0.23210537  1.0
  Ti  Ti467  1  0.89536217  0.77566417  0.23210537  1.0
  Ti  Ti468  1  0.27635083  0.27566417  0.17358850  1.0
  Ti  Ti469  1  0.27635083  0.60899750  0.17358850  1.0
  Ti  Ti470  1  0.27635083  0.94233083  0.17358850  1.0
  Ti  Ti471  1  0.60968417  0.27566417  0.17358850  1.0
  Ti  Ti472  1  0.60968417  0.60899750  0.17358850  1.0
  Ti  Ti473  1  0.60968417  0.94233083  0.17358850  1.0
  Ti  Ti474  1  0.94301750  0.27566417  0.17358850  1.0
  Ti  Ti475  1  0.94301750  0.60899750  0.17358850  1.0
  Ti  Ti476  1  0.94301750  0.94233083  0.17358850  1.0
  Ti  Ti477  1  0.10968417  0.10899750  0.23608850  1.0
  Ti  Ti478  1  0.10968417  0.44233083  0.23608850  1.0
  Ti  Ti479  1  0.10968417  0.77566417  0.23608850  1.0
  Ti  Ti480  1  0.44301750  0.10899750  0.23608850  1.0
  Ti  Ti481  1  0.44301750  0.44233083  0.23608850  1.0
  Ti  Ti482  1  0.44301750  0.77566417  0.23608850  1.0
  Ti  Ti483  1  0.77635083  0.10899750  0.23608850  1.0
  Ti  Ti484  1  0.77635083  0.44233083  0.23608850  1.0
  Ti  Ti485  1  0.77635083  0.77566417  0.23608850  1.0
  Ni  Ni486  1  0.08333333  0.25000000  0.20461056  1.0
  Ni  Ni487  1  0.08333333  0.58333333  0.20461056  1.0
  Ni  Ni488  1  0.08333333  0.91666667  0.20461056  1.0
  Ni  Ni489  1  0.41666667  0.25000000  0.20461056  1.0
  Ni  Ni490  1  0.41666667  0.58333333  0.20461056  1.0
  Ni  Ni491  1  0.41666667  0.91666667  0.20461056  1.0
  Ni  Ni492  1  0.75000000  0.25000000  0.20461056  1.0
  Ni  Ni493  1  0.75000000  0.58333333  0.20461056  1.0
  Ni  Ni494  1  0.75000000  0.91666667  0.20461056  1.0
  Ni  Ni495  1  0.25000000  0.08333333  0.14211056  1.0
  Ni  Ni496  1  0.25000000  0.41666667  0.14211056  1.0
  Ni  Ni497  1  0.25000000  0.75000000  0.14211056  1.0
  Ni  Ni498  1  0.58333333  0.08333333  0.14211056  1.0
  Ni  Ni499  1  0.58333333  0.41666667  0.14211056  1.0
  Ni  Ni500  1  0.58333333  0.75000000  0.14211056  1.0
  Ni  Ni501  1  0.91666667  0.08333333  0.14211056  1.0
  Ni  Ni502  1  0.91666667  0.41666667  0.14211056  1.0
  Ni  Ni503  1  0.91666667  0.75000000  0.14211056  1.0
  Ni  Ni504  1  0.29117372  0.26438183  0.21000375  1.0
  Ni  Ni505  1  0.29117372  0.59771517  0.21000375  1.0
  Ni  Ni506  1  0.29117372  0.93104850  0.21000375  1.0
  Ni  Ni507  1  0.62450706  0.26438183  0.21000375  1.0
  Ni  Ni508  1  0.62450706  0.59771517  0.21000375  1.0
  Ni  Ni509  1  0.62450706  0.93104850  0.21000375  1.0
  Ni  Ni510  1  0.95784039  0.26438183  0.21000375  1.0
  Ni  Ni511  1  0.95784039  0.59771517  0.21000375  1.0
  Ni  Ni512  1  0.95784039  0.93104850  0.21000375  1.0
  Ni  Ni513  1  0.12450706  0.09771517  0.14750375  1.0
  Ni  Ni514  1  0.12450706  0.43104850  0.14750375  1.0
  Ni  Ni515  1  0.12450706  0.76438183  0.14750375  1.0
  Ni  Ni516  1  0.45784039  0.09771517  0.14750375  1.0
  Ni  Ni517  1  0.45784039  0.43104850  0.14750375  1.0
  Ni  Ni518  1  0.45784039  0.76438183  0.14750375  1.0
  Ni  Ni519  1  0.79117372  0.09771517  0.14750375  1.0
  Ni  Ni520  1  0.79117372  0.43104850  0.14750375  1.0
  Ni  Ni521  1  0.79117372  0.76438183  0.14750375  1.0
  Ni  Ni522  1  0.20882628  0.23561817  0.19921737  1.0
  Ni  Ni523  1  0.20882628  0.56895150  0.19921738  1.0
  Ni  Ni524  1  0.20882628  0.90228483  0.19921737  1.0
  Ni  Ni525  1  0.54215961  0.23561817  0.19921738  1.0
  Ni  Ni526  1  0.54215961  0.56895150  0.19921737  1.0
  Ni  Ni527  1  0.54215961  0.90228483  0.19921737  1.0
  Ni  Ni528  1  0.87549294  0.23561817  0.19921737  1.0
  Ni  Ni529  1  0.87549294  0.56895150  0.19921737  1.0
  Ni  Ni530  1  0.87549294  0.90228483  0.19921738  1.0
  Ni  Ni531  1  0.04215961  0.06895150  0.13671737  1.0
  Ni  Ni532  1  0.04215961  0.40228483  0.13671737  1.0
  Ni  Ni533  1  0.04215961  0.73561817  0.13671737  1.0
  Ni  Ni534  1  0.37549294  0.06895150  0.13671737  1.0
  Ni  Ni535  1  0.37549294  0.40228483  0.13671738  1.0
  Ni  Ni536  1  0.37549294  0.73561817  0.13671737  1.0
  Ni  Ni537  1  0.70882628  0.06895150  0.13671737  1.0
  Ni  Ni538  1  0.70882628  0.40228483  0.13671737  1.0
  Ni  Ni539  1  0.70882628  0.73561817  0.13671737  1.0
  Ni  Ni540  1  0.25221217  0.30983450  0.13800713  1.0
  Ni  Ni541  1  0.25221217  0.64316783  0.13800713  1.0
  Ni  Ni542  1  0.25221217  0.97650117  0.13800712  1.0
  Ni  Ni543  1  0.58554550  0.30983450  0.13800713  1.0
  Ni  Ni544  1  0.58554550  0.64316783  0.13800712  1.0
  Ni  Ni545  1  0.58554550  0.97650117  0.13800712  1.0
  Ni  Ni546  1  0.91887883  0.30983450  0.13800712  1.0
  Ni  Ni547  1  0.91887883  0.64316783  0.13800713  1.0
  Ni  Ni548  1  0.91887883  0.97650117  0.13800712  1.0
  Ni  Ni549  1  0.08554550  0.14316783  0.20050713  1.0
  Ni  Ni550  1  0.08554550  0.47650117  0.20050713  1.0
  Ni  Ni551  1  0.08554550  0.80983450  0.20050713  1.0
  Ni  Ni552  1  0.41887883  0.14316783  0.20050713  1.0
  Ni  Ni553  1  0.41887883  0.47650117  0.20050713  1.0
  Ni  Ni554  1  0.41887883  0.80983450  0.20050712  1.0
  Ni  Ni555  1  0.75221217  0.14316783  0.20050712  1.0
  Ni  Ni556  1  0.75221217  0.47650117  0.20050713  1.0
  Ni  Ni557  1  0.75221217  0.80983450  0.20050712  1.0
  Ni  Ni558  1  0.01476850  0.30983450  0.14782875  1.0
  Ni  Ni559  1  0.01476850  0.64316783  0.14782875  1.0
  Ni  Ni560  1  0.01476850  0.97650117  0.14782875  1.0
  Ni  Ni561  1  0.34810183  0.30983450  0.14782875  1.0
  Ni  Ni562  1  0.34810183  0.64316783  0.14782875  1.0
  Ni  Ni563  1  0.34810183  0.97650117  0.14782875  1.0
  Ni  Ni564  1  0.68143517  0.30983450  0.14782875  1.0
  Ni  Ni565  1  0.68143517  0.64316783  0.14782875  1.0
  Ni  Ni566  1  0.68143517  0.97650117  0.14782875  1.0
  Ni  Ni567  1  0.18143517  0.14316783  0.21032875  1.0
  Ni  Ni568  1  0.18143517  0.47650117  0.21032875  1.0
  Ni  Ni569  1  0.18143517  0.80983450  0.21032875  1.0
  Ni  Ni570  1  0.51476850  0.14316783  0.21032875  1.0
  Ni  Ni571  1  0.51476850  0.47650117  0.21032875  1.0
  Ni  Ni572  1  0.51476850  0.80983450  0.21032875  1.0
  Ni  Ni573  1  0.84810183  0.14316783  0.21032875  1.0
  Ni  Ni574  1  0.84810183  0.47650117  0.21032875  1.0
  Ni  Ni575  1  0.84810183  0.80983450  0.21032875  1.0
  Ni  Ni576  1  0.13684917  0.30983450  0.14530962  1.0
  Ni  Ni577  1  0.13684917  0.64316783  0.14530962  1.0
  Ni  Ni578  1  0.13684917  0.97650117  0.14530962  1.0
  Ni  Ni579  1  0.47018250  0.30983450  0.14530962  1.0
  Ni  Ni580  1  0.47018250  0.64316783  0.14530962  1.0
  Ni  Ni581  1  0.47018250  0.97650117  0.14530962  1.0
  Ni  Ni582  1  0.80351583  0.30983450  0.14530962  1.0
  Ni  Ni583  1  0.80351583  0.64316783  0.14530962  1.0
  Ni  Ni584  1  0.80351583  0.97650117  0.14530962  1.0
  Ni  Ni585  1  0.30351583  0.14316783  0.20780962  1.0
  Ni  Ni586  1  0.30351583  0.47650117  0.20780962  1.0
  Ni  Ni587  1  0.30351583  0.80983450  0.20780962  1.0
  Ni  Ni588  1  0.63684917  0.14316783  0.20780962  1.0
  Ni  Ni589  1  0.63684917  0.47650117  0.20780962  1.0
  Ni  Ni590  1  0.63684917  0.80983450  0.20780962  1.0
  Ni  Ni591  1  0.97018250  0.14316783  0.20780962  1.0
  Ni  Ni592  1  0.97018250  0.47650117  0.20780962  1.0
  Ni  Ni593  1  0.97018250  0.80983450  0.20780962  1.0
  Ni  Ni594  1  0.24778783  0.19016550  0.14621400  1.0
  Ni  Ni595  1  0.24778783  0.52349883  0.14621400  1.0
  Ni  Ni596  1  0.24778783  0.85683217  0.14621400  1.0
  Ni  Ni597  1  0.58112117  0.19016550  0.14621400  1.0
  Ni  Ni598  1  0.58112117  0.52349883  0.14621400  1.0
  Ni  Ni599  1  0.58112117  0.85683217  0.14621400  1.0
  Ni  Ni600  1  0.91445450  0.19016550  0.14621400  1.0
  Ni  Ni601  1  0.91445450  0.52349883  0.14621400  1.0
  Ni  Ni602  1  0.91445450  0.85683217  0.14621400  1.0
  Ni  Ni603  1  0.08112117  0.02349883  0.20871400  1.0
  Ni  Ni604  1  0.08112117  0.35683217  0.20871400  1.0
  Ni  Ni605  1  0.08112117  0.69016550  0.20871400  1.0
  Ni  Ni606  1  0.41445450  0.02349883  0.20871400  1.0
  Ni  Ni607  1  0.41445450  0.35683217  0.20871400  1.0
  Ni  Ni608  1  0.41445450  0.69016550  0.20871400  1.0
  Ni  Ni609  1  0.74778783  0.02349883  0.20871400  1.0
  Ni  Ni610  1  0.74778783  0.35683217  0.20871400  1.0
  Ni  Ni611  1  0.74778783  0.69016550  0.20871400  1.0
  Ni  Ni612  1  0.15189817  0.19016550  0.13639237  1.0
  Ni  Ni613  1  0.15189817  0.52349883  0.13639238  1.0
  Ni  Ni614  1  0.15189817  0.85683217  0.13639237  1.0
  Ni  Ni615  1  0.48523150  0.19016550  0.13639238  1.0
  Ni  Ni616  1  0.48523150  0.52349883  0.13639237  1.0
  Ni  Ni617  1  0.48523150  0.85683217  0.13639237  1.0
  Ni  Ni618  1  0.81856483  0.19016550  0.13639237  1.0
  Ni  Ni619  1  0.81856483  0.52349883  0.13639238  1.0
  Ni  Ni620  1  0.81856483  0.85683217  0.13639238  1.0
  Ni  Ni621  1  0.31856483  0.02349883  0.19889238  1.0
  Ni  Ni622  1  0.31856483  0.35683217  0.19889237  1.0
  Ni  Ni623  1  0.31856483  0.69016550  0.19889237  1.0
  Ni  Ni624  1  0.65189817  0.02349883  0.19889238  1.0
  Ni  Ni625  1  0.65189817  0.35683217  0.19889237  1.0
  Ni  Ni626  1  0.65189817  0.69016550  0.19889237  1.0
  Ni  Ni627  1  0.98523150  0.02349883  0.19889238  1.0
  Ni  Ni628  1  0.98523150  0.35683217  0.19889238  1.0
  Ni  Ni629  1  0.98523150  0.69016550  0.19889237  1.0
  Ni  Ni630  1  0.02981750  0.19016550  0.13891150  1.0
  Ni  Ni631  1  0.02981750  0.52349883  0.13891150  1.0
  Ni  Ni632  1  0.02981750  0.85683217  0.13891150  1.0
  Ni  Ni633  1  0.36315083  0.19016550  0.13891150  1.0
  Ni  Ni634  1  0.36315083  0.52349883  0.13891150  1.0
  Ni  Ni635  1  0.36315083  0.85683217  0.13891150  1.0
  Ni  Ni636  1  0.69648417  0.19016550  0.13891150  1.0
  Ni  Ni637  1  0.69648417  0.52349883  0.13891150  1.0
  Ni  Ni638  1  0.69648417  0.85683217  0.13891150  1.0
  Ni  Ni639  1  0.19648417  0.02349883  0.20141150  1.0
  Ni  Ni640  1  0.19648417  0.35683217  0.20141150  1.0
  Ni  Ni641  1  0.19648417  0.69016550  0.20141150  1.0
  Ni  Ni642  1  0.52981750  0.02349883  0.20141150  1.0
  Ni  Ni643  1  0.52981750  0.35683217  0.20141150  1.0
  Ni  Ni644  1  0.52981750  0.69016550  0.20141150  1.0
  Ni  Ni645  1  0.86315083  0.02349883  0.20141150  1.0
  Ni  Ni646  1  0.86315083  0.35683217  0.20141150  1.0
  Ni  Ni647  1  0.86315083  0.69016550  0.20141150  1.0
  Ti  Ti648  1  0.16666667  0.16666667  0.29836056  1.0
  Ti  Ti649  1  0.16666667  0.50000000  0.29836056  1.0
  Ti  Ti650  1  0.16666667  0.83333333  0.29836056  1.0
  Ti  Ti651  1  0.50000000  0.16666667  0.29836056  1.0
  Ti  Ti652  1  0.50000000  0.50000000  0.29836056  1.0
  Ti  Ti653  1  0.50000000  0.83333333  0.29836056  1.0
  Ti  Ti654  1  0.83333333  0.16666667  0.29836056  1.0
  Ti  Ti655  1  0.83333333  0.50000000  0.29836056  1.0
  Ti  Ti656  1  0.83333333  0.83333333  0.29836056  1.0
  Ti  Ti657  1  0.00000000  0.00000000  0.36086056  1.0
  Ti  Ti658  1  0.00000000  0.33333333  0.36086056  1.0
  Ti  Ti659  1  0.00000000  0.66666667  0.36086056  1.0
  Ti  Ti660  1  0.33333333  0.00000000  0.36086056  1.0
  Ti  Ti661  1  0.33333333  0.33333333  0.36086056  1.0
  Ti  Ti662  1  0.33333333  0.66666667  0.36086056  1.0
  Ti  Ti663  1  0.66666667  0.00000000  0.36086056  1.0
  Ti  Ti664  1  0.66666667  0.33333333  0.36086056  1.0
  Ti  Ti665  1  0.66666667  0.66666667  0.36086056  1.0
  Ti  Ti666  1  0.04820622  0.17401600  0.30111656  1.0
  Ti  Ti667  1  0.04820622  0.50734933  0.30111656  1.0
  Ti  Ti668  1  0.04820622  0.84068267  0.30111656  1.0
  Ti  Ti669  1  0.38153956  0.17401600  0.30111656  1.0
  Ti  Ti670  1  0.38153956  0.50734933  0.30111656  1.0
  Ti  Ti671  1  0.38153956  0.84068267  0.30111656  1.0
  Ti  Ti672  1  0.71487289  0.17401600  0.30111656  1.0
  Ti  Ti673  1  0.71487289  0.50734933  0.30111656  1.0
  Ti  Ti674  1  0.71487289  0.84068267  0.30111656  1.0
  Ti  Ti675  1  0.21487289  0.00734933  0.36361656  1.0
  Ti  Ti676  1  0.21487289  0.34068267  0.36361656  1.0
  Ti  Ti677  1  0.21487289  0.67401600  0.36361656  1.0
  Ti  Ti678  1  0.54820622  0.00734933  0.36361656  1.0
  Ti  Ti679  1  0.54820622  0.34068267  0.36361656  1.0
  Ti  Ti680  1  0.54820622  0.67401600  0.36361656  1.0
  Ti  Ti681  1  0.88153956  0.00734933  0.36361656  1.0
  Ti  Ti682  1  0.88153956  0.34068267  0.36361656  1.0
  Ti  Ti683  1  0.88153956  0.67401600  0.36361656  1.0
  Ti  Ti684  1  0.11846044  0.32598400  0.35810456  1.0
  Ti  Ti685  1  0.11846044  0.65931733  0.35810456  1.0
  Ti  Ti686  1  0.11846044  0.99265067  0.35810456  1.0
  Ti  Ti687  1  0.45179378  0.32598400  0.35810456  1.0
  Ti  Ti688  1  0.45179378  0.65931733  0.35810456  1.0
  Ti  Ti689  1  0.45179378  0.99265067  0.35810456  1.0
  Ti  Ti690  1  0.78512711  0.32598400  0.35810456  1.0
  Ti  Ti691  1  0.78512711  0.65931733  0.35810456  1.0
  Ti  Ti692  1  0.78512711  0.99265067  0.35810456  1.0
  Ti  Ti693  1  0.28512711  0.15931733  0.29560456  1.0
  Ti  Ti694  1  0.28512711  0.49265067  0.29560456  1.0
  Ti  Ti695  1  0.28512711  0.82598400  0.29560456  1.0
  Ti  Ti696  1  0.61846044  0.15931733  0.29560456  1.0
  Ti  Ti697  1  0.61846044  0.49265067  0.29560456  1.0
  Ti  Ti698  1  0.61846044  0.82598400  0.29560456  1.0
  Ti  Ti699  1  0.95179378  0.15931733  0.29560456  1.0
  Ti  Ti700  1  0.95179378  0.49265067  0.29560456  1.0
  Ti  Ti701  1  0.95179378  0.82598400  0.29560456  1.0
  Ti  Ti702  1  0.33203883  0.22433583  0.35971113  1.0
  Ti  Ti703  1  0.33203883  0.55766917  0.35971113  1.0
  Ti  Ti704  1  0.33203883  0.89100250  0.35971112  1.0
  Ti  Ti705  1  0.66537217  0.22433583  0.35971112  1.0
  Ti  Ti706  1  0.66537217  0.55766917  0.35971112  1.0
  Ti  Ti707  1  0.66537217  0.89100250  0.35971112  1.0
  Ti  Ti708  1  0.99870550  0.22433583  0.35971112  1.0
  Ti  Ti709  1  0.99870550  0.55766917  0.35971112  1.0
  Ti  Ti710  1  0.99870550  0.89100250  0.35971113  1.0
  Ti  Ti711  1  0.16537217  0.05766917  0.29721113  1.0
  Ti  Ti712  1  0.16537217  0.39100250  0.29721113  1.0
  Ti  Ti713  1  0.16537217  0.72433583  0.29721112  1.0
  Ti  Ti714  1  0.49870550  0.05766917  0.29721112  1.0
  Ti  Ti715  1  0.49870550  0.39100250  0.29721113  1.0
  Ti  Ti716  1  0.49870550  0.72433583  0.29721112  1.0
  Ti  Ti717  1  0.83203883  0.05766917  0.29721112  1.0
  Ti  Ti718  1  0.83203883  0.39100250  0.29721112  1.0
  Ti  Ti719  1  0.83203883  0.72433583  0.29721112  1.0
  Ti  Ti720  1  0.10463783  0.22433583  0.36461575  1.0
  Ti  Ti721  1  0.10463783  0.55766917  0.36461575  1.0
  Ti  Ti722  1  0.10463783  0.89100250  0.36461575  1.0
  Ti  Ti723  1  0.43797117  0.22433583  0.36461575  1.0
  Ti  Ti724  1  0.43797117  0.55766917  0.36461575  1.0
  Ti  Ti725  1  0.43797117  0.89100250  0.36461575  1.0
  Ti  Ti726  1  0.77130450  0.22433583  0.36461575  1.0
  Ti  Ti727  1  0.77130450  0.55766917  0.36461575  1.0
  Ti  Ti728  1  0.77130450  0.89100250  0.36461575  1.0
  Ti  Ti729  1  0.27130450  0.05766917  0.30211575  1.0
  Ti  Ti730  1  0.27130450  0.39100250  0.30211575  1.0
  Ti  Ti731  1  0.27130450  0.72433583  0.30211575  1.0
  Ti  Ti732  1  0.60463783  0.05766917  0.30211575  1.0
  Ti  Ti733  1  0.60463783  0.39100250  0.30211575  1.0
  Ti  Ti734  1  0.60463783  0.72433583  0.30211575  1.0
  Ti  Ti735  1  0.93797117  0.05766917  0.30211575  1.0
  Ti  Ti736  1  0.93797117  0.39100250  0.30211575  1.0
  Ti  Ti737  1  0.93797117  0.72433583  0.30211575  1.0
  Ti  Ti738  1  0.22364917  0.22433583  0.36063262  1.0
  Ti  Ti739  1  0.22364917  0.55766917  0.36063262  1.0
  Ti  Ti740  1  0.22364917  0.89100250  0.36063262  1.0
  Ti  Ti741  1  0.55698250  0.22433583  0.36063263  1.0
  Ti  Ti742  1  0.55698250  0.55766917  0.36063262  1.0
  Ti  Ti743  1  0.55698250  0.89100250  0.36063262  1.0
  Ti  Ti744  1  0.89031583  0.22433583  0.36063262  1.0
  Ti  Ti745  1  0.89031583  0.55766917  0.36063262  1.0
  Ti  Ti746  1  0.89031583  0.89100250  0.36063263  1.0
  Ti  Ti747  1  0.05698250  0.05766917  0.29813262  1.0
  Ti  Ti748  1  0.05698250  0.39100250  0.29813262  1.0
  Ti  Ti749  1  0.05698250  0.72433583  0.29813262  1.0
  Ti  Ti750  1  0.39031583  0.05766917  0.29813262  1.0
  Ti  Ti751  1  0.39031583  0.39100250  0.29813262  1.0
  Ti  Ti752  1  0.39031583  0.72433583  0.29813262  1.0
  Ti  Ti753  1  0.72364917  0.05766917  0.29813262  1.0
  Ti  Ti754  1  0.72364917  0.39100250  0.29813263  1.0
  Ti  Ti755  1  0.72364917  0.72433583  0.29813262  1.0
  Ti  Ti756  1  0.16796117  0.27566417  0.29951000  1.0
  Ti  Ti757  1  0.16796117  0.60899750  0.29951000  1.0
  Ti  Ti758  1  0.16796117  0.94233083  0.29951000  1.0
  Ti  Ti759  1  0.50129450  0.27566417  0.29951000  1.0
  Ti  Ti760  1  0.50129450  0.60899750  0.29951000  1.0
  Ti  Ti761  1  0.50129450  0.94233083  0.29951000  1.0
  Ti  Ti762  1  0.83462783  0.27566417  0.29951000  1.0
  Ti  Ti763  1  0.83462783  0.60899750  0.29951000  1.0
  Ti  Ti764  1  0.83462783  0.94233083  0.29951000  1.0
  Ti  Ti765  1  0.00129450  0.10899750  0.36201000  1.0
  Ti  Ti766  1  0.00129450  0.44233083  0.36201000  1.0
  Ti  Ti767  1  0.00129450  0.77566417  0.36201000  1.0
  Ti  Ti768  1  0.33462783  0.10899750  0.36201000  1.0
  Ti  Ti769  1  0.33462783  0.44233083  0.36201000  1.0
  Ti  Ti770  1  0.33462783  0.77566417  0.36201000  1.0
  Ti  Ti771  1  0.66796117  0.10899750  0.36201000  1.0
  Ti  Ti772  1  0.66796117  0.44233083  0.36201000  1.0
  Ti  Ti773  1  0.66796117  0.77566417  0.36201000  1.0
  Ti  Ti774  1  0.06202883  0.27566417  0.29460537  1.0
  Ti  Ti775  1  0.06202883  0.60899750  0.29460537  1.0
  Ti  Ti776  1  0.06202883  0.94233083  0.29460537  1.0
  Ti  Ti777  1  0.39536217  0.27566417  0.29460537  1.0
  Ti  Ti778  1  0.39536217  0.60899750  0.29460537  1.0
  Ti  Ti779  1  0.39536217  0.94233083  0.29460537  1.0
  Ti  Ti780  1  0.72869550  0.27566417  0.29460537  1.0
  Ti  Ti781  1  0.72869550  0.60899750  0.29460537  1.0
  Ti  Ti782  1  0.72869550  0.94233083  0.29460537  1.0
  Ti  Ti783  1  0.22869550  0.10899750  0.35710537  1.0
  Ti  Ti784  1  0.22869550  0.44233083  0.35710537  1.0
  Ti  Ti785  1  0.22869550  0.77566417  0.35710537  1.0
  Ti  Ti786  1  0.56202883  0.10899750  0.35710537  1.0
  Ti  Ti787  1  0.56202883  0.44233083  0.35710537  1.0
  Ti  Ti788  1  0.56202883  0.77566417  0.35710537  1.0
  Ti  Ti789  1  0.89536217  0.10899750  0.35710537  1.0
  Ti  Ti790  1  0.89536217  0.44233083  0.35710537  1.0
  Ti  Ti791  1  0.89536217  0.77566417  0.35710537  1.0
  Ti  Ti792  1  0.27635083  0.27566417  0.29858850  1.0
  Ti  Ti793  1  0.27635083  0.60899750  0.29858850  1.0
  Ti  Ti794  1  0.27635083  0.94233083  0.29858850  1.0
  Ti  Ti795  1  0.60968417  0.27566417  0.29858850  1.0
  Ti  Ti796  1  0.60968417  0.60899750  0.29858850  1.0
  Ti  Ti797  1  0.60968417  0.94233083  0.29858850  1.0
  Ti  Ti798  1  0.94301750  0.27566417  0.29858850  1.0
  Ti  Ti799  1  0.94301750  0.60899750  0.29858850  1.0
  Ti  Ti800  1  0.94301750  0.94233083  0.29858850  1.0
  Ti  Ti801  1  0.10968417  0.10899750  0.36108850  1.0
  Ti  Ti802  1  0.10968417  0.44233083  0.36108850  1.0
  Ti  Ti803  1  0.10968417  0.77566417  0.36108850  1.0
  Ti  Ti804  1  0.44301750  0.10899750  0.36108850  1.0
  Ti  Ti805  1  0.44301750  0.44233083  0.36108850  1.0
  Ti  Ti806  1  0.44301750  0.77566417  0.36108850  1.0
  Ti  Ti807  1  0.77635083  0.10899750  0.36108850  1.0
  Ti  Ti808  1  0.77635083  0.44233083  0.36108850  1.0
  Ti  Ti809  1  0.77635083  0.77566417  0.36108850  1.0
  Ni  Ni810  1  0.08333333  0.25000000  0.32961056  1.0
  Ni  Ni811  1  0.08333333  0.58333333  0.32961056  1.0
  Ni  Ni812  1  0.08333333  0.91666667  0.32961056  1.0
  Ni  Ni813  1  0.41666667  0.25000000  0.32961056  1.0
  Ni  Ni814  1  0.41666667  0.58333333  0.32961056  1.0
  Ni  Ni815  1  0.41666667  0.91666667  0.32961056  1.0
  Ni  Ni816  1  0.75000000  0.25000000  0.32961056  1.0
  Ni  Ni817  1  0.75000000  0.58333333  0.32961056  1.0
  Ni  Ni818  1  0.75000000  0.91666667  0.32961056  1.0
  Ni  Ni819  1  0.25000000  0.08333333  0.26711056  1.0
  Ni  Ni820  1  0.25000000  0.41666667  0.26711056  1.0
  Ni  Ni821  1  0.25000000  0.75000000  0.26711056  1.0
  Ni  Ni822  1  0.58333333  0.08333333  0.26711056  1.0
  Ni  Ni823  1  0.58333333  0.41666667  0.26711056  1.0
  Ni  Ni824  1  0.58333333  0.75000000  0.26711056  1.0
  Ni  Ni825  1  0.91666667  0.08333333  0.26711056  1.0
  Ni  Ni826  1  0.91666667  0.41666667  0.26711056  1.0
  Ni  Ni827  1  0.91666667  0.75000000  0.26711056  1.0
  Ni  Ni828  1  0.29117372  0.26438183  0.33500375  1.0
  Ni  Ni829  1  0.29117372  0.59771517  0.33500375  1.0
  Ni  Ni830  1  0.29117372  0.93104850  0.33500375  1.0
  Ni  Ni831  1  0.62450706  0.26438183  0.33500375  1.0
  Ni  Ni832  1  0.62450706  0.59771517  0.33500375  1.0
  Ni  Ni833  1  0.62450706  0.93104850  0.33500375  1.0
  Ni  Ni834  1  0.95784039  0.26438183  0.33500375  1.0
  Ni  Ni835  1  0.95784039  0.59771517  0.33500375  1.0
  Ni  Ni836  1  0.95784039  0.93104850  0.33500375  1.0
  Ni  Ni837  1  0.12450706  0.09771517  0.27250375  1.0
  Ni  Ni838  1  0.12450706  0.43104850  0.27250375  1.0
  Ni  Ni839  1  0.12450706  0.76438183  0.27250375  1.0
  Ni  Ni840  1  0.45784039  0.09771517  0.27250375  1.0
  Ni  Ni841  1  0.45784039  0.43104850  0.27250375  1.0
  Ni  Ni842  1  0.45784039  0.76438183  0.27250375  1.0
  Ni  Ni843  1  0.79117372  0.09771517  0.27250375  1.0
  Ni  Ni844  1  0.79117372  0.43104850  0.27250375  1.0
  Ni  Ni845  1  0.79117372  0.76438183  0.27250375  1.0
  Ni  Ni846  1  0.20882628  0.23561817  0.32421737  1.0
  Ni  Ni847  1  0.20882628  0.56895150  0.32421738  1.0
  Ni  Ni848  1  0.20882628  0.90228483  0.32421737  1.0
  Ni  Ni849  1  0.54215961  0.23561817  0.32421737  1.0
  Ni  Ni850  1  0.54215961  0.56895150  0.32421738  1.0
  Ni  Ni851  1  0.54215961  0.90228483  0.32421737  1.0
  Ni  Ni852  1  0.87549294  0.23561817  0.32421737  1.0
  Ni  Ni853  1  0.87549294  0.56895150  0.32421737  1.0
  Ni  Ni854  1  0.87549294  0.90228483  0.32421738  1.0
  Ni  Ni855  1  0.04215961  0.06895150  0.26171738  1.0
  Ni  Ni856  1  0.04215961  0.40228483  0.26171737  1.0
  Ni  Ni857  1  0.04215961  0.73561817  0.26171737  1.0
  Ni  Ni858  1  0.37549294  0.06895150  0.26171737  1.0
  Ni  Ni859  1  0.37549294  0.40228483  0.26171737  1.0
  Ni  Ni860  1  0.37549294  0.73561817  0.26171737  1.0
  Ni  Ni861  1  0.70882628  0.06895150  0.26171737  1.0
  Ni  Ni862  1  0.70882628  0.40228483  0.26171737  1.0
  Ni  Ni863  1  0.70882628  0.73561817  0.26171738  1.0
  Ni  Ni864  1  0.25221217  0.30983450  0.26300713  1.0
  Ni  Ni865  1  0.25221217  0.64316783  0.26300713  1.0
  Ni  Ni866  1  0.25221217  0.97650117  0.26300712  1.0
  Ni  Ni867  1  0.58554550  0.30983450  0.26300712  1.0
  Ni  Ni868  1  0.58554550  0.64316783  0.26300713  1.0
  Ni  Ni869  1  0.58554550  0.97650117  0.26300712  1.0
  Ni  Ni870  1  0.91887883  0.30983450  0.26300712  1.0
  Ni  Ni871  1  0.91887883  0.64316783  0.26300712  1.0
  Ni  Ni872  1  0.91887883  0.97650117  0.26300712  1.0
  Ni  Ni873  1  0.08554550  0.14316783  0.32550713  1.0
  Ni  Ni874  1  0.08554550  0.47650117  0.32550712  1.0
  Ni  Ni875  1  0.08554550  0.80983450  0.32550712  1.0
  Ni  Ni876  1  0.41887883  0.14316783  0.32550712  1.0
  Ni  Ni877  1  0.41887883  0.47650117  0.32550712  1.0
  Ni  Ni878  1  0.41887883  0.80983450  0.32550712  1.0
  Ni  Ni879  1  0.75221217  0.14316783  0.32550712  1.0
  Ni  Ni880  1  0.75221217  0.47650117  0.32550713  1.0
  Ni  Ni881  1  0.75221217  0.80983450  0.32550712  1.0
  Ni  Ni882  1  0.01476850  0.30983450  0.27282875  1.0
  Ni  Ni883  1  0.01476850  0.64316783  0.27282875  1.0
  Ni  Ni884  1  0.01476850  0.97650117  0.27282875  1.0
  Ni  Ni885  1  0.34810183  0.30983450  0.27282875  1.0
  Ni  Ni886  1  0.34810183  0.64316783  0.27282875  1.0
  Ni  Ni887  1  0.34810183  0.97650117  0.27282875  1.0
  Ni  Ni888  1  0.68143517  0.30983450  0.27282875  1.0
  Ni  Ni889  1  0.68143517  0.64316783  0.27282875  1.0
  Ni  Ni890  1  0.68143517  0.97650117  0.27282875  1.0
  Ni  Ni891  1  0.18143517  0.14316783  0.33532875  1.0
  Ni  Ni892  1  0.18143517  0.47650117  0.33532875  1.0
  Ni  Ni893  1  0.18143517  0.80983450  0.33532875  1.0
  Ni  Ni894  1  0.51476850  0.14316783  0.33532875  1.0
  Ni  Ni895  1  0.51476850  0.47650117  0.33532875  1.0
  Ni  Ni896  1  0.51476850  0.80983450  0.33532875  1.0
  Ni  Ni897  1  0.84810183  0.14316783  0.33532875  1.0
  Ni  Ni898  1  0.84810183  0.47650117  0.33532875  1.0
  Ni  Ni899  1  0.84810183  0.80983450  0.33532875  1.0
  Ni  Ni900  1  0.13684917  0.30983450  0.27030962  1.0
  Ni  Ni901  1  0.13684917  0.64316783  0.27030962  1.0
  Ni  Ni902  1  0.13684917  0.97650117  0.27030962  1.0
  Ni  Ni903  1  0.47018250  0.30983450  0.27030962  1.0
  Ni  Ni904  1  0.47018250  0.64316783  0.27030962  1.0
  Ni  Ni905  1  0.47018250  0.97650117  0.27030962  1.0
  Ni  Ni906  1  0.80351583  0.30983450  0.27030962  1.0
  Ni  Ni907  1  0.80351583  0.64316783  0.27030962  1.0
  Ni  Ni908  1  0.80351583  0.97650117  0.27030962  1.0
  Ni  Ni909  1  0.30351583  0.14316783  0.33280962  1.0
  Ni  Ni910  1  0.30351583  0.47650117  0.33280962  1.0
  Ni  Ni911  1  0.30351583  0.80983450  0.33280962  1.0
  Ni  Ni912  1  0.63684917  0.14316783  0.33280963  1.0
  Ni  Ni913  1  0.63684917  0.47650117  0.33280962  1.0
  Ni  Ni914  1  0.63684917  0.80983450  0.33280962  1.0
  Ni  Ni915  1  0.97018250  0.14316783  0.33280962  1.0
  Ni  Ni916  1  0.97018250  0.47650117  0.33280962  1.0
  Ni  Ni917  1  0.97018250  0.80983450  0.33280962  1.0
  Ni  Ni918  1  0.24778783  0.19016550  0.27121400  1.0
  Ni  Ni919  1  0.24778783  0.52349883  0.27121400  1.0
  Ni  Ni920  1  0.24778783  0.85683217  0.27121400  1.0
  Ni  Ni921  1  0.58112117  0.19016550  0.27121400  1.0
  Ni  Ni922  1  0.58112117  0.52349883  0.27121400  1.0
  Ni  Ni923  1  0.58112117  0.85683217  0.27121400  1.0
  Ni  Ni924  1  0.91445450  0.19016550  0.27121400  1.0
  Ni  Ni925  1  0.91445450  0.52349883  0.27121400  1.0
  Ni  Ni926  1  0.91445450  0.85683217  0.27121400  1.0
  Ni  Ni927  1  0.08112117  0.02349883  0.33371400  1.0
  Ni  Ni928  1  0.08112117  0.35683217  0.33371400  1.0
  Ni  Ni929  1  0.08112117  0.69016550  0.33371400  1.0
  Ni  Ni930  1  0.41445450  0.02349883  0.33371400  1.0
  Ni  Ni931  1  0.41445450  0.35683217  0.33371400  1.0
  Ni  Ni932  1  0.41445450  0.69016550  0.33371400  1.0
  Ni  Ni933  1  0.74778783  0.02349883  0.33371400  1.0
  Ni  Ni934  1  0.74778783  0.35683217  0.33371400  1.0
  Ni  Ni935  1  0.74778783  0.69016550  0.33371400  1.0
  Ni  Ni936  1  0.15189817  0.19016550  0.26139238  1.0
  Ni  Ni937  1  0.15189817  0.52349883  0.26139238  1.0
  Ni  Ni938  1  0.15189817  0.85683217  0.26139237  1.0
  Ni  Ni939  1  0.48523150  0.19016550  0.26139238  1.0
  Ni  Ni940  1  0.48523150  0.52349883  0.26139237  1.0
  Ni  Ni941  1  0.48523150  0.85683217  0.26139237  1.0
  Ni  Ni942  1  0.81856483  0.19016550  0.26139238  1.0
  Ni  Ni943  1  0.81856483  0.52349883  0.26139237  1.0
  Ni  Ni944  1  0.81856483  0.85683217  0.26139238  1.0
  Ni  Ni945  1  0.31856483  0.02349883  0.32389237  1.0
  Ni  Ni946  1  0.31856483  0.35683217  0.32389237  1.0
  Ni  Ni947  1  0.31856483  0.69016550  0.32389237  1.0
  Ni  Ni948  1  0.65189817  0.02349883  0.32389238  1.0
  Ni  Ni949  1  0.65189817  0.35683217  0.32389238  1.0
  Ni  Ni950  1  0.65189817  0.69016550  0.32389237  1.0
  Ni  Ni951  1  0.98523150  0.02349883  0.32389237  1.0
  Ni  Ni952  1  0.98523150  0.35683217  0.32389238  1.0
  Ni  Ni953  1  0.98523150  0.69016550  0.32389237  1.0
  Ni  Ni954  1  0.02981750  0.19016550  0.26391150  1.0
  Ni  Ni955  1  0.02981750  0.52349883  0.26391150  1.0
  Ni  Ni956  1  0.02981750  0.85683217  0.26391150  1.0
  Ni  Ni957  1  0.36315083  0.19016550  0.26391150  1.0
  Ni  Ni958  1  0.36315083  0.52349883  0.26391150  1.0
  Ni  Ni959  1  0.36315083  0.85683217  0.26391150  1.0
  Ni  Ni960  1  0.69648417  0.19016550  0.26391150  1.0
  Ni  Ni961  1  0.69648417  0.52349883  0.26391150  1.0
  Ni  Ni962  1  0.69648417  0.85683217  0.26391150  1.0
  Ni  Ni963  1  0.19648417  0.02349883  0.32641150  1.0
  Ni  Ni964  1  0.19648417  0.35683217  0.32641150  1.0
  Ni  Ni965  1  0.19648417  0.69016550  0.32641150  1.0
  Ni  Ni966  1  0.52981750  0.02349883  0.32641150  1.0
  Ni  Ni967  1  0.52981750  0.35683217  0.32641150  1.0
  Ni  Ni968  1  0.52981750  0.69016550  0.32641150  1.0
  Ni  Ni969  1  0.86315083  0.02349883  0.32641150  1.0
  Ni  Ni970  1  0.86315083  0.35683217  0.32641150  1.0
  Ni  Ni971  1  0.86315083  0.69016550  0.32641150  1.0
