# generated using pymatgen
data_TiNi
_symmetry_space_group_name_H-M   'P 1'
_cell_length_a   18.47413801
_cell_length_b   53.52506581
_cell_length_c   28.47198912
_cell_angle_alpha   87.29821907
_cell_angle_beta   83.79176849
_cell_angle_gamma   80.06245202
_symmetry_Int_Tables_number   1
_chemical_formula_structural   TiNi
_chemical_formula_sum   'Ti432 Ni432'
_cell_volume   27557.24029545
_cell_formula_units_Z   432
loop_
 _symmetry_equiv_pos_site_id
 _symmetry_equiv_pos_as_xyz
  1  'x, y, z'
loop_
 _atom_site_type_symbol
 _atom_site_label
 _atom_site_symmetry_multiplicity
 _atom_site_fract_x
 _atom_site_fract_y
 _atom_site_fract_z
 _atom_site_occupancy
  Ni  Ni0  1  0.05898029  0.09054162  0.97443043  1.0
  Ni  Ni1  1  0.05898029  0.42387495  0.97443043  1.0
  Ni  Ni2  1  0.05898029  0.75720829  0.97443043  1.0
  Ni  Ni3  1  0.39231362  0.09054162  0.97443043  1.0
  Ni  Ni4  1  0.39231362  0.42387495  0.97443043  1.0
  Ni  Ni5  1  0.39231362  0.75720829  0.97443043  1.0
  Ni  Ni6  1  0.72564695  0.09054162  0.97443043  1.0
  Ni  Ni7  1  0.72564695  0.42387495  0.97443043  1.0
  Ni  Ni8  1  0.72564695  0.75720829  0.97443043  1.0
  Ni  Ni9  1  0.17802790  0.20958924  0.90300186  1.0
  Ni  Ni10  1  0.17802790  0.54292257  0.90300186  1.0
  Ni  Ni11  1  0.17802790  0.87625590  0.90300186  1.0
  Ni  Ni12  1  0.51136124  0.20958924  0.90300186  1.0
  Ni  Ni13  1  0.51136124  0.54292257  0.90300186  1.0
  Ni  Ni14  1  0.51136124  0.87625590  0.90300186  1.0
  Ni  Ni15  1  0.84469457  0.20958924  0.90300186  1.0
  Ni  Ni16  1  0.84469457  0.54292257  0.90300186  1.0
  Ni  Ni17  1  0.84469457  0.87625590  0.90300186  1.0
  Ni  Ni18  1  0.21939314  0.10123581  0.87818271  1.0
  Ni  Ni19  1  0.21939314  0.43456914  0.87818271  1.0
  Ni  Ni20  1  0.21939314  0.76790248  0.87818271  1.0
  Ni  Ni21  1  0.55272648  0.10123581  0.87818271  1.0
  Ni  Ni22  1  0.55272648  0.43456914  0.87818271  1.0
  Ni  Ni23  1  0.55272648  0.76790248  0.87818271  1.0
  Ni  Ni24  1  0.88605981  0.10123581  0.87818271  1.0
  Ni  Ni25  1  0.88605981  0.43456914  0.87818271  1.0
  Ni  Ni26  1  0.88605981  0.76790248  0.87818271  1.0
  Ni  Ni27  1  0.10034552  0.31552152  0.94961129  1.0
  Ni  Ni28  1  0.10034552  0.64885486  0.94961129  1.0
  Ni  Ni29  1  0.10034552  0.98218819  0.94961129  1.0
  Ni  Ni30  1  0.43367886  0.31552152  0.94961129  1.0
  Ni  Ni31  1  0.43367886  0.64885486  0.94961129  1.0
  Ni  Ni32  1  0.43367886  0.98218819  0.94961129  1.0
  Ni  Ni33  1  0.76701219  0.31552152  0.94961129  1.0
  Ni  Ni34  1  0.76701219  0.64885486  0.94961129  1.0
  Ni  Ni35  1  0.76701219  0.98218819  0.94961129  1.0
  Ni  Ni36  1  0.32774657  0.20958924  0.90300186  1.0
  Ni  Ni37  1  0.32774657  0.54292257  0.90300186  1.0
  Ni  Ni38  1  0.32774657  0.87625590  0.90300186  1.0
  Ni  Ni39  1  0.66107990  0.20958924  0.90300186  1.0
  Ni  Ni40  1  0.66107990  0.54292257  0.90300186  1.0
  Ni  Ni41  1  0.66107990  0.87625590  0.90300186  1.0
  Ni  Ni42  1  0.99441324  0.20958924  0.90300186  1.0
  Ni  Ni43  1  0.99441324  0.54292257  0.90300186  1.0
  Ni  Ni44  1  0.99441324  0.87625590  0.90300186  1.0
  Ni  Ni45  1  0.20869895  0.09054162  0.97443043  1.0
  Ni  Ni46  1  0.20869895  0.42387495  0.97443043  1.0
  Ni  Ni47  1  0.20869895  0.75720829  0.97443043  1.0
  Ni  Ni48  1  0.54203229  0.09054162  0.97443043  1.0
  Ni  Ni49  1  0.54203229  0.42387495  0.97443043  1.0
  Ni  Ni50  1  0.54203229  0.75720829  0.97443043  1.0
  Ni  Ni51  1  0.87536562  0.09054162  0.97443043  1.0
  Ni  Ni52  1  0.87536562  0.42387495  0.97443043  1.0
  Ni  Ni53  1  0.87536562  0.75720829  0.97443043  1.0
  Ni  Ni54  1  0.06967448  0.10123581  0.87818271  1.0
  Ni  Ni55  1  0.06967448  0.43456914  0.87818271  1.0
  Ni  Ni56  1  0.06967448  0.76790248  0.87818271  1.0
  Ni  Ni57  1  0.40300781  0.10123581  0.87818271  1.0
  Ni  Ni58  1  0.40300781  0.43456914  0.87818271  1.0
  Ni  Ni59  1  0.40300781  0.76790248  0.87818271  1.0
  Ni  Ni60  1  0.73634114  0.10123581  0.87818271  1.0
  Ni  Ni61  1  0.73634114  0.43456914  0.87818271  1.0
  Ni  Ni62  1  0.73634114  0.76790248  0.87818271  1.0
  Ni  Ni63  1  0.28396019  0.31552152  0.94961129  1.0
  Ni  Ni64  1  0.28396019  0.64885486  0.94961129  1.0
  Ni  Ni65  1  0.28396019  0.98218819  0.94961129  1.0
  Ni  Ni66  1  0.61729352  0.31552152  0.94961129  1.0
  Ni  Ni67  1  0.61729352  0.64885486  0.94961129  1.0
  Ni  Ni68  1  0.61729352  0.98218819  0.94961129  1.0
  Ni  Ni69  1  0.95062686  0.31552152  0.94961129  1.0
  Ni  Ni70  1  0.95062686  0.64885486  0.94961129  1.0
  Ni  Ni71  1  0.95062686  0.98218819  0.94961129  1.0
  Ni  Ni72  1  0.18846600  0.15690467  0.89673900  1.0
  Ni  Ni73  1  0.18846600  0.49023800  0.89673900  1.0
  Ni  Ni74  1  0.18846600  0.82357133  0.89673900  1.0
  Ni  Ni75  1  0.52179933  0.15690467  0.89673900  1.0
  Ni  Ni76  1  0.52179933  0.49023800  0.89673900  1.0
  Ni  Ni77  1  0.52179933  0.82357133  0.89673900  1.0
  Ni  Ni78  1  0.85513267  0.15690467  0.89673900  1.0
  Ni  Ni79  1  0.85513267  0.49023800  0.89673900  1.0
  Ni  Ni80  1  0.85513267  0.82357133  0.89673900  1.0
  Ni  Ni81  1  0.06941838  0.03785705  0.96816757  1.0
  Ni  Ni82  1  0.06941838  0.37119038  0.96816757  1.0
  Ni  Ni83  1  0.06941838  0.70452371  0.96816757  1.0
  Ni  Ni84  1  0.40275171  0.03785705  0.96816757  1.0
  Ni  Ni85  1  0.40275171  0.37119038  0.96816757  1.0
  Ni  Ni86  1  0.40275171  0.70452371  0.96816757  1.0
  Ni  Ni87  1  0.73608505  0.03785705  0.96816757  1.0
  Ni  Ni88  1  0.73608505  0.37119038  0.96816757  1.0
  Ni  Ni89  1  0.73608505  0.70452371  0.96816757  1.0
  Ni  Ni90  1  0.02805314  0.14621048  0.99298671  1.0
  Ni  Ni91  1  0.02805314  0.47954381  0.99298671  1.0
  Ni  Ni92  1  0.02805314  0.81287714  0.99298671  1.0
  Ni  Ni93  1  0.36138648  0.14621048  0.99298671  1.0
  Ni  Ni94  1  0.36138648  0.47954381  0.99298671  1.0
  Ni  Ni95  1  0.36138648  0.81287714  0.99298671  1.0
  Ni  Ni96  1  0.69471981  0.14621048  0.99298671  1.0
  Ni  Ni97  1  0.69471981  0.47954381  0.99298671  1.0
  Ni  Ni98  1  0.69471981  0.81287714  0.99298671  1.0
  Ni  Ni99  1  0.14710076  0.26525810  0.92155814  1.0
  Ni  Ni100  1  0.14710076  0.59859143  0.92155814  1.0
  Ni  Ni101  1  0.14710076  0.93192476  0.92155814  1.0
  Ni  Ni102  1  0.48043410  0.26525810  0.92155814  1.0
  Ni  Ni103  1  0.48043410  0.59859143  0.92155814  1.0
  Ni  Ni104  1  0.48043410  0.93192476  0.92155814  1.0
  Ni  Ni105  1  0.81376743  0.26525810  0.92155814  1.0
  Ni  Ni106  1  0.81376743  0.59859143  0.92155814  1.0
  Ni  Ni107  1  0.81376743  0.93192476  0.92155814  1.0
  Ni  Ni108  1  0.03874733  0.15690467  0.89673900  1.0
  Ni  Ni109  1  0.03874733  0.49023800  0.89673900  1.0
  Ni  Ni110  1  0.03874733  0.82357133  0.89673900  1.0
  Ni  Ni111  1  0.37208067  0.15690467  0.89673900  1.0
  Ni  Ni112  1  0.37208067  0.49023800  0.89673900  1.0
  Ni  Ni113  1  0.37208067  0.82357133  0.89673900  1.0
  Ni  Ni114  1  0.70541400  0.15690467  0.89673900  1.0
  Ni  Ni115  1  0.70541400  0.49023800  0.89673900  1.0
  Ni  Ni116  1  0.70541400  0.82357133  0.89673900  1.0
  Ni  Ni117  1  0.25303305  0.03785705  0.96816757  1.0
  Ni  Ni118  1  0.25303305  0.37119038  0.96816757  1.0
  Ni  Ni119  1  0.25303305  0.70452371  0.96816757  1.0
  Ni  Ni120  1  0.58636638  0.03785705  0.96816757  1.0
  Ni  Ni121  1  0.58636638  0.37119038  0.96816757  1.0
  Ni  Ni122  1  0.58636638  0.70452371  0.96816757  1.0
  Ni  Ni123  1  0.91969971  0.03785705  0.96816757  1.0
  Ni  Ni124  1  0.91969971  0.37119038  0.96816757  1.0
  Ni  Ni125  1  0.91969971  0.70452371  0.96816757  1.0
  Ni  Ni126  1  0.29681943  0.26525810  0.92155814  1.0
  Ni  Ni127  1  0.29681943  0.59859143  0.92155814  1.0
  Ni  Ni128  1  0.29681943  0.93192476  0.92155814  1.0
  Ni  Ni129  1  0.63015276  0.26525810  0.92155814  1.0
  Ni  Ni130  1  0.63015276  0.59859143  0.92155814  1.0
  Ni  Ni131  1  0.63015276  0.93192476  0.92155814  1.0
  Ni  Ni132  1  0.96348610  0.26525810  0.92155814  1.0
  Ni  Ni133  1  0.96348610  0.59859143  0.92155814  1.0
  Ni  Ni134  1  0.96348610  0.93192476  0.92155814  1.0
  Ni  Ni135  1  0.17777181  0.14621048  0.99298671  1.0
  Ni  Ni136  1  0.17777181  0.47954381  0.99298671  1.0
  Ni  Ni137  1  0.17777181  0.81287714  0.99298671  1.0
  Ni  Ni138  1  0.51110514  0.14621048  0.99298671  1.0
  Ni  Ni139  1  0.51110514  0.47954381  0.99298671  1.0
  Ni  Ni140  1  0.51110514  0.81287714  0.99298671  1.0
  Ni  Ni141  1  0.84443848  0.14621048  0.99298671  1.0
  Ni  Ni142  1  0.84443848  0.47954381  0.99298671  1.0
  Ni  Ni143  1  0.84443848  0.81287714  0.99298671  1.0
  Ni  Ni144  1  0.29707552  0.32863686  0.83157329  1.0
  Ni  Ni145  1  0.29707552  0.66197019  0.83157329  1.0
  Ni  Ni146  1  0.29707552  0.99530352  0.83157329  1.0
  Ni  Ni147  1  0.63040886  0.32863686  0.83157329  1.0
  Ni  Ni148  1  0.63040886  0.66197019  0.83157329  1.0
  Ni  Ni149  1  0.63040886  0.99530352  0.83157329  1.0
  Ni  Ni150  1  0.96374219  0.32863686  0.83157329  1.0
  Ni  Ni151  1  0.96374219  0.66197019  0.83157329  1.0
  Ni  Ni152  1  0.96374219  0.99530352  0.83157329  1.0
  Ni  Ni153  1  0.08278981  0.11435114  0.76014471  1.0
  Ni  Ni154  1  0.08278981  0.44768448  0.76014471  1.0
  Ni  Ni155  1  0.08278981  0.78101781  0.76014471  1.0
  Ni  Ni156  1  0.41612314  0.11435114  0.76014471  1.0
  Ni  Ni157  1  0.41612314  0.44768448  0.76014471  1.0
  Ni  Ni158  1  0.41612314  0.78101781  0.76014471  1.0
  Ni  Ni159  1  0.74945648  0.11435114  0.76014471  1.0
  Ni  Ni160  1  0.74945648  0.44768448  0.76014471  1.0
  Ni  Ni161  1  0.74945648  0.78101781  0.76014471  1.0
  Ni  Ni162  1  0.12415505  0.00599771  0.73532557  1.0
  Ni  Ni163  1  0.12415505  0.33933105  0.73532557  1.0
  Ni  Ni164  1  0.12415505  0.67266438  0.73532557  1.0
  Ni  Ni165  1  0.45748838  0.00599771  0.73532557  1.0
  Ni  Ni166  1  0.45748838  0.33933105  0.73532557  1.0
  Ni  Ni167  1  0.45748838  0.67266438  0.73532557  1.0
  Ni  Ni168  1  0.79082171  0.00599771  0.73532557  1.0
  Ni  Ni169  1  0.79082171  0.33933105  0.73532557  1.0
  Ni  Ni170  1  0.79082171  0.67266438  0.73532557  1.0
  Ni  Ni171  1  0.00510743  0.22028343  0.80675414  1.0
  Ni  Ni172  1  0.00510743  0.55361676  0.80675414  1.0
  Ni  Ni173  1  0.00510743  0.88695010  0.80675414  1.0
  Ni  Ni174  1  0.33844076  0.22028343  0.80675414  1.0
  Ni  Ni175  1  0.33844076  0.55361676  0.80675414  1.0
  Ni  Ni176  1  0.33844076  0.88695010  0.80675414  1.0
  Ni  Ni177  1  0.67177410  0.22028343  0.80675414  1.0
  Ni  Ni178  1  0.67177410  0.55361676  0.80675414  1.0
  Ni  Ni179  1  0.67177410  0.88695010  0.80675414  1.0
  Ni  Ni180  1  0.23250848  0.11435114  0.76014471  1.0
  Ni  Ni181  1  0.23250848  0.44768448  0.76014471  1.0
  Ni  Ni182  1  0.23250848  0.78101781  0.76014471  1.0
  Ni  Ni183  1  0.56584181  0.11435114  0.76014471  1.0
  Ni  Ni184  1  0.56584181  0.44768448  0.76014471  1.0
  Ni  Ni185  1  0.56584181  0.78101781  0.76014471  1.0
  Ni  Ni186  1  0.89917514  0.11435114  0.76014471  1.0
  Ni  Ni187  1  0.89917514  0.44768448  0.76014471  1.0
  Ni  Ni188  1  0.89917514  0.78101781  0.76014471  1.0
  Ni  Ni189  1  0.11346086  0.32863686  0.83157329  1.0
  Ni  Ni190  1  0.11346086  0.66197019  0.83157329  1.0
  Ni  Ni191  1  0.11346086  0.99530352  0.83157329  1.0
  Ni  Ni192  1  0.44679419  0.32863686  0.83157329  1.0
  Ni  Ni193  1  0.44679419  0.66197019  0.83157329  1.0
  Ni  Ni194  1  0.44679419  0.99530352  0.83157329  1.0
  Ni  Ni195  1  0.78012752  0.32863686  0.83157329  1.0
  Ni  Ni196  1  0.78012752  0.66197019  0.83157329  1.0
  Ni  Ni197  1  0.78012752  0.99530352  0.83157329  1.0
  Ni  Ni198  1  0.30776971  0.00599771  0.73532557  1.0
  Ni  Ni199  1  0.30776971  0.33933105  0.73532557  1.0
  Ni  Ni200  1  0.30776971  0.67266438  0.73532557  1.0
  Ni  Ni201  1  0.64110305  0.00599771  0.73532557  1.0
  Ni  Ni202  1  0.64110305  0.33933105  0.73532557  1.0
  Ni  Ni203  1  0.64110305  0.67266438  0.73532557  1.0
  Ni  Ni204  1  0.97443638  0.00599771  0.73532557  1.0
  Ni  Ni205  1  0.97443638  0.33933105  0.73532557  1.0
  Ni  Ni206  1  0.97443638  0.67266438  0.73532557  1.0
  Ni  Ni207  1  0.18872210  0.22028343  0.80675414  1.0
  Ni  Ni208  1  0.18872210  0.55361676  0.80675414  1.0
  Ni  Ni209  1  0.18872210  0.88695010  0.80675414  1.0
  Ni  Ni210  1  0.52205543  0.22028343  0.80675414  1.0
  Ni  Ni211  1  0.52205543  0.55361676  0.80675414  1.0
  Ni  Ni212  1  0.52205543  0.88695010  0.80675414  1.0
  Ni  Ni213  1  0.85538876  0.22028343  0.80675414  1.0
  Ni  Ni214  1  0.85538876  0.55361676  0.80675414  1.0
  Ni  Ni215  1  0.85538876  0.88695010  0.80675414  1.0
  Ni  Ni216  1  0.09322790  0.06166657  0.75388186  1.0
  Ni  Ni217  1  0.09322790  0.39499990  0.75388186  1.0
  Ni  Ni218  1  0.09322790  0.72833324  0.75388186  1.0
  Ni  Ni219  1  0.42656124  0.06166657  0.75388186  1.0
  Ni  Ni220  1  0.42656124  0.39499990  0.75388186  1.0
  Ni  Ni221  1  0.42656124  0.72833324  0.75388186  1.0
  Ni  Ni222  1  0.75989457  0.06166657  0.75388186  1.0
  Ni  Ni223  1  0.75989457  0.39499990  0.75388186  1.0
  Ni  Ni224  1  0.75989457  0.72833324  0.75388186  1.0
  Ni  Ni225  1  0.30751362  0.27595229  0.82531043  1.0
  Ni  Ni226  1  0.30751362  0.60928562  0.82531043  1.0
  Ni  Ni227  1  0.30751362  0.94261895  0.82531043  1.0
  Ni  Ni228  1  0.64084695  0.27595229  0.82531043  1.0
  Ni  Ni229  1  0.64084695  0.60928562  0.82531043  1.0
  Ni  Ni230  1  0.64084695  0.94261895  0.82531043  1.0
  Ni  Ni231  1  0.97418029  0.27595229  0.82531043  1.0
  Ni  Ni232  1  0.97418029  0.60928562  0.82531043  1.0
  Ni  Ni233  1  0.97418029  0.94261895  0.82531043  1.0
  Ni  Ni234  1  0.26614838  0.05097238  0.85012957  1.0
  Ni  Ni235  1  0.26614838  0.38430571  0.85012957  1.0
  Ni  Ni236  1  0.26614838  0.71763905  0.85012957  1.0
  Ni  Ni237  1  0.59948171  0.05097238  0.85012957  1.0
  Ni  Ni238  1  0.59948171  0.38430571  0.85012957  1.0
  Ni  Ni239  1  0.59948171  0.71763905  0.85012957  1.0
  Ni  Ni240  1  0.93281505  0.05097238  0.85012957  1.0
  Ni  Ni241  1  0.93281505  0.38430571  0.85012957  1.0
  Ni  Ni242  1  0.93281505  0.71763905  0.85012957  1.0
  Ni  Ni243  1  0.05186267  0.17002000  0.77870100  1.0
  Ni  Ni244  1  0.05186267  0.50335333  0.77870100  1.0
  Ni  Ni245  1  0.05186267  0.83668667  0.77870100  1.0
  Ni  Ni246  1  0.38519600  0.17002000  0.77870100  1.0
  Ni  Ni247  1  0.38519600  0.50335333  0.77870100  1.0
  Ni  Ni248  1  0.38519600  0.83668667  0.77870100  1.0
  Ni  Ni249  1  0.71852933  0.17002000  0.77870100  1.0
  Ni  Ni250  1  0.71852933  0.50335333  0.77870100  1.0
  Ni  Ni251  1  0.71852933  0.83668667  0.77870100  1.0
  Ni  Ni252  1  0.27684257  0.06166657  0.75388186  1.0
  Ni  Ni253  1  0.27684257  0.39499990  0.75388186  1.0
  Ni  Ni254  1  0.27684257  0.72833324  0.75388186  1.0
  Ni  Ni255  1  0.61017590  0.06166657  0.75388186  1.0
  Ni  Ni256  1  0.61017590  0.39499990  0.75388186  1.0
  Ni  Ni257  1  0.61017590  0.72833324  0.75388186  1.0
  Ni  Ni258  1  0.94350924  0.06166657  0.75388186  1.0
  Ni  Ni259  1  0.94350924  0.39499990  0.75388186  1.0
  Ni  Ni260  1  0.94350924  0.72833324  0.75388186  1.0
  Ni  Ni261  1  0.15779495  0.27595229  0.82531043  1.0
  Ni  Ni262  1  0.15779495  0.60928562  0.82531043  1.0
  Ni  Ni263  1  0.15779495  0.94261895  0.82531043  1.0
  Ni  Ni264  1  0.49112829  0.27595229  0.82531043  1.0
  Ni  Ni265  1  0.49112829  0.60928562  0.82531043  1.0
  Ni  Ni266  1  0.49112829  0.94261895  0.82531043  1.0
  Ni  Ni267  1  0.82446162  0.27595229  0.82531043  1.0
  Ni  Ni268  1  0.82446162  0.60928562  0.82531043  1.0
  Ni  Ni269  1  0.82446162  0.94261895  0.82531043  1.0
  Ni  Ni270  1  0.20158133  0.17002000  0.77870100  1.0
  Ni  Ni271  1  0.20158133  0.50335333  0.77870100  1.0
  Ni  Ni272  1  0.20158133  0.83668667  0.77870100  1.0
  Ni  Ni273  1  0.53491467  0.17002000  0.77870100  1.0
  Ni  Ni274  1  0.53491467  0.50335333  0.77870100  1.0
  Ni  Ni275  1  0.53491467  0.83668667  0.77870100  1.0
  Ni  Ni276  1  0.86824800  0.17002000  0.77870100  1.0
  Ni  Ni277  1  0.86824800  0.50335333  0.77870100  1.0
  Ni  Ni278  1  0.86824800  0.83668667  0.77870100  1.0
  Ni  Ni279  1  0.08253371  0.05097238  0.85012957  1.0
  Ni  Ni280  1  0.08253371  0.38430571  0.85012957  1.0
  Ni  Ni281  1  0.08253371  0.71763905  0.85012957  1.0
  Ni  Ni282  1  0.41586705  0.05097238  0.85012957  1.0
  Ni  Ni283  1  0.41586705  0.38430571  0.85012957  1.0
  Ni  Ni284  1  0.41586705  0.71763905  0.85012957  1.0
  Ni  Ni285  1  0.74920038  0.05097238  0.85012957  1.0
  Ni  Ni286  1  0.74920038  0.38430571  0.85012957  1.0
  Ni  Ni287  1  0.74920038  0.71763905  0.85012957  1.0
  Ni  Ni288  1  0.20183743  0.23339876  0.68871614  1.0
  Ni  Ni289  1  0.20183743  0.56673210  0.68871614  1.0
  Ni  Ni290  1  0.20183743  0.90006543  0.68871614  1.0
  Ni  Ni291  1  0.53517076  0.23339876  0.68871614  1.0
  Ni  Ni292  1  0.53517076  0.56673210  0.68871614  1.0
  Ni  Ni293  1  0.53517076  0.90006543  0.68871614  1.0
  Ni  Ni294  1  0.86850410  0.23339876  0.68871614  1.0
  Ni  Ni295  1  0.86850410  0.56673210  0.68871614  1.0
  Ni  Ni296  1  0.86850410  0.90006543  0.68871614  1.0
  Ni  Ni297  1  0.32088505  0.01911305  0.61728757  1.0
  Ni  Ni298  1  0.32088505  0.35244638  0.61728757  1.0
  Ni  Ni299  1  0.32088505  0.68577971  0.61728757  1.0
  Ni  Ni300  1  0.65421838  0.01911305  0.61728757  1.0
  Ni  Ni301  1  0.65421838  0.35244638  0.61728757  1.0
  Ni  Ni302  1  0.65421838  0.68577971  0.61728757  1.0
  Ni  Ni303  1  0.98755171  0.01911305  0.61728757  1.0
  Ni  Ni304  1  0.98755171  0.35244638  0.61728757  1.0
  Ni  Ni305  1  0.98755171  0.68577971  0.61728757  1.0
  Ni  Ni306  1  0.02891695  0.24409295  0.59246843  1.0
  Ni  Ni307  1  0.02891695  0.57742629  0.59246843  1.0
  Ni  Ni308  1  0.02891695  0.91075962  0.59246843  1.0
  Ni  Ni309  1  0.36225029  0.24409295  0.59246843  1.0
  Ni  Ni310  1  0.36225029  0.57742629  0.59246843  1.0
  Ni  Ni311  1  0.36225029  0.91075962  0.59246843  1.0
  Ni  Ni312  1  0.69558362  0.24409295  0.59246843  1.0
  Ni  Ni313  1  0.69558362  0.57742629  0.59246843  1.0
  Ni  Ni314  1  0.69558362  0.91075962  0.59246843  1.0
  Ni  Ni315  1  0.24320267  0.12504533  0.66389700  1.0
  Ni  Ni316  1  0.24320267  0.45837867  0.66389700  1.0
  Ni  Ni317  1  0.24320267  0.79171200  0.66389700  1.0
  Ni  Ni318  1  0.57653600  0.12504533  0.66389700  1.0
  Ni  Ni319  1  0.57653600  0.45837867  0.66389700  1.0
  Ni  Ni320  1  0.57653600  0.79171200  0.66389700  1.0
  Ni  Ni321  1  0.90986933  0.12504533  0.66389700  1.0
  Ni  Ni322  1  0.90986933  0.45837867  0.66389700  1.0
  Ni  Ni323  1  0.90986933  0.79171200  0.66389700  1.0
  Ni  Ni324  1  0.13727038  0.01911305  0.61728757  1.0
  Ni  Ni325  1  0.13727038  0.35244638  0.61728757  1.0
  Ni  Ni326  1  0.13727038  0.68577971  0.61728757  1.0
  Ni  Ni327  1  0.47060371  0.01911305  0.61728757  1.0
  Ni  Ni328  1  0.47060371  0.35244638  0.61728757  1.0
  Ni  Ni329  1  0.47060371  0.68577971  0.61728757  1.0
  Ni  Ni330  1  0.80393705  0.01911305  0.61728757  1.0
  Ni  Ni331  1  0.80393705  0.35244638  0.61728757  1.0
  Ni  Ni332  1  0.80393705  0.68577971  0.61728757  1.0
  Ni  Ni333  1  0.01822276  0.23339876  0.68871614  1.0
  Ni  Ni334  1  0.01822276  0.56673210  0.68871614  1.0
  Ni  Ni335  1  0.01822276  0.90006543  0.68871614  1.0
  Ni  Ni336  1  0.35155610  0.23339876  0.68871614  1.0
  Ni  Ni337  1  0.35155610  0.56673210  0.68871614  1.0
  Ni  Ni338  1  0.35155610  0.90006543  0.68871614  1.0
  Ni  Ni339  1  0.68488943  0.23339876  0.68871614  1.0
  Ni  Ni340  1  0.68488943  0.56673210  0.68871614  1.0
  Ni  Ni341  1  0.68488943  0.90006543  0.68871614  1.0
  Ni  Ni342  1  0.21253162  0.24409295  0.59246843  1.0
  Ni  Ni343  1  0.21253162  0.57742629  0.59246843  1.0
  Ni  Ni344  1  0.21253162  0.91075962  0.59246843  1.0
  Ni  Ni345  1  0.54586495  0.24409295  0.59246843  1.0
  Ni  Ni346  1  0.54586495  0.57742629  0.59246843  1.0
  Ni  Ni347  1  0.54586495  0.91075962  0.59246843  1.0
  Ni  Ni348  1  0.87919829  0.24409295  0.59246843  1.0
  Ni  Ni349  1  0.87919829  0.57742629  0.59246843  1.0
  Ni  Ni350  1  0.87919829  0.91075962  0.59246843  1.0
  Ni  Ni351  1  0.09348400  0.12504533  0.66389700  1.0
  Ni  Ni352  1  0.09348400  0.45837867  0.66389700  1.0
  Ni  Ni353  1  0.09348400  0.79171200  0.66389700  1.0
  Ni  Ni354  1  0.42681733  0.12504533  0.66389700  1.0
  Ni  Ni355  1  0.42681733  0.45837867  0.66389700  1.0
  Ni  Ni356  1  0.42681733  0.79171200  0.66389700  1.0
  Ni  Ni357  1  0.76015067  0.12504533  0.66389700  1.0
  Ni  Ni358  1  0.76015067  0.45837867  0.66389700  1.0
  Ni  Ni359  1  0.76015067  0.79171200  0.66389700  1.0
  Ni  Ni360  1  0.33132314  0.29976181  0.61102471  1.0
  Ni  Ni361  1  0.33132314  0.63309514  0.61102471  1.0
  Ni  Ni362  1  0.33132314  0.96642848  0.61102471  1.0
  Ni  Ni363  1  0.66465648  0.29976181  0.61102471  1.0
  Ni  Ni364  1  0.66465648  0.63309514  0.61102471  1.0
  Ni  Ni365  1  0.66465648  0.96642848  0.61102471  1.0
  Ni  Ni366  1  0.99798981  0.29976181  0.61102471  1.0
  Ni  Ni367  1  0.99798981  0.63309514  0.61102471  1.0
  Ni  Ni368  1  0.99798981  0.96642848  0.61102471  1.0
  Ni  Ni369  1  0.21227552  0.18071419  0.68245329  1.0
  Ni  Ni370  1  0.21227552  0.51404752  0.68245329  1.0
  Ni  Ni371  1  0.21227552  0.84738086  0.68245329  1.0
  Ni  Ni372  1  0.54560886  0.18071419  0.68245329  1.0
  Ni  Ni373  1  0.54560886  0.51404752  0.68245329  1.0
  Ni  Ni374  1  0.54560886  0.84738086  0.68245329  1.0
  Ni  Ni375  1  0.87894219  0.18071419  0.68245329  1.0
  Ni  Ni376  1  0.87894219  0.51404752  0.68245329  1.0
  Ni  Ni377  1  0.87894219  0.84738086  0.68245329  1.0
  Ni  Ni378  1  0.17091029  0.28906762  0.70727243  1.0
  Ni  Ni379  1  0.17091029  0.62240095  0.70727243  1.0
  Ni  Ni380  1  0.17091029  0.95573429  0.70727243  1.0
  Ni  Ni381  1  0.50424362  0.28906762  0.70727243  1.0
  Ni  Ni382  1  0.50424362  0.62240095  0.70727243  1.0
  Ni  Ni383  1  0.50424362  0.95573429  0.70727243  1.0
  Ni  Ni384  1  0.83757695  0.28906762  0.70727243  1.0
  Ni  Ni385  1  0.83757695  0.62240095  0.70727243  1.0
  Ni  Ni386  1  0.83757695  0.95573429  0.70727243  1.0
  Ni  Ni387  1  0.28995790  0.07478190  0.63584386  1.0
  Ni  Ni388  1  0.28995790  0.40811524  0.63584386  1.0
  Ni  Ni389  1  0.28995790  0.74144857  0.63584386  1.0
  Ni  Ni390  1  0.62329124  0.07478190  0.63584386  1.0
  Ni  Ni391  1  0.62329124  0.40811524  0.63584386  1.0
  Ni  Ni392  1  0.62329124  0.74144857  0.63584386  1.0
  Ni  Ni393  1  0.95662457  0.07478190  0.63584386  1.0
  Ni  Ni394  1  0.95662457  0.40811524  0.63584386  1.0
  Ni  Ni395  1  0.95662457  0.74144857  0.63584386  1.0
  Ni  Ni396  1  0.18160448  0.29976181  0.61102471  1.0
  Ni  Ni397  1  0.18160448  0.63309514  0.61102471  1.0
  Ni  Ni398  1  0.18160448  0.96642848  0.61102471  1.0
  Ni  Ni399  1  0.51493781  0.29976181  0.61102471  1.0
  Ni  Ni400  1  0.51493781  0.63309514  0.61102471  1.0
  Ni  Ni401  1  0.51493781  0.96642848  0.61102471  1.0
  Ni  Ni402  1  0.84827114  0.29976181  0.61102471  1.0
  Ni  Ni403  1  0.84827114  0.63309514  0.61102471  1.0
  Ni  Ni404  1  0.84827114  0.96642848  0.61102471  1.0
  Ni  Ni405  1  0.06255686  0.18071419  0.68245329  1.0
  Ni  Ni406  1  0.06255686  0.51404752  0.68245329  1.0
  Ni  Ni407  1  0.06255686  0.84738086  0.68245329  1.0
  Ni  Ni408  1  0.39589019  0.18071419  0.68245329  1.0
  Ni  Ni409  1  0.39589019  0.51404752  0.68245329  1.0
  Ni  Ni410  1  0.39589019  0.84738086  0.68245329  1.0
  Ni  Ni411  1  0.72922352  0.18071419  0.68245329  1.0
  Ni  Ni412  1  0.72922352  0.51404752  0.68245329  1.0
  Ni  Ni413  1  0.72922352  0.84738086  0.68245329  1.0
  Ni  Ni414  1  0.10634324  0.07478190  0.63584386  1.0
  Ni  Ni415  1  0.10634324  0.40811524  0.63584386  1.0
  Ni  Ni416  1  0.10634324  0.74144857  0.63584386  1.0
  Ni  Ni417  1  0.43967657  0.07478190  0.63584386  1.0
  Ni  Ni418  1  0.43967657  0.40811524  0.63584386  1.0
  Ni  Ni419  1  0.43967657  0.74144857  0.63584386  1.0
  Ni  Ni420  1  0.77300990  0.07478190  0.63584386  1.0
  Ni  Ni421  1  0.77300990  0.40811524  0.63584386  1.0
  Ni  Ni422  1  0.77300990  0.74144857  0.63584386  1.0
  Ni  Ni423  1  0.32062895  0.28906762  0.70727243  1.0
  Ni  Ni424  1  0.32062895  0.62240095  0.70727243  1.0
  Ni  Ni425  1  0.32062895  0.95573429  0.70727243  1.0
  Ni  Ni426  1  0.65396229  0.28906762  0.70727243  1.0
  Ni  Ni427  1  0.65396229  0.62240095  0.70727243  1.0
  Ni  Ni428  1  0.65396229  0.95573429  0.70727243  1.0
  Ni  Ni429  1  0.98729562  0.28906762  0.70727243  1.0
  Ni  Ni430  1  0.98729562  0.62240095  0.70727243  1.0
  Ni  Ni431  1  0.98729562  0.95573429  0.70727243  1.0
  Ti  Ti432  1  0.03703743  0.27975743  0.98759614  1.0
  Ti  Ti433  1  0.03703743  0.61309076  0.98759614  1.0
  Ti  Ti434  1  0.03703743  0.94642410  0.98759614  1.0
  Ti  Ti435  1  0.37037076  0.27975743  0.98759614  1.0
  Ti  Ti436  1  0.37037076  0.61309076  0.98759614  1.0
  Ti  Ti437  1  0.37037076  0.94642410  0.98759614  1.0
  Ti  Ti438  1  0.70370410  0.27975743  0.98759614  1.0
  Ti  Ti439  1  0.70370410  0.61309076  0.98759614  1.0
  Ti  Ti440  1  0.70370410  0.94642410  0.98759614  1.0
  Ti  Ti441  1  0.15608505  0.06547171  0.91616757  1.0
  Ti  Ti442  1  0.15608505  0.39880505  0.91616757  1.0
  Ti  Ti443  1  0.15608505  0.73213838  0.91616757  1.0
  Ti  Ti444  1  0.48941838  0.06547171  0.91616757  1.0
  Ti  Ti445  1  0.48941838  0.39880505  0.91616757  1.0
  Ti  Ti446  1  0.48941838  0.73213838  0.91616757  1.0
  Ti  Ti447  1  0.82275171  0.06547171  0.91616757  1.0
  Ti  Ti448  1  0.82275171  0.39880505  0.91616757  1.0
  Ti  Ti449  1  0.82275171  0.73213838  0.91616757  1.0
  Ti  Ti450  1  0.09136124  0.18197457  0.95500186  1.0
  Ti  Ti451  1  0.09136124  0.51530790  0.95500186  1.0
  Ti  Ti452  1  0.09136124  0.84864124  0.95500186  1.0
  Ti  Ti453  1  0.42469457  0.18197457  0.95500186  1.0
  Ti  Ti454  1  0.42469457  0.51530790  0.95500186  1.0
  Ti  Ti455  1  0.42469457  0.84864124  0.95500186  1.0
  Ti  Ti456  1  0.75802790  0.18197457  0.95500186  1.0
  Ti  Ti457  1  0.75802790  0.51530790  0.95500186  1.0
  Ti  Ti458  1  0.75802790  0.84864124  0.95500186  1.0
  Ti  Ti459  1  0.21040886  0.30102219  0.88357329  1.0
  Ti  Ti460  1  0.21040886  0.63435552  0.88357329  1.0
  Ti  Ti461  1  0.21040886  0.96768886  0.88357329  1.0
  Ti  Ti462  1  0.54374219  0.30102219  0.88357329  1.0
  Ti  Ti463  1  0.54374219  0.63435552  0.88357329  1.0
  Ti  Ti464  1  0.54374219  0.96768886  0.88357329  1.0
  Ti  Ti465  1  0.87707552  0.30102219  0.88357329  1.0
  Ti  Ti466  1  0.87707552  0.63435552  0.88357329  1.0
  Ti  Ti467  1  0.87707552  0.96768886  0.88357329  1.0
  Ti  Ti468  1  0.32015171  0.07015171  0.91772757  1.0
  Ti  Ti469  1  0.32015171  0.40348505  0.91772757  1.0
  Ti  Ti470  1  0.32015171  0.73681838  0.91772757  1.0
  Ti  Ti471  1  0.65348505  0.07015171  0.91772757  1.0
  Ti  Ti472  1  0.65348505  0.40348505  0.91772757  1.0
  Ti  Ti473  1  0.65348505  0.73681838  0.91772757  1.0
  Ti  Ti474  1  0.98681838  0.07015171  0.91772757  1.0
  Ti  Ti475  1  0.98681838  0.40348505  0.91772757  1.0
  Ti  Ti476  1  0.98681838  0.73681838  0.91772757  1.0
  Ti  Ti477  1  0.20110410  0.28443743  0.98915614  1.0
  Ti  Ti478  1  0.20110410  0.61777076  0.98915614  1.0
  Ti  Ti479  1  0.20110410  0.95110410  0.98915614  1.0
  Ti  Ti480  1  0.53443743  0.28443743  0.98915614  1.0
  Ti  Ti481  1  0.53443743  0.61777076  0.98915614  1.0
  Ti  Ti482  1  0.53443743  0.95110410  0.98915614  1.0
  Ti  Ti483  1  0.86777076  0.28443743  0.98915614  1.0
  Ti  Ti484  1  0.86777076  0.61777076  0.98915614  1.0
  Ti  Ti485  1  0.86777076  0.95110410  0.98915614  1.0
  Ti  Ti486  1  0.26062790  0.17729457  0.95344186  1.0
  Ti  Ti487  1  0.26062790  0.51062790  0.95344186  1.0
  Ti  Ti488  1  0.26062790  0.84396124  0.95344186  1.0
  Ti  Ti489  1  0.59396124  0.17729457  0.95344186  1.0
  Ti  Ti490  1  0.59396124  0.51062790  0.95344186  1.0
  Ti  Ti491  1  0.59396124  0.84396124  0.95344186  1.0
  Ti  Ti492  1  0.92729457  0.17729457  0.95344186  1.0
  Ti  Ti493  1  0.92729457  0.51062790  0.95344186  1.0
  Ti  Ti494  1  0.92729457  0.84396124  0.95344186  1.0
  Ti  Ti495  1  0.04634219  0.29634219  0.88201329  1.0
  Ti  Ti496  1  0.04634219  0.62967552  0.88201329  1.0
  Ti  Ti497  1  0.04634219  0.96300886  0.88201329  1.0
  Ti  Ti498  1  0.37967552  0.29634219  0.88201329  1.0
  Ti  Ti499  1  0.37967552  0.62967552  0.88201329  1.0
  Ti  Ti500  1  0.37967552  0.96300886  0.88201329  1.0
  Ti  Ti501  1  0.71300886  0.29634219  0.88201329  1.0
  Ti  Ti502  1  0.71300886  0.62967552  0.88201329  1.0
  Ti  Ti503  1  0.71300886  0.96300886  0.88201329  1.0
  Ti  Ti504  1  0.29038981  0.12372314  0.93558471  1.0
  Ti  Ti505  1  0.29038981  0.45705648  0.93558471  1.0
  Ti  Ti506  1  0.29038981  0.79038981  0.93558471  1.0
  Ti  Ti507  1  0.62372314  0.12372314  0.93558471  1.0
  Ti  Ti508  1  0.62372314  0.45705648  0.93558471  1.0
  Ti  Ti509  1  0.62372314  0.79038981  0.93558471  1.0
  Ti  Ti510  1  0.95705648  0.12372314  0.93558471  1.0
  Ti  Ti511  1  0.95705648  0.45705648  0.93558471  1.0
  Ti  Ti512  1  0.95705648  0.79038981  0.93558471  1.0
  Ti  Ti513  1  0.07610410  0.24277076  0.86415614  1.0
  Ti  Ti514  1  0.07610410  0.57610410  0.86415614  1.0
  Ti  Ti515  1  0.07610410  0.90943743  0.86415614  1.0
  Ti  Ti516  1  0.40943743  0.24277076  0.86415614  1.0
  Ti  Ti517  1  0.40943743  0.57610410  0.86415614  1.0
  Ti  Ti518  1  0.40943743  0.90943743  0.86415614  1.0
  Ti  Ti519  1  0.74277076  0.24277076  0.86415614  1.0
  Ti  Ti520  1  0.74277076  0.57610410  0.86415614  1.0
  Ti  Ti521  1  0.74277076  0.90943743  0.86415614  1.0
  Ti  Ti522  1  0.01658029  0.01658029  0.89987043  1.0
  Ti  Ti523  1  0.01658029  0.34991362  0.89987043  1.0
  Ti  Ti524  1  0.01658029  0.68324695  0.89987043  1.0
  Ti  Ti525  1  0.34991362  0.01658029  0.89987043  1.0
  Ti  Ti526  1  0.34991362  0.34991362  0.89987043  1.0
  Ti  Ti527  1  0.34991362  0.68324695  0.89987043  1.0
  Ti  Ti528  1  0.68324695  0.01658029  0.89987043  1.0
  Ti  Ti529  1  0.68324695  0.34991362  0.89987043  1.0
  Ti  Ti530  1  0.68324695  0.68324695  0.89987043  1.0
  Ti  Ti531  1  0.23086600  0.23086600  0.97129900  1.0
  Ti  Ti532  1  0.23086600  0.56419933  0.97129900  1.0
  Ti  Ti533  1  0.23086600  0.89753267  0.97129900  1.0
  Ti  Ti534  1  0.56419933  0.23086600  0.97129900  1.0
  Ti  Ti535  1  0.56419933  0.56419933  0.97129900  1.0
  Ti  Ti536  1  0.56419933  0.89753267  0.97129900  1.0
  Ti  Ti537  1  0.89753267  0.23086600  0.97129900  1.0
  Ti  Ti538  1  0.89753267  0.56419933  0.97129900  1.0
  Ti  Ti539  1  0.89753267  0.89753267  0.97129900  1.0
  Ti  Ti540  1  0.06419933  0.23086600  0.97129900  1.0
  Ti  Ti541  1  0.06419933  0.56419933  0.97129900  1.0
  Ti  Ti542  1  0.06419933  0.89753267  0.97129900  1.0
  Ti  Ti543  1  0.39753267  0.23086600  0.97129900  1.0
  Ti  Ti544  1  0.39753267  0.56419933  0.97129900  1.0
  Ti  Ti545  1  0.39753267  0.89753267  0.97129900  1.0
  Ti  Ti546  1  0.73086600  0.23086600  0.97129900  1.0
  Ti  Ti547  1  0.73086600  0.56419933  0.97129900  1.0
  Ti  Ti548  1  0.73086600  0.89753267  0.97129900  1.0
  Ti  Ti549  1  0.18324695  0.01658029  0.89987043  1.0
  Ti  Ti550  1  0.18324695  0.34991362  0.89987043  1.0
  Ti  Ti551  1  0.18324695  0.68324695  0.89987043  1.0
  Ti  Ti552  1  0.51658029  0.01658029  0.89987043  1.0
  Ti  Ti553  1  0.51658029  0.34991362  0.89987043  1.0
  Ti  Ti554  1  0.51658029  0.68324695  0.89987043  1.0
  Ti  Ti555  1  0.84991362  0.01658029  0.89987043  1.0
  Ti  Ti556  1  0.84991362  0.34991362  0.89987043  1.0
  Ti  Ti557  1  0.84991362  0.68324695  0.89987043  1.0
  Ti  Ti558  1  0.12372314  0.12372314  0.93558471  1.0
  Ti  Ti559  1  0.12372314  0.45705648  0.93558471  1.0
  Ti  Ti560  1  0.12372314  0.79038981  0.93558471  1.0
  Ti  Ti561  1  0.45705648  0.12372314  0.93558471  1.0
  Ti  Ti562  1  0.45705648  0.45705648  0.93558471  1.0
  Ti  Ti563  1  0.45705648  0.79038981  0.93558471  1.0
  Ti  Ti564  1  0.79038981  0.12372314  0.93558471  1.0
  Ti  Ti565  1  0.79038981  0.45705648  0.93558471  1.0
  Ti  Ti566  1  0.79038981  0.79038981  0.93558471  1.0
  Ti  Ti567  1  0.24277076  0.24277076  0.86415614  1.0
  Ti  Ti568  1  0.24277076  0.57610410  0.86415614  1.0
  Ti  Ti569  1  0.24277076  0.90943743  0.86415614  1.0
  Ti  Ti570  1  0.57610410  0.24277076  0.86415614  1.0
  Ti  Ti571  1  0.57610410  0.57610410  0.86415614  1.0
  Ti  Ti572  1  0.57610410  0.90943743  0.86415614  1.0
  Ti  Ti573  1  0.90943743  0.24277076  0.86415614  1.0
  Ti  Ti574  1  0.90943743  0.57610410  0.86415614  1.0
  Ti  Ti575  1  0.90943743  0.90943743  0.86415614  1.0
  Ti  Ti576  1  0.27513267  0.18451933  0.84473900  1.0
  Ti  Ti577  1  0.27513267  0.51785267  0.84473900  1.0
  Ti  Ti578  1  0.27513267  0.85118600  0.84473900  1.0
  Ti  Ti579  1  0.60846600  0.18451933  0.84473900  1.0
  Ti  Ti580  1  0.60846600  0.51785267  0.84473900  1.0
  Ti  Ti581  1  0.60846600  0.85118600  0.84473900  1.0
  Ti  Ti582  1  0.94179933  0.18451933  0.84473900  1.0
  Ti  Ti583  1  0.94179933  0.51785267  0.84473900  1.0
  Ti  Ti584  1  0.94179933  0.85118600  0.84473900  1.0
  Ti  Ti585  1  0.06084695  0.30356695  0.77331043  1.0
  Ti  Ti586  1  0.06084695  0.63690029  0.77331043  1.0
  Ti  Ti587  1  0.06084695  0.97023362  0.77331043  1.0
  Ti  Ti588  1  0.39418029  0.30356695  0.77331043  1.0
  Ti  Ti589  1  0.39418029  0.63690029  0.77331043  1.0
  Ti  Ti590  1  0.39418029  0.97023362  0.77331043  1.0
  Ti  Ti591  1  0.72751362  0.30356695  0.77331043  1.0
  Ti  Ti592  1  0.72751362  0.63690029  0.77331043  1.0
  Ti  Ti593  1  0.72751362  0.97023362  0.77331043  1.0
  Ti  Ti594  1  0.32945648  0.08673648  0.81214471  1.0
  Ti  Ti595  1  0.32945648  0.42006981  0.81214471  1.0
  Ti  Ti596  1  0.32945648  0.75340314  0.81214471  1.0
  Ti  Ti597  1  0.66278981  0.08673648  0.81214471  1.0
  Ti  Ti598  1  0.66278981  0.42006981  0.81214471  1.0
  Ti  Ti599  1  0.66278981  0.75340314  0.81214471  1.0
  Ti  Ti600  1  0.99612314  0.08673648  0.81214471  1.0
  Ti  Ti601  1  0.99612314  0.42006981  0.81214471  1.0
  Ti  Ti602  1  0.99612314  0.75340314  0.81214471  1.0
  Ti  Ti603  1  0.11517076  0.20578410  0.74071614  1.0
  Ti  Ti604  1  0.11517076  0.53911743  0.74071614  1.0
  Ti  Ti605  1  0.11517076  0.87245076  0.74071614  1.0
  Ti  Ti606  1  0.44850410  0.20578410  0.74071614  1.0
  Ti  Ti607  1  0.44850410  0.53911743  0.74071614  1.0
  Ti  Ti608  1  0.44850410  0.87245076  0.74071614  1.0
  Ti  Ti609  1  0.78183743  0.20578410  0.74071614  1.0
  Ti  Ti610  1  0.78183743  0.53911743  0.74071614  1.0
  Ti  Ti611  1  0.78183743  0.87245076  0.74071614  1.0
  Ti  Ti612  1  0.22491362  0.30824695  0.77487043  1.0
  Ti  Ti613  1  0.22491362  0.64158029  0.77487043  1.0
  Ti  Ti614  1  0.22491362  0.97491362  0.77487043  1.0
  Ti  Ti615  1  0.55824695  0.30824695  0.77487043  1.0
  Ti  Ti616  1  0.55824695  0.64158029  0.77487043  1.0
  Ti  Ti617  1  0.55824695  0.97491362  0.77487043  1.0
  Ti  Ti618  1  0.89158029  0.30824695  0.77487043  1.0
  Ti  Ti619  1  0.89158029  0.64158029  0.77487043  1.0
  Ti  Ti620  1  0.89158029  0.97491362  0.77487043  1.0
  Ti  Ti621  1  0.10586600  0.18919933  0.84629900  1.0
  Ti  Ti622  1  0.10586600  0.52253267  0.84629900  1.0
  Ti  Ti623  1  0.10586600  0.85586600  0.84629900  1.0
  Ti  Ti624  1  0.43919933  0.18919933  0.84629900  1.0
  Ti  Ti625  1  0.43919933  0.52253267  0.84629900  1.0
  Ti  Ti626  1  0.43919933  0.85586600  0.84629900  1.0
  Ti  Ti627  1  0.77253267  0.18919933  0.84629900  1.0
  Ti  Ti628  1  0.77253267  0.52253267  0.84629900  1.0
  Ti  Ti629  1  0.77253267  0.85586600  0.84629900  1.0
  Ti  Ti630  1  0.16538981  0.08205648  0.81058471  1.0
  Ti  Ti631  1  0.16538981  0.41538981  0.81058471  1.0
  Ti  Ti632  1  0.16538981  0.74872314  0.81058471  1.0
  Ti  Ti633  1  0.49872314  0.08205648  0.81058471  1.0
  Ti  Ti634  1  0.49872314  0.41538981  0.81058471  1.0
  Ti  Ti635  1  0.49872314  0.74872314  0.81058471  1.0
  Ti  Ti636  1  0.83205648  0.08205648  0.81058471  1.0
  Ti  Ti637  1  0.83205648  0.41538981  0.81058471  1.0
  Ti  Ti638  1  0.83205648  0.74872314  0.81058471  1.0
  Ti  Ti639  1  0.28443743  0.20110410  0.73915614  1.0
  Ti  Ti640  1  0.28443743  0.53443743  0.73915614  1.0
  Ti  Ti641  1  0.28443743  0.86777076  0.73915614  1.0
  Ti  Ti642  1  0.61777076  0.20110410  0.73915614  1.0
  Ti  Ti643  1  0.61777076  0.53443743  0.73915614  1.0
  Ti  Ti644  1  0.61777076  0.86777076  0.73915614  1.0
  Ti  Ti645  1  0.95110410  0.20110410  0.73915614  1.0
  Ti  Ti646  1  0.95110410  0.53443743  0.73915614  1.0
  Ti  Ti647  1  0.95110410  0.86777076  0.73915614  1.0
  Ti  Ti648  1  0.19515171  0.02848505  0.79272757  1.0
  Ti  Ti649  1  0.19515171  0.36181838  0.79272757  1.0
  Ti  Ti650  1  0.19515171  0.69515171  0.79272757  1.0
  Ti  Ti651  1  0.52848505  0.02848505  0.79272757  1.0
  Ti  Ti652  1  0.52848505  0.36181838  0.79272757  1.0
  Ti  Ti653  1  0.52848505  0.69515171  0.79272757  1.0
  Ti  Ti654  1  0.86181838  0.02848505  0.79272757  1.0
  Ti  Ti655  1  0.86181838  0.36181838  0.79272757  1.0
  Ti  Ti656  1  0.86181838  0.69515171  0.79272757  1.0
  Ti  Ti657  1  0.31419933  0.14753267  0.72129900  1.0
  Ti  Ti658  1  0.31419933  0.48086600  0.72129900  1.0
  Ti  Ti659  1  0.31419933  0.81419933  0.72129900  1.0
  Ti  Ti660  1  0.64753267  0.14753267  0.72129900  1.0
  Ti  Ti661  1  0.64753267  0.48086600  0.72129900  1.0
  Ti  Ti662  1  0.64753267  0.81419933  0.72129900  1.0
  Ti  Ti663  1  0.98086600  0.14753267  0.72129900  1.0
  Ti  Ti664  1  0.98086600  0.48086600  0.72129900  1.0
  Ti  Ti665  1  0.98086600  0.81419933  0.72129900  1.0
  Ti  Ti666  1  0.25467552  0.25467552  0.75701329  1.0
  Ti  Ti667  1  0.25467552  0.58800886  0.75701329  1.0
  Ti  Ti668  1  0.25467552  0.92134219  0.75701329  1.0
  Ti  Ti669  1  0.58800886  0.25467552  0.75701329  1.0
  Ti  Ti670  1  0.58800886  0.58800886  0.75701329  1.0
  Ti  Ti671  1  0.58800886  0.92134219  0.75701329  1.0
  Ti  Ti672  1  0.92134219  0.25467552  0.75701329  1.0
  Ti  Ti673  1  0.92134219  0.58800886  0.75701329  1.0
  Ti  Ti674  1  0.92134219  0.92134219  0.75701329  1.0
  Ti  Ti675  1  0.13562790  0.13562790  0.82844186  1.0
  Ti  Ti676  1  0.13562790  0.46896124  0.82844186  1.0
  Ti  Ti677  1  0.13562790  0.80229457  0.82844186  1.0
  Ti  Ti678  1  0.46896124  0.13562790  0.82844186  1.0
  Ti  Ti679  1  0.46896124  0.46896124  0.82844186  1.0
  Ti  Ti680  1  0.46896124  0.80229457  0.82844186  1.0
  Ti  Ti681  1  0.80229457  0.13562790  0.82844186  1.0
  Ti  Ti682  1  0.80229457  0.46896124  0.82844186  1.0
  Ti  Ti683  1  0.80229457  0.80229457  0.82844186  1.0
  Ti  Ti684  1  0.30229457  0.13562790  0.82844186  1.0
  Ti  Ti685  1  0.30229457  0.46896124  0.82844186  1.0
  Ti  Ti686  1  0.30229457  0.80229457  0.82844186  1.0
  Ti  Ti687  1  0.63562790  0.13562790  0.82844186  1.0
  Ti  Ti688  1  0.63562790  0.46896124  0.82844186  1.0
  Ti  Ti689  1  0.63562790  0.80229457  0.82844186  1.0
  Ti  Ti690  1  0.96896124  0.13562790  0.82844186  1.0
  Ti  Ti691  1  0.96896124  0.46896124  0.82844186  1.0
  Ti  Ti692  1  0.96896124  0.80229457  0.82844186  1.0
  Ti  Ti693  1  0.08800886  0.25467552  0.75701329  1.0
  Ti  Ti694  1  0.08800886  0.58800886  0.75701329  1.0
  Ti  Ti695  1  0.08800886  0.92134219  0.75701329  1.0
  Ti  Ti696  1  0.42134219  0.25467552  0.75701329  1.0
  Ti  Ti697  1  0.42134219  0.58800886  0.75701329  1.0
  Ti  Ti698  1  0.42134219  0.92134219  0.75701329  1.0
  Ti  Ti699  1  0.75467552  0.25467552  0.75701329  1.0
  Ti  Ti700  1  0.75467552  0.58800886  0.75701329  1.0
  Ti  Ti701  1  0.75467552  0.92134219  0.75701329  1.0
  Ti  Ti702  1  0.02848505  0.02848505  0.79272757  1.0
  Ti  Ti703  1  0.02848505  0.36181838  0.79272757  1.0
  Ti  Ti704  1  0.02848505  0.69515171  0.79272757  1.0
  Ti  Ti705  1  0.36181838  0.02848505  0.79272757  1.0
  Ti  Ti706  1  0.36181838  0.36181838  0.79272757  1.0
  Ti  Ti707  1  0.36181838  0.69515171  0.79272757  1.0
  Ti  Ti708  1  0.69515171  0.02848505  0.79272757  1.0
  Ti  Ti709  1  0.69515171  0.36181838  0.79272757  1.0
  Ti  Ti710  1  0.69515171  0.69515171  0.79272757  1.0
  Ti  Ti711  1  0.14753267  0.14753267  0.72129900  1.0
  Ti  Ti712  1  0.14753267  0.48086600  0.72129900  1.0
  Ti  Ti713  1  0.14753267  0.81419933  0.72129900  1.0
  Ti  Ti714  1  0.48086600  0.14753267  0.72129900  1.0
  Ti  Ti715  1  0.48086600  0.48086600  0.72129900  1.0
  Ti  Ti716  1  0.48086600  0.81419933  0.72129900  1.0
  Ti  Ti717  1  0.81419933  0.14753267  0.72129900  1.0
  Ti  Ti718  1  0.81419933  0.48086600  0.72129900  1.0
  Ti  Ti719  1  0.81419933  0.81419933  0.72129900  1.0
  Ti  Ti720  1  0.17989457  0.08928124  0.70188186  1.0
  Ti  Ti721  1  0.17989457  0.42261457  0.70188186  1.0
  Ti  Ti722  1  0.17989457  0.75594790  0.70188186  1.0
  Ti  Ti723  1  0.51322790  0.08928124  0.70188186  1.0
  Ti  Ti724  1  0.51322790  0.42261457  0.70188186  1.0
  Ti  Ti725  1  0.51322790  0.75594790  0.70188186  1.0
  Ti  Ti726  1  0.84656124  0.08928124  0.70188186  1.0
  Ti  Ti727  1  0.84656124  0.42261457  0.70188186  1.0
  Ti  Ti728  1  0.84656124  0.75594790  0.70188186  1.0
  Ti  Ti729  1  0.29894219  0.20832886  0.63045329  1.0
  Ti  Ti730  1  0.29894219  0.54166219  0.63045329  1.0
  Ti  Ti731  1  0.29894219  0.87499552  0.63045329  1.0
  Ti  Ti732  1  0.63227552  0.20832886  0.63045329  1.0
  Ti  Ti733  1  0.63227552  0.54166219  0.63045329  1.0
  Ti  Ti734  1  0.63227552  0.87499552  0.63045329  1.0
  Ti  Ti735  1  0.96560886  0.20832886  0.63045329  1.0
  Ti  Ti736  1  0.96560886  0.54166219  0.63045329  1.0
  Ti  Ti737  1  0.96560886  0.87499552  0.63045329  1.0
  Ti  Ti738  1  0.23421838  0.32483171  0.66928757  1.0
  Ti  Ti739  1  0.23421838  0.65816505  0.66928757  1.0
  Ti  Ti740  1  0.23421838  0.99149838  0.66928757  1.0
  Ti  Ti741  1  0.56755171  0.32483171  0.66928757  1.0
  Ti  Ti742  1  0.56755171  0.65816505  0.66928757  1.0
  Ti  Ti743  1  0.56755171  0.99149838  0.66928757  1.0
  Ti  Ti744  1  0.90088505  0.32483171  0.66928757  1.0
  Ti  Ti745  1  0.90088505  0.65816505  0.66928757  1.0
  Ti  Ti746  1  0.90088505  0.99149838  0.66928757  1.0
  Ti  Ti747  1  0.01993267  0.11054600  0.59785900  1.0
  Ti  Ti748  1  0.01993267  0.44387933  0.59785900  1.0
  Ti  Ti749  1  0.01993267  0.77721267  0.59785900  1.0
  Ti  Ti750  1  0.35326600  0.11054600  0.59785900  1.0
  Ti  Ti751  1  0.35326600  0.44387933  0.59785900  1.0
  Ti  Ti752  1  0.35326600  0.77721267  0.59785900  1.0
  Ti  Ti753  1  0.68659933  0.11054600  0.59785900  1.0
  Ti  Ti754  1  0.68659933  0.44387933  0.59785900  1.0
  Ti  Ti755  1  0.68659933  0.77721267  0.59785900  1.0
  Ti  Ti756  1  0.12967552  0.21300886  0.63201329  1.0
  Ti  Ti757  1  0.12967552  0.54634219  0.63201329  1.0
  Ti  Ti758  1  0.12967552  0.87967552  0.63201329  1.0
  Ti  Ti759  1  0.46300886  0.21300886  0.63201329  1.0
  Ti  Ti760  1  0.46300886  0.54634219  0.63201329  1.0
  Ti  Ti761  1  0.46300886  0.87967552  0.63201329  1.0
  Ti  Ti762  1  0.79634219  0.21300886  0.63201329  1.0
  Ti  Ti763  1  0.79634219  0.54634219  0.63201329  1.0
  Ti  Ti764  1  0.79634219  0.87967552  0.63201329  1.0
  Ti  Ti765  1  0.01062790  0.09396124  0.70344186  1.0
  Ti  Ti766  1  0.01062790  0.42729457  0.70344186  1.0
  Ti  Ti767  1  0.01062790  0.76062790  0.70344186  1.0
  Ti  Ti768  1  0.34396124  0.09396124  0.70344186  1.0
  Ti  Ti769  1  0.34396124  0.42729457  0.70344186  1.0
  Ti  Ti770  1  0.34396124  0.76062790  0.70344186  1.0
  Ti  Ti771  1  0.67729457  0.09396124  0.70344186  1.0
  Ti  Ti772  1  0.67729457  0.42729457  0.70344186  1.0
  Ti  Ti773  1  0.67729457  0.76062790  0.70344186  1.0
  Ti  Ti774  1  0.07015171  0.32015171  0.66772757  1.0
  Ti  Ti775  1  0.07015171  0.65348505  0.66772757  1.0
  Ti  Ti776  1  0.07015171  0.98681838  0.66772757  1.0
  Ti  Ti777  1  0.40348505  0.32015171  0.66772757  1.0
  Ti  Ti778  1  0.40348505  0.65348505  0.66772757  1.0
  Ti  Ti779  1  0.40348505  0.98681838  0.66772757  1.0
  Ti  Ti780  1  0.73681838  0.32015171  0.66772757  1.0
  Ti  Ti781  1  0.73681838  0.65348505  0.66772757  1.0
  Ti  Ti782  1  0.73681838  0.98681838  0.66772757  1.0
  Ti  Ti783  1  0.18919933  0.10586600  0.59629900  1.0
  Ti  Ti784  1  0.18919933  0.43919933  0.59629900  1.0
  Ti  Ti785  1  0.18919933  0.77253267  0.59629900  1.0
  Ti  Ti786  1  0.52253267  0.10586600  0.59629900  1.0
  Ti  Ti787  1  0.52253267  0.43919933  0.59629900  1.0
  Ti  Ti788  1  0.52253267  0.77253267  0.59629900  1.0
  Ti  Ti789  1  0.85586600  0.10586600  0.59629900  1.0
  Ti  Ti790  1  0.85586600  0.43919933  0.59629900  1.0
  Ti  Ti791  1  0.85586600  0.77253267  0.59629900  1.0
  Ti  Ti792  1  0.09991362  0.26658029  0.64987043  1.0
  Ti  Ti793  1  0.09991362  0.59991362  0.64987043  1.0
  Ti  Ti794  1  0.09991362  0.93324695  0.64987043  1.0
  Ti  Ti795  1  0.43324695  0.26658029  0.64987043  1.0
  Ti  Ti796  1  0.43324695  0.59991362  0.64987043  1.0
  Ti  Ti797  1  0.43324695  0.93324695  0.64987043  1.0
  Ti  Ti798  1  0.76658029  0.26658029  0.64987043  1.0
  Ti  Ti799  1  0.76658029  0.59991362  0.64987043  1.0
  Ti  Ti800  1  0.76658029  0.93324695  0.64987043  1.0
  Ti  Ti801  1  0.21896124  0.05229457  0.57844186  1.0
  Ti  Ti802  1  0.21896124  0.38562790  0.57844186  1.0
  Ti  Ti803  1  0.21896124  0.71896124  0.57844186  1.0
  Ti  Ti804  1  0.55229457  0.05229457  0.57844186  1.0
  Ti  Ti805  1  0.55229457  0.38562790  0.57844186  1.0
  Ti  Ti806  1  0.55229457  0.71896124  0.57844186  1.0
  Ti  Ti807  1  0.88562790  0.05229457  0.57844186  1.0
  Ti  Ti808  1  0.88562790  0.38562790  0.57844186  1.0
  Ti  Ti809  1  0.88562790  0.71896124  0.57844186  1.0
  Ti  Ti810  1  0.15943743  0.15943743  0.61415614  1.0
  Ti  Ti811  1  0.15943743  0.49277076  0.61415614  1.0
  Ti  Ti812  1  0.15943743  0.82610410  0.61415614  1.0
  Ti  Ti813  1  0.49277076  0.15943743  0.61415614  1.0
  Ti  Ti814  1  0.49277076  0.49277076  0.61415614  1.0
  Ti  Ti815  1  0.49277076  0.82610410  0.61415614  1.0
  Ti  Ti816  1  0.82610410  0.15943743  0.61415614  1.0
  Ti  Ti817  1  0.82610410  0.49277076  0.61415614  1.0
  Ti  Ti818  1  0.82610410  0.82610410  0.61415614  1.0
  Ti  Ti819  1  0.04038981  0.04038981  0.68558471  1.0
  Ti  Ti820  1  0.04038981  0.37372314  0.68558471  1.0
  Ti  Ti821  1  0.04038981  0.70705648  0.68558471  1.0
  Ti  Ti822  1  0.37372314  0.04038981  0.68558471  1.0
  Ti  Ti823  1  0.37372314  0.37372314  0.68558471  1.0
  Ti  Ti824  1  0.37372314  0.70705648  0.68558471  1.0
  Ti  Ti825  1  0.70705648  0.04038981  0.68558471  1.0
  Ti  Ti826  1  0.70705648  0.37372314  0.68558471  1.0
  Ti  Ti827  1  0.70705648  0.70705648  0.68558471  1.0
  Ti  Ti828  1  0.20705648  0.04038981  0.68558471  1.0
  Ti  Ti829  1  0.20705648  0.37372314  0.68558471  1.0
  Ti  Ti830  1  0.20705648  0.70705648  0.68558471  1.0
  Ti  Ti831  1  0.54038981  0.04038981  0.68558471  1.0
  Ti  Ti832  1  0.54038981  0.37372314  0.68558471  1.0
  Ti  Ti833  1  0.54038981  0.70705648  0.68558471  1.0
  Ti  Ti834  1  0.87372314  0.04038981  0.68558471  1.0
  Ti  Ti835  1  0.87372314  0.37372314  0.68558471  1.0
  Ti  Ti836  1  0.87372314  0.70705648  0.68558471  1.0
  Ti  Ti837  1  0.32610410  0.15943743  0.61415614  1.0
  Ti  Ti838  1  0.32610410  0.49277076  0.61415614  1.0
  Ti  Ti839  1  0.32610410  0.82610410  0.61415614  1.0
  Ti  Ti840  1  0.65943743  0.15943743  0.61415614  1.0
  Ti  Ti841  1  0.65943743  0.49277076  0.61415614  1.0
  Ti  Ti842  1  0.65943743  0.82610410  0.61415614  1.0
  Ti  Ti843  1  0.99277076  0.15943743  0.61415614  1.0
  Ti  Ti844  1  0.99277076  0.49277076  0.61415614  1.0
  Ti  Ti845  1  0.99277076  0.82610410  0.61415614  1.0
  Ti  Ti846  1  0.26658029  0.26658029  0.64987043  1.0
  Ti  Ti847  1  0.26658029  0.59991362  0.64987043  1.0
  Ti  Ti848  1  0.26658029  0.93324695  0.64987043  1.0
  Ti  Ti849  1  0.59991362  0.26658029  0.64987043  1.0
  Ti  Ti850  1  0.59991362  0.59991362  0.64987043  1.0
  Ti  Ti851  1  0.59991362  0.93324695  0.64987043  1.0
  Ti  Ti852  1  0.93324695  0.26658029  0.64987043  1.0
  Ti  Ti853  1  0.93324695  0.59991362  0.64987043  1.0
  Ti  Ti854  1  0.93324695  0.93324695  0.64987043  1.0
  Ti  Ti855  1  0.05229457  0.05229457  0.57844186  1.0
  Ti  Ti856  1  0.05229457  0.38562790  0.57844186  1.0
  Ti  Ti857  1  0.05229457  0.71896124  0.57844186  1.0
  Ti  Ti858  1  0.38562790  0.05229457  0.57844186  1.0
  Ti  Ti859  1  0.38562790  0.38562790  0.57844186  1.0
  Ti  Ti860  1  0.38562790  0.71896124  0.57844186  1.0
  Ti  Ti861  1  0.71896124  0.05229457  0.57844186  1.0
  Ti  Ti862  1  0.71896124  0.38562790  0.57844186  1.0
  Ti  Ti863  1  0.71896124  0.71896124  0.57844186  1.0
