# generated using pymatgen
data_TiNi
_symmetry_space_group_name_H-M   'P 1'
_cell_length_a   27.04315241
_cell_length_b   38.66681539
_cell_length_c   30.71179621
_cell_angle_alpha   84.59233761
_cell_angle_beta   83.38439152
_cell_angle_gamma   74.98944443
_symmetry_Int_Tables_number   1
_chemical_formula_structural   TiNi
_chemical_formula_sum   'Ti486 Ni486'
_cell_volume   30742.64174365
_cell_formula_units_Z   486
loop_
 _symmetry_equiv_pos_site_id
 _symmetry_equiv_pos_as_xyz
  1  'x, y, z'
loop_
 _atom_site_type_symbol
 _atom_site_label
 _atom_site_symmetry_multiplicity
 _atom_site_fract_x
 _atom_site_fract_y
 _atom_site_fract_z
 _atom_site_occupancy
  Ni  Ni0  1  0.30067932  0.28265401  0.96734599  1.0
  Ni  Ni1  1  0.30067932  0.61598735  0.96734599  1.0
  Ni  Ni2  1  0.30067932  0.94932068  0.96734599  1.0
  Ni  Ni3  1  0.63401265  0.28265401  0.96734599  1.0
  Ni  Ni4  1  0.63401265  0.61598735  0.96734599  1.0
  Ni  Ni5  1  0.63401265  0.94932068  0.96734599  1.0
  Ni  Ni6  1  0.96734599  0.28265401  0.96734599  1.0
  Ni  Ni7  1  0.96734599  0.61598735  0.96734599  1.0
  Ni  Ni8  1  0.96734599  0.94932068  0.96734599  1.0
  Ni  Ni9  1  0.22925075  0.18741592  0.89591742  1.0
  Ni  Ni10  1  0.22925075  0.52074925  0.89591742  1.0
  Ni  Ni11  1  0.22925075  0.85408258  0.89591742  1.0
  Ni  Ni12  1  0.56258408  0.18741592  0.89591742  1.0
  Ni  Ni13  1  0.56258408  0.52074925  0.89591742  1.0
  Ni  Ni14  1  0.56258408  0.85408258  0.89591742  1.0
  Ni  Ni15  1  0.89591742  0.18741592  0.89591742  1.0
  Ni  Ni16  1  0.89591742  0.52074925  0.89591742  1.0
  Ni  Ni17  1  0.89591742  0.85408258  0.89591742  1.0
  Ni  Ni18  1  0.08816647  0.25856281  0.86594425  1.0
  Ni  Ni19  1  0.08816647  0.59189614  0.86594425  1.0
  Ni  Ni20  1  0.08816647  0.92522947  0.86594425  1.0
  Ni  Ni21  1  0.42149981  0.25856281  0.86594425  1.0
  Ni  Ni22  1  0.42149981  0.59189614  0.86594425  1.0
  Ni  Ni23  1  0.42149981  0.92522947  0.86594425  1.0
  Ni  Ni24  1  0.75483314  0.25856281  0.86594425  1.0
  Ni  Ni25  1  0.75483314  0.59189614  0.86594425  1.0
  Ni  Ni26  1  0.75483314  0.92522947  0.86594425  1.0
  Ni  Ni27  1  0.15959504  0.02046757  0.93737282  1.0
  Ni  Ni28  1  0.15959504  0.35380090  0.93737282  1.0
  Ni  Ni29  1  0.15959504  0.68713423  0.93737282  1.0
  Ni  Ni30  1  0.49292838  0.02046757  0.93737282  1.0
  Ni  Ni31  1  0.49292838  0.35380090  0.93737282  1.0
  Ni  Ni32  1  0.49292838  0.68713423  0.93737282  1.0
  Ni  Ni33  1  0.82626171  0.02046757  0.93737282  1.0
  Ni  Ni34  1  0.82626171  0.35380090  0.93737282  1.0
  Ni  Ni35  1  0.82626171  0.68713423  0.93737282  1.0
  Ni  Ni36  1  0.10843027  0.21150712  0.99731915  1.0
  Ni  Ni37  1  0.10843027  0.54484046  0.99731915  1.0
  Ni  Ni38  1  0.10843027  0.87817379  0.99731915  1.0
  Ni  Ni39  1  0.44176360  0.21150712  0.99731915  1.0
  Ni  Ni40  1  0.44176360  0.54484046  0.99731915  1.0
  Ni  Ni41  1  0.44176360  0.87817379  0.99731915  1.0
  Ni  Ni42  1  0.77509693  0.21150712  0.99731915  1.0
  Ni  Ni43  1  0.77509693  0.54484046  0.99731915  1.0
  Ni  Ni44  1  0.77509693  0.87817379  0.99731915  1.0
  Ni  Ni45  1  0.03700169  0.11626903  0.92589058  1.0
  Ni  Ni46  1  0.03700169  0.44960236  0.92589058  1.0
  Ni  Ni47  1  0.03700169  0.78293569  0.92589058  1.0
  Ni  Ni48  1  0.37033503  0.11626903  0.92589058  1.0
  Ni  Ni49  1  0.37033503  0.44960236  0.92589058  1.0
  Ni  Ni50  1  0.37033503  0.78293569  0.92589058  1.0
  Ni  Ni51  1  0.70366836  0.11626903  0.92589058  1.0
  Ni  Ni52  1  0.70366836  0.44960236  0.92589058  1.0
  Ni  Ni53  1  0.70366836  0.78293569  0.92589058  1.0
  Ni  Ni54  1  0.29476785  0.05769915  0.97016485  1.0
  Ni  Ni55  1  0.29476785  0.39103249  0.97016485  1.0
  Ni  Ni56  1  0.29476785  0.72436582  0.97016485  1.0
  Ni  Ni57  1  0.62810118  0.05769915  0.97016485  1.0
  Ni  Ni58  1  0.62810118  0.39103249  0.97016485  1.0
  Ni  Ni59  1  0.62810118  0.72436582  0.97016485  1.0
  Ni  Ni60  1  0.96143451  0.05769915  0.97016485  1.0
  Ni  Ni61  1  0.96143451  0.39103249  0.97016485  1.0
  Ni  Ni62  1  0.96143451  0.72436582  0.97016485  1.0
  Ni  Ni63  1  0.22333927  0.29579439  0.89873627  1.0
  Ni  Ni64  1  0.22333927  0.62912773  0.89873627  1.0
  Ni  Ni65  1  0.22333927  0.96246106  0.89873627  1.0
  Ni  Ni66  1  0.55667261  0.29579439  0.89873627  1.0
  Ni  Ni67  1  0.55667261  0.62912773  0.89873627  1.0
  Ni  Ni68  1  0.55667261  0.96246106  0.89873627  1.0
  Ni  Ni69  1  0.89000594  0.29579439  0.89873627  1.0
  Ni  Ni70  1  0.89000594  0.62912773  0.89873627  1.0
  Ni  Ni71  1  0.89000594  0.96246106  0.89873627  1.0
  Ni  Ni72  1  0.02702204  0.21981863  0.91367170  1.0
  Ni  Ni73  1  0.02702204  0.55315196  0.91367170  1.0
  Ni  Ni74  1  0.02702204  0.88648530  0.91367170  1.0
  Ni  Ni75  1  0.36035537  0.21981863  0.91367170  1.0
  Ni  Ni76  1  0.36035537  0.55315196  0.91367170  1.0
  Ni  Ni77  1  0.36035537  0.88648530  0.91367170  1.0
  Ni  Ni78  1  0.69368870  0.21981863  0.91367170  1.0
  Ni  Ni79  1  0.69368870  0.55315196  0.91367170  1.0
  Ni  Ni80  1  0.69368870  0.88648530  0.91367170  1.0
  Ni  Ni81  1  0.09845061  0.31505673  0.98510027  1.0
  Ni  Ni82  1  0.09845061  0.64839006  0.98510027  1.0
  Ni  Ni83  1  0.09845061  0.98172339  0.98510027  1.0
  Ni  Ni84  1  0.43178394  0.31505673  0.98510027  1.0
  Ni  Ni85  1  0.43178394  0.64839006  0.98510027  1.0
  Ni  Ni86  1  0.43178394  0.98172339  0.98510027  1.0
  Ni  Ni87  1  0.76511727  0.31505673  0.98510027  1.0
  Ni  Ni88  1  0.76511727  0.64839006  0.98510027  1.0
  Ni  Ni89  1  0.76511727  0.98172339  0.98510027  1.0
  Ni  Ni90  1  0.16998468  0.13453749  0.94127135  1.0
  Ni  Ni91  1  0.16998468  0.46787082  0.94127135  1.0
  Ni  Ni92  1  0.16998468  0.80120415  0.94127135  1.0
  Ni  Ni93  1  0.50331801  0.13453749  0.94127135  1.0
  Ni  Ni94  1  0.50331801  0.46787082  0.94127135  1.0
  Ni  Ni95  1  0.50331801  0.80120415  0.94127135  1.0
  Ni  Ni96  1  0.83665135  0.13453749  0.94127135  1.0
  Ni  Ni97  1  0.83665135  0.46787082  0.94127135  1.0
  Ni  Ni98  1  0.83665135  0.80120415  0.94127135  1.0
  Ni  Ni99  1  0.09855611  0.03929939  0.86984277  1.0
  Ni  Ni100  1  0.09855611  0.37263273  0.86984277  1.0
  Ni  Ni101  1  0.09855611  0.70596606  0.86984277  1.0
  Ni  Ni102  1  0.43188944  0.03929939  0.86984277  1.0
  Ni  Ni103  1  0.43188944  0.37263273  0.86984277  1.0
  Ni  Ni104  1  0.43188944  0.70596606  0.86984277  1.0
  Ni  Ni105  1  0.76522277  0.03929939  0.86984277  1.0
  Ni  Ni106  1  0.76522277  0.37263273  0.86984277  1.0
  Ni  Ni107  1  0.76522277  0.70596606  0.86984277  1.0
  Ni  Ni108  1  0.23516223  0.07903744  0.89309856  1.0
  Ni  Ni109  1  0.23516223  0.41237077  0.89309856  1.0
  Ni  Ni110  1  0.23516223  0.74570411  0.89309856  1.0
  Ni  Ni111  1  0.56849556  0.07903744  0.89309856  1.0
  Ni  Ni112  1  0.56849556  0.41237077  0.89309856  1.0
  Ni  Ni113  1  0.56849556  0.74570411  0.89309856  1.0
  Ni  Ni114  1  0.90182889  0.07903744  0.89309856  1.0
  Ni  Ni115  1  0.90182889  0.41237077  0.89309856  1.0
  Ni  Ni116  1  0.90182889  0.74570411  0.89309856  1.0
  Ni  Ni117  1  0.30659080  0.17427554  0.96452713  1.0
  Ni  Ni118  1  0.30659080  0.50760887  0.96452713  1.0
  Ni  Ni119  1  0.30659080  0.84094220  0.96452713  1.0
  Ni  Ni120  1  0.63992413  0.17427554  0.96452713  1.0
  Ni  Ni121  1  0.63992413  0.50760887  0.96452713  1.0
  Ni  Ni122  1  0.63992413  0.84094220  0.96452713  1.0
  Ni  Ni123  1  0.97325746  0.17427554  0.96452713  1.0
  Ni  Ni124  1  0.97325746  0.50760887  0.96452713  1.0
  Ni  Ni125  1  0.97325746  0.84094220  0.96452713  1.0
  Ni  Ni126  1  0.16957470  0.25025130  0.94959170  1.0
  Ni  Ni127  1  0.16957470  0.58358463  0.94959170  1.0
  Ni  Ni128  1  0.16957470  0.91691796  0.94959170  1.0
  Ni  Ni129  1  0.50290804  0.25025130  0.94959170  1.0
  Ni  Ni130  1  0.50290804  0.58358463  0.94959170  1.0
  Ni  Ni131  1  0.50290804  0.91691796  0.94959170  1.0
  Ni  Ni132  1  0.83624137  0.25025130  0.94959170  1.0
  Ni  Ni133  1  0.83624137  0.58358463  0.94959170  1.0
  Ni  Ni134  1  0.83624137  0.91691796  0.94959170  1.0
  Ni  Ni135  1  0.09814613  0.15501320  0.87816313  1.0
  Ni  Ni136  1  0.09814613  0.48834654  0.87816313  1.0
  Ni  Ni137  1  0.09814613  0.82167987  0.87816313  1.0
  Ni  Ni138  1  0.43147946  0.15501320  0.87816313  1.0
  Ni  Ni139  1  0.43147946  0.48834654  0.87816313  1.0
  Ni  Ni140  1  0.43147946  0.82167987  0.87816313  1.0
  Ni  Ni141  1  0.76481280  0.15501320  0.87816313  1.0
  Ni  Ni142  1  0.76481280  0.48834654  0.87816313  1.0
  Ni  Ni143  1  0.76481280  0.82167987  0.87816313  1.0
  Ni  Ni144  1  0.02661206  0.00219911  0.92199206  1.0
  Ni  Ni145  1  0.02661206  0.33553244  0.92199206  1.0
  Ni  Ni146  1  0.02661206  0.66886577  0.92199206  1.0
  Ni  Ni147  1  0.35994539  0.00219911  0.92199206  1.0
  Ni  Ni148  1  0.35994539  0.33553244  0.92199206  1.0
  Ni  Ni149  1  0.35994539  0.66886577  0.92199206  1.0
  Ni  Ni150  1  0.69327873  0.00219911  0.92199206  1.0
  Ni  Ni151  1  0.69327873  0.33553244  0.92199206  1.0
  Ni  Ni152  1  0.69327873  0.66886577  0.92199206  1.0
  Ni  Ni153  1  0.09804063  0.09743720  0.99342063  1.0
  Ni  Ni154  1  0.09804063  0.43077054  0.99342063  1.0
  Ni  Ni155  1  0.09804063  0.76410387  0.99342063  1.0
  Ni  Ni156  1  0.43137396  0.09743720  0.99342063  1.0
  Ni  Ni157  1  0.43137396  0.43077054  0.99342063  1.0
  Ni  Ni158  1  0.43137396  0.76410387  0.99342063  1.0
  Ni  Ni159  1  0.76470730  0.09743720  0.99342063  1.0
  Ni  Ni160  1  0.76470730  0.43077054  0.99342063  1.0
  Ni  Ni161  1  0.76470730  0.76410387  0.99342063  1.0
  Ni  Ni162  1  0.15782218  0.09217782  0.82448885  1.0
  Ni  Ni163  1  0.15782218  0.42551115  0.82448885  1.0
  Ni  Ni164  1  0.15782218  0.75884449  0.82448885  1.0
  Ni  Ni165  1  0.49115551  0.09217782  0.82448885  1.0
  Ni  Ni166  1  0.49115551  0.42551115  0.82448885  1.0
  Ni  Ni167  1  0.49115551  0.75884449  0.82448885  1.0
  Ni  Ni168  1  0.82448885  0.09217782  0.82448885  1.0
  Ni  Ni169  1  0.82448885  0.42551115  0.82448885  1.0
  Ni  Ni170  1  0.82448885  0.75884449  0.82448885  1.0
  Ni  Ni171  1  0.08639361  0.33027306  0.75306027  1.0
  Ni  Ni172  1  0.08639361  0.66360639  0.75306027  1.0
  Ni  Ni173  1  0.08639361  0.99693973  0.75306027  1.0
  Ni  Ni174  1  0.41972694  0.33027306  0.75306027  1.0
  Ni  Ni175  1  0.41972694  0.66360639  0.75306027  1.0
  Ni  Ni176  1  0.41972694  0.99693973  0.75306027  1.0
  Ni  Ni177  1  0.75306027  0.33027306  0.75306027  1.0
  Ni  Ni178  1  0.75306027  0.66360639  0.75306027  1.0
  Ni  Ni179  1  0.75306027  0.99693973  0.75306027  1.0
  Ni  Ni180  1  0.27864266  0.06808662  0.72308711  1.0
  Ni  Ni181  1  0.27864266  0.40141995  0.72308711  1.0
  Ni  Ni182  1  0.27864266  0.73475328  0.72308711  1.0
  Ni  Ni183  1  0.61197600  0.06808662  0.72308711  1.0
  Ni  Ni184  1  0.61197600  0.40141995  0.72308711  1.0
  Ni  Ni185  1  0.61197600  0.73475328  0.72308711  1.0
  Ni  Ni186  1  0.94530933  0.06808662  0.72308711  1.0
  Ni  Ni187  1  0.94530933  0.40141995  0.72308711  1.0
  Ni  Ni188  1  0.94530933  0.73475328  0.72308711  1.0
  Ni  Ni189  1  0.01673790  0.16332471  0.79451568  1.0
  Ni  Ni190  1  0.01673790  0.49665804  0.79451568  1.0
  Ni  Ni191  1  0.01673790  0.82999138  0.79451568  1.0
  Ni  Ni192  1  0.35007123  0.16332471  0.79451568  1.0
  Ni  Ni193  1  0.35007123  0.49665804  0.79451568  1.0
  Ni  Ni194  1  0.35007123  0.82999138  0.79451568  1.0
  Ni  Ni195  1  0.68340457  0.16332471  0.79451568  1.0
  Ni  Ni196  1  0.68340457  0.49665804  0.79451568  1.0
  Ni  Ni197  1  0.68340457  0.82999138  0.79451568  1.0
  Ni  Ni198  1  0.29890646  0.02103093  0.85446201  1.0
  Ni  Ni199  1  0.29890646  0.35436427  0.85446201  1.0
  Ni  Ni200  1  0.29890646  0.68769760  0.85446201  1.0
  Ni  Ni201  1  0.63223979  0.02103093  0.85446201  1.0
  Ni  Ni202  1  0.63223979  0.35436427  0.85446201  1.0
  Ni  Ni203  1  0.63223979  0.68769760  0.85446201  1.0
  Ni  Ni204  1  0.96557312  0.02103093  0.85446201  1.0
  Ni  Ni205  1  0.96557312  0.35436427  0.85446201  1.0
  Ni  Ni206  1  0.96557312  0.68769760  0.85446201  1.0
  Ni  Ni207  1  0.22747788  0.25912617  0.78303344  1.0
  Ni  Ni208  1  0.22747788  0.59245950  0.78303344  1.0
  Ni  Ni209  1  0.22747788  0.92579284  0.78303344  1.0
  Ni  Ni210  1  0.56081122  0.25912617  0.78303344  1.0
  Ni  Ni211  1  0.56081122  0.59245950  0.78303344  1.0
  Ni  Ni212  1  0.56081122  0.92579284  0.78303344  1.0
  Ni  Ni213  1  0.89414455  0.25912617  0.78303344  1.0
  Ni  Ni214  1  0.89414455  0.59245950  0.78303344  1.0
  Ni  Ni215  1  0.89414455  0.92579284  0.78303344  1.0
  Ni  Ni216  1  0.15191070  0.20055630  0.82730770  1.0
  Ni  Ni217  1  0.15191070  0.53388963  0.82730770  1.0
  Ni  Ni218  1  0.15191070  0.86722296  0.82730770  1.0
  Ni  Ni219  1  0.48524404  0.20055630  0.82730770  1.0
  Ni  Ni220  1  0.48524404  0.53388963  0.82730770  1.0
  Ni  Ni221  1  0.48524404  0.86722296  0.82730770  1.0
  Ni  Ni222  1  0.81857737  0.20055630  0.82730770  1.0
  Ni  Ni223  1  0.81857737  0.53388963  0.82730770  1.0
  Ni  Ni224  1  0.81857737  0.86722296  0.82730770  1.0
  Ni  Ni225  1  0.08048213  0.10531820  0.75587913  1.0
  Ni  Ni226  1  0.08048213  0.43865154  0.75587913  1.0
  Ni  Ni227  1  0.08048213  0.77198487  0.75587913  1.0
  Ni  Ni228  1  0.41381546  0.10531820  0.75587913  1.0
  Ni  Ni229  1  0.41381546  0.43865154  0.75587913  1.0
  Ni  Ni230  1  0.41381546  0.77198487  0.75587913  1.0
  Ni  Ni231  1  0.74714880  0.10531820  0.75587913  1.0
  Ni  Ni232  1  0.74714880  0.43865154  0.75587913  1.0
  Ni  Ni233  1  0.74714880  0.77198487  0.75587913  1.0
  Ni  Ni234  1  0.21749823  0.02934244  0.77081456  1.0
  Ni  Ni235  1  0.21749823  0.36267577  0.77081456  1.0
  Ni  Ni236  1  0.21749823  0.69600911  0.77081456  1.0
  Ni  Ni237  1  0.55083156  0.02934244  0.77081456  1.0
  Ni  Ni238  1  0.55083156  0.36267577  0.77081456  1.0
  Ni  Ni239  1  0.55083156  0.69600911  0.77081456  1.0
  Ni  Ni240  1  0.88416489  0.02934244  0.77081456  1.0
  Ni  Ni241  1  0.88416489  0.36267577  0.77081456  1.0
  Ni  Ni242  1  0.88416489  0.69600911  0.77081456  1.0
  Ni  Ni243  1  0.28892680  0.12458054  0.84224313  1.0
  Ni  Ni244  1  0.28892680  0.45791387  0.84224313  1.0
  Ni  Ni245  1  0.28892680  0.79124720  0.84224313  1.0
  Ni  Ni246  1  0.62226013  0.12458054  0.84224313  1.0
  Ni  Ni247  1  0.62226013  0.45791387  0.84224313  1.0
  Ni  Ni248  1  0.62226013  0.79124720  0.84224313  1.0
  Ni  Ni249  1  0.95559346  0.12458054  0.84224313  1.0
  Ni  Ni250  1  0.95559346  0.45791387  0.84224313  1.0
  Ni  Ni251  1  0.95559346  0.79124720  0.84224313  1.0
  Ni  Ni252  1  0.02712754  0.27739463  0.79841420  1.0
  Ni  Ni253  1  0.02712754  0.61072796  0.79841420  1.0
  Ni  Ni254  1  0.02712754  0.94406130  0.79841420  1.0
  Ni  Ni255  1  0.36046087  0.27739463  0.79841420  1.0
  Ni  Ni256  1  0.36046087  0.61072796  0.79841420  1.0
  Ni  Ni257  1  0.36046087  0.94406130  0.79841420  1.0
  Ni  Ni258  1  0.69379420  0.27739463  0.79841420  1.0
  Ni  Ni259  1  0.69379420  0.61072796  0.79841420  1.0
  Ni  Ni260  1  0.69379420  0.94406130  0.79841420  1.0
  Ni  Ni261  1  0.28903230  0.18215654  0.72698563  1.0
  Ni  Ni262  1  0.28903230  0.51548987  0.72698563  1.0
  Ni  Ni263  1  0.28903230  0.84882320  0.72698563  1.0
  Ni  Ni264  1  0.62236563  0.18215654  0.72698563  1.0
  Ni  Ni265  1  0.62236563  0.51548987  0.72698563  1.0
  Ni  Ni266  1  0.62236563  0.84882320  0.72698563  1.0
  Ni  Ni267  1  0.95569896  0.18215654  0.72698563  1.0
  Ni  Ni268  1  0.95569896  0.51548987  0.72698563  1.0
  Ni  Ni269  1  0.95569896  0.84882320  0.72698563  1.0
  Ni  Ni270  1  0.09230508  0.22189458  0.75024142  1.0
  Ni  Ni271  1  0.09230508  0.55522792  0.75024142  1.0
  Ni  Ni272  1  0.09230508  0.88856125  0.75024142  1.0
  Ni  Ni273  1  0.42563842  0.22189458  0.75024142  1.0
  Ni  Ni274  1  0.42563842  0.55522792  0.75024142  1.0
  Ni  Ni275  1  0.42563842  0.88856125  0.75024142  1.0
  Ni  Ni276  1  0.75897175  0.22189458  0.75024142  1.0
  Ni  Ni277  1  0.75897175  0.55522792  0.75024142  1.0
  Ni  Ni278  1  0.75897175  0.88856125  0.75024142  1.0
  Ni  Ni279  1  0.16373365  0.31713268  0.82166999  1.0
  Ni  Ni280  1  0.16373365  0.65046601  0.82166999  1.0
  Ni  Ni281  1  0.16373365  0.98379935  0.82166999  1.0
  Ni  Ni282  1  0.49706699  0.31713268  0.82166999  1.0
  Ni  Ni283  1  0.49706699  0.65046601  0.82166999  1.0
  Ni  Ni284  1  0.49706699  0.98379935  0.82166999  1.0
  Ni  Ni285  1  0.83040032  0.31713268  0.82166999  1.0
  Ni  Ni286  1  0.83040032  0.65046601  0.82166999  1.0
  Ni  Ni287  1  0.83040032  0.98379935  0.82166999  1.0
  Ni  Ni288  1  0.02671756  0.05977511  0.80673456  1.0
  Ni  Ni289  1  0.02671756  0.39310844  0.80673456  1.0
  Ni  Ni290  1  0.02671756  0.72644177  0.80673456  1.0
  Ni  Ni291  1  0.36005089  0.05977511  0.80673456  1.0
  Ni  Ni292  1  0.36005089  0.39310844  0.80673456  1.0
  Ni  Ni293  1  0.36005089  0.72644177  0.80673456  1.0
  Ni  Ni294  1  0.69338423  0.05977511  0.80673456  1.0
  Ni  Ni295  1  0.69338423  0.39310844  0.80673456  1.0
  Ni  Ni296  1  0.69338423  0.72644177  0.80673456  1.0
  Ni  Ni297  1  0.28862232  0.29787035  0.73530599  1.0
  Ni  Ni298  1  0.28862232  0.63120368  0.73530599  1.0
  Ni  Ni299  1  0.28862232  0.96453701  0.73530599  1.0
  Ni  Ni300  1  0.62195565  0.29787035  0.73530599  1.0
  Ni  Ni301  1  0.62195565  0.63120368  0.73530599  1.0
  Ni  Ni302  1  0.62195565  0.96453701  0.73530599  1.0
  Ni  Ni303  1  0.95528899  0.29787035  0.73530599  1.0
  Ni  Ni304  1  0.95528899  0.63120368  0.73530599  1.0
  Ni  Ni305  1  0.95528899  0.96453701  0.73530599  1.0
  Ni  Ni306  1  0.21708825  0.14505625  0.77913492  1.0
  Ni  Ni307  1  0.21708825  0.47838958  0.77913492  1.0
  Ni  Ni308  1  0.21708825  0.81172292  0.77913492  1.0
  Ni  Ni309  1  0.55042158  0.14505625  0.77913492  1.0
  Ni  Ni310  1  0.55042158  0.47838958  0.77913492  1.0
  Ni  Ni311  1  0.55042158  0.81172292  0.77913492  1.0
  Ni  Ni312  1  0.88375492  0.14505625  0.77913492  1.0
  Ni  Ni313  1  0.88375492  0.47838958  0.77913492  1.0
  Ni  Ni314  1  0.88375492  0.81172292  0.77913492  1.0
  Ni  Ni315  1  0.28851682  0.24029435  0.85056349  1.0
  Ni  Ni316  1  0.28851682  0.57362768  0.85056349  1.0
  Ni  Ni317  1  0.28851682  0.90696101  0.85056349  1.0
  Ni  Ni318  1  0.62185015  0.24029435  0.85056349  1.0
  Ni  Ni319  1  0.62185015  0.57362768  0.85056349  1.0
  Ni  Ni320  1  0.62185015  0.90696101  0.85056349  1.0
  Ni  Ni321  1  0.95518349  0.24029435  0.85056349  1.0
  Ni  Ni322  1  0.95518349  0.57362768  0.85056349  1.0
  Ni  Ni323  1  0.95518349  0.90696101  0.85056349  1.0
  Ni  Ni324  1  0.01496504  0.23503496  0.68163170  1.0
  Ni  Ni325  1  0.01496504  0.56836830  0.68163170  1.0
  Ni  Ni326  1  0.01496504  0.90170163  0.68163170  1.0
  Ni  Ni327  1  0.34829837  0.23503496  0.68163170  1.0
  Ni  Ni328  1  0.34829837  0.56836830  0.68163170  1.0
  Ni  Ni329  1  0.34829837  0.90170163  0.68163170  1.0
  Ni  Ni330  1  0.68163170  0.23503496  0.68163170  1.0
  Ni  Ni331  1  0.68163170  0.56836830  0.68163170  1.0
  Ni  Ni332  1  0.68163170  0.90170163  0.68163170  1.0
  Ni  Ni333  1  0.27686980  0.13979687  0.61020313  1.0
  Ni  Ni334  1  0.27686980  0.47313020  0.61020313  1.0
  Ni  Ni335  1  0.27686980  0.80646354  0.61020313  1.0
  Ni  Ni336  1  0.61020313  0.13979687  0.61020313  1.0
  Ni  Ni337  1  0.61020313  0.47313020  0.61020313  1.0
  Ni  Ni338  1  0.61020313  0.80646354  0.61020313  1.0
  Ni  Ni339  1  0.94353646  0.13979687  0.61020313  1.0
  Ni  Ni340  1  0.94353646  0.47313020  0.61020313  1.0
  Ni  Ni341  1  0.94353646  0.80646354  0.61020313  1.0
  Ni  Ni342  1  0.13578552  0.21094376  0.58022996  1.0
  Ni  Ni343  1  0.13578552  0.54427709  0.58022996  1.0
  Ni  Ni344  1  0.13578552  0.87761042  0.58022996  1.0
  Ni  Ni345  1  0.46911885  0.21094376  0.58022996  1.0
  Ni  Ni346  1  0.46911885  0.54427709  0.58022996  1.0
  Ni  Ni347  1  0.46911885  0.87761042  0.58022996  1.0
  Ni  Ni348  1  0.80245219  0.21094376  0.58022996  1.0
  Ni  Ni349  1  0.80245219  0.54427709  0.58022996  1.0
  Ni  Ni350  1  0.80245219  0.87761042  0.58022996  1.0
  Ni  Ni351  1  0.20721409  0.30618185  0.65165854  1.0
  Ni  Ni352  1  0.20721409  0.63951519  0.65165854  1.0
  Ni  Ni353  1  0.20721409  0.97284852  0.65165854  1.0
  Ni  Ni354  1  0.54054742  0.30618185  0.65165854  1.0
  Ni  Ni355  1  0.54054742  0.63951519  0.65165854  1.0
  Ni  Ni356  1  0.54054742  0.97284852  0.65165854  1.0
  Ni  Ni357  1  0.87388076  0.30618185  0.65165854  1.0
  Ni  Ni358  1  0.87388076  0.63951519  0.65165854  1.0
  Ni  Ni359  1  0.87388076  0.97284852  0.65165854  1.0
  Ni  Ni360  1  0.15604931  0.16388808  0.71160487  1.0
  Ni  Ni361  1  0.15604931  0.49722141  0.71160487  1.0
  Ni  Ni362  1  0.15604931  0.83055474  0.71160487  1.0
  Ni  Ni363  1  0.48938265  0.16388808  0.71160487  1.0
  Ni  Ni364  1  0.48938265  0.49722141  0.71160487  1.0
  Ni  Ni365  1  0.48938265  0.83055474  0.71160487  1.0
  Ni  Ni366  1  0.82271598  0.16388808  0.71160487  1.0
  Ni  Ni367  1  0.82271598  0.49722141  0.71160487  1.0
  Ni  Ni368  1  0.82271598  0.83055474  0.71160487  1.0
  Ni  Ni369  1  0.08462074  0.06864998  0.64017630  1.0
  Ni  Ni370  1  0.08462074  0.40198331  0.64017630  1.0
  Ni  Ni371  1  0.08462074  0.73531665  0.64017630  1.0
  Ni  Ni372  1  0.41795408  0.06864998  0.64017630  1.0
  Ni  Ni373  1  0.41795408  0.40198331  0.64017630  1.0
  Ni  Ni374  1  0.41795408  0.73531665  0.64017630  1.0
  Ni  Ni375  1  0.75128741  0.06864998  0.64017630  1.0
  Ni  Ni376  1  0.75128741  0.40198331  0.64017630  1.0
  Ni  Ni377  1  0.75128741  0.73531665  0.64017630  1.0
  Ni  Ni378  1  0.00905356  0.01008011  0.68445056  1.0
  Ni  Ni379  1  0.00905356  0.34341344  0.68445056  1.0
  Ni  Ni380  1  0.00905356  0.67674677  0.68445056  1.0
  Ni  Ni381  1  0.34238689  0.01008011  0.68445056  1.0
  Ni  Ni382  1  0.34238689  0.34341344  0.68445056  1.0
  Ni  Ni383  1  0.34238689  0.67674677  0.68445056  1.0
  Ni  Ni384  1  0.67572023  0.01008011  0.68445056  1.0
  Ni  Ni385  1  0.67572023  0.34341344  0.68445056  1.0
  Ni  Ni386  1  0.67572023  0.67674677  0.68445056  1.0
  Ni  Ni387  1  0.27095832  0.24817535  0.61302199  1.0
  Ni  Ni388  1  0.27095832  0.58150868  0.61302199  1.0
  Ni  Ni389  1  0.27095832  0.91484201  0.61302199  1.0
  Ni  Ni390  1  0.60429165  0.24817535  0.61302199  1.0
  Ni  Ni391  1  0.60429165  0.58150868  0.61302199  1.0
  Ni  Ni392  1  0.60429165  0.91484201  0.61302199  1.0
  Ni  Ni393  1  0.93762499  0.24817535  0.61302199  1.0
  Ni  Ni394  1  0.93762499  0.58150868  0.61302199  1.0
  Ni  Ni395  1  0.93762499  0.91484201  0.61302199  1.0
  Ni  Ni396  1  0.07464108  0.17219958  0.62795742  1.0
  Ni  Ni397  1  0.07464108  0.50553292  0.62795742  1.0
  Ni  Ni398  1  0.07464108  0.83886625  0.62795742  1.0
  Ni  Ni399  1  0.40797442  0.17219958  0.62795742  1.0
  Ni  Ni400  1  0.40797442  0.50553292  0.62795742  1.0
  Ni  Ni401  1  0.40797442  0.83886625  0.62795742  1.0
  Ni  Ni402  1  0.74130775  0.17219958  0.62795742  1.0
  Ni  Ni403  1  0.74130775  0.50553292  0.62795742  1.0
  Ni  Ni404  1  0.74130775  0.83886625  0.62795742  1.0
  Ni  Ni405  1  0.14606965  0.26743768  0.69938599  1.0
  Ni  Ni406  1  0.14606965  0.60077101  0.69938599  1.0
  Ni  Ni407  1  0.14606965  0.93410435  0.69938599  1.0
  Ni  Ni408  1  0.47940299  0.26743768  0.69938599  1.0
  Ni  Ni409  1  0.47940299  0.60077101  0.69938599  1.0
  Ni  Ni410  1  0.47940299  0.93410435  0.69938599  1.0
  Ni  Ni411  1  0.81273632  0.26743768  0.69938599  1.0
  Ni  Ni412  1  0.81273632  0.60077101  0.69938599  1.0
  Ni  Ni413  1  0.81273632  0.93410435  0.69938599  1.0
  Ni  Ni414  1  0.21760373  0.08691844  0.65555706  1.0
  Ni  Ni415  1  0.21760373  0.42025177  0.65555706  1.0
  Ni  Ni416  1  0.21760373  0.75358511  0.65555706  1.0
  Ni  Ni417  1  0.55093706  0.08691844  0.65555706  1.0
  Ni  Ni418  1  0.55093706  0.42025177  0.65555706  1.0
  Ni  Ni419  1  0.55093706  0.75358511  0.65555706  1.0
  Ni  Ni420  1  0.88427039  0.08691844  0.65555706  1.0
  Ni  Ni421  1  0.88427039  0.42025177  0.65555706  1.0
  Ni  Ni422  1  0.88427039  0.75358511  0.65555706  1.0
  Ni  Ni423  1  0.14617515  0.32501368  0.58412849  1.0
  Ni  Ni424  1  0.14617515  0.65834701  0.58412849  1.0
  Ni  Ni425  1  0.14617515  0.99168035  0.58412849  1.0
  Ni  Ni426  1  0.47950849  0.32501368  0.58412849  1.0
  Ni  Ni427  1  0.47950849  0.65834701  0.58412849  1.0
  Ni  Ni428  1  0.47950849  0.99168035  0.58412849  1.0
  Ni  Ni429  1  0.81284182  0.32501368  0.58412849  1.0
  Ni  Ni430  1  0.81284182  0.65834701  0.58412849  1.0
  Ni  Ni431  1  0.81284182  0.99168035  0.58412849  1.0
  Ni  Ni432  1  0.28278127  0.03141839  0.60738427  1.0
  Ni  Ni433  1  0.28278127  0.36475173  0.60738427  1.0
  Ni  Ni434  1  0.28278127  0.69808506  0.60738427  1.0
  Ni  Ni435  1  0.61611461  0.03141839  0.60738427  1.0
  Ni  Ni436  1  0.61611461  0.36475173  0.60738427  1.0
  Ni  Ni437  1  0.61611461  0.69808506  0.60738427  1.0
  Ni  Ni438  1  0.94944794  0.03141839  0.60738427  1.0
  Ni  Ni439  1  0.94944794  0.36475173  0.60738427  1.0
  Ni  Ni440  1  0.94944794  0.69808506  0.60738427  1.0
  Ni  Ni441  1  0.02087651  0.12665649  0.67881285  1.0
  Ni  Ni442  1  0.02087651  0.45998982  0.67881285  1.0
  Ni  Ni443  1  0.02087651  0.79332315  0.67881285  1.0
  Ni  Ni444  1  0.35420985  0.12665649  0.67881285  1.0
  Ni  Ni445  1  0.35420985  0.45998982  0.67881285  1.0
  Ni  Ni446  1  0.35420985  0.79332315  0.67881285  1.0
  Ni  Ni447  1  0.68754318  0.12665649  0.67881285  1.0
  Ni  Ni448  1  0.68754318  0.45998982  0.67881285  1.0
  Ni  Ni449  1  0.68754318  0.79332315  0.67881285  1.0
  Ni  Ni450  1  0.21719375  0.20263225  0.66387742  1.0
  Ni  Ni451  1  0.21719375  0.53596558  0.66387742  1.0
  Ni  Ni452  1  0.21719375  0.86929892  0.66387742  1.0
  Ni  Ni453  1  0.55052708  0.20263225  0.66387742  1.0
  Ni  Ni454  1  0.55052708  0.53596558  0.66387742  1.0
  Ni  Ni455  1  0.55052708  0.86929892  0.66387742  1.0
  Ni  Ni456  1  0.88386042  0.20263225  0.66387742  1.0
  Ni  Ni457  1  0.88386042  0.53596558  0.66387742  1.0
  Ni  Ni458  1  0.88386042  0.86929892  0.66387742  1.0
  Ni  Ni459  1  0.14576518  0.10739415  0.59244885  1.0
  Ni  Ni460  1  0.14576518  0.44072749  0.59244885  1.0
  Ni  Ni461  1  0.14576518  0.77406082  0.59244885  1.0
  Ni  Ni462  1  0.47909851  0.10739415  0.59244885  1.0
  Ni  Ni463  1  0.47909851  0.44072749  0.59244885  1.0
  Ni  Ni464  1  0.47909851  0.77406082  0.59244885  1.0
  Ni  Ni465  1  0.81243185  0.10739415  0.59244885  1.0
  Ni  Ni466  1  0.81243185  0.44072749  0.59244885  1.0
  Ni  Ni467  1  0.81243185  0.77406082  0.59244885  1.0
  Ni  Ni468  1  0.07423111  0.28791339  0.63627777  1.0
  Ni  Ni469  1  0.07423111  0.62124673  0.63627777  1.0
  Ni  Ni470  1  0.07423111  0.95458006  0.63627777  1.0
  Ni  Ni471  1  0.40756444  0.28791339  0.63627777  1.0
  Ni  Ni472  1  0.40756444  0.62124673  0.63627777  1.0
  Ni  Ni473  1  0.40756444  0.95458006  0.63627777  1.0
  Ni  Ni474  1  0.74089777  0.28791339  0.63627777  1.0
  Ni  Ni475  1  0.74089777  0.62124673  0.63627777  1.0
  Ni  Ni476  1  0.74089777  0.95458006  0.63627777  1.0
  Ni  Ni477  1  0.14565968  0.04981815  0.70770635  1.0
  Ni  Ni478  1  0.14565968  0.38315149  0.70770635  1.0
  Ni  Ni479  1  0.14565968  0.71648482  0.70770635  1.0
  Ni  Ni480  1  0.47899301  0.04981815  0.70770635  1.0
  Ni  Ni481  1  0.47899301  0.38315149  0.70770635  1.0
  Ni  Ni482  1  0.47899301  0.71648482  0.70770635  1.0
  Ni  Ni483  1  0.81232635  0.04981815  0.70770635  1.0
  Ni  Ni484  1  0.81232635  0.38315149  0.70770635  1.0
  Ni  Ni485  1  0.81232635  0.71648482  0.70770635  1.0
  Ti  Ti486  1  0.19353646  0.13979687  0.86020313  1.0
  Ti  Ti487  1  0.19353646  0.47313020  0.86020313  1.0
  Ti  Ti488  1  0.19353646  0.80646354  0.86020313  1.0
  Ti  Ti489  1  0.52686980  0.13979687  0.86020313  1.0
  Ti  Ti490  1  0.52686980  0.47313020  0.86020313  1.0
  Ti  Ti491  1  0.52686980  0.80646354  0.86020313  1.0
  Ti  Ti492  1  0.86020313  0.13979687  0.86020313  1.0
  Ti  Ti493  1  0.86020313  0.47313020  0.86020313  1.0
  Ti  Ti494  1  0.86020313  0.80646354  0.86020313  1.0
  Ti  Ti495  1  0.26496504  0.23503496  0.93163170  1.0
  Ti  Ti496  1  0.26496504  0.56836830  0.93163170  1.0
  Ti  Ti497  1  0.26496504  0.90170163  0.93163170  1.0
  Ti  Ti498  1  0.59829837  0.23503496  0.93163170  1.0
  Ti  Ti499  1  0.59829837  0.56836830  0.93163170  1.0
  Ti  Ti500  1  0.59829837  0.90170163  0.93163170  1.0
  Ti  Ti501  1  0.93163170  0.23503496  0.93163170  1.0
  Ti  Ti502  1  0.93163170  0.56836830  0.93163170  1.0
  Ti  Ti503  1  0.93163170  0.90170163  0.93163170  1.0
  Ti  Ti504  1  0.12689469  0.31020042  0.90467246  1.0
  Ti  Ti505  1  0.12689469  0.64353376  0.90467246  1.0
  Ti  Ti506  1  0.12689469  0.97686709  0.90467246  1.0
  Ti  Ti507  1  0.46022802  0.31020042  0.90467246  1.0
  Ti  Ti508  1  0.46022802  0.64353376  0.90467246  1.0
  Ti  Ti509  1  0.46022802  0.97686709  0.90467246  1.0
  Ti  Ti510  1  0.79356135  0.31020042  0.90467246  1.0
  Ti  Ti511  1  0.79356135  0.64353376  0.90467246  1.0
  Ti  Ti512  1  0.79356135  0.97686709  0.90467246  1.0
  Ti  Ti513  1  0.19832326  0.07210519  0.97610104  1.0
  Ti  Ti514  1  0.19832326  0.40543852  0.97610104  1.0
  Ti  Ti515  1  0.19832326  0.73877185  0.97610104  1.0
  Ti  Ti516  1  0.53165659  0.07210519  0.97610104  1.0
  Ti  Ti517  1  0.53165659  0.40543852  0.97610104  1.0
  Ti  Ti518  1  0.53165659  0.73877185  0.97610104  1.0
  Ti  Ti519  1  0.86498992  0.07210519  0.97610104  1.0
  Ti  Ti520  1  0.86498992  0.40543852  0.97610104  1.0
  Ti  Ti521  1  0.86498992  0.73877185  0.97610104  1.0
  Ti  Ti522  1  0.06970205  0.15986950  0.95859094  1.0
  Ti  Ti523  1  0.06970205  0.49320284  0.95859094  1.0
  Ti  Ti524  1  0.06970205  0.82653617  0.95859094  1.0
  Ti  Ti525  1  0.40303538  0.15986950  0.95859094  1.0
  Ti  Ti526  1  0.40303538  0.49320284  0.95859094  1.0
  Ti  Ti527  1  0.40303538  0.82653617  0.95859094  1.0
  Ti  Ti528  1  0.73636872  0.15986950  0.95859094  1.0
  Ti  Ti529  1  0.73636872  0.49320284  0.95859094  1.0
  Ti  Ti530  1  0.73636872  0.82653617  0.95859094  1.0
  Ti  Ti531  1  0.33160681  0.06463141  0.88716237  1.0
  Ti  Ti532  1  0.33160681  0.39796474  0.88716237  1.0
  Ti  Ti533  1  0.33160681  0.73129808  0.88716237  1.0
  Ti  Ti534  1  0.66494015  0.06463141  0.88716237  1.0
  Ti  Ti535  1  0.66494015  0.39796474  0.88716237  1.0
  Ti  Ti536  1  0.66494015  0.73129808  0.88716237  1.0
  Ti  Ti537  1  0.99827348  0.06463141  0.88716237  1.0
  Ti  Ti538  1  0.99827348  0.39796474  0.88716237  1.0
  Ti  Ti539  1  0.99827348  0.73129808  0.88716237  1.0
  Ti  Ti540  1  0.18955623  0.25059477  0.86058256  1.0
  Ti  Ti541  1  0.18955623  0.58392811  0.86058256  1.0
  Ti  Ti542  1  0.18955623  0.91726144  0.86058256  1.0
  Ti  Ti543  1  0.52288956  0.25059477  0.86058256  1.0
  Ti  Ti544  1  0.52288956  0.58392811  0.86058256  1.0
  Ti  Ti545  1  0.52288956  0.91726144  0.86058256  1.0
  Ti  Ti546  1  0.85622289  0.25059477  0.86058256  1.0
  Ti  Ti547  1  0.85622289  0.58392811  0.86058256  1.0
  Ti  Ti548  1  0.85622289  0.91726144  0.86058256  1.0
  Ti  Ti549  1  0.26098480  0.01249954  0.93201113  1.0
  Ti  Ti550  1  0.26098480  0.34583287  0.93201113  1.0
  Ti  Ti551  1  0.26098480  0.67916620  0.93201113  1.0
  Ti  Ti552  1  0.59431813  0.01249954  0.93201113  1.0
  Ti  Ti553  1  0.59431813  0.34583287  0.93201113  1.0
  Ti  Ti554  1  0.59431813  0.67916620  0.93201113  1.0
  Ti  Ti555  1  0.92765146  0.01249954  0.93201113  1.0
  Ti  Ti556  1  0.92765146  0.34583287  0.93201113  1.0
  Ti  Ti557  1  0.92765146  0.67916620  0.93201113  1.0
  Ti  Ti558  1  0.06655994  0.26643006  0.95190827  1.0
  Ti  Ti559  1  0.06655994  0.59976339  0.95190827  1.0
  Ti  Ti560  1  0.06655994  0.93309673  0.95190827  1.0
  Ti  Ti561  1  0.39989327  0.26643006  0.95190827  1.0
  Ti  Ti562  1  0.39989327  0.59976339  0.95190827  1.0
  Ti  Ti563  1  0.39989327  0.93309673  0.95190827  1.0
  Ti  Ti564  1  0.73322661  0.26643006  0.95190827  1.0
  Ti  Ti565  1  0.73322661  0.59976339  0.95190827  1.0
  Ti  Ti566  1  0.73322661  0.93309673  0.95190827  1.0
  Ti  Ti567  1  0.32846470  0.17119196  0.88047970  1.0
  Ti  Ti568  1  0.32846470  0.50452530  0.88047970  1.0
  Ti  Ti569  1  0.32846470  0.83785863  0.88047970  1.0
  Ti  Ti570  1  0.66179804  0.17119196  0.88047970  1.0
  Ti  Ti571  1  0.66179804  0.50452530  0.88047970  1.0
  Ti  Ti572  1  0.66179804  0.83785863  0.88047970  1.0
  Ti  Ti573  1  0.99513137  0.17119196  0.88047970  1.0
  Ti  Ti574  1  0.99513137  0.50452530  0.88047970  1.0
  Ti  Ti575  1  0.99513137  0.83785863  0.88047970  1.0
  Ti  Ti576  1  0.20272811  0.18445673  0.97968677  1.0
  Ti  Ti577  1  0.20272811  0.51779006  0.97968677  1.0
  Ti  Ti578  1  0.20272811  0.85112339  0.97968677  1.0
  Ti  Ti579  1  0.53606144  0.18445673  0.97968677  1.0
  Ti  Ti580  1  0.53606144  0.51779006  0.97968677  1.0
  Ti  Ti581  1  0.53606144  0.85112339  0.97968677  1.0
  Ti  Ti582  1  0.86939477  0.18445673  0.97968677  1.0
  Ti  Ti583  1  0.86939477  0.51779006  0.97968677  1.0
  Ti  Ti584  1  0.86939477  0.85112339  0.97968677  1.0
  Ti  Ti585  1  0.13129954  0.08921863  0.90825820  1.0
  Ti  Ti586  1  0.13129954  0.42255196  0.90825820  1.0
  Ti  Ti587  1  0.13129954  0.75588530  0.90825820  1.0
  Ti  Ti588  1  0.46463287  0.08921863  0.90825820  1.0
  Ti  Ti589  1  0.46463287  0.42255196  0.90825820  1.0
  Ti  Ti590  1  0.46463287  0.75588530  0.90825820  1.0
  Ti  Ti591  1  0.79796620  0.08921863  0.90825820  1.0
  Ti  Ti592  1  0.79796620  0.42255196  0.90825820  1.0
  Ti  Ti593  1  0.79796620  0.75588530  0.90825820  1.0
  Ti  Ti594  1  0.19751670  0.02899896  0.85982370  1.0
  Ti  Ti595  1  0.19751670  0.36233230  0.85982370  1.0
  Ti  Ti596  1  0.19751670  0.69566563  0.85982370  1.0
  Ti  Ti597  1  0.53085004  0.02899896  0.85982370  1.0
  Ti  Ti598  1  0.53085004  0.36233230  0.85982370  1.0
  Ti  Ti599  1  0.53085004  0.69566563  0.85982370  1.0
  Ti  Ti600  1  0.86418337  0.02899896  0.85982370  1.0
  Ti  Ti601  1  0.86418337  0.36233230  0.85982370  1.0
  Ti  Ti602  1  0.86418337  0.69566563  0.85982370  1.0
  Ti  Ti603  1  0.26894527  0.12423706  0.93125227  1.0
  Ti  Ti604  1  0.26894527  0.45757039  0.93125227  1.0
  Ti  Ti605  1  0.26894527  0.79090373  0.93125227  1.0
  Ti  Ti606  1  0.60227861  0.12423706  0.93125227  1.0
  Ti  Ti607  1  0.60227861  0.45757039  0.93125227  1.0
  Ti  Ti608  1  0.60227861  0.79090373  0.93125227  1.0
  Ti  Ti609  1  0.93561194  0.12423706  0.93125227  1.0
  Ti  Ti610  1  0.93561194  0.45757039  0.93125227  1.0
  Ti  Ti611  1  0.93561194  0.79090373  0.93125227  1.0
  Ti  Ti612  1  0.13003680  0.20363987  0.91135513  1.0
  Ti  Ti613  1  0.13003680  0.53697320  0.91135513  1.0
  Ti  Ti614  1  0.13003680  0.87030654  0.91135513  1.0
  Ti  Ti615  1  0.46337013  0.20363987  0.91135513  1.0
  Ti  Ti616  1  0.46337013  0.53697320  0.91135513  1.0
  Ti  Ti617  1  0.46337013  0.87030654  0.91135513  1.0
  Ti  Ti618  1  0.79670346  0.20363987  0.91135513  1.0
  Ti  Ti619  1  0.79670346  0.53697320  0.91135513  1.0
  Ti  Ti620  1  0.79670346  0.87030654  0.91135513  1.0
  Ti  Ti621  1  0.20146537  0.29887796  0.98278370  1.0
  Ti  Ti622  1  0.20146537  0.63221130  0.98278370  1.0
  Ti  Ti623  1  0.20146537  0.96554463  0.98278370  1.0
  Ti  Ti624  1  0.53479870  0.29887796  0.98278370  1.0
  Ti  Ti625  1  0.53479870  0.63221130  0.98278370  1.0
  Ti  Ti626  1  0.53479870  0.96554463  0.98278370  1.0
  Ti  Ti627  1  0.86813204  0.29887796  0.98278370  1.0
  Ti  Ti628  1  0.86813204  0.63221130  0.98278370  1.0
  Ti  Ti629  1  0.86813204  0.96554463  0.98278370  1.0
  Ti  Ti630  1  0.32720196  0.28561320  0.88357663  1.0
  Ti  Ti631  1  0.32720196  0.61894654  0.88357663  1.0
  Ti  Ti632  1  0.32720196  0.95227987  0.88357663  1.0
  Ti  Ti633  1  0.66053530  0.28561320  0.88357663  1.0
  Ti  Ti634  1  0.66053530  0.61894654  0.88357663  1.0
  Ti  Ti635  1  0.66053530  0.95227987  0.88357663  1.0
  Ti  Ti636  1  0.99386863  0.28561320  0.88357663  1.0
  Ti  Ti637  1  0.99386863  0.61894654  0.88357663  1.0
  Ti  Ti638  1  0.99386863  0.95227987  0.88357663  1.0
  Ti  Ti639  1  0.06529720  0.04751796  0.95500520  1.0
  Ti  Ti640  1  0.06529720  0.38085130  0.95500520  1.0
  Ti  Ti641  1  0.06529720  0.71418463  0.95500520  1.0
  Ti  Ti642  1  0.39863054  0.04751796  0.95500520  1.0
  Ti  Ti643  1  0.39863054  0.38085130  0.95500520  1.0
  Ti  Ti644  1  0.39863054  0.71418463  0.95500520  1.0
  Ti  Ti645  1  0.73196387  0.04751796  0.95500520  1.0
  Ti  Ti646  1  0.73196387  0.38085130  0.95500520  1.0
  Ti  Ti647  1  0.73196387  0.71418463  0.95500520  1.0
  Ti  Ti648  1  0.05067932  0.28265401  0.71734599  1.0
  Ti  Ti649  1  0.05067932  0.61598735  0.71734599  1.0
  Ti  Ti650  1  0.05067932  0.94932068  0.71734599  1.0
  Ti  Ti651  1  0.38401265  0.28265401  0.71734599  1.0
  Ti  Ti652  1  0.38401265  0.61598735  0.71734599  1.0
  Ti  Ti653  1  0.38401265  0.94932068  0.71734599  1.0
  Ti  Ti654  1  0.71734599  0.28265401  0.71734599  1.0
  Ti  Ti655  1  0.71734599  0.61598735  0.71734599  1.0
  Ti  Ti656  1  0.71734599  0.94932068  0.71734599  1.0
  Ti  Ti657  1  0.12210789  0.04455877  0.78877456  1.0
  Ti  Ti658  1  0.12210789  0.37789211  0.78877456  1.0
  Ti  Ti659  1  0.12210789  0.71122544  0.78877456  1.0
  Ti  Ti660  1  0.45544123  0.04455877  0.78877456  1.0
  Ti  Ti661  1  0.45544123  0.37789211  0.78877456  1.0
  Ti  Ti662  1  0.45544123  0.71122544  0.78877456  1.0
  Ti  Ti663  1  0.78877456  0.04455877  0.78877456  1.0
  Ti  Ti664  1  0.78877456  0.37789211  0.78877456  1.0
  Ti  Ti665  1  0.78877456  0.71122544  0.78877456  1.0
  Ti  Ti666  1  0.31737088  0.11972423  0.76181532  1.0
  Ti  Ti667  1  0.31737088  0.45305757  0.76181532  1.0
  Ti  Ti668  1  0.31737088  0.78639090  0.76181532  1.0
  Ti  Ti669  1  0.65070421  0.11972423  0.76181532  1.0
  Ti  Ti670  1  0.65070421  0.45305757  0.76181532  1.0
  Ti  Ti671  1  0.65070421  0.78639090  0.76181532  1.0
  Ti  Ti672  1  0.98403754  0.11972423  0.76181532  1.0
  Ti  Ti673  1  0.98403754  0.45305757  0.76181532  1.0
  Ti  Ti674  1  0.98403754  0.78639090  0.76181532  1.0
  Ti  Ti675  1  0.05546612  0.21496233  0.83324389  1.0
  Ti  Ti676  1  0.05546612  0.54829566  0.83324389  1.0
  Ti  Ti677  1  0.05546612  0.88162900  0.83324389  1.0
  Ti  Ti678  1  0.38879945  0.21496233  0.83324389  1.0
  Ti  Ti679  1  0.38879945  0.54829566  0.83324389  1.0
  Ti  Ti680  1  0.38879945  0.88162900  0.83324389  1.0
  Ti  Ti681  1  0.72213278  0.21496233  0.83324389  1.0
  Ti  Ti682  1  0.72213278  0.54829566  0.83324389  1.0
  Ti  Ti683  1  0.72213278  0.88162900  0.83324389  1.0
  Ti  Ti684  1  0.26017824  0.30272665  0.81573380  1.0
  Ti  Ti685  1  0.26017824  0.63605998  0.81573380  1.0
  Ti  Ti686  1  0.26017824  0.96939331  0.81573380  1.0
  Ti  Ti687  1  0.59351158  0.30272665  0.81573380  1.0
  Ti  Ti688  1  0.59351158  0.63605998  0.81573380  1.0
  Ti  Ti689  1  0.59351158  0.96939331  0.81573380  1.0
  Ti  Ti690  1  0.92684491  0.30272665  0.81573380  1.0
  Ti  Ti691  1  0.92684491  0.63605998  0.81573380  1.0
  Ti  Ti692  1  0.92684491  0.96939331  0.81573380  1.0
  Ti  Ti693  1  0.18874967  0.20748855  0.74430523  1.0
  Ti  Ti694  1  0.18874967  0.54082188  0.74430523  1.0
  Ti  Ti695  1  0.18874967  0.87415522  0.74430523  1.0
  Ti  Ti696  1  0.52208300  0.20748855  0.74430523  1.0
  Ti  Ti697  1  0.52208300  0.54082188  0.74430523  1.0
  Ti  Ti698  1  0.52208300  0.87415522  0.74430523  1.0
  Ti  Ti699  1  0.85541634  0.20748855  0.74430523  1.0
  Ti  Ti700  1  0.85541634  0.54082188  0.74430523  1.0
  Ti  Ti701  1  0.85541634  0.87415522  0.74430523  1.0
  Ti  Ti702  1  0.04669908  0.06011858  0.71772542  1.0
  Ti  Ti703  1  0.04669908  0.39345192  0.71772542  1.0
  Ti  Ti704  1  0.04669908  0.72678525  0.71772542  1.0
  Ti  Ti705  1  0.38003242  0.06011858  0.71772542  1.0
  Ti  Ti706  1  0.38003242  0.39345192  0.71772542  1.0
  Ti  Ti707  1  0.38003242  0.72678525  0.71772542  1.0
  Ti  Ti708  1  0.71336575  0.06011858  0.71772542  1.0
  Ti  Ti709  1  0.71336575  0.39345192  0.71772542  1.0
  Ti  Ti710  1  0.71336575  0.72678525  0.71772542  1.0
  Ti  Ti711  1  0.11812765  0.15535668  0.78915399  1.0
  Ti  Ti712  1  0.11812765  0.48869001  0.78915399  1.0
  Ti  Ti713  1  0.11812765  0.82202335  0.78915399  1.0
  Ti  Ti714  1  0.45146099  0.15535668  0.78915399  1.0
  Ti  Ti715  1  0.45146099  0.48869001  0.78915399  1.0
  Ti  Ti716  1  0.45146099  0.82202335  0.78915399  1.0
  Ti  Ti717  1  0.78479432  0.15535668  0.78915399  1.0
  Ti  Ti718  1  0.78479432  0.48869001  0.78915399  1.0
  Ti  Ti719  1  0.78479432  0.82202335  0.78915399  1.0
  Ti  Ti720  1  0.25703613  0.07595387  0.80905113  1.0
  Ti  Ti721  1  0.25703613  0.40928720  0.80905113  1.0
  Ti  Ti722  1  0.25703613  0.74262054  0.80905113  1.0
  Ti  Ti723  1  0.59036946  0.07595387  0.80905113  1.0
  Ti  Ti724  1  0.59036946  0.40928720  0.80905113  1.0
  Ti  Ti725  1  0.59036946  0.74262054  0.80905113  1.0
  Ti  Ti726  1  0.92370280  0.07595387  0.80905113  1.0
  Ti  Ti727  1  0.92370280  0.40928720  0.80905113  1.0
  Ti  Ti728  1  0.92370280  0.74262054  0.80905113  1.0
  Ti  Ti729  1  0.18560756  0.31404911  0.73762256  1.0
  Ti  Ti730  1  0.18560756  0.64738244  0.73762256  1.0
  Ti  Ti731  1  0.18560756  0.98071577  0.73762256  1.0
  Ti  Ti732  1  0.51894089  0.31404911  0.73762256  1.0
  Ti  Ti733  1  0.51894089  0.64738244  0.73762256  1.0
  Ti  Ti734  1  0.51894089  0.98071577  0.73762256  1.0
  Ti  Ti735  1  0.85227423  0.31404911  0.73762256  1.0
  Ti  Ti736  1  0.85227423  0.64738244  0.73762256  1.0
  Ti  Ti737  1  0.85227423  0.98071577  0.73762256  1.0
  Ti  Ti738  1  0.05987096  0.32731387  0.83682963  1.0
  Ti  Ti739  1  0.05987096  0.66064720  0.83682963  1.0
  Ti  Ti740  1  0.05987096  0.99398054  0.83682963  1.0
  Ti  Ti741  1  0.39320430  0.32731387  0.83682963  1.0
  Ti  Ti742  1  0.39320430  0.66064720  0.83682963  1.0
  Ti  Ti743  1  0.39320430  0.99398054  0.83682963  1.0
  Ti  Ti744  1  0.72653763  0.32731387  0.83682963  1.0
  Ti  Ti745  1  0.72653763  0.66064720  0.83682963  1.0
  Ti  Ti746  1  0.72653763  0.99398054  0.83682963  1.0
  Ti  Ti747  1  0.32177573  0.23207577  0.76540106  1.0
  Ti  Ti748  1  0.32177573  0.56540911  0.76540106  1.0
  Ti  Ti749  1  0.32177573  0.89874244  0.76540106  1.0
  Ti  Ti750  1  0.65510906  0.23207577  0.76540106  1.0
  Ti  Ti751  1  0.65510906  0.56540911  0.76540106  1.0
  Ti  Ti752  1  0.65510906  0.89874244  0.76540106  1.0
  Ti  Ti753  1  0.98844239  0.23207577  0.76540106  1.0
  Ti  Ti754  1  0.98844239  0.56540911  0.76540106  1.0
  Ti  Ti755  1  0.98844239  0.89874244  0.76540106  1.0
  Ti  Ti756  1  0.05465956  0.17185611  0.71696656  1.0
  Ti  Ti757  1  0.05465956  0.50518944  0.71696656  1.0
  Ti  Ti758  1  0.05465956  0.83852277  0.71696656  1.0
  Ti  Ti759  1  0.38799289  0.17185611  0.71696656  1.0
  Ti  Ti760  1  0.38799289  0.50518944  0.71696656  1.0
  Ti  Ti761  1  0.38799289  0.83852277  0.71696656  1.0
  Ti  Ti762  1  0.72132623  0.17185611  0.71696656  1.0
  Ti  Ti763  1  0.72132623  0.50518944  0.71696656  1.0
  Ti  Ti764  1  0.72132623  0.83852277  0.71696656  1.0
  Ti  Ti765  1  0.12608813  0.26709420  0.78839513  1.0
  Ti  Ti766  1  0.12608813  0.60042754  0.78839513  1.0
  Ti  Ti767  1  0.12608813  0.93376087  0.78839513  1.0
  Ti  Ti768  1  0.45942146  0.26709420  0.78839513  1.0
  Ti  Ti769  1  0.45942146  0.60042754  0.78839513  1.0
  Ti  Ti770  1  0.45942146  0.93376087  0.78839513  1.0
  Ti  Ti771  1  0.79275480  0.26709420  0.78839513  1.0
  Ti  Ti772  1  0.79275480  0.60042754  0.78839513  1.0
  Ti  Ti773  1  0.79275480  0.93376087  0.78839513  1.0
  Ti  Ti774  1  0.32051299  0.01316368  0.76849799  1.0
  Ti  Ti775  1  0.32051299  0.34649701  0.76849799  1.0
  Ti  Ti776  1  0.32051299  0.67983035  0.76849799  1.0
  Ti  Ti777  1  0.65384632  0.01316368  0.76849799  1.0
  Ti  Ti778  1  0.65384632  0.34649701  0.76849799  1.0
  Ti  Ti779  1  0.65384632  0.67983035  0.76849799  1.0
  Ti  Ti780  1  0.98717965  0.01316368  0.76849799  1.0
  Ti  Ti781  1  0.98717965  0.34649701  0.76849799  1.0
  Ti  Ti782  1  0.98717965  0.67983035  0.76849799  1.0
  Ti  Ti783  1  0.05860823  0.10840177  0.83992656  1.0
  Ti  Ti784  1  0.05860823  0.44173511  0.83992656  1.0
  Ti  Ti785  1  0.05860823  0.77506844  0.83992656  1.0
  Ti  Ti786  1  0.39194156  0.10840177  0.83992656  1.0
  Ti  Ti787  1  0.39194156  0.44173511  0.83992656  1.0
  Ti  Ti788  1  0.39194156  0.77506844  0.83992656  1.0
  Ti  Ti789  1  0.72527489  0.10840177  0.83992656  1.0
  Ti  Ti790  1  0.72527489  0.44173511  0.83992656  1.0
  Ti  Ti791  1  0.72527489  0.77506844  0.83992656  1.0
  Ti  Ti792  1  0.18434482  0.09513701  0.74071949  1.0
  Ti  Ti793  1  0.18434482  0.42847035  0.74071949  1.0
  Ti  Ti794  1  0.18434482  0.76180368  0.74071949  1.0
  Ti  Ti795  1  0.51767815  0.09513701  0.74071949  1.0
  Ti  Ti796  1  0.51767815  0.42847035  0.74071949  1.0
  Ti  Ti797  1  0.51767815  0.76180368  0.74071949  1.0
  Ti  Ti798  1  0.85101149  0.09513701  0.74071949  1.0
  Ti  Ti799  1  0.85101149  0.42847035  0.74071949  1.0
  Ti  Ti800  1  0.85101149  0.76180368  0.74071949  1.0
  Ti  Ti801  1  0.25577339  0.19037511  0.81214806  1.0
  Ti  Ti802  1  0.25577339  0.52370844  0.81214806  1.0
  Ti  Ti803  1  0.25577339  0.85704177  0.81214806  1.0
  Ti  Ti804  1  0.58910673  0.19037511  0.81214806  1.0
  Ti  Ti805  1  0.58910673  0.52370844  0.81214806  1.0
  Ti  Ti806  1  0.58910673  0.85704177  0.81214806  1.0
  Ti  Ti807  1  0.92244006  0.19037511  0.81214806  1.0
  Ti  Ti808  1  0.92244006  0.52370844  0.81214806  1.0
  Ti  Ti809  1  0.92244006  0.85704177  0.81214806  1.0
  Ti  Ti810  1  0.24115551  0.09217782  0.57448885  1.0
  Ti  Ti811  1  0.24115551  0.42551115  0.57448885  1.0
  Ti  Ti812  1  0.24115551  0.75884449  0.57448885  1.0
  Ti  Ti813  1  0.57448885  0.09217782  0.57448885  1.0
  Ti  Ti814  1  0.57448885  0.42551115  0.57448885  1.0
  Ti  Ti815  1  0.57448885  0.75884449  0.57448885  1.0
  Ti  Ti816  1  0.90782218  0.09217782  0.57448885  1.0
  Ti  Ti817  1  0.90782218  0.42551115  0.57448885  1.0
  Ti  Ti818  1  0.90782218  0.75884449  0.57448885  1.0
  Ti  Ti819  1  0.31258408  0.18741592  0.64591742  1.0
  Ti  Ti820  1  0.31258408  0.52074925  0.64591742  1.0
  Ti  Ti821  1  0.31258408  0.85408258  0.64591742  1.0
  Ti  Ti822  1  0.64591742  0.18741592  0.64591742  1.0
  Ti  Ti823  1  0.64591742  0.52074925  0.64591742  1.0
  Ti  Ti824  1  0.64591742  0.85408258  0.64591742  1.0
  Ti  Ti825  1  0.97925075  0.18741592  0.64591742  1.0
  Ti  Ti826  1  0.97925075  0.52074925  0.64591742  1.0
  Ti  Ti827  1  0.97925075  0.85408258  0.64591742  1.0
  Ti  Ti828  1  0.17451373  0.26258138  0.61895818  1.0
  Ti  Ti829  1  0.17451373  0.59591471  0.61895818  1.0
  Ti  Ti830  1  0.17451373  0.92924804  0.61895818  1.0
  Ti  Ti831  1  0.50784707  0.26258138  0.61895818  1.0
  Ti  Ti832  1  0.50784707  0.59591471  0.61895818  1.0
  Ti  Ti833  1  0.50784707  0.92924804  0.61895818  1.0
  Ti  Ti834  1  0.84118040  0.26258138  0.61895818  1.0
  Ti  Ti835  1  0.84118040  0.59591471  0.61895818  1.0
  Ti  Ti836  1  0.84118040  0.92924804  0.61895818  1.0
  Ti  Ti837  1  0.24594231  0.02448614  0.69038675  1.0
  Ti  Ti838  1  0.24594231  0.35781947  0.69038675  1.0
  Ti  Ti839  1  0.24594231  0.69115281  0.69038675  1.0
  Ti  Ti840  1  0.57927564  0.02448614  0.69038675  1.0
  Ti  Ti841  1  0.57927564  0.35781947  0.69038675  1.0
  Ti  Ti842  1  0.57927564  0.69115281  0.69038675  1.0
  Ti  Ti843  1  0.91260897  0.02448614  0.69038675  1.0
  Ti  Ti844  1  0.91260897  0.35781947  0.69038675  1.0
  Ti  Ti845  1  0.91260897  0.69115281  0.69038675  1.0
  Ti  Ti846  1  0.11732110  0.11225046  0.67287665  1.0
  Ti  Ti847  1  0.11732110  0.44558379  0.67287665  1.0
  Ti  Ti848  1  0.11732110  0.77891712  0.67287665  1.0
  Ti  Ti849  1  0.45065443  0.11225046  0.67287665  1.0
  Ti  Ti850  1  0.45065443  0.44558379  0.67287665  1.0
  Ti  Ti851  1  0.45065443  0.77891712  0.67287665  1.0
  Ti  Ti852  1  0.78398777  0.11225046  0.67287665  1.0
  Ti  Ti853  1  0.78398777  0.44558379  0.67287665  1.0
  Ti  Ti854  1  0.78398777  0.77891712  0.67287665  1.0
  Ti  Ti855  1  0.04589253  0.01701236  0.60144808  1.0
  Ti  Ti856  1  0.04589253  0.35034569  0.60144808  1.0
  Ti  Ti857  1  0.04589253  0.68367903  0.60144808  1.0
  Ti  Ti858  1  0.37922586  0.01701236  0.60144808  1.0
  Ti  Ti859  1  0.37922586  0.35034569  0.60144808  1.0
  Ti  Ti860  1  0.37922586  0.68367903  0.60144808  1.0
  Ti  Ti861  1  0.71255919  0.01701236  0.60144808  1.0
  Ti  Ti862  1  0.71255919  0.35034569  0.60144808  1.0
  Ti  Ti863  1  0.71255919  0.68367903  0.60144808  1.0
  Ti  Ti864  1  0.23717527  0.20297573  0.57486827  1.0
  Ti  Ti865  1  0.23717527  0.53630906  0.57486827  1.0
  Ti  Ti866  1  0.23717527  0.86964239  0.57486827  1.0
  Ti  Ti867  1  0.57050861  0.20297573  0.57486827  1.0
  Ti  Ti868  1  0.57050861  0.53630906  0.57486827  1.0
  Ti  Ti869  1  0.57050861  0.86964239  0.57486827  1.0
  Ti  Ti870  1  0.90384194  0.20297573  0.57486827  1.0
  Ti  Ti871  1  0.90384194  0.53630906  0.57486827  1.0
  Ti  Ti872  1  0.90384194  0.86964239  0.57486827  1.0
  Ti  Ti873  1  0.30860385  0.29821382  0.64629685  1.0
  Ti  Ti874  1  0.30860385  0.63154715  0.64629685  1.0
  Ti  Ti875  1  0.30860385  0.96488049  0.64629685  1.0
  Ti  Ti876  1  0.64193718  0.29821382  0.64629685  1.0
  Ti  Ti877  1  0.64193718  0.63154715  0.64629685  1.0
  Ti  Ti878  1  0.64193718  0.96488049  0.64629685  1.0
  Ti  Ti879  1  0.97527051  0.29821382  0.64629685  1.0
  Ti  Ti880  1  0.97527051  0.63154715  0.64629685  1.0
  Ti  Ti881  1  0.97527051  0.96488049  0.64629685  1.0
  Ti  Ti882  1  0.11417899  0.21881101  0.66619399  1.0
  Ti  Ti883  1  0.11417899  0.55214435  0.66619399  1.0
  Ti  Ti884  1  0.11417899  0.88547768  0.66619399  1.0
  Ti  Ti885  1  0.44751232  0.21881101  0.66619399  1.0
  Ti  Ti886  1  0.44751232  0.55214435  0.66619399  1.0
  Ti  Ti887  1  0.44751232  0.88547768  0.66619399  1.0
  Ti  Ti888  1  0.78084565  0.21881101  0.66619399  1.0
  Ti  Ti889  1  0.78084565  0.55214435  0.66619399  1.0
  Ti  Ti890  1  0.78084565  0.88547768  0.66619399  1.0
  Ti  Ti891  1  0.04275042  0.12357292  0.59476542  1.0
  Ti  Ti892  1  0.04275042  0.45690625  0.59476542  1.0
  Ti  Ti893  1  0.04275042  0.79023958  0.59476542  1.0
  Ti  Ti894  1  0.37608375  0.12357292  0.59476542  1.0
  Ti  Ti895  1  0.37608375  0.45690625  0.59476542  1.0
  Ti  Ti896  1  0.37608375  0.79023958  0.59476542  1.0
  Ti  Ti897  1  0.70941708  0.12357292  0.59476542  1.0
  Ti  Ti898  1  0.70941708  0.45690625  0.59476542  1.0
  Ti  Ti899  1  0.70941708  0.79023958  0.59476542  1.0
  Ti  Ti900  1  0.25034715  0.13683768  0.69397249  1.0
  Ti  Ti901  1  0.25034715  0.47017101  0.69397249  1.0
  Ti  Ti902  1  0.25034715  0.80350435  0.69397249  1.0
  Ti  Ti903  1  0.58368049  0.13683768  0.69397249  1.0
  Ti  Ti904  1  0.58368049  0.47017101  0.69397249  1.0
  Ti  Ti905  1  0.58368049  0.80350435  0.69397249  1.0
  Ti  Ti906  1  0.91701382  0.13683768  0.69397249  1.0
  Ti  Ti907  1  0.91701382  0.47017101  0.69397249  1.0
  Ti  Ti908  1  0.91701382  0.80350435  0.69397249  1.0
  Ti  Ti909  1  0.17891858  0.04159958  0.62254392  1.0
  Ti  Ti910  1  0.17891858  0.37493292  0.62254392  1.0
  Ti  Ti911  1  0.17891858  0.70826625  0.62254392  1.0
  Ti  Ti912  1  0.51225192  0.04159958  0.62254392  1.0
  Ti  Ti913  1  0.51225192  0.37493292  0.62254392  1.0
  Ti  Ti914  1  0.51225192  0.70826625  0.62254392  1.0
  Ti  Ti915  1  0.84558525  0.04159958  0.62254392  1.0
  Ti  Ti916  1  0.84558525  0.37493292  0.62254392  1.0
  Ti  Ti917  1  0.84558525  0.70826625  0.62254392  1.0
  Ti  Ti918  1  0.24513575  0.31471325  0.57410942  1.0
  Ti  Ti919  1  0.24513575  0.64804658  0.57410942  1.0
  Ti  Ti920  1  0.24513575  0.98137992  0.57410942  1.0
  Ti  Ti921  1  0.57846908  0.31471325  0.57410942  1.0
  Ti  Ti922  1  0.57846908  0.64804658  0.57410942  1.0
  Ti  Ti923  1  0.57846908  0.98137992  0.57410942  1.0
  Ti  Ti924  1  0.91180242  0.31471325  0.57410942  1.0
  Ti  Ti925  1  0.91180242  0.64804658  0.57410942  1.0
  Ti  Ti926  1  0.91180242  0.98137992  0.57410942  1.0
  Ti  Ti927  1  0.31656432  0.07661801  0.64553799  1.0
  Ti  Ti928  1  0.31656432  0.40995135  0.64553799  1.0
  Ti  Ti929  1  0.31656432  0.74328468  0.64553799  1.0
  Ti  Ti930  1  0.64989765  0.07661801  0.64553799  1.0
  Ti  Ti931  1  0.64989765  0.40995135  0.64553799  1.0
  Ti  Ti932  1  0.64989765  0.74328468  0.64553799  1.0
  Ti  Ti933  1  0.98323099  0.07661801  0.64553799  1.0
  Ti  Ti934  1  0.98323099  0.40995135  0.64553799  1.0
  Ti  Ti935  1  0.98323099  0.74328468  0.64553799  1.0
  Ti  Ti936  1  0.17765585  0.15602082  0.62564085  1.0
  Ti  Ti937  1  0.17765585  0.48935415  0.62564085  1.0
  Ti  Ti938  1  0.17765585  0.82268749  0.62564085  1.0
  Ti  Ti939  1  0.51098918  0.15602082  0.62564085  1.0
  Ti  Ti940  1  0.51098918  0.48935415  0.62564085  1.0
  Ti  Ti941  1  0.51098918  0.82268749  0.62564085  1.0
  Ti  Ti942  1  0.84432251  0.15602082  0.62564085  1.0
  Ti  Ti943  1  0.84432251  0.48935415  0.62564085  1.0
  Ti  Ti944  1  0.84432251  0.82268749  0.62564085  1.0
  Ti  Ti945  1  0.24908442  0.25125892  0.69706942  1.0
  Ti  Ti946  1  0.24908442  0.58459225  0.69706942  1.0
  Ti  Ti947  1  0.24908442  0.91792558  0.69706942  1.0
  Ti  Ti948  1  0.58241775  0.25125892  0.69706942  1.0
  Ti  Ti949  1  0.58241775  0.58459225  0.69706942  1.0
  Ti  Ti950  1  0.58241775  0.91792558  0.69706942  1.0
  Ti  Ti951  1  0.91575108  0.25125892  0.69706942  1.0
  Ti  Ti952  1  0.91575108  0.58459225  0.69706942  1.0
  Ti  Ti953  1  0.91575108  0.91792558  0.69706942  1.0
  Ti  Ti954  1  0.04148768  0.23799415  0.59786235  1.0
  Ti  Ti955  1  0.04148768  0.57132749  0.59786235  1.0
  Ti  Ti956  1  0.04148768  0.90466082  0.59786235  1.0
  Ti  Ti957  1  0.37482101  0.23799415  0.59786235  1.0
  Ti  Ti958  1  0.37482101  0.57132749  0.59786235  1.0
  Ti  Ti959  1  0.37482101  0.90466082  0.59786235  1.0
  Ti  Ti960  1  0.70815435  0.23799415  0.59786235  1.0
  Ti  Ti961  1  0.70815435  0.57132749  0.59786235  1.0
  Ti  Ti962  1  0.70815435  0.90466082  0.59786235  1.0
  Ti  Ti963  1  0.11291625  0.33323225  0.66929092  1.0
  Ti  Ti964  1  0.11291625  0.66656558  0.66929092  1.0
  Ti  Ti965  1  0.11291625  0.99989892  0.66929092  1.0
  Ti  Ti966  1  0.44624958  0.33323225  0.66929092  1.0
  Ti  Ti967  1  0.44624958  0.66656558  0.66929092  1.0
  Ti  Ti968  1  0.44624958  0.99989892  0.66929092  1.0
  Ti  Ti969  1  0.77958292  0.33323225  0.66929092  1.0
  Ti  Ti970  1  0.77958292  0.66656558  0.66929092  1.0
  Ti  Ti971  1  0.77958292  0.99989892  0.66929092  1.0
