# generated using pymatgen
data_V3Ni2
_symmetry_space_group_name_H-M   'P 1'
_cell_length_a   26.68112700
_cell_length_b   27.06967500
_cell_length_c   32.29048200
_cell_angle_alpha   90.00000000
_cell_angle_beta   90.00000000
_cell_angle_gamma   90.52652745
_symmetry_Int_Tables_number   1
_chemical_formula_structural   V3Ni2
_chemical_formula_sum   'V486 Ni324'
_cell_volume   23320.79768078
_cell_formula_units_Z   162
loop_
 _symmetry_equiv_pos_site_id
 _symmetry_equiv_pos_as_xyz
  1  'x, y, z'
loop_
 _atom_site_type_symbol
 _atom_site_label
 _atom_site_symmetry_multiplicity
 _atom_site_fract_x
 _atom_site_fract_y
 _atom_site_fract_z
 _atom_site_occupancy
  V  V0  1  0.10524000  0.10673167  0.01690843  1.0
  V  V1  1  0.10524000  0.44006500  0.01690843  1.0
  V  V2  1  0.10524000  0.77339833  0.01690843  1.0
  V  V3  1  0.43857333  0.10673167  0.01690843  1.0
  V  V4  1  0.43857333  0.44006500  0.01690843  1.0
  V  V5  1  0.43857333  0.77339833  0.01690843  1.0
  V  V6  1  0.77190667  0.10673167  0.01690843  1.0
  V  V7  1  0.77190667  0.44006500  0.01690843  1.0
  V  V8  1  0.77190667  0.77339833  0.01690843  1.0
  V  V9  1  0.22809333  0.22660167  0.01690843  1.0
  V  V10  1  0.22809333  0.55993500  0.01690843  1.0
  V  V11  1  0.22809333  0.89326833  0.01690843  1.0
  V  V12  1  0.56142667  0.22660167  0.01690843  1.0
  V  V13  1  0.56142667  0.55993500  0.01690843  1.0
  V  V14  1  0.56142667  0.89326833  0.01690843  1.0
  V  V15  1  0.89476000  0.22660167  0.01690843  1.0
  V  V16  1  0.89476000  0.55993500  0.01690843  1.0
  V  V17  1  0.89476000  0.89326833  0.01690843  1.0
  V  V18  1  0.27403033  0.06084433  0.08832443  1.0
  V  V19  1  0.27403033  0.39417767  0.08832443  1.0
  V  V20  1  0.27403033  0.72751100  0.08832443  1.0
  V  V21  1  0.60736367  0.06084433  0.08832443  1.0
  V  V22  1  0.60736367  0.39417767  0.08832443  1.0
  V  V23  1  0.60736367  0.72751100  0.08832443  1.0
  V  V24  1  0.94069700  0.06084433  0.08832443  1.0
  V  V25  1  0.94069700  0.39417767  0.08832443  1.0
  V  V26  1  0.94069700  0.72751100  0.08832443  1.0
  V  V27  1  0.05930300  0.27248900  0.08832443  1.0
  V  V28  1  0.05930300  0.60582233  0.08832443  1.0
  V  V29  1  0.05930300  0.93915567  0.08832443  1.0
  V  V30  1  0.39263633  0.27248900  0.08832443  1.0
  V  V31  1  0.39263633  0.60582233  0.08832443  1.0
  V  V32  1  0.39263633  0.93915567  0.08832443  1.0
  V  V33  1  0.72596967  0.27248900  0.08832443  1.0
  V  V34  1  0.72596967  0.60582233  0.08832443  1.0
  V  V35  1  0.72596967  0.93915567  0.08832443  1.0
  V  V36  1  0.22809333  0.22660167  0.08959357  1.0
  V  V37  1  0.22809333  0.55993500  0.08959357  1.0
  V  V38  1  0.22809333  0.89326833  0.08959357  1.0
  V  V39  1  0.56142667  0.22660167  0.08959357  1.0
  V  V40  1  0.56142667  0.55993500  0.08959357  1.0
  V  V41  1  0.56142667  0.89326833  0.08959357  1.0
  V  V42  1  0.89476000  0.22660167  0.08959357  1.0
  V  V43  1  0.89476000  0.55993500  0.08959357  1.0
  V  V44  1  0.89476000  0.89326833  0.08959357  1.0
  V  V45  1  0.10524000  0.10673167  0.08959357  1.0
  V  V46  1  0.10524000  0.44006500  0.08959357  1.0
  V  V47  1  0.10524000  0.77339833  0.08959357  1.0
  V  V48  1  0.43857333  0.10673167  0.08959357  1.0
  V  V49  1  0.43857333  0.44006500  0.08959357  1.0
  V  V50  1  0.43857333  0.77339833  0.08959357  1.0
  V  V51  1  0.77190667  0.10673167  0.08959357  1.0
  V  V52  1  0.77190667  0.44006500  0.08959357  1.0
  V  V53  1  0.77190667  0.77339833  0.08959357  1.0
  V  V54  1  0.05930300  0.27248900  0.01817757  1.0
  V  V55  1  0.05930300  0.60582233  0.01817757  1.0
  V  V56  1  0.05930300  0.93915567  0.01817757  1.0
  V  V57  1  0.39263633  0.27248900  0.01817757  1.0
  V  V58  1  0.39263633  0.60582233  0.01817757  1.0
  V  V59  1  0.39263633  0.93915567  0.01817757  1.0
  V  V60  1  0.72596967  0.27248900  0.01817757  1.0
  V  V61  1  0.72596967  0.60582233  0.01817757  1.0
  V  V62  1  0.72596967  0.93915567  0.01817757  1.0
  V  V63  1  0.27403033  0.06084433  0.01817757  1.0
  V  V64  1  0.27403033  0.39417767  0.01817757  1.0
  V  V65  1  0.27403033  0.72751100  0.01817757  1.0
  V  V66  1  0.60736367  0.06084433  0.01817757  1.0
  V  V67  1  0.60736367  0.39417767  0.01817757  1.0
  V  V68  1  0.60736367  0.72751100  0.01817757  1.0
  V  V69  1  0.94069700  0.06084433  0.01817757  1.0
  V  V70  1  0.94069700  0.39417767  0.01817757  1.0
  V  V71  1  0.94069700  0.72751100  0.01817757  1.0
  V  V72  1  0.03529367  0.03444467  0.05325100  1.0
  V  V73  1  0.03529367  0.36777800  0.05325100  1.0
  V  V74  1  0.03529367  0.70111133  0.05325100  1.0
  V  V75  1  0.36862700  0.03444467  0.05325100  1.0
  V  V76  1  0.36862700  0.36777800  0.05325100  1.0
  V  V77  1  0.36862700  0.70111133  0.05325100  1.0
  V  V78  1  0.70196033  0.03444467  0.05325100  1.0
  V  V79  1  0.70196033  0.36777800  0.05325100  1.0
  V  V80  1  0.70196033  0.70111133  0.05325100  1.0
  V  V81  1  0.29803967  0.29888867  0.05325100  1.0
  V  V82  1  0.29803967  0.63222200  0.05325100  1.0
  V  V83  1  0.29803967  0.96555533  0.05325100  1.0
  V  V84  1  0.63137300  0.29888867  0.05325100  1.0
  V  V85  1  0.63137300  0.63222200  0.05325100  1.0
  V  V86  1  0.63137300  0.96555533  0.05325100  1.0
  V  V87  1  0.96470633  0.29888867  0.05325100  1.0
  V  V88  1  0.96470633  0.63222200  0.05325100  1.0
  V  V89  1  0.96470633  0.96555533  0.05325100  1.0
  V  V90  1  0.20336500  0.13111267  0.12467957  1.0
  V  V91  1  0.20336500  0.46444600  0.12467957  1.0
  V  V92  1  0.20336500  0.79777933  0.12467957  1.0
  V  V93  1  0.53669833  0.13111267  0.12467957  1.0
  V  V94  1  0.53669833  0.46444600  0.12467957  1.0
  V  V95  1  0.53669833  0.79777933  0.12467957  1.0
  V  V96  1  0.87003167  0.13111267  0.12467957  1.0
  V  V97  1  0.87003167  0.46444600  0.12467957  1.0
  V  V98  1  0.87003167  0.79777933  0.12467957  1.0
  V  V99  1  0.12996833  0.20222067  0.12467957  1.0
  V  V100  1  0.12996833  0.53555400  0.12467957  1.0
  V  V101  1  0.12996833  0.86888733  0.12467957  1.0
  V  V102  1  0.46330167  0.20222067  0.12467957  1.0
  V  V103  1  0.46330167  0.53555400  0.12467957  1.0
  V  V104  1  0.46330167  0.86888733  0.12467957  1.0
  V  V105  1  0.79663500  0.20222067  0.12467957  1.0
  V  V106  1  0.79663500  0.53555400  0.12467957  1.0
  V  V107  1  0.79663500  0.86888733  0.12467957  1.0
  V  V108  1  0.17825867  0.04175133  0.12467957  1.0
  V  V109  1  0.17825867  0.37508467  0.12467957  1.0
  V  V110  1  0.17825867  0.70841800  0.12467957  1.0
  V  V111  1  0.51159200  0.04175133  0.12467957  1.0
  V  V112  1  0.51159200  0.37508467  0.12467957  1.0
  V  V113  1  0.51159200  0.70841800  0.12467957  1.0
  V  V114  1  0.84492533  0.04175133  0.12467957  1.0
  V  V115  1  0.84492533  0.37508467  0.12467957  1.0
  V  V116  1  0.84492533  0.70841800  0.12467957  1.0
  V  V117  1  0.15507467  0.29158200  0.12467957  1.0
  V  V118  1  0.15507467  0.62491533  0.12467957  1.0
  V  V119  1  0.15507467  0.95824867  0.12467957  1.0
  V  V120  1  0.48840800  0.29158200  0.12467957  1.0
  V  V121  1  0.48840800  0.62491533  0.12467957  1.0
  V  V122  1  0.48840800  0.95824867  0.12467957  1.0
  V  V123  1  0.82174133  0.29158200  0.12467957  1.0
  V  V124  1  0.82174133  0.62491533  0.12467957  1.0
  V  V125  1  0.82174133  0.95824867  0.12467957  1.0
  V  V126  1  0.20878700  0.32143300  0.05325100  1.0
  V  V127  1  0.20878700  0.65476633  0.05325100  1.0
  V  V128  1  0.20878700  0.98809967  0.05325100  1.0
  V  V129  1  0.54212033  0.32143300  0.05325100  1.0
  V  V130  1  0.54212033  0.65476633  0.05325100  1.0
  V  V131  1  0.54212033  0.98809967  0.05325100  1.0
  V  V132  1  0.87545367  0.32143300  0.05325100  1.0
  V  V133  1  0.87545367  0.65476633  0.05325100  1.0
  V  V134  1  0.87545367  0.98809967  0.05325100  1.0
  V  V135  1  0.12454633  0.01190033  0.05325100  1.0
  V  V136  1  0.12454633  0.34523367  0.05325100  1.0
  V  V137  1  0.12454633  0.67856700  0.05325100  1.0
  V  V138  1  0.45787967  0.01190033  0.05325100  1.0
  V  V139  1  0.45787967  0.34523367  0.05325100  1.0
  V  V140  1  0.45787967  0.67856700  0.05325100  1.0
  V  V141  1  0.79121300  0.01190033  0.05325100  1.0
  V  V142  1  0.79121300  0.34523367  0.05325100  1.0
  V  V143  1  0.79121300  0.67856700  0.05325100  1.0
  V  V144  1  0.29267400  0.15526300  0.12467957  1.0
  V  V145  1  0.29267400  0.48859633  0.12467957  1.0
  V  V146  1  0.29267400  0.82192967  0.12467957  1.0
  V  V147  1  0.62600733  0.15526300  0.12467957  1.0
  V  V148  1  0.62600733  0.48859633  0.12467957  1.0
  V  V149  1  0.62600733  0.82192967  0.12467957  1.0
  V  V150  1  0.95934067  0.15526300  0.12467957  1.0
  V  V151  1  0.95934067  0.48859633  0.12467957  1.0
  V  V152  1  0.95934067  0.82192967  0.12467957  1.0
  V  V153  1  0.04065933  0.17807033  0.12467957  1.0
  V  V154  1  0.04065933  0.51140367  0.12467957  1.0
  V  V155  1  0.04065933  0.84473700  0.12467957  1.0
  V  V156  1  0.37399267  0.17807033  0.12467957  1.0
  V  V157  1  0.37399267  0.51140367  0.12467957  1.0
  V  V158  1  0.37399267  0.84473700  0.12467957  1.0
  V  V159  1  0.70732600  0.17807033  0.12467957  1.0
  V  V160  1  0.70732600  0.51140367  0.12467957  1.0
  V  V161  1  0.70732600  0.84473700  0.12467957  1.0
  Ni  Ni162  1  0.16666667  0.16666667  0.05325100  1.0
  Ni  Ni163  1  0.16666667  0.50000000  0.05325100  1.0
  Ni  Ni164  1  0.16666667  0.83333333  0.05325100  1.0
  Ni  Ni165  1  0.50000000  0.16666667  0.05325100  1.0
  Ni  Ni166  1  0.50000000  0.50000000  0.05325100  1.0
  Ni  Ni167  1  0.50000000  0.83333333  0.05325100  1.0
  Ni  Ni168  1  0.83333333  0.16666667  0.05325100  1.0
  Ni  Ni169  1  0.83333333  0.50000000  0.05325100  1.0
  Ni  Ni170  1  0.83333333  0.83333333  0.05325100  1.0
  Ni  Ni171  1  0.00000000  0.00000000  0.12467957  1.0
  Ni  Ni172  1  0.00000000  0.33333333  0.12467957  1.0
  Ni  Ni173  1  0.00000000  0.66666667  0.12467957  1.0
  Ni  Ni174  1  0.33333333  0.00000000  0.12467957  1.0
  Ni  Ni175  1  0.33333333  0.33333333  0.12467957  1.0
  Ni  Ni176  1  0.33333333  0.66666667  0.12467957  1.0
  Ni  Ni177  1  0.66666667  0.00000000  0.12467957  1.0
  Ni  Ni178  1  0.66666667  0.33333333  0.12467957  1.0
  Ni  Ni179  1  0.66666667  0.66666667  0.12467957  1.0
  Ni  Ni180  1  0.25359633  0.14506100  0.05325100  1.0
  Ni  Ni181  1  0.25359633  0.47839433  0.05325100  1.0
  Ni  Ni182  1  0.25359633  0.81172767  0.05325100  1.0
  Ni  Ni183  1  0.58692967  0.14506100  0.05325100  1.0
  Ni  Ni184  1  0.58692967  0.47839433  0.05325100  1.0
  Ni  Ni185  1  0.58692967  0.81172767  0.05325100  1.0
  Ni  Ni186  1  0.92026300  0.14506100  0.05325100  1.0
  Ni  Ni187  1  0.92026300  0.47839433  0.05325100  1.0
  Ni  Ni188  1  0.92026300  0.81172767  0.05325100  1.0
  Ni  Ni189  1  0.07973700  0.18827233  0.05325100  1.0
  Ni  Ni190  1  0.07973700  0.52160567  0.05325100  1.0
  Ni  Ni191  1  0.07973700  0.85493900  0.05325100  1.0
  Ni  Ni192  1  0.41307033  0.18827233  0.05325100  1.0
  Ni  Ni193  1  0.41307033  0.52160567  0.05325100  1.0
  Ni  Ni194  1  0.41307033  0.85493900  0.05325100  1.0
  Ni  Ni195  1  0.74640367  0.18827233  0.05325100  1.0
  Ni  Ni196  1  0.74640367  0.52160567  0.05325100  1.0
  Ni  Ni197  1  0.74640367  0.85493900  0.05325100  1.0
  Ni  Ni198  1  0.08610200  0.02160067  0.12467957  1.0
  Ni  Ni199  1  0.08610200  0.35493400  0.12467957  1.0
  Ni  Ni200  1  0.08610200  0.68826733  0.12467957  1.0
  Ni  Ni201  1  0.41943533  0.02160067  0.12467957  1.0
  Ni  Ni202  1  0.41943533  0.35493400  0.12467957  1.0
  Ni  Ni203  1  0.41943533  0.68826733  0.12467957  1.0
  Ni  Ni204  1  0.75276867  0.02160067  0.12467957  1.0
  Ni  Ni205  1  0.75276867  0.35493400  0.12467957  1.0
  Ni  Ni206  1  0.75276867  0.68826733  0.12467957  1.0
  Ni  Ni207  1  0.24723133  0.31173267  0.12467957  1.0
  Ni  Ni208  1  0.24723133  0.64506600  0.12467957  1.0
  Ni  Ni209  1  0.24723133  0.97839933  0.12467957  1.0
  Ni  Ni210  1  0.58056467  0.31173267  0.12467957  1.0
  Ni  Ni211  1  0.58056467  0.64506600  0.12467957  1.0
  Ni  Ni212  1  0.58056467  0.97839933  0.12467957  1.0
  Ni  Ni213  1  0.91389800  0.31173267  0.12467957  1.0
  Ni  Ni214  1  0.91389800  0.64506600  0.12467957  1.0
  Ni  Ni215  1  0.91389800  0.97839933  0.12467957  1.0
  Ni  Ni216  1  0.18828700  0.08107767  0.05325100  1.0
  Ni  Ni217  1  0.18828700  0.41441100  0.05325100  1.0
  Ni  Ni218  1  0.18828700  0.74774433  0.05325100  1.0
  Ni  Ni219  1  0.52162033  0.08107767  0.05325100  1.0
  Ni  Ni220  1  0.52162033  0.41441100  0.05325100  1.0
  Ni  Ni221  1  0.52162033  0.74774433  0.05325100  1.0
  Ni  Ni222  1  0.85495367  0.08107767  0.05325100  1.0
  Ni  Ni223  1  0.85495367  0.41441100  0.05325100  1.0
  Ni  Ni224  1  0.85495367  0.74774433  0.05325100  1.0
  Ni  Ni225  1  0.14504633  0.25225567  0.05325100  1.0
  Ni  Ni226  1  0.14504633  0.58558900  0.05325100  1.0
  Ni  Ni227  1  0.14504633  0.91892233  0.05325100  1.0
  Ni  Ni228  1  0.47837967  0.25225567  0.05325100  1.0
  Ni  Ni229  1  0.47837967  0.58558900  0.05325100  1.0
  Ni  Ni230  1  0.47837967  0.91892233  0.05325100  1.0
  Ni  Ni231  1  0.81171300  0.25225567  0.05325100  1.0
  Ni  Ni232  1  0.81171300  0.58558900  0.05325100  1.0
  Ni  Ni233  1  0.81171300  0.91892233  0.05325100  1.0
  Ni  Ni234  1  0.31141567  0.24718267  0.12467957  1.0
  Ni  Ni235  1  0.31141567  0.58051600  0.12467957  1.0
  Ni  Ni236  1  0.31141567  0.91384933  0.12467957  1.0
  Ni  Ni237  1  0.64474900  0.24718267  0.12467957  1.0
  Ni  Ni238  1  0.64474900  0.58051600  0.12467957  1.0
  Ni  Ni239  1  0.64474900  0.91384933  0.12467957  1.0
  Ni  Ni240  1  0.97808233  0.24718267  0.12467957  1.0
  Ni  Ni241  1  0.97808233  0.58051600  0.12467957  1.0
  Ni  Ni242  1  0.97808233  0.91384933  0.12467957  1.0
  Ni  Ni243  1  0.02191767  0.08615067  0.12467957  1.0
  Ni  Ni244  1  0.02191767  0.41948400  0.12467957  1.0
  Ni  Ni245  1  0.02191767  0.75281733  0.12467957  1.0
  Ni  Ni246  1  0.35525100  0.08615067  0.12467957  1.0
  Ni  Ni247  1  0.35525100  0.41948400  0.12467957  1.0
  Ni  Ni248  1  0.35525100  0.75281733  0.12467957  1.0
  Ni  Ni249  1  0.68858433  0.08615067  0.12467957  1.0
  Ni  Ni250  1  0.68858433  0.41948400  0.12467957  1.0
  Ni  Ni251  1  0.68858433  0.75281733  0.12467957  1.0
  Ni  Ni252  1  0.01260967  0.12291267  0.05325100  1.0
  Ni  Ni253  1  0.01260967  0.45624600  0.05325100  1.0
  Ni  Ni254  1  0.01260967  0.78957933  0.05325100  1.0
  Ni  Ni255  1  0.34594300  0.12291267  0.05325100  1.0
  Ni  Ni256  1  0.34594300  0.45624600  0.05325100  1.0
  Ni  Ni257  1  0.34594300  0.78957933  0.05325100  1.0
  Ni  Ni258  1  0.67927633  0.12291267  0.05325100  1.0
  Ni  Ni259  1  0.67927633  0.45624600  0.05325100  1.0
  Ni  Ni260  1  0.67927633  0.78957933  0.05325100  1.0
  Ni  Ni261  1  0.32072367  0.21042067  0.05325100  1.0
  Ni  Ni262  1  0.32072367  0.54375400  0.05325100  1.0
  Ni  Ni263  1  0.32072367  0.87708733  0.05325100  1.0
  Ni  Ni264  1  0.65405700  0.21042067  0.05325100  1.0
  Ni  Ni265  1  0.65405700  0.54375400  0.05325100  1.0
  Ni  Ni266  1  0.65405700  0.87708733  0.05325100  1.0
  Ni  Ni267  1  0.98739033  0.21042067  0.05325100  1.0
  Ni  Ni268  1  0.98739033  0.54375400  0.05325100  1.0
  Ni  Ni269  1  0.98739033  0.87708733  0.05325100  1.0
  V  V270  1  0.10524000  0.10673167  0.15976557  1.0
  V  V271  1  0.10524000  0.44006500  0.15976557  1.0
  V  V272  1  0.10524000  0.77339833  0.15976557  1.0
  V  V273  1  0.43857333  0.10673167  0.15976557  1.0
  V  V274  1  0.43857333  0.44006500  0.15976557  1.0
  V  V275  1  0.43857333  0.77339833  0.15976557  1.0
  V  V276  1  0.77190667  0.10673167  0.15976557  1.0
  V  V277  1  0.77190667  0.44006500  0.15976557  1.0
  V  V278  1  0.77190667  0.77339833  0.15976557  1.0
  V  V279  1  0.22809333  0.22660167  0.15976557  1.0
  V  V280  1  0.22809333  0.55993500  0.15976557  1.0
  V  V281  1  0.22809333  0.89326833  0.15976557  1.0
  V  V282  1  0.56142667  0.22660167  0.15976557  1.0
  V  V283  1  0.56142667  0.55993500  0.15976557  1.0
  V  V284  1  0.56142667  0.89326833  0.15976557  1.0
  V  V285  1  0.89476000  0.22660167  0.15976557  1.0
  V  V286  1  0.89476000  0.55993500  0.15976557  1.0
  V  V287  1  0.89476000  0.89326833  0.15976557  1.0
  V  V288  1  0.27403033  0.06084433  0.23118157  1.0
  V  V289  1  0.27403033  0.39417767  0.23118157  1.0
  V  V290  1  0.27403033  0.72751100  0.23118157  1.0
  V  V291  1  0.60736367  0.06084433  0.23118157  1.0
  V  V292  1  0.60736367  0.39417767  0.23118157  1.0
  V  V293  1  0.60736367  0.72751100  0.23118157  1.0
  V  V294  1  0.94069700  0.06084433  0.23118157  1.0
  V  V295  1  0.94069700  0.39417767  0.23118157  1.0
  V  V296  1  0.94069700  0.72751100  0.23118157  1.0
  V  V297  1  0.05930300  0.27248900  0.23118157  1.0
  V  V298  1  0.05930300  0.60582233  0.23118157  1.0
  V  V299  1  0.05930300  0.93915567  0.23118157  1.0
  V  V300  1  0.39263633  0.27248900  0.23118157  1.0
  V  V301  1  0.39263633  0.60582233  0.23118157  1.0
  V  V302  1  0.39263633  0.93915567  0.23118157  1.0
  V  V303  1  0.72596967  0.27248900  0.23118157  1.0
  V  V304  1  0.72596967  0.60582233  0.23118157  1.0
  V  V305  1  0.72596967  0.93915567  0.23118157  1.0
  V  V306  1  0.22809333  0.22660167  0.23245071  1.0
  V  V307  1  0.22809333  0.55993500  0.23245071  1.0
  V  V308  1  0.22809333  0.89326833  0.23245071  1.0
  V  V309  1  0.56142667  0.22660167  0.23245071  1.0
  V  V310  1  0.56142667  0.55993500  0.23245071  1.0
  V  V311  1  0.56142667  0.89326833  0.23245071  1.0
  V  V312  1  0.89476000  0.22660167  0.23245071  1.0
  V  V313  1  0.89476000  0.55993500  0.23245071  1.0
  V  V314  1  0.89476000  0.89326833  0.23245071  1.0
  V  V315  1  0.10524000  0.10673167  0.23245071  1.0
  V  V316  1  0.10524000  0.44006500  0.23245071  1.0
  V  V317  1  0.10524000  0.77339833  0.23245071  1.0
  V  V318  1  0.43857333  0.10673167  0.23245071  1.0
  V  V319  1  0.43857333  0.44006500  0.23245071  1.0
  V  V320  1  0.43857333  0.77339833  0.23245071  1.0
  V  V321  1  0.77190667  0.10673167  0.23245071  1.0
  V  V322  1  0.77190667  0.44006500  0.23245071  1.0
  V  V323  1  0.77190667  0.77339833  0.23245071  1.0
  V  V324  1  0.05930300  0.27248900  0.16103471  1.0
  V  V325  1  0.05930300  0.60582233  0.16103471  1.0
  V  V326  1  0.05930300  0.93915567  0.16103471  1.0
  V  V327  1  0.39263633  0.27248900  0.16103471  1.0
  V  V328  1  0.39263633  0.60582233  0.16103471  1.0
  V  V329  1  0.39263633  0.93915567  0.16103471  1.0
  V  V330  1  0.72596967  0.27248900  0.16103471  1.0
  V  V331  1  0.72596967  0.60582233  0.16103471  1.0
  V  V332  1  0.72596967  0.93915567  0.16103471  1.0
  V  V333  1  0.27403033  0.06084433  0.16103471  1.0
  V  V334  1  0.27403033  0.39417767  0.16103471  1.0
  V  V335  1  0.27403033  0.72751100  0.16103471  1.0
  V  V336  1  0.60736367  0.06084433  0.16103471  1.0
  V  V337  1  0.60736367  0.39417767  0.16103471  1.0
  V  V338  1  0.60736367  0.72751100  0.16103471  1.0
  V  V339  1  0.94069700  0.06084433  0.16103471  1.0
  V  V340  1  0.94069700  0.39417767  0.16103471  1.0
  V  V341  1  0.94069700  0.72751100  0.16103471  1.0
  V  V342  1  0.03529367  0.03444467  0.19610814  1.0
  V  V343  1  0.03529367  0.36777800  0.19610814  1.0
  V  V344  1  0.03529367  0.70111133  0.19610814  1.0
  V  V345  1  0.36862700  0.03444467  0.19610814  1.0
  V  V346  1  0.36862700  0.36777800  0.19610814  1.0
  V  V347  1  0.36862700  0.70111133  0.19610814  1.0
  V  V348  1  0.70196033  0.03444467  0.19610814  1.0
  V  V349  1  0.70196033  0.36777800  0.19610814  1.0
  V  V350  1  0.70196033  0.70111133  0.19610814  1.0
  V  V351  1  0.29803967  0.29888867  0.19610814  1.0
  V  V352  1  0.29803967  0.63222200  0.19610814  1.0
  V  V353  1  0.29803967  0.96555533  0.19610814  1.0
  V  V354  1  0.63137300  0.29888867  0.19610814  1.0
  V  V355  1  0.63137300  0.63222200  0.19610814  1.0
  V  V356  1  0.63137300  0.96555533  0.19610814  1.0
  V  V357  1  0.96470633  0.29888867  0.19610814  1.0
  V  V358  1  0.96470633  0.63222200  0.19610814  1.0
  V  V359  1  0.96470633  0.96555533  0.19610814  1.0
  V  V360  1  0.20336500  0.13111267  0.26753671  1.0
  V  V361  1  0.20336500  0.46444600  0.26753671  1.0
  V  V362  1  0.20336500  0.79777933  0.26753671  1.0
  V  V363  1  0.53669833  0.13111267  0.26753671  1.0
  V  V364  1  0.53669833  0.46444600  0.26753671  1.0
  V  V365  1  0.53669833  0.79777933  0.26753671  1.0
  V  V366  1  0.87003167  0.13111267  0.26753671  1.0
  V  V367  1  0.87003167  0.46444600  0.26753671  1.0
  V  V368  1  0.87003167  0.79777933  0.26753671  1.0
  V  V369  1  0.12996833  0.20222067  0.26753671  1.0
  V  V370  1  0.12996833  0.53555400  0.26753671  1.0
  V  V371  1  0.12996833  0.86888733  0.26753671  1.0
  V  V372  1  0.46330167  0.20222067  0.26753671  1.0
  V  V373  1  0.46330167  0.53555400  0.26753671  1.0
  V  V374  1  0.46330167  0.86888733  0.26753671  1.0
  V  V375  1  0.79663500  0.20222067  0.26753671  1.0
  V  V376  1  0.79663500  0.53555400  0.26753671  1.0
  V  V377  1  0.79663500  0.86888733  0.26753671  1.0
  V  V378  1  0.17825867  0.04175133  0.26753671  1.0
  V  V379  1  0.17825867  0.37508467  0.26753671  1.0
  V  V380  1  0.17825867  0.70841800  0.26753671  1.0
  V  V381  1  0.51159200  0.04175133  0.26753671  1.0
  V  V382  1  0.51159200  0.37508467  0.26753671  1.0
  V  V383  1  0.51159200  0.70841800  0.26753671  1.0
  V  V384  1  0.84492533  0.04175133  0.26753671  1.0
  V  V385  1  0.84492533  0.37508467  0.26753671  1.0
  V  V386  1  0.84492533  0.70841800  0.26753671  1.0
  V  V387  1  0.15507467  0.29158200  0.26753671  1.0
  V  V388  1  0.15507467  0.62491533  0.26753671  1.0
  V  V389  1  0.15507467  0.95824867  0.26753671  1.0
  V  V390  1  0.48840800  0.29158200  0.26753671  1.0
  V  V391  1  0.48840800  0.62491533  0.26753671  1.0
  V  V392  1  0.48840800  0.95824867  0.26753671  1.0
  V  V393  1  0.82174133  0.29158200  0.26753671  1.0
  V  V394  1  0.82174133  0.62491533  0.26753671  1.0
  V  V395  1  0.82174133  0.95824867  0.26753671  1.0
  V  V396  1  0.20878700  0.32143300  0.19610814  1.0
  V  V397  1  0.20878700  0.65476633  0.19610814  1.0
  V  V398  1  0.20878700  0.98809967  0.19610814  1.0
  V  V399  1  0.54212033  0.32143300  0.19610814  1.0
  V  V400  1  0.54212033  0.65476633  0.19610814  1.0
  V  V401  1  0.54212033  0.98809967  0.19610814  1.0
  V  V402  1  0.87545367  0.32143300  0.19610814  1.0
  V  V403  1  0.87545367  0.65476633  0.19610814  1.0
  V  V404  1  0.87545367  0.98809967  0.19610814  1.0
  V  V405  1  0.12454633  0.01190033  0.19610814  1.0
  V  V406  1  0.12454633  0.34523367  0.19610814  1.0
  V  V407  1  0.12454633  0.67856700  0.19610814  1.0
  V  V408  1  0.45787967  0.01190033  0.19610814  1.0
  V  V409  1  0.45787967  0.34523367  0.19610814  1.0
  V  V410  1  0.45787967  0.67856700  0.19610814  1.0
  V  V411  1  0.79121300  0.01190033  0.19610814  1.0
  V  V412  1  0.79121300  0.34523367  0.19610814  1.0
  V  V413  1  0.79121300  0.67856700  0.19610814  1.0
  V  V414  1  0.29267400  0.15526300  0.26753671  1.0
  V  V415  1  0.29267400  0.48859633  0.26753671  1.0
  V  V416  1  0.29267400  0.82192967  0.26753671  1.0
  V  V417  1  0.62600733  0.15526300  0.26753671  1.0
  V  V418  1  0.62600733  0.48859633  0.26753671  1.0
  V  V419  1  0.62600733  0.82192967  0.26753671  1.0
  V  V420  1  0.95934067  0.15526300  0.26753671  1.0
  V  V421  1  0.95934067  0.48859633  0.26753671  1.0
  V  V422  1  0.95934067  0.82192967  0.26753671  1.0
  V  V423  1  0.04065933  0.17807033  0.26753671  1.0
  V  V424  1  0.04065933  0.51140367  0.26753671  1.0
  V  V425  1  0.04065933  0.84473700  0.26753671  1.0
  V  V426  1  0.37399267  0.17807033  0.26753671  1.0
  V  V427  1  0.37399267  0.51140367  0.26753671  1.0
  V  V428  1  0.37399267  0.84473700  0.26753671  1.0
  V  V429  1  0.70732600  0.17807033  0.26753671  1.0
  V  V430  1  0.70732600  0.51140367  0.26753671  1.0
  V  V431  1  0.70732600  0.84473700  0.26753671  1.0
  Ni  Ni432  1  0.16666667  0.16666667  0.19610814  1.0
  Ni  Ni433  1  0.16666667  0.50000000  0.19610814  1.0
  Ni  Ni434  1  0.16666667  0.83333333  0.19610814  1.0
  Ni  Ni435  1  0.50000000  0.16666667  0.19610814  1.0
  Ni  Ni436  1  0.50000000  0.50000000  0.19610814  1.0
  Ni  Ni437  1  0.50000000  0.83333333  0.19610814  1.0
  Ni  Ni438  1  0.83333333  0.16666667  0.19610814  1.0
  Ni  Ni439  1  0.83333333  0.50000000  0.19610814  1.0
  Ni  Ni440  1  0.83333333  0.83333333  0.19610814  1.0
  Ni  Ni441  1  0.00000000  0.00000000  0.26753671  1.0
  Ni  Ni442  1  0.00000000  0.33333333  0.26753671  1.0
  Ni  Ni443  1  0.00000000  0.66666667  0.26753671  1.0
  Ni  Ni444  1  0.33333333  0.00000000  0.26753671  1.0
  Ni  Ni445  1  0.33333333  0.33333333  0.26753671  1.0
  Ni  Ni446  1  0.33333333  0.66666667  0.26753671  1.0
  Ni  Ni447  1  0.66666667  0.00000000  0.26753671  1.0
  Ni  Ni448  1  0.66666667  0.33333333  0.26753671  1.0
  Ni  Ni449  1  0.66666667  0.66666667  0.26753671  1.0
  Ni  Ni450  1  0.25359633  0.14506100  0.19610814  1.0
  Ni  Ni451  1  0.25359633  0.47839433  0.19610814  1.0
  Ni  Ni452  1  0.25359633  0.81172767  0.19610814  1.0
  Ni  Ni453  1  0.58692967  0.14506100  0.19610814  1.0
  Ni  Ni454  1  0.58692967  0.47839433  0.19610814  1.0
  Ni  Ni455  1  0.58692967  0.81172767  0.19610814  1.0
  Ni  Ni456  1  0.92026300  0.14506100  0.19610814  1.0
  Ni  Ni457  1  0.92026300  0.47839433  0.19610814  1.0
  Ni  Ni458  1  0.92026300  0.81172767  0.19610814  1.0
  Ni  Ni459  1  0.07973700  0.18827233  0.19610814  1.0
  Ni  Ni460  1  0.07973700  0.52160567  0.19610814  1.0
  Ni  Ni461  1  0.07973700  0.85493900  0.19610814  1.0
  Ni  Ni462  1  0.41307033  0.18827233  0.19610814  1.0
  Ni  Ni463  1  0.41307033  0.52160567  0.19610814  1.0
  Ni  Ni464  1  0.41307033  0.85493900  0.19610814  1.0
  Ni  Ni465  1  0.74640367  0.18827233  0.19610814  1.0
  Ni  Ni466  1  0.74640367  0.52160567  0.19610814  1.0
  Ni  Ni467  1  0.74640367  0.85493900  0.19610814  1.0
  Ni  Ni468  1  0.08610200  0.02160067  0.26753671  1.0
  Ni  Ni469  1  0.08610200  0.35493400  0.26753671  1.0
  Ni  Ni470  1  0.08610200  0.68826733  0.26753671  1.0
  Ni  Ni471  1  0.41943533  0.02160067  0.26753671  1.0
  Ni  Ni472  1  0.41943533  0.35493400  0.26753671  1.0
  Ni  Ni473  1  0.41943533  0.68826733  0.26753671  1.0
  Ni  Ni474  1  0.75276867  0.02160067  0.26753671  1.0
  Ni  Ni475  1  0.75276867  0.35493400  0.26753671  1.0
  Ni  Ni476  1  0.75276867  0.68826733  0.26753671  1.0
  Ni  Ni477  1  0.24723133  0.31173267  0.26753671  1.0
  Ni  Ni478  1  0.24723133  0.64506600  0.26753671  1.0
  Ni  Ni479  1  0.24723133  0.97839933  0.26753671  1.0
  Ni  Ni480  1  0.58056467  0.31173267  0.26753671  1.0
  Ni  Ni481  1  0.58056467  0.64506600  0.26753671  1.0
  Ni  Ni482  1  0.58056467  0.97839933  0.26753671  1.0
  Ni  Ni483  1  0.91389800  0.31173267  0.26753671  1.0
  Ni  Ni484  1  0.91389800  0.64506600  0.26753671  1.0
  Ni  Ni485  1  0.91389800  0.97839933  0.26753671  1.0
  Ni  Ni486  1  0.18828700  0.08107767  0.19610814  1.0
  Ni  Ni487  1  0.18828700  0.41441100  0.19610814  1.0
  Ni  Ni488  1  0.18828700  0.74774433  0.19610814  1.0
  Ni  Ni489  1  0.52162033  0.08107767  0.19610814  1.0
  Ni  Ni490  1  0.52162033  0.41441100  0.19610814  1.0
  Ni  Ni491  1  0.52162033  0.74774433  0.19610814  1.0
  Ni  Ni492  1  0.85495367  0.08107767  0.19610814  1.0
  Ni  Ni493  1  0.85495367  0.41441100  0.19610814  1.0
  Ni  Ni494  1  0.85495367  0.74774433  0.19610814  1.0
  Ni  Ni495  1  0.14504633  0.25225567  0.19610814  1.0
  Ni  Ni496  1  0.14504633  0.58558900  0.19610814  1.0
  Ni  Ni497  1  0.14504633  0.91892233  0.19610814  1.0
  Ni  Ni498  1  0.47837967  0.25225567  0.19610814  1.0
  Ni  Ni499  1  0.47837967  0.58558900  0.19610814  1.0
  Ni  Ni500  1  0.47837967  0.91892233  0.19610814  1.0
  Ni  Ni501  1  0.81171300  0.25225567  0.19610814  1.0
  Ni  Ni502  1  0.81171300  0.58558900  0.19610814  1.0
  Ni  Ni503  1  0.81171300  0.91892233  0.19610814  1.0
  Ni  Ni504  1  0.31141567  0.24718267  0.26753671  1.0
  Ni  Ni505  1  0.31141567  0.58051600  0.26753671  1.0
  Ni  Ni506  1  0.31141567  0.91384933  0.26753671  1.0
  Ni  Ni507  1  0.64474900  0.24718267  0.26753671  1.0
  Ni  Ni508  1  0.64474900  0.58051600  0.26753671  1.0
  Ni  Ni509  1  0.64474900  0.91384933  0.26753671  1.0
  Ni  Ni510  1  0.97808233  0.24718267  0.26753671  1.0
  Ni  Ni511  1  0.97808233  0.58051600  0.26753671  1.0
  Ni  Ni512  1  0.97808233  0.91384933  0.26753671  1.0
  Ni  Ni513  1  0.02191767  0.08615067  0.26753671  1.0
  Ni  Ni514  1  0.02191767  0.41948400  0.26753671  1.0
  Ni  Ni515  1  0.02191767  0.75281733  0.26753671  1.0
  Ni  Ni516  1  0.35525100  0.08615067  0.26753671  1.0
  Ni  Ni517  1  0.35525100  0.41948400  0.26753671  1.0
  Ni  Ni518  1  0.35525100  0.75281733  0.26753671  1.0
  Ni  Ni519  1  0.68858433  0.08615067  0.26753671  1.0
  Ni  Ni520  1  0.68858433  0.41948400  0.26753671  1.0
  Ni  Ni521  1  0.68858433  0.75281733  0.26753671  1.0
  Ni  Ni522  1  0.01260967  0.12291267  0.19610814  1.0
  Ni  Ni523  1  0.01260967  0.45624600  0.19610814  1.0
  Ni  Ni524  1  0.01260967  0.78957933  0.19610814  1.0
  Ni  Ni525  1  0.34594300  0.12291267  0.19610814  1.0
  Ni  Ni526  1  0.34594300  0.45624600  0.19610814  1.0
  Ni  Ni527  1  0.34594300  0.78957933  0.19610814  1.0
  Ni  Ni528  1  0.67927633  0.12291267  0.19610814  1.0
  Ni  Ni529  1  0.67927633  0.45624600  0.19610814  1.0
  Ni  Ni530  1  0.67927633  0.78957933  0.19610814  1.0
  Ni  Ni531  1  0.32072367  0.21042067  0.19610814  1.0
  Ni  Ni532  1  0.32072367  0.54375400  0.19610814  1.0
  Ni  Ni533  1  0.32072367  0.87708733  0.19610814  1.0
  Ni  Ni534  1  0.65405700  0.21042067  0.19610814  1.0
  Ni  Ni535  1  0.65405700  0.54375400  0.19610814  1.0
  Ni  Ni536  1  0.65405700  0.87708733  0.19610814  1.0
  Ni  Ni537  1  0.98739033  0.21042067  0.19610814  1.0
  Ni  Ni538  1  0.98739033  0.54375400  0.19610814  1.0
  Ni  Ni539  1  0.98739033  0.87708733  0.19610814  1.0
  V  V540  1  0.10524000  0.10673167  0.30262271  1.0
  V  V541  1  0.10524000  0.44006500  0.30262271  1.0
  V  V542  1  0.10524000  0.77339833  0.30262271  1.0
  V  V543  1  0.43857333  0.10673167  0.30262271  1.0
  V  V544  1  0.43857333  0.44006500  0.30262271  1.0
  V  V545  1  0.43857333  0.77339833  0.30262271  1.0
  V  V546  1  0.77190667  0.10673167  0.30262271  1.0
  V  V547  1  0.77190667  0.44006500  0.30262271  1.0
  V  V548  1  0.77190667  0.77339833  0.30262271  1.0
  V  V549  1  0.22809333  0.22660167  0.30262271  1.0
  V  V550  1  0.22809333  0.55993500  0.30262271  1.0
  V  V551  1  0.22809333  0.89326833  0.30262271  1.0
  V  V552  1  0.56142667  0.22660167  0.30262271  1.0
  V  V553  1  0.56142667  0.55993500  0.30262271  1.0
  V  V554  1  0.56142667  0.89326833  0.30262271  1.0
  V  V555  1  0.89476000  0.22660167  0.30262271  1.0
  V  V556  1  0.89476000  0.55993500  0.30262271  1.0
  V  V557  1  0.89476000  0.89326833  0.30262271  1.0
  V  V558  1  0.27403033  0.06084433  0.37403871  1.0
  V  V559  1  0.27403033  0.39417767  0.37403871  1.0
  V  V560  1  0.27403033  0.72751100  0.37403871  1.0
  V  V561  1  0.60736367  0.06084433  0.37403871  1.0
  V  V562  1  0.60736367  0.39417767  0.37403871  1.0
  V  V563  1  0.60736367  0.72751100  0.37403871  1.0
  V  V564  1  0.94069700  0.06084433  0.37403871  1.0
  V  V565  1  0.94069700  0.39417767  0.37403871  1.0
  V  V566  1  0.94069700  0.72751100  0.37403871  1.0
  V  V567  1  0.05930300  0.27248900  0.37403871  1.0
  V  V568  1  0.05930300  0.60582233  0.37403871  1.0
  V  V569  1  0.05930300  0.93915567  0.37403871  1.0
  V  V570  1  0.39263633  0.27248900  0.37403871  1.0
  V  V571  1  0.39263633  0.60582233  0.37403871  1.0
  V  V572  1  0.39263633  0.93915567  0.37403871  1.0
  V  V573  1  0.72596967  0.27248900  0.37403871  1.0
  V  V574  1  0.72596967  0.60582233  0.37403871  1.0
  V  V575  1  0.72596967  0.93915567  0.37403871  1.0
  V  V576  1  0.22809333  0.22660167  0.37530786  1.0
  V  V577  1  0.22809333  0.55993500  0.37530786  1.0
  V  V578  1  0.22809333  0.89326833  0.37530786  1.0
  V  V579  1  0.56142667  0.22660167  0.37530786  1.0
  V  V580  1  0.56142667  0.55993500  0.37530786  1.0
  V  V581  1  0.56142667  0.89326833  0.37530786  1.0
  V  V582  1  0.89476000  0.22660167  0.37530786  1.0
  V  V583  1  0.89476000  0.55993500  0.37530786  1.0
  V  V584  1  0.89476000  0.89326833  0.37530786  1.0
  V  V585  1  0.10524000  0.10673167  0.37530786  1.0
  V  V586  1  0.10524000  0.44006500  0.37530786  1.0
  V  V587  1  0.10524000  0.77339833  0.37530786  1.0
  V  V588  1  0.43857333  0.10673167  0.37530786  1.0
  V  V589  1  0.43857333  0.44006500  0.37530786  1.0
  V  V590  1  0.43857333  0.77339833  0.37530786  1.0
  V  V591  1  0.77190667  0.10673167  0.37530786  1.0
  V  V592  1  0.77190667  0.44006500  0.37530786  1.0
  V  V593  1  0.77190667  0.77339833  0.37530786  1.0
  V  V594  1  0.05930300  0.27248900  0.30389186  1.0
  V  V595  1  0.05930300  0.60582233  0.30389186  1.0
  V  V596  1  0.05930300  0.93915567  0.30389186  1.0
  V  V597  1  0.39263633  0.27248900  0.30389186  1.0
  V  V598  1  0.39263633  0.60582233  0.30389186  1.0
  V  V599  1  0.39263633  0.93915567  0.30389186  1.0
  V  V600  1  0.72596967  0.27248900  0.30389186  1.0
  V  V601  1  0.72596967  0.60582233  0.30389186  1.0
  V  V602  1  0.72596967  0.93915567  0.30389186  1.0
  V  V603  1  0.27403033  0.06084433  0.30389186  1.0
  V  V604  1  0.27403033  0.39417767  0.30389186  1.0
  V  V605  1  0.27403033  0.72751100  0.30389186  1.0
  V  V606  1  0.60736367  0.06084433  0.30389186  1.0
  V  V607  1  0.60736367  0.39417767  0.30389186  1.0
  V  V608  1  0.60736367  0.72751100  0.30389186  1.0
  V  V609  1  0.94069700  0.06084433  0.30389186  1.0
  V  V610  1  0.94069700  0.39417767  0.30389186  1.0
  V  V611  1  0.94069700  0.72751100  0.30389186  1.0
  V  V612  1  0.03529367  0.03444467  0.33896529  1.0
  V  V613  1  0.03529367  0.36777800  0.33896529  1.0
  V  V614  1  0.03529367  0.70111133  0.33896529  1.0
  V  V615  1  0.36862700  0.03444467  0.33896529  1.0
  V  V616  1  0.36862700  0.36777800  0.33896529  1.0
  V  V617  1  0.36862700  0.70111133  0.33896529  1.0
  V  V618  1  0.70196033  0.03444467  0.33896529  1.0
  V  V619  1  0.70196033  0.36777800  0.33896529  1.0
  V  V620  1  0.70196033  0.70111133  0.33896529  1.0
  V  V621  1  0.29803967  0.29888867  0.33896529  1.0
  V  V622  1  0.29803967  0.63222200  0.33896529  1.0
  V  V623  1  0.29803967  0.96555533  0.33896529  1.0
  V  V624  1  0.63137300  0.29888867  0.33896529  1.0
  V  V625  1  0.63137300  0.63222200  0.33896529  1.0
  V  V626  1  0.63137300  0.96555533  0.33896529  1.0
  V  V627  1  0.96470633  0.29888867  0.33896529  1.0
  V  V628  1  0.96470633  0.63222200  0.33896529  1.0
  V  V629  1  0.96470633  0.96555533  0.33896529  1.0
  V  V630  1  0.20336500  0.13111267  0.41039386  1.0
  V  V631  1  0.20336500  0.46444600  0.41039386  1.0
  V  V632  1  0.20336500  0.79777933  0.41039386  1.0
  V  V633  1  0.53669833  0.13111267  0.41039386  1.0
  V  V634  1  0.53669833  0.46444600  0.41039386  1.0
  V  V635  1  0.53669833  0.79777933  0.41039386  1.0
  V  V636  1  0.87003167  0.13111267  0.41039386  1.0
  V  V637  1  0.87003167  0.46444600  0.41039386  1.0
  V  V638  1  0.87003167  0.79777933  0.41039386  1.0
  V  V639  1  0.12996833  0.20222067  0.41039386  1.0
  V  V640  1  0.12996833  0.53555400  0.41039386  1.0
  V  V641  1  0.12996833  0.86888733  0.41039386  1.0
  V  V642  1  0.46330167  0.20222067  0.41039386  1.0
  V  V643  1  0.46330167  0.53555400  0.41039386  1.0
  V  V644  1  0.46330167  0.86888733  0.41039386  1.0
  V  V645  1  0.79663500  0.20222067  0.41039386  1.0
  V  V646  1  0.79663500  0.53555400  0.41039386  1.0
  V  V647  1  0.79663500  0.86888733  0.41039386  1.0
  V  V648  1  0.17825867  0.04175133  0.41039386  1.0
  V  V649  1  0.17825867  0.37508467  0.41039386  1.0
  V  V650  1  0.17825867  0.70841800  0.41039386  1.0
  V  V651  1  0.51159200  0.04175133  0.41039386  1.0
  V  V652  1  0.51159200  0.37508467  0.41039386  1.0
  V  V653  1  0.51159200  0.70841800  0.41039386  1.0
  V  V654  1  0.84492533  0.04175133  0.41039386  1.0
  V  V655  1  0.84492533  0.37508467  0.41039386  1.0
  V  V656  1  0.84492533  0.70841800  0.41039386  1.0
  V  V657  1  0.15507467  0.29158200  0.41039386  1.0
  V  V658  1  0.15507467  0.62491533  0.41039386  1.0
  V  V659  1  0.15507467  0.95824867  0.41039386  1.0
  V  V660  1  0.48840800  0.29158200  0.41039386  1.0
  V  V661  1  0.48840800  0.62491533  0.41039386  1.0
  V  V662  1  0.48840800  0.95824867  0.41039386  1.0
  V  V663  1  0.82174133  0.29158200  0.41039386  1.0
  V  V664  1  0.82174133  0.62491533  0.41039386  1.0
  V  V665  1  0.82174133  0.95824867  0.41039386  1.0
  V  V666  1  0.20878700  0.32143300  0.33896529  1.0
  V  V667  1  0.20878700  0.65476633  0.33896529  1.0
  V  V668  1  0.20878700  0.98809967  0.33896529  1.0
  V  V669  1  0.54212033  0.32143300  0.33896529  1.0
  V  V670  1  0.54212033  0.65476633  0.33896529  1.0
  V  V671  1  0.54212033  0.98809967  0.33896529  1.0
  V  V672  1  0.87545367  0.32143300  0.33896529  1.0
  V  V673  1  0.87545367  0.65476633  0.33896529  1.0
  V  V674  1  0.87545367  0.98809967  0.33896529  1.0
  V  V675  1  0.12454633  0.01190033  0.33896529  1.0
  V  V676  1  0.12454633  0.34523367  0.33896529  1.0
  V  V677  1  0.12454633  0.67856700  0.33896529  1.0
  V  V678  1  0.45787967  0.01190033  0.33896529  1.0
  V  V679  1  0.45787967  0.34523367  0.33896529  1.0
  V  V680  1  0.45787967  0.67856700  0.33896529  1.0
  V  V681  1  0.79121300  0.01190033  0.33896529  1.0
  V  V682  1  0.79121300  0.34523367  0.33896529  1.0
  V  V683  1  0.79121300  0.67856700  0.33896529  1.0
  V  V684  1  0.29267400  0.15526300  0.41039386  1.0
  V  V685  1  0.29267400  0.48859633  0.41039386  1.0
  V  V686  1  0.29267400  0.82192967  0.41039386  1.0
  V  V687  1  0.62600733  0.15526300  0.41039386  1.0
  V  V688  1  0.62600733  0.48859633  0.41039386  1.0
  V  V689  1  0.62600733  0.82192967  0.41039386  1.0
  V  V690  1  0.95934067  0.15526300  0.41039386  1.0
  V  V691  1  0.95934067  0.48859633  0.41039386  1.0
  V  V692  1  0.95934067  0.82192967  0.41039386  1.0
  V  V693  1  0.04065933  0.17807033  0.41039386  1.0
  V  V694  1  0.04065933  0.51140367  0.41039386  1.0
  V  V695  1  0.04065933  0.84473700  0.41039386  1.0
  V  V696  1  0.37399267  0.17807033  0.41039386  1.0
  V  V697  1  0.37399267  0.51140367  0.41039386  1.0
  V  V698  1  0.37399267  0.84473700  0.41039386  1.0
  V  V699  1  0.70732600  0.17807033  0.41039386  1.0
  V  V700  1  0.70732600  0.51140367  0.41039386  1.0
  V  V701  1  0.70732600  0.84473700  0.41039386  1.0
  Ni  Ni702  1  0.16666667  0.16666667  0.33896529  1.0
  Ni  Ni703  1  0.16666667  0.50000000  0.33896529  1.0
  Ni  Ni704  1  0.16666667  0.83333333  0.33896529  1.0
  Ni  Ni705  1  0.50000000  0.16666667  0.33896529  1.0
  Ni  Ni706  1  0.50000000  0.50000000  0.33896529  1.0
  Ni  Ni707  1  0.50000000  0.83333333  0.33896529  1.0
  Ni  Ni708  1  0.83333333  0.16666667  0.33896529  1.0
  Ni  Ni709  1  0.83333333  0.50000000  0.33896529  1.0
  Ni  Ni710  1  0.83333333  0.83333333  0.33896529  1.0
  Ni  Ni711  1  0.00000000  0.00000000  0.41039386  1.0
  Ni  Ni712  1  0.00000000  0.33333333  0.41039386  1.0
  Ni  Ni713  1  0.00000000  0.66666667  0.41039386  1.0
  Ni  Ni714  1  0.33333333  0.00000000  0.41039386  1.0
  Ni  Ni715  1  0.33333333  0.33333333  0.41039386  1.0
  Ni  Ni716  1  0.33333333  0.66666667  0.41039386  1.0
  Ni  Ni717  1  0.66666667  0.00000000  0.41039386  1.0
  Ni  Ni718  1  0.66666667  0.33333333  0.41039386  1.0
  Ni  Ni719  1  0.66666667  0.66666667  0.41039386  1.0
  Ni  Ni720  1  0.25359633  0.14506100  0.33896529  1.0
  Ni  Ni721  1  0.25359633  0.47839433  0.33896529  1.0
  Ni  Ni722  1  0.25359633  0.81172767  0.33896529  1.0
  Ni  Ni723  1  0.58692967  0.14506100  0.33896529  1.0
  Ni  Ni724  1  0.58692967  0.47839433  0.33896529  1.0
  Ni  Ni725  1  0.58692967  0.81172767  0.33896529  1.0
  Ni  Ni726  1  0.92026300  0.14506100  0.33896529  1.0
  Ni  Ni727  1  0.92026300  0.47839433  0.33896529  1.0
  Ni  Ni728  1  0.92026300  0.81172767  0.33896529  1.0
  Ni  Ni729  1  0.07973700  0.18827233  0.33896529  1.0
  Ni  Ni730  1  0.07973700  0.52160567  0.33896529  1.0
  Ni  Ni731  1  0.07973700  0.85493900  0.33896529  1.0
  Ni  Ni732  1  0.41307033  0.18827233  0.33896529  1.0
  Ni  Ni733  1  0.41307033  0.52160567  0.33896529  1.0
  Ni  Ni734  1  0.41307033  0.85493900  0.33896529  1.0
  Ni  Ni735  1  0.74640367  0.18827233  0.33896529  1.0
  Ni  Ni736  1  0.74640367  0.52160567  0.33896529  1.0
  Ni  Ni737  1  0.74640367  0.85493900  0.33896529  1.0
  Ni  Ni738  1  0.08610200  0.02160067  0.41039386  1.0
  Ni  Ni739  1  0.08610200  0.35493400  0.41039386  1.0
  Ni  Ni740  1  0.08610200  0.68826733  0.41039386  1.0
  Ni  Ni741  1  0.41943533  0.02160067  0.41039386  1.0
  Ni  Ni742  1  0.41943533  0.35493400  0.41039386  1.0
  Ni  Ni743  1  0.41943533  0.68826733  0.41039386  1.0
  Ni  Ni744  1  0.75276867  0.02160067  0.41039386  1.0
  Ni  Ni745  1  0.75276867  0.35493400  0.41039386  1.0
  Ni  Ni746  1  0.75276867  0.68826733  0.41039386  1.0
  Ni  Ni747  1  0.24723133  0.31173267  0.41039386  1.0
  Ni  Ni748  1  0.24723133  0.64506600  0.41039386  1.0
  Ni  Ni749  1  0.24723133  0.97839933  0.41039386  1.0
  Ni  Ni750  1  0.58056467  0.31173267  0.41039386  1.0
  Ni  Ni751  1  0.58056467  0.64506600  0.41039386  1.0
  Ni  Ni752  1  0.58056467  0.97839933  0.41039386  1.0
  Ni  Ni753  1  0.91389800  0.31173267  0.41039386  1.0
  Ni  Ni754  1  0.91389800  0.64506600  0.41039386  1.0
  Ni  Ni755  1  0.91389800  0.97839933  0.41039386  1.0
  Ni  Ni756  1  0.18828700  0.08107767  0.33896529  1.0
  Ni  Ni757  1  0.18828700  0.41441100  0.33896529  1.0
  Ni  Ni758  1  0.18828700  0.74774433  0.33896529  1.0
  Ni  Ni759  1  0.52162033  0.08107767  0.33896529  1.0
  Ni  Ni760  1  0.52162033  0.41441100  0.33896529  1.0
  Ni  Ni761  1  0.52162033  0.74774433  0.33896529  1.0
  Ni  Ni762  1  0.85495367  0.08107767  0.33896529  1.0
  Ni  Ni763  1  0.85495367  0.41441100  0.33896529  1.0
  Ni  Ni764  1  0.85495367  0.74774433  0.33896529  1.0
  Ni  Ni765  1  0.14504633  0.25225567  0.33896529  1.0
  Ni  Ni766  1  0.14504633  0.58558900  0.33896529  1.0
  Ni  Ni767  1  0.14504633  0.91892233  0.33896529  1.0
  Ni  Ni768  1  0.47837967  0.25225567  0.33896529  1.0
  Ni  Ni769  1  0.47837967  0.58558900  0.33896529  1.0
  Ni  Ni770  1  0.47837967  0.91892233  0.33896529  1.0
  Ni  Ni771  1  0.81171300  0.25225567  0.33896529  1.0
  Ni  Ni772  1  0.81171300  0.58558900  0.33896529  1.0
  Ni  Ni773  1  0.81171300  0.91892233  0.33896529  1.0
  Ni  Ni774  1  0.31141567  0.24718267  0.41039386  1.0
  Ni  Ni775  1  0.31141567  0.58051600  0.41039386  1.0
  Ni  Ni776  1  0.31141567  0.91384933  0.41039386  1.0
  Ni  Ni777  1  0.64474900  0.24718267  0.41039386  1.0
  Ni  Ni778  1  0.64474900  0.58051600  0.41039386  1.0
  Ni  Ni779  1  0.64474900  0.91384933  0.41039386  1.0
  Ni  Ni780  1  0.97808233  0.24718267  0.41039386  1.0
  Ni  Ni781  1  0.97808233  0.58051600  0.41039386  1.0
  Ni  Ni782  1  0.97808233  0.91384933  0.41039386  1.0
  Ni  Ni783  1  0.02191767  0.08615067  0.41039386  1.0
  Ni  Ni784  1  0.02191767  0.41948400  0.41039386  1.0
  Ni  Ni785  1  0.02191767  0.75281733  0.41039386  1.0
  Ni  Ni786  1  0.35525100  0.08615067  0.41039386  1.0
  Ni  Ni787  1  0.35525100  0.41948400  0.41039386  1.0
  Ni  Ni788  1  0.35525100  0.75281733  0.41039386  1.0
  Ni  Ni789  1  0.68858433  0.08615067  0.41039386  1.0
  Ni  Ni790  1  0.68858433  0.41948400  0.41039386  1.0
  Ni  Ni791  1  0.68858433  0.75281733  0.41039386  1.0
  Ni  Ni792  1  0.01260967  0.12291267  0.33896529  1.0
  Ni  Ni793  1  0.01260967  0.45624600  0.33896529  1.0
  Ni  Ni794  1  0.01260967  0.78957933  0.33896529  1.0
  Ni  Ni795  1  0.34594300  0.12291267  0.33896529  1.0
  Ni  Ni796  1  0.34594300  0.45624600  0.33896529  1.0
  Ni  Ni797  1  0.34594300  0.78957933  0.33896529  1.0
  Ni  Ni798  1  0.67927633  0.12291267  0.33896529  1.0
  Ni  Ni799  1  0.67927633  0.45624600  0.33896529  1.0
  Ni  Ni800  1  0.67927633  0.78957933  0.33896529  1.0
  Ni  Ni801  1  0.32072367  0.21042067  0.33896529  1.0
  Ni  Ni802  1  0.32072367  0.54375400  0.33896529  1.0
  Ni  Ni803  1  0.32072367  0.87708733  0.33896529  1.0
  Ni  Ni804  1  0.65405700  0.21042067  0.33896529  1.0
  Ni  Ni805  1  0.65405700  0.54375400  0.33896529  1.0
  Ni  Ni806  1  0.65405700  0.87708733  0.33896529  1.0
  Ni  Ni807  1  0.98739033  0.21042067  0.33896529  1.0
  Ni  Ni808  1  0.98739033  0.54375400  0.33896529  1.0
  Ni  Ni809  1  0.98739033  0.87708733  0.33896529  1.0
