# generated using pymatgen
data_V3Ni2
_symmetry_space_group_name_H-M   'P 1'
_cell_length_a   30.40195851
_cell_length_b   38.44385054
_cell_length_c   30.44401675
_cell_angle_alpha   81.84620290
_cell_angle_beta   85.08154823
_cell_angle_gamma   71.21385240
_symmetry_Int_Tables_number   1
_chemical_formula_structural   V3Ni2
_chemical_formula_sum   'V648 Ni432'
_cell_volume   33315.42525826
_cell_formula_units_Z   216
loop_
 _symmetry_equiv_pos_site_id
 _symmetry_equiv_pos_as_xyz
  1  'x, y, z'
loop_
 _atom_site_type_symbol
 _atom_site_label
 _atom_site_symmetry_multiplicity
 _atom_site_fract_x
 _atom_site_fract_y
 _atom_site_fract_z
 _atom_site_occupancy
  Ni  Ni0  1  0.23240660  0.30278020  0.19721980  1.0
  Ni  Ni1  1  0.23240660  0.63611353  0.19721980  1.0
  Ni  Ni2  1  0.23240660  0.96944687  0.19721980  1.0
  Ni  Ni3  1  0.56573993  0.30278020  0.19721980  1.0
  Ni  Ni4  1  0.56573993  0.63611353  0.19721980  1.0
  Ni  Ni5  1  0.56573993  0.96944687  0.19721980  1.0
  Ni  Ni6  1  0.89907327  0.30278020  0.19721980  1.0
  Ni  Ni7  1  0.89907327  0.63611353  0.19721980  1.0
  Ni  Ni8  1  0.89907327  0.96944687  0.19721980  1.0
  Ni  Ni9  1  0.19907327  0.23611353  0.09721980  1.0
  Ni  Ni10  1  0.19907327  0.56944687  0.09721980  1.0
  Ni  Ni11  1  0.19907327  0.90278020  0.09721980  1.0
  Ni  Ni12  1  0.53240660  0.23611353  0.09721980  1.0
  Ni  Ni13  1  0.53240660  0.56944687  0.09721980  1.0
  Ni  Ni14  1  0.53240660  0.90278020  0.09721980  1.0
  Ni  Ni15  1  0.86573993  0.23611353  0.09721980  1.0
  Ni  Ni16  1  0.86573993  0.56944687  0.09721980  1.0
  Ni  Ni17  1  0.86573993  0.90278020  0.09721980  1.0
  Ni  Ni18  1  0.06573993  0.13611353  0.19721980  1.0
  Ni  Ni19  1  0.06573993  0.46944687  0.19721980  1.0
  Ni  Ni20  1  0.06573993  0.80278020  0.19721980  1.0
  Ni  Ni21  1  0.39907327  0.13611353  0.19721980  1.0
  Ni  Ni22  1  0.39907327  0.46944687  0.19721980  1.0
  Ni  Ni23  1  0.39907327  0.80278020  0.19721980  1.0
  Ni  Ni24  1  0.73240660  0.13611353  0.19721980  1.0
  Ni  Ni25  1  0.73240660  0.46944687  0.19721980  1.0
  Ni  Ni26  1  0.73240660  0.80278020  0.19721980  1.0
  Ni  Ni27  1  0.03240660  0.06944687  0.09721980  1.0
  Ni  Ni28  1  0.03240660  0.40278020  0.09721980  1.0
  Ni  Ni29  1  0.03240660  0.73611353  0.09721980  1.0
  Ni  Ni30  1  0.36573993  0.06944687  0.09721980  1.0
  Ni  Ni31  1  0.36573993  0.40278020  0.09721980  1.0
  Ni  Ni32  1  0.36573993  0.73611353  0.09721980  1.0
  Ni  Ni33  1  0.69907327  0.06944687  0.09721980  1.0
  Ni  Ni34  1  0.69907327  0.40278020  0.09721980  1.0
  Ni  Ni35  1  0.69907327  0.73611353  0.09721980  1.0
  Ni  Ni36  1  0.19557557  0.02592580  0.15154370  1.0
  Ni  Ni37  1  0.19557557  0.35925913  0.15154370  1.0
  Ni  Ni38  1  0.19557557  0.69259247  0.15154370  1.0
  Ni  Ni39  1  0.52890890  0.02592580  0.15154370  1.0
  Ni  Ni40  1  0.52890890  0.35925913  0.15154370  1.0
  Ni  Ni41  1  0.52890890  0.69259247  0.15154370  1.0
  Ni  Ni42  1  0.86224223  0.02592580  0.15154370  1.0
  Ni  Ni43  1  0.86224223  0.35925913  0.15154370  1.0
  Ni  Ni44  1  0.86224223  0.69259247  0.15154370  1.0
  Ni  Ni45  1  0.16224223  0.29259247  0.05154370  1.0
  Ni  Ni46  1  0.16224223  0.62592580  0.05154370  1.0
  Ni  Ni47  1  0.16224223  0.95925913  0.05154370  1.0
  Ni  Ni48  1  0.49557557  0.29259247  0.05154370  1.0
  Ni  Ni49  1  0.49557557  0.62592580  0.05154370  1.0
  Ni  Ni50  1  0.49557557  0.95925913  0.05154370  1.0
  Ni  Ni51  1  0.82890890  0.29259247  0.05154370  1.0
  Ni  Ni52  1  0.82890890  0.62592580  0.05154370  1.0
  Ni  Ni53  1  0.82890890  0.95925913  0.05154370  1.0
  Ni  Ni54  1  0.20257097  0.11296793  0.04289590  1.0
  Ni  Ni55  1  0.20257097  0.44630127  0.04289590  1.0
  Ni  Ni56  1  0.20257097  0.77963460  0.04289590  1.0
  Ni  Ni57  1  0.53590430  0.11296793  0.04289590  1.0
  Ni  Ni58  1  0.53590430  0.44630127  0.04289590  1.0
  Ni  Ni59  1  0.53590430  0.77963460  0.04289590  1.0
  Ni  Ni60  1  0.86923763  0.11296793  0.04289590  1.0
  Ni  Ni61  1  0.86923763  0.44630127  0.04289590  1.0
  Ni  Ni62  1  0.86923763  0.77963460  0.04289590  1.0
  Ni  Ni63  1  0.23590430  0.17963460  0.14289590  1.0
  Ni  Ni64  1  0.23590430  0.51296793  0.14289590  1.0
  Ni  Ni65  1  0.23590430  0.84630127  0.14289590  1.0
  Ni  Ni66  1  0.56923763  0.17963460  0.14289590  1.0
  Ni  Ni67  1  0.56923763  0.51296793  0.14289590  1.0
  Ni  Ni68  1  0.56923763  0.84630127  0.14289590  1.0
  Ni  Ni69  1  0.90257097  0.17963460  0.14289590  1.0
  Ni  Ni70  1  0.90257097  0.51296793  0.14289590  1.0
  Ni  Ni71  1  0.90257097  0.84630127  0.14289590  1.0
  Ni  Ni72  1  0.03462680  0.11678793  0.03907840  1.0
  Ni  Ni73  1  0.03462680  0.45012127  0.03907840  1.0
  Ni  Ni74  1  0.03462680  0.78345460  0.03907840  1.0
  Ni  Ni75  1  0.36796013  0.11678793  0.03907840  1.0
  Ni  Ni76  1  0.36796013  0.45012127  0.03907840  1.0
  Ni  Ni77  1  0.36796013  0.78345460  0.03907840  1.0
  Ni  Ni78  1  0.70129347  0.11678793  0.03907840  1.0
  Ni  Ni79  1  0.70129347  0.45012127  0.03907840  1.0
  Ni  Ni80  1  0.70129347  0.78345460  0.03907840  1.0
  Ni  Ni81  1  0.06796013  0.18345460  0.13907840  1.0
  Ni  Ni82  1  0.06796013  0.51678793  0.13907840  1.0
  Ni  Ni83  1  0.06796013  0.85012127  0.13907840  1.0
  Ni  Ni84  1  0.40129347  0.18345460  0.13907840  1.0
  Ni  Ni85  1  0.40129347  0.51678793  0.13907840  1.0
  Ni  Ni86  1  0.40129347  0.85012127  0.13907840  1.0
  Ni  Ni87  1  0.73462680  0.18345460  0.13907840  1.0
  Ni  Ni88  1  0.73462680  0.51678793  0.13907840  1.0
  Ni  Ni89  1  0.73462680  0.85012127  0.13907840  1.0
  Ni  Ni90  1  0.33018640  0.28877247  0.05536120  1.0
  Ni  Ni91  1  0.33018640  0.62210580  0.05536120  1.0
  Ni  Ni92  1  0.33018640  0.95543913  0.05536120  1.0
  Ni  Ni93  1  0.66351973  0.28877247  0.05536120  1.0
  Ni  Ni94  1  0.66351973  0.62210580  0.05536120  1.0
  Ni  Ni95  1  0.66351973  0.95543913  0.05536120  1.0
  Ni  Ni96  1  0.99685307  0.28877247  0.05536120  1.0
  Ni  Ni97  1  0.99685307  0.62210580  0.05536120  1.0
  Ni  Ni98  1  0.99685307  0.95543913  0.05536120  1.0
  Ni  Ni99  1  0.03018640  0.02210580  0.15536120  1.0
  Ni  Ni100  1  0.03018640  0.35543913  0.15536120  1.0
  Ni  Ni101  1  0.03018640  0.68877247  0.15536120  1.0
  Ni  Ni102  1  0.36351973  0.02210580  0.15536120  1.0
  Ni  Ni103  1  0.36351973  0.35543913  0.15536120  1.0
  Ni  Ni104  1  0.36351973  0.68877247  0.15536120  1.0
  Ni  Ni105  1  0.69685307  0.02210580  0.15536120  1.0
  Ni  Ni106  1  0.69685307  0.35543913  0.15536120  1.0
  Ni  Ni107  1  0.69685307  0.68877247  0.15536120  1.0
  Ni  Ni108  1  0.08438577  0.19953687  0.00992430  1.0
  Ni  Ni109  1  0.08438577  0.53287020  0.00992430  1.0
  Ni  Ni110  1  0.08438577  0.86620353  0.00992430  1.0
  Ni  Ni111  1  0.41771910  0.19953687  0.00992430  1.0
  Ni  Ni112  1  0.41771910  0.53287020  0.00992430  1.0
  Ni  Ni113  1  0.41771910  0.86620353  0.00992430  1.0
  Ni  Ni114  1  0.75105243  0.19953687  0.00992430  1.0
  Ni  Ni115  1  0.75105243  0.53287020  0.00992430  1.0
  Ni  Ni116  1  0.75105243  0.86620353  0.00992430  1.0
  Ni  Ni117  1  0.11771910  0.26620353  0.10992430  1.0
  Ni  Ni118  1  0.11771910  0.59953687  0.10992430  1.0
  Ni  Ni119  1  0.11771910  0.93287020  0.10992430  1.0
  Ni  Ni120  1  0.45105243  0.26620353  0.10992430  1.0
  Ni  Ni121  1  0.45105243  0.59953687  0.10992430  1.0
  Ni  Ni122  1  0.45105243  0.93287020  0.10992430  1.0
  Ni  Ni123  1  0.78438577  0.26620353  0.10992430  1.0
  Ni  Ni124  1  0.78438577  0.59953687  0.10992430  1.0
  Ni  Ni125  1  0.78438577  0.93287020  0.10992430  1.0
  Ni  Ni126  1  0.31376077  0.27269020  0.18451530  1.0
  Ni  Ni127  1  0.31376077  0.60602353  0.18451530  1.0
  Ni  Ni128  1  0.31376077  0.93935687  0.18451530  1.0
  Ni  Ni129  1  0.64709410  0.27269020  0.18451530  1.0
  Ni  Ni130  1  0.64709410  0.60602353  0.18451530  1.0
  Ni  Ni131  1  0.64709410  0.93935687  0.18451530  1.0
  Ni  Ni132  1  0.98042743  0.27269020  0.18451530  1.0
  Ni  Ni133  1  0.98042743  0.60602353  0.18451530  1.0
  Ni  Ni134  1  0.98042743  0.93935687  0.18451530  1.0
  Ni  Ni135  1  0.28042743  0.20602353  0.08451530  1.0
  Ni  Ni136  1  0.28042743  0.53935687  0.08451530  1.0
  Ni  Ni137  1  0.28042743  0.87269020  0.08451530  1.0
  Ni  Ni138  1  0.61376077  0.20602353  0.08451530  1.0
  Ni  Ni139  1  0.61376077  0.53935687  0.08451530  1.0
  Ni  Ni140  1  0.61376077  0.87269020  0.08451530  1.0
  Ni  Ni141  1  0.94709410  0.20602353  0.08451530  1.0
  Ni  Ni142  1  0.94709410  0.53935687  0.08451530  1.0
  Ni  Ni143  1  0.94709410  0.87269020  0.08451530  1.0
  Ni  Ni144  1  0.25925453  0.00685973  0.03621560  1.0
  Ni  Ni145  1  0.25925453  0.34019307  0.03621560  1.0
  Ni  Ni146  1  0.25925453  0.67352640  0.03621560  1.0
  Ni  Ni147  1  0.59258787  0.00685973  0.03621560  1.0
  Ni  Ni148  1  0.59258787  0.34019307  0.03621560  1.0
  Ni  Ni149  1  0.59258787  0.67352640  0.03621560  1.0
  Ni  Ni150  1  0.92592120  0.00685973  0.03621560  1.0
  Ni  Ni151  1  0.92592120  0.34019307  0.03621560  1.0
  Ni  Ni152  1  0.92592120  0.67352640  0.03621560  1.0
  Ni  Ni153  1  0.29258787  0.07352640  0.13621560  1.0
  Ni  Ni154  1  0.29258787  0.40685973  0.13621560  1.0
  Ni  Ni155  1  0.29258787  0.74019307  0.13621560  1.0
  Ni  Ni156  1  0.62592120  0.07352640  0.13621560  1.0
  Ni  Ni157  1  0.62592120  0.40685973  0.13621560  1.0
  Ni  Ni158  1  0.62592120  0.74019307  0.13621560  1.0
  Ni  Ni159  1  0.95925453  0.07352640  0.13621560  1.0
  Ni  Ni160  1  0.95925453  0.40685973  0.13621560  1.0
  Ni  Ni161  1  0.95925453  0.74019307  0.13621560  1.0
  Ni  Ni162  1  0.10555867  0.06536733  0.05822400  1.0
  Ni  Ni163  1  0.10555867  0.39870067  0.05822400  1.0
  Ni  Ni164  1  0.10555867  0.73203400  0.05822400  1.0
  Ni  Ni165  1  0.43889200  0.06536733  0.05822400  1.0
  Ni  Ni166  1  0.43889200  0.39870067  0.05822400  1.0
  Ni  Ni167  1  0.43889200  0.73203400  0.05822400  1.0
  Ni  Ni168  1  0.77222533  0.06536733  0.05822400  1.0
  Ni  Ni169  1  0.77222533  0.39870067  0.05822400  1.0
  Ni  Ni170  1  0.77222533  0.73203400  0.05822400  1.0
  Ni  Ni171  1  0.13889200  0.13203400  0.15822400  1.0
  Ni  Ni172  1  0.13889200  0.46536733  0.15822400  1.0
  Ni  Ni173  1  0.13889200  0.79870067  0.15822400  1.0
  Ni  Ni174  1  0.47222533  0.13203400  0.15822400  1.0
  Ni  Ni175  1  0.47222533  0.46536733  0.15822400  1.0
  Ni  Ni176  1  0.47222533  0.79870067  0.15822400  1.0
  Ni  Ni177  1  0.80555867  0.13203400  0.15822400  1.0
  Ni  Ni178  1  0.80555867  0.46536733  0.15822400  1.0
  Ni  Ni179  1  0.80555867  0.79870067  0.15822400  1.0
  Ni  Ni180  1  0.15717273  0.08576347  0.10278020  1.0
  Ni  Ni181  1  0.15717273  0.41909680  0.10278020  1.0
  Ni  Ni182  1  0.15717273  0.75243013  0.10278020  1.0
  Ni  Ni183  1  0.49050607  0.08576347  0.10278020  1.0
  Ni  Ni184  1  0.49050607  0.41909680  0.10278020  1.0
  Ni  Ni185  1  0.49050607  0.75243013  0.10278020  1.0
  Ni  Ni186  1  0.82383940  0.08576347  0.10278020  1.0
  Ni  Ni187  1  0.82383940  0.41909680  0.10278020  1.0
  Ni  Ni188  1  0.82383940  0.75243013  0.10278020  1.0
  Ni  Ni189  1  0.12383940  0.01909680  0.00278020  1.0
  Ni  Ni190  1  0.12383940  0.35243013  0.00278020  1.0
  Ni  Ni191  1  0.12383940  0.68576347  0.00278020  1.0
  Ni  Ni192  1  0.45717273  0.01909680  0.00278020  1.0
  Ni  Ni193  1  0.45717273  0.35243013  0.00278020  1.0
  Ni  Ni194  1  0.45717273  0.68576347  0.00278020  1.0
  Ni  Ni195  1  0.79050607  0.01909680  0.00278020  1.0
  Ni  Ni196  1  0.79050607  0.35243013  0.00278020  1.0
  Ni  Ni197  1  0.79050607  0.68576347  0.00278020  1.0
  Ni  Ni198  1  0.24097380  0.05313027  0.09165940  1.0
  Ni  Ni199  1  0.24097380  0.38646360  0.09165940  1.0
  Ni  Ni200  1  0.24097380  0.71979693  0.09165940  1.0
  Ni  Ni201  1  0.57430713  0.05313027  0.09165940  1.0
  Ni  Ni202  1  0.57430713  0.38646360  0.09165940  1.0
  Ni  Ni203  1  0.57430713  0.71979693  0.09165940  1.0
  Ni  Ni204  1  0.90764047  0.05313027  0.09165940  1.0
  Ni  Ni205  1  0.90764047  0.38646360  0.09165940  1.0
  Ni  Ni206  1  0.90764047  0.71979693  0.09165940  1.0
  Ni  Ni207  1  0.27430713  0.11979693  0.19165940  1.0
  Ni  Ni208  1  0.27430713  0.45313027  0.19165940  1.0
  Ni  Ni209  1  0.27430713  0.78646360  0.19165940  1.0
  Ni  Ni210  1  0.60764047  0.11979693  0.19165940  1.0
  Ni  Ni211  1  0.60764047  0.45313027  0.19165940  1.0
  Ni  Ni212  1  0.60764047  0.78646360  0.19165940  1.0
  Ni  Ni213  1  0.94097380  0.11979693  0.19165940  1.0
  Ni  Ni214  1  0.94097380  0.45313027  0.19165940  1.0
  Ni  Ni215  1  0.94097380  0.78646360  0.19165940  1.0
  Ni  Ni216  1  0.29907327  0.10278020  0.39721980  1.0
  Ni  Ni217  1  0.29907327  0.43611353  0.39721980  1.0
  Ni  Ni218  1  0.29907327  0.76944687  0.39721980  1.0
  Ni  Ni219  1  0.63240660  0.10278020  0.39721980  1.0
  Ni  Ni220  1  0.63240660  0.43611353  0.39721980  1.0
  Ni  Ni221  1  0.63240660  0.76944687  0.39721980  1.0
  Ni  Ni222  1  0.96573993  0.10278020  0.39721980  1.0
  Ni  Ni223  1  0.96573993  0.43611353  0.39721980  1.0
  Ni  Ni224  1  0.96573993  0.76944687  0.39721980  1.0
  Ni  Ni225  1  0.26573993  0.03611353  0.29721980  1.0
  Ni  Ni226  1  0.26573993  0.36944687  0.29721980  1.0
  Ni  Ni227  1  0.26573993  0.70278020  0.29721980  1.0
  Ni  Ni228  1  0.59907327  0.03611353  0.29721980  1.0
  Ni  Ni229  1  0.59907327  0.36944687  0.29721980  1.0
  Ni  Ni230  1  0.59907327  0.70278020  0.29721980  1.0
  Ni  Ni231  1  0.93240660  0.03611353  0.29721980  1.0
  Ni  Ni232  1  0.93240660  0.36944687  0.29721980  1.0
  Ni  Ni233  1  0.93240660  0.70278020  0.29721980  1.0
  Ni  Ni234  1  0.13240660  0.26944687  0.39721980  1.0
  Ni  Ni235  1  0.13240660  0.60278020  0.39721980  1.0
  Ni  Ni236  1  0.13240660  0.93611353  0.39721980  1.0
  Ni  Ni237  1  0.46573993  0.26944687  0.39721980  1.0
  Ni  Ni238  1  0.46573993  0.60278020  0.39721980  1.0
  Ni  Ni239  1  0.46573993  0.93611353  0.39721980  1.0
  Ni  Ni240  1  0.79907327  0.26944687  0.39721980  1.0
  Ni  Ni241  1  0.79907327  0.60278020  0.39721980  1.0
  Ni  Ni242  1  0.79907327  0.93611353  0.39721980  1.0
  Ni  Ni243  1  0.09907327  0.20278020  0.29721980  1.0
  Ni  Ni244  1  0.09907327  0.53611353  0.29721980  1.0
  Ni  Ni245  1  0.09907327  0.86944687  0.29721980  1.0
  Ni  Ni246  1  0.43240660  0.20278020  0.29721980  1.0
  Ni  Ni247  1  0.43240660  0.53611353  0.29721980  1.0
  Ni  Ni248  1  0.43240660  0.86944687  0.29721980  1.0
  Ni  Ni249  1  0.76573993  0.20278020  0.29721980  1.0
  Ni  Ni250  1  0.76573993  0.53611353  0.29721980  1.0
  Ni  Ni251  1  0.76573993  0.86944687  0.29721980  1.0
  Ni  Ni252  1  0.26224223  0.15925913  0.35154370  1.0
  Ni  Ni253  1  0.26224223  0.49259247  0.35154370  1.0
  Ni  Ni254  1  0.26224223  0.82592580  0.35154370  1.0
  Ni  Ni255  1  0.59557557  0.15925913  0.35154370  1.0
  Ni  Ni256  1  0.59557557  0.49259247  0.35154370  1.0
  Ni  Ni257  1  0.59557557  0.82592580  0.35154370  1.0
  Ni  Ni258  1  0.92890890  0.15925913  0.35154370  1.0
  Ni  Ni259  1  0.92890890  0.49259247  0.35154370  1.0
  Ni  Ni260  1  0.92890890  0.82592580  0.35154370  1.0
  Ni  Ni261  1  0.22890890  0.09259247  0.25154370  1.0
  Ni  Ni262  1  0.22890890  0.42592580  0.25154370  1.0
  Ni  Ni263  1  0.22890890  0.75925913  0.25154370  1.0
  Ni  Ni264  1  0.56224223  0.09259247  0.25154370  1.0
  Ni  Ni265  1  0.56224223  0.42592580  0.25154370  1.0
  Ni  Ni266  1  0.56224223  0.75925913  0.25154370  1.0
  Ni  Ni267  1  0.89557557  0.09259247  0.25154370  1.0
  Ni  Ni268  1  0.89557557  0.42592580  0.25154370  1.0
  Ni  Ni269  1  0.89557557  0.75925913  0.25154370  1.0
  Ni  Ni270  1  0.26923763  0.24630127  0.24289590  1.0
  Ni  Ni271  1  0.26923763  0.57963460  0.24289590  1.0
  Ni  Ni272  1  0.26923763  0.91296793  0.24289590  1.0
  Ni  Ni273  1  0.60257097  0.24630127  0.24289590  1.0
  Ni  Ni274  1  0.60257097  0.57963460  0.24289590  1.0
  Ni  Ni275  1  0.60257097  0.91296793  0.24289590  1.0
  Ni  Ni276  1  0.93590430  0.24630127  0.24289590  1.0
  Ni  Ni277  1  0.93590430  0.57963460  0.24289590  1.0
  Ni  Ni278  1  0.93590430  0.91296793  0.24289590  1.0
  Ni  Ni279  1  0.30257097  0.31296793  0.34289590  1.0
  Ni  Ni280  1  0.30257097  0.64630127  0.34289590  1.0
  Ni  Ni281  1  0.30257097  0.97963460  0.34289590  1.0
  Ni  Ni282  1  0.63590430  0.31296793  0.34289590  1.0
  Ni  Ni283  1  0.63590430  0.64630127  0.34289590  1.0
  Ni  Ni284  1  0.63590430  0.97963460  0.34289590  1.0
  Ni  Ni285  1  0.96923763  0.31296793  0.34289590  1.0
  Ni  Ni286  1  0.96923763  0.64630127  0.34289590  1.0
  Ni  Ni287  1  0.96923763  0.97963460  0.34289590  1.0
  Ni  Ni288  1  0.10129347  0.25012127  0.23907840  1.0
  Ni  Ni289  1  0.10129347  0.58345460  0.23907840  1.0
  Ni  Ni290  1  0.10129347  0.91678793  0.23907840  1.0
  Ni  Ni291  1  0.43462680  0.25012127  0.23907840  1.0
  Ni  Ni292  1  0.43462680  0.58345460  0.23907840  1.0
  Ni  Ni293  1  0.43462680  0.91678793  0.23907840  1.0
  Ni  Ni294  1  0.76796013  0.25012127  0.23907840  1.0
  Ni  Ni295  1  0.76796013  0.58345460  0.23907840  1.0
  Ni  Ni296  1  0.76796013  0.91678793  0.23907840  1.0
  Ni  Ni297  1  0.13462680  0.31678793  0.33907840  1.0
  Ni  Ni298  1  0.13462680  0.65012127  0.33907840  1.0
  Ni  Ni299  1  0.13462680  0.98345460  0.33907840  1.0
  Ni  Ni300  1  0.46796013  0.31678793  0.33907840  1.0
  Ni  Ni301  1  0.46796013  0.65012127  0.33907840  1.0
  Ni  Ni302  1  0.46796013  0.98345460  0.33907840  1.0
  Ni  Ni303  1  0.80129347  0.31678793  0.33907840  1.0
  Ni  Ni304  1  0.80129347  0.65012127  0.33907840  1.0
  Ni  Ni305  1  0.80129347  0.98345460  0.33907840  1.0
  Ni  Ni306  1  0.06351973  0.08877247  0.25536120  1.0
  Ni  Ni307  1  0.06351973  0.42210580  0.25536120  1.0
  Ni  Ni308  1  0.06351973  0.75543913  0.25536120  1.0
  Ni  Ni309  1  0.39685307  0.08877247  0.25536120  1.0
  Ni  Ni310  1  0.39685307  0.42210580  0.25536120  1.0
  Ni  Ni311  1  0.39685307  0.75543913  0.25536120  1.0
  Ni  Ni312  1  0.73018640  0.08877247  0.25536120  1.0
  Ni  Ni313  1  0.73018640  0.42210580  0.25536120  1.0
  Ni  Ni314  1  0.73018640  0.75543913  0.25536120  1.0
  Ni  Ni315  1  0.09685307  0.15543913  0.35536120  1.0
  Ni  Ni316  1  0.09685307  0.48877247  0.35536120  1.0
  Ni  Ni317  1  0.09685307  0.82210580  0.35536120  1.0
  Ni  Ni318  1  0.43018640  0.15543913  0.35536120  1.0
  Ni  Ni319  1  0.43018640  0.48877247  0.35536120  1.0
  Ni  Ni320  1  0.43018640  0.82210580  0.35536120  1.0
  Ni  Ni321  1  0.76351973  0.15543913  0.35536120  1.0
  Ni  Ni322  1  0.76351973  0.48877247  0.35536120  1.0
  Ni  Ni323  1  0.76351973  0.82210580  0.35536120  1.0
  Ni  Ni324  1  0.15105243  0.33287020  0.20992430  1.0
  Ni  Ni325  1  0.15105243  0.66620353  0.20992430  1.0
  Ni  Ni326  1  0.15105243  0.99953687  0.20992430  1.0
  Ni  Ni327  1  0.48438577  0.33287020  0.20992430  1.0
  Ni  Ni328  1  0.48438577  0.66620353  0.20992430  1.0
  Ni  Ni329  1  0.48438577  0.99953687  0.20992430  1.0
  Ni  Ni330  1  0.81771910  0.33287020  0.20992430  1.0
  Ni  Ni331  1  0.81771910  0.66620353  0.20992430  1.0
  Ni  Ni332  1  0.81771910  0.99953687  0.20992430  1.0
  Ni  Ni333  1  0.18438577  0.06620353  0.30992430  1.0
  Ni  Ni334  1  0.18438577  0.39953687  0.30992430  1.0
  Ni  Ni335  1  0.18438577  0.73287020  0.30992430  1.0
  Ni  Ni336  1  0.51771910  0.06620353  0.30992430  1.0
  Ni  Ni337  1  0.51771910  0.39953687  0.30992430  1.0
  Ni  Ni338  1  0.51771910  0.73287020  0.30992430  1.0
  Ni  Ni339  1  0.85105243  0.06620353  0.30992430  1.0
  Ni  Ni340  1  0.85105243  0.39953687  0.30992430  1.0
  Ni  Ni341  1  0.85105243  0.73287020  0.30992430  1.0
  Ni  Ni342  1  0.04709410  0.07269020  0.38451530  1.0
  Ni  Ni343  1  0.04709410  0.40602353  0.38451530  1.0
  Ni  Ni344  1  0.04709410  0.73935687  0.38451530  1.0
  Ni  Ni345  1  0.38042743  0.07269020  0.38451530  1.0
  Ni  Ni346  1  0.38042743  0.40602353  0.38451530  1.0
  Ni  Ni347  1  0.38042743  0.73935687  0.38451530  1.0
  Ni  Ni348  1  0.71376077  0.07269020  0.38451530  1.0
  Ni  Ni349  1  0.71376077  0.40602353  0.38451530  1.0
  Ni  Ni350  1  0.71376077  0.73935687  0.38451530  1.0
  Ni  Ni351  1  0.01376077  0.00602353  0.28451530  1.0
  Ni  Ni352  1  0.01376077  0.33935687  0.28451530  1.0
  Ni  Ni353  1  0.01376077  0.67269020  0.28451530  1.0
  Ni  Ni354  1  0.34709410  0.00602353  0.28451530  1.0
  Ni  Ni355  1  0.34709410  0.33935687  0.28451530  1.0
  Ni  Ni356  1  0.34709410  0.67269020  0.28451530  1.0
  Ni  Ni357  1  0.68042743  0.00602353  0.28451530  1.0
  Ni  Ni358  1  0.68042743  0.33935687  0.28451530  1.0
  Ni  Ni359  1  0.68042743  0.67269020  0.28451530  1.0
  Ni  Ni360  1  0.32592120  0.14019307  0.23621560  1.0
  Ni  Ni361  1  0.32592120  0.47352640  0.23621560  1.0
  Ni  Ni362  1  0.32592120  0.80685973  0.23621560  1.0
  Ni  Ni363  1  0.65925453  0.14019307  0.23621560  1.0
  Ni  Ni364  1  0.65925453  0.47352640  0.23621560  1.0
  Ni  Ni365  1  0.65925453  0.80685973  0.23621560  1.0
  Ni  Ni366  1  0.99258787  0.14019307  0.23621560  1.0
  Ni  Ni367  1  0.99258787  0.47352640  0.23621560  1.0
  Ni  Ni368  1  0.99258787  0.80685973  0.23621560  1.0
  Ni  Ni369  1  0.02592120  0.20685973  0.33621560  1.0
  Ni  Ni370  1  0.02592120  0.54019307  0.33621560  1.0
  Ni  Ni371  1  0.02592120  0.87352640  0.33621560  1.0
  Ni  Ni372  1  0.35925453  0.20685973  0.33621560  1.0
  Ni  Ni373  1  0.35925453  0.54019307  0.33621560  1.0
  Ni  Ni374  1  0.35925453  0.87352640  0.33621560  1.0
  Ni  Ni375  1  0.69258787  0.20685973  0.33621560  1.0
  Ni  Ni376  1  0.69258787  0.54019307  0.33621560  1.0
  Ni  Ni377  1  0.69258787  0.87352640  0.33621560  1.0
  Ni  Ni378  1  0.17222533  0.19870067  0.25822400  1.0
  Ni  Ni379  1  0.17222533  0.53203400  0.25822400  1.0
  Ni  Ni380  1  0.17222533  0.86536733  0.25822400  1.0
  Ni  Ni381  1  0.50555867  0.19870067  0.25822400  1.0
  Ni  Ni382  1  0.50555867  0.53203400  0.25822400  1.0
  Ni  Ni383  1  0.50555867  0.86536733  0.25822400  1.0
  Ni  Ni384  1  0.83889200  0.19870067  0.25822400  1.0
  Ni  Ni385  1  0.83889200  0.53203400  0.25822400  1.0
  Ni  Ni386  1  0.83889200  0.86536733  0.25822400  1.0
  Ni  Ni387  1  0.20555867  0.26536733  0.35822400  1.0
  Ni  Ni388  1  0.20555867  0.59870067  0.35822400  1.0
  Ni  Ni389  1  0.20555867  0.93203400  0.35822400  1.0
  Ni  Ni390  1  0.53889200  0.26536733  0.35822400  1.0
  Ni  Ni391  1  0.53889200  0.59870067  0.35822400  1.0
  Ni  Ni392  1  0.53889200  0.93203400  0.35822400  1.0
  Ni  Ni393  1  0.87222533  0.26536733  0.35822400  1.0
  Ni  Ni394  1  0.87222533  0.59870067  0.35822400  1.0
  Ni  Ni395  1  0.87222533  0.93203400  0.35822400  1.0
  Ni  Ni396  1  0.22383940  0.21909680  0.30278020  1.0
  Ni  Ni397  1  0.22383940  0.55243013  0.30278020  1.0
  Ni  Ni398  1  0.22383940  0.88576347  0.30278020  1.0
  Ni  Ni399  1  0.55717273  0.21909680  0.30278020  1.0
  Ni  Ni400  1  0.55717273  0.55243013  0.30278020  1.0
  Ni  Ni401  1  0.55717273  0.88576347  0.30278020  1.0
  Ni  Ni402  1  0.89050607  0.21909680  0.30278020  1.0
  Ni  Ni403  1  0.89050607  0.55243013  0.30278020  1.0
  Ni  Ni404  1  0.89050607  0.88576347  0.30278020  1.0
  Ni  Ni405  1  0.19050607  0.15243013  0.20278020  1.0
  Ni  Ni406  1  0.19050607  0.48576347  0.20278020  1.0
  Ni  Ni407  1  0.19050607  0.81909680  0.20278020  1.0
  Ni  Ni408  1  0.52383940  0.15243013  0.20278020  1.0
  Ni  Ni409  1  0.52383940  0.48576347  0.20278020  1.0
  Ni  Ni410  1  0.52383940  0.81909680  0.20278020  1.0
  Ni  Ni411  1  0.85717273  0.15243013  0.20278020  1.0
  Ni  Ni412  1  0.85717273  0.48576347  0.20278020  1.0
  Ni  Ni413  1  0.85717273  0.81909680  0.20278020  1.0
  Ni  Ni414  1  0.30764047  0.18646360  0.29165940  1.0
  Ni  Ni415  1  0.30764047  0.51979693  0.29165940  1.0
  Ni  Ni416  1  0.30764047  0.85313027  0.29165940  1.0
  Ni  Ni417  1  0.64097380  0.18646360  0.29165940  1.0
  Ni  Ni418  1  0.64097380  0.51979693  0.29165940  1.0
  Ni  Ni419  1  0.64097380  0.85313027  0.29165940  1.0
  Ni  Ni420  1  0.97430713  0.18646360  0.29165940  1.0
  Ni  Ni421  1  0.97430713  0.51979693  0.29165940  1.0
  Ni  Ni422  1  0.97430713  0.85313027  0.29165940  1.0
  Ni  Ni423  1  0.00764047  0.25313027  0.39165940  1.0
  Ni  Ni424  1  0.00764047  0.58646360  0.39165940  1.0
  Ni  Ni425  1  0.00764047  0.91979693  0.39165940  1.0
  Ni  Ni426  1  0.34097380  0.25313027  0.39165940  1.0
  Ni  Ni427  1  0.34097380  0.58646360  0.39165940  1.0
  Ni  Ni428  1  0.34097380  0.91979693  0.39165940  1.0
  Ni  Ni429  1  0.67430713  0.25313027  0.39165940  1.0
  Ni  Ni430  1  0.67430713  0.58646360  0.39165940  1.0
  Ni  Ni431  1  0.67430713  0.91979693  0.39165940  1.0
  V  V432  1  0.13256370  0.16153773  0.07749610  1.0
  V  V433  1  0.13256370  0.49487107  0.07749610  1.0
  V  V434  1  0.13256370  0.82820440  0.07749610  1.0
  V  V435  1  0.46589703  0.16153773  0.07749610  1.0
  V  V436  1  0.46589703  0.49487107  0.07749610  1.0
  V  V437  1  0.46589703  0.82820440  0.07749610  1.0
  V  V438  1  0.79923037  0.16153773  0.07749610  1.0
  V  V439  1  0.79923037  0.49487107  0.07749610  1.0
  V  V440  1  0.79923037  0.82820440  0.07749610  1.0
  V  V441  1  0.16589703  0.22820440  0.17749610  1.0
  V  V442  1  0.16589703  0.56153773  0.17749610  1.0
  V  V443  1  0.16589703  0.89487107  0.17749610  1.0
  V  V444  1  0.49923037  0.22820440  0.17749610  1.0
  V  V445  1  0.49923037  0.56153773  0.17749610  1.0
  V  V446  1  0.49923037  0.89487107  0.17749610  1.0
  V  V447  1  0.83256370  0.22820440  0.17749610  1.0
  V  V448  1  0.83256370  0.56153773  0.17749610  1.0
  V  V449  1  0.83256370  0.89487107  0.17749610  1.0
  V  V450  1  0.28254270  0.01127573  0.16782310  1.0
  V  V451  1  0.28254270  0.34460907  0.16782310  1.0
  V  V452  1  0.28254270  0.67794240  0.16782310  1.0
  V  V453  1  0.61587603  0.01127573  0.16782310  1.0
  V  V454  1  0.61587603  0.34460907  0.16782310  1.0
  V  V455  1  0.61587603  0.67794240  0.16782310  1.0
  V  V456  1  0.94920937  0.01127573  0.16782310  1.0
  V  V457  1  0.94920937  0.34460907  0.16782310  1.0
  V  V458  1  0.94920937  0.67794240  0.16782310  1.0
  V  V459  1  0.24920937  0.27794240  0.06782310  1.0
  V  V460  1  0.24920937  0.61127573  0.06782310  1.0
  V  V461  1  0.24920937  0.94460907  0.06782310  1.0
  V  V462  1  0.58254270  0.27794240  0.06782310  1.0
  V  V463  1  0.58254270  0.61127573  0.06782310  1.0
  V  V464  1  0.58254270  0.94460907  0.06782310  1.0
  V  V465  1  0.91587603  0.27794240  0.06782310  1.0
  V  V466  1  0.91587603  0.61127573  0.06782310  1.0
  V  V467  1  0.91587603  0.94460907  0.06782310  1.0
  V  V468  1  0.10750997  0.03866193  0.13999690  1.0
  V  V469  1  0.10750997  0.37199527  0.13999690  1.0
  V  V470  1  0.10750997  0.70532860  0.13999690  1.0
  V  V471  1  0.44084330  0.03866193  0.13999690  1.0
  V  V472  1  0.44084330  0.37199527  0.13999690  1.0
  V  V473  1  0.44084330  0.70532860  0.13999690  1.0
  V  V474  1  0.77417663  0.03866193  0.13999690  1.0
  V  V475  1  0.77417663  0.37199527  0.13999690  1.0
  V  V476  1  0.77417663  0.70532860  0.13999690  1.0
  V  V477  1  0.07417663  0.30532860  0.03999690  1.0
  V  V478  1  0.07417663  0.63866193  0.03999690  1.0
  V  V479  1  0.07417663  0.97199527  0.03999690  1.0
  V  V480  1  0.40750997  0.30532860  0.03999690  1.0
  V  V481  1  0.40750997  0.63866193  0.03999690  1.0
  V  V482  1  0.40750997  0.97199527  0.03999690  1.0
  V  V483  1  0.74084330  0.30532860  0.03999690  1.0
  V  V484  1  0.74084330  0.63866193  0.03999690  1.0
  V  V485  1  0.74084330  0.97199527  0.03999690  1.0
  V  V486  1  0.27426897  0.06749660  0.00533990  1.0
  V  V487  1  0.27426897  0.40082993  0.00533990  1.0
  V  V488  1  0.27426897  0.73416327  0.00533990  1.0
  V  V489  1  0.60760230  0.06749660  0.00533990  1.0
  V  V490  1  0.60760230  0.40082993  0.00533990  1.0
  V  V491  1  0.60760230  0.73416327  0.00533990  1.0
  V  V492  1  0.94093563  0.06749660  0.00533990  1.0
  V  V493  1  0.94093563  0.40082993  0.00533990  1.0
  V  V494  1  0.94093563  0.73416327  0.00533990  1.0
  V  V495  1  0.30760230  0.13416327  0.10533990  1.0
  V  V496  1  0.30760230  0.46749660  0.10533990  1.0
  V  V497  1  0.30760230  0.80082993  0.10533990  1.0
  V  V498  1  0.64093563  0.13416327  0.10533990  1.0
  V  V499  1  0.64093563  0.46749660  0.10533990  1.0
  V  V500  1  0.64093563  0.80082993  0.10533990  1.0
  V  V501  1  0.97426897  0.13416327  0.10533990  1.0
  V  V502  1  0.97426897  0.46749660  0.10533990  1.0
  V  V503  1  0.97426897  0.80082993  0.10533990  1.0
  V  V504  1  0.26558283  0.31068933  0.11694350  1.0
  V  V505  1  0.26558283  0.64402267  0.11694350  1.0
  V  V506  1  0.26558283  0.97735600  0.11694350  1.0
  V  V507  1  0.59891617  0.31068933  0.11694350  1.0
  V  V508  1  0.59891617  0.64402267  0.11694350  1.0
  V  V509  1  0.59891617  0.97735600  0.11694350  1.0
  V  V510  1  0.93224950  0.31068933  0.11694350  1.0
  V  V511  1  0.93224950  0.64402267  0.11694350  1.0
  V  V512  1  0.93224950  0.97735600  0.11694350  1.0
  V  V513  1  0.23224950  0.24402267  0.01694350  1.0
  V  V514  1  0.23224950  0.57735600  0.01694350  1.0
  V  V515  1  0.23224950  0.91068933  0.01694350  1.0
  V  V516  1  0.56558283  0.24402267  0.01694350  1.0
  V  V517  1  0.56558283  0.57735600  0.01694350  1.0
  V  V518  1  0.56558283  0.91068933  0.01694350  1.0
  V  V519  1  0.89891617  0.24402267  0.01694350  1.0
  V  V520  1  0.89891617  0.57735600  0.01694350  1.0
  V  V521  1  0.89891617  0.91068933  0.01694350  1.0
  V  V522  1  0.11560383  0.12761800  0.02661650  1.0
  V  V523  1  0.11560383  0.46095133  0.02661650  1.0
  V  V524  1  0.11560383  0.79428467  0.02661650  1.0
  V  V525  1  0.44893717  0.12761800  0.02661650  1.0
  V  V526  1  0.44893717  0.46095133  0.02661650  1.0
  V  V527  1  0.44893717  0.79428467  0.02661650  1.0
  V  V528  1  0.78227050  0.12761800  0.02661650  1.0
  V  V529  1  0.78227050  0.46095133  0.02661650  1.0
  V  V530  1  0.78227050  0.79428467  0.02661650  1.0
  V  V531  1  0.14893717  0.19428467  0.12661650  1.0
  V  V532  1  0.14893717  0.52761800  0.12661650  1.0
  V  V533  1  0.14893717  0.86095133  0.12661650  1.0
  V  V534  1  0.48227050  0.19428467  0.12661650  1.0
  V  V535  1  0.48227050  0.52761800  0.12661650  1.0
  V  V536  1  0.48227050  0.86095133  0.12661650  1.0
  V  V537  1  0.81560383  0.19428467  0.12661650  1.0
  V  V538  1  0.81560383  0.52761800  0.12661650  1.0
  V  V539  1  0.81560383  0.86095133  0.12661650  1.0
  V  V540  1  0.29063657  0.10023180  0.05444270  1.0
  V  V541  1  0.29063657  0.43356513  0.05444270  1.0
  V  V542  1  0.29063657  0.76689847  0.05444270  1.0
  V  V543  1  0.62396990  0.10023180  0.05444270  1.0
  V  V544  1  0.62396990  0.43356513  0.05444270  1.0
  V  V545  1  0.62396990  0.76689847  0.05444270  1.0
  V  V546  1  0.95730323  0.10023180  0.05444270  1.0
  V  V547  1  0.95730323  0.43356513  0.05444270  1.0
  V  V548  1  0.95730323  0.76689847  0.05444270  1.0
  V  V549  1  0.32396990  0.16689847  0.15444270  1.0
  V  V550  1  0.32396990  0.50023180  0.15444270  1.0
  V  V551  1  0.32396990  0.83356513  0.15444270  1.0
  V  V552  1  0.65730323  0.16689847  0.15444270  1.0
  V  V553  1  0.65730323  0.50023180  0.15444270  1.0
  V  V554  1  0.65730323  0.83356513  0.15444270  1.0
  V  V555  1  0.99063657  0.16689847  0.15444270  1.0
  V  V556  1  0.99063657  0.50023180  0.15444270  1.0
  V  V557  1  0.99063657  0.83356513  0.15444270  1.0
  V  V558  1  0.12387757  0.07139713  0.18909970  1.0
  V  V559  1  0.12387757  0.40473047  0.18909970  1.0
  V  V560  1  0.12387757  0.73806380  0.18909970  1.0
  V  V561  1  0.45721090  0.07139713  0.18909970  1.0
  V  V562  1  0.45721090  0.40473047  0.18909970  1.0
  V  V563  1  0.45721090  0.73806380  0.18909970  1.0
  V  V564  1  0.79054423  0.07139713  0.18909970  1.0
  V  V565  1  0.79054423  0.40473047  0.18909970  1.0
  V  V566  1  0.79054423  0.73806380  0.18909970  1.0
  V  V567  1  0.09054423  0.00473047  0.08909970  1.0
  V  V568  1  0.09054423  0.33806380  0.08909970  1.0
  V  V569  1  0.09054423  0.67139713  0.08909970  1.0
  V  V570  1  0.42387757  0.00473047  0.08909970  1.0
  V  V571  1  0.42387757  0.33806380  0.08909970  1.0
  V  V572  1  0.42387757  0.67139713  0.08909970  1.0
  V  V573  1  0.75721090  0.00473047  0.08909970  1.0
  V  V574  1  0.75721090  0.33806380  0.08909970  1.0
  V  V575  1  0.75721090  0.67139713  0.08909970  1.0
  V  V576  1  0.07301473  0.11706747  0.11571020  1.0
  V  V577  1  0.07301473  0.45040080  0.11571020  1.0
  V  V578  1  0.07301473  0.78373413  0.11571020  1.0
  V  V579  1  0.40634807  0.11706747  0.11571020  1.0
  V  V580  1  0.40634807  0.45040080  0.11571020  1.0
  V  V581  1  0.40634807  0.78373413  0.11571020  1.0
  V  V582  1  0.73968140  0.11706747  0.11571020  1.0
  V  V583  1  0.73968140  0.45040080  0.11571020  1.0
  V  V584  1  0.73968140  0.78373413  0.11571020  1.0
  V  V585  1  0.03968140  0.05040080  0.01571020  1.0
  V  V586  1  0.03968140  0.38373413  0.01571020  1.0
  V  V587  1  0.03968140  0.71706747  0.01571020  1.0
  V  V588  1  0.37301473  0.05040080  0.01571020  1.0
  V  V589  1  0.37301473  0.38373413  0.01571020  1.0
  V  V590  1  0.37301473  0.71706747  0.01571020  1.0
  V  V591  1  0.70634807  0.05040080  0.01571020  1.0
  V  V592  1  0.70634807  0.38373413  0.01571020  1.0
  V  V593  1  0.70634807  0.71706747  0.01571020  1.0
  V  V594  1  0.32513180  0.02182627  0.07872940  1.0
  V  V595  1  0.32513180  0.35515960  0.07872940  1.0
  V  V596  1  0.32513180  0.68849293  0.07872940  1.0
  V  V597  1  0.65846513  0.02182627  0.07872940  1.0
  V  V598  1  0.65846513  0.35515960  0.07872940  1.0
  V  V599  1  0.65846513  0.68849293  0.07872940  1.0
  V  V600  1  0.99179847  0.02182627  0.07872940  1.0
  V  V601  1  0.99179847  0.35515960  0.07872940  1.0
  V  V602  1  0.99179847  0.68849293  0.07872940  1.0
  V  V603  1  0.02513180  0.08849293  0.17872940  1.0
  V  V604  1  0.02513180  0.42182627  0.17872940  1.0
  V  V605  1  0.02513180  0.75515960  0.17872940  1.0
  V  V606  1  0.35846513  0.08849293  0.17872940  1.0
  V  V607  1  0.35846513  0.42182627  0.17872940  1.0
  V  V608  1  0.35846513  0.75515960  0.17872940  1.0
  V  V609  1  0.69179847  0.08849293  0.17872940  1.0
  V  V610  1  0.69179847  0.42182627  0.17872940  1.0
  V  V611  1  0.69179847  0.75515960  0.17872940  1.0
  V  V612  1  0.17640167  0.29857667  0.13586700  1.0
  V  V613  1  0.17640167  0.63191000  0.13586700  1.0
  V  V614  1  0.17640167  0.96524333  0.13586700  1.0
  V  V615  1  0.50973500  0.29857667  0.13586700  1.0
  V  V616  1  0.50973500  0.63191000  0.13586700  1.0
  V  V617  1  0.50973500  0.96524333  0.13586700  1.0
  V  V618  1  0.84306833  0.29857667  0.13586700  1.0
  V  V619  1  0.84306833  0.63191000  0.13586700  1.0
  V  V620  1  0.84306833  0.96524333  0.13586700  1.0
  V  V621  1  0.14306833  0.23191000  0.03586700  1.0
  V  V622  1  0.14306833  0.56524333  0.03586700  1.0
  V  V623  1  0.14306833  0.89857667  0.03586700  1.0
  V  V624  1  0.47640167  0.23191000  0.03586700  1.0
  V  V625  1  0.47640167  0.56524333  0.03586700  1.0
  V  V626  1  0.47640167  0.89857667  0.03586700  1.0
  V  V627  1  0.80973500  0.23191000  0.03586700  1.0
  V  V628  1  0.80973500  0.56524333  0.03586700  1.0
  V  V629  1  0.80973500  0.89857667  0.03586700  1.0
  V  V630  1  0.25507820  0.24031707  0.15857260  1.0
  V  V631  1  0.25507820  0.57365040  0.15857260  1.0
  V  V632  1  0.25507820  0.90698373  0.15857260  1.0
  V  V633  1  0.58841153  0.24031707  0.15857260  1.0
  V  V634  1  0.58841153  0.57365040  0.15857260  1.0
  V  V635  1  0.58841153  0.90698373  0.15857260  1.0
  V  V636  1  0.92174487  0.24031707  0.15857260  1.0
  V  V637  1  0.92174487  0.57365040  0.15857260  1.0
  V  V638  1  0.92174487  0.90698373  0.15857260  1.0
  V  V639  1  0.22174487  0.17365040  0.05857260  1.0
  V  V640  1  0.22174487  0.50698373  0.05857260  1.0
  V  V641  1  0.22174487  0.84031707  0.05857260  1.0
  V  V642  1  0.55507820  0.17365040  0.05857260  1.0
  V  V643  1  0.55507820  0.50698373  0.05857260  1.0
  V  V644  1  0.55507820  0.84031707  0.05857260  1.0
  V  V645  1  0.88841153  0.17365040  0.05857260  1.0
  V  V646  1  0.88841153  0.50698373  0.05857260  1.0
  V  V647  1  0.88841153  0.84031707  0.05857260  1.0
  V  V648  1  0.10099773  0.30138513  0.17773920  1.0
  V  V649  1  0.10099773  0.63471847  0.17773920  1.0
  V  V650  1  0.10099773  0.96805180  0.17773920  1.0
  V  V651  1  0.43433107  0.30138513  0.17773920  1.0
  V  V652  1  0.43433107  0.63471847  0.17773920  1.0
  V  V653  1  0.43433107  0.96805180  0.17773920  1.0
  V  V654  1  0.76766440  0.30138513  0.17773920  1.0
  V  V655  1  0.76766440  0.63471847  0.17773920  1.0
  V  V656  1  0.76766440  0.96805180  0.17773920  1.0
  V  V657  1  0.06766440  0.23471847  0.07773920  1.0
  V  V658  1  0.06766440  0.56805180  0.07773920  1.0
  V  V659  1  0.06766440  0.90138513  0.07773920  1.0
  V  V660  1  0.40099773  0.23471847  0.07773920  1.0
  V  V661  1  0.40099773  0.56805180  0.07773920  1.0
  V  V662  1  0.40099773  0.90138513  0.07773920  1.0
  V  V663  1  0.73433107  0.23471847  0.07773920  1.0
  V  V664  1  0.73433107  0.56805180  0.07773920  1.0
  V  V665  1  0.73433107  0.90138513  0.07773920  1.0
  V  V666  1  0.33048213  0.23750860  0.11670040  1.0
  V  V667  1  0.33048213  0.57084193  0.11670040  1.0
  V  V668  1  0.33048213  0.90417527  0.11670040  1.0
  V  V669  1  0.66381547  0.23750860  0.11670040  1.0
  V  V670  1  0.66381547  0.57084193  0.11670040  1.0
  V  V671  1  0.66381547  0.90417527  0.11670040  1.0
  V  V672  1  0.99714880  0.23750860  0.11670040  1.0
  V  V673  1  0.99714880  0.57084193  0.11670040  1.0
  V  V674  1  0.99714880  0.90417527  0.11670040  1.0
  V  V675  1  0.29714880  0.17084193  0.01670040  1.0
  V  V676  1  0.29714880  0.50417527  0.01670040  1.0
  V  V677  1  0.29714880  0.83750860  0.01670040  1.0
  V  V678  1  0.63048213  0.17084193  0.01670040  1.0
  V  V679  1  0.63048213  0.50417527  0.01670040  1.0
  V  V680  1  0.63048213  0.83750860  0.01670040  1.0
  V  V681  1  0.96381547  0.17084193  0.01670040  1.0
  V  V682  1  0.96381547  0.50417527  0.01670040  1.0
  V  V683  1  0.96381547  0.83750860  0.01670040  1.0
  V  V684  1  0.02993890  0.29709913  0.12551770  1.0
  V  V685  1  0.02993890  0.63043247  0.12551770  1.0
  V  V686  1  0.02993890  0.96376580  0.12551770  1.0
  V  V687  1  0.36327223  0.29709913  0.12551770  1.0
  V  V688  1  0.36327223  0.63043247  0.12551770  1.0
  V  V689  1  0.36327223  0.96376580  0.12551770  1.0
  V  V690  1  0.69660557  0.29709913  0.12551770  1.0
  V  V691  1  0.69660557  0.63043247  0.12551770  1.0
  V  V692  1  0.69660557  0.96376580  0.12551770  1.0
  V  V693  1  0.32993890  0.23043247  0.02551770  1.0
  V  V694  1  0.32993890  0.56376580  0.02551770  1.0
  V  V695  1  0.32993890  0.89709913  0.02551770  1.0
  V  V696  1  0.66327223  0.23043247  0.02551770  1.0
  V  V697  1  0.66327223  0.56376580  0.02551770  1.0
  V  V698  1  0.66327223  0.89709913  0.02551770  1.0
  V  V699  1  0.99660557  0.23043247  0.02551770  1.0
  V  V700  1  0.99660557  0.56376580  0.02551770  1.0
  V  V701  1  0.99660557  0.89709913  0.02551770  1.0
  V  V702  1  0.03487430  0.17512793  0.06892190  1.0
  V  V703  1  0.03487430  0.50846127  0.06892190  1.0
  V  V704  1  0.03487430  0.84179460  0.06892190  1.0
  V  V705  1  0.36820763  0.17512793  0.06892190  1.0
  V  V706  1  0.36820763  0.50846127  0.06892190  1.0
  V  V707  1  0.36820763  0.84179460  0.06892190  1.0
  V  V708  1  0.70154097  0.17512793  0.06892190  1.0
  V  V709  1  0.70154097  0.50846127  0.06892190  1.0
  V  V710  1  0.70154097  0.84179460  0.06892190  1.0
  V  V711  1  0.06820763  0.24179460  0.16892190  1.0
  V  V712  1  0.06820763  0.57512793  0.16892190  1.0
  V  V713  1  0.06820763  0.90846127  0.16892190  1.0
  V  V714  1  0.40154097  0.24179460  0.16892190  1.0
  V  V715  1  0.40154097  0.57512793  0.16892190  1.0
  V  V716  1  0.40154097  0.90846127  0.16892190  1.0
  V  V717  1  0.73487430  0.24179460  0.16892190  1.0
  V  V718  1  0.73487430  0.57512793  0.16892190  1.0
  V  V719  1  0.73487430  0.90846127  0.16892190  1.0
  V  V720  1  0.18027517  0.01399867  0.07503650  1.0
  V  V721  1  0.18027517  0.34733200  0.07503650  1.0
  V  V722  1  0.18027517  0.68066533  0.07503650  1.0
  V  V723  1  0.51360850  0.01399867  0.07503650  1.0
  V  V724  1  0.51360850  0.34733200  0.07503650  1.0
  V  V725  1  0.51360850  0.68066533  0.07503650  1.0
  V  V726  1  0.84694183  0.01399867  0.07503650  1.0
  V  V727  1  0.84694183  0.34733200  0.07503650  1.0
  V  V728  1  0.84694183  0.68066533  0.07503650  1.0
  V  V729  1  0.21360850  0.08066533  0.17503650  1.0
  V  V730  1  0.21360850  0.41399867  0.17503650  1.0
  V  V731  1  0.21360850  0.74733200  0.17503650  1.0
  V  V732  1  0.54694183  0.08066533  0.17503650  1.0
  V  V733  1  0.54694183  0.41399867  0.17503650  1.0
  V  V734  1  0.54694183  0.74733200  0.17503650  1.0
  V  V735  1  0.88027517  0.08066533  0.17503650  1.0
  V  V736  1  0.88027517  0.41399867  0.17503650  1.0
  V  V737  1  0.88027517  0.74733200  0.17503650  1.0
  V  V738  1  0.18453803  0.05822840  0.01940310  1.0
  V  V739  1  0.18453803  0.39156173  0.01940310  1.0
  V  V740  1  0.18453803  0.72489507  0.01940310  1.0
  V  V741  1  0.51787137  0.05822840  0.01940310  1.0
  V  V742  1  0.51787137  0.39156173  0.01940310  1.0
  V  V743  1  0.51787137  0.72489507  0.01940310  1.0
  V  V744  1  0.85120470  0.05822840  0.01940310  1.0
  V  V745  1  0.85120470  0.39156173  0.01940310  1.0
  V  V746  1  0.85120470  0.72489507  0.01940310  1.0
  V  V747  1  0.21787137  0.12489507  0.11940310  1.0
  V  V748  1  0.21787137  0.45822840  0.11940310  1.0
  V  V749  1  0.21787137  0.79156173  0.11940310  1.0
  V  V750  1  0.55120470  0.12489507  0.11940310  1.0
  V  V751  1  0.55120470  0.45822840  0.11940310  1.0
  V  V752  1  0.55120470  0.79156173  0.11940310  1.0
  V  V753  1  0.88453803  0.12489507  0.11940310  1.0
  V  V754  1  0.88453803  0.45822840  0.11940310  1.0
  V  V755  1  0.88453803  0.79156173  0.11940310  1.0
  V  V756  1  0.19923037  0.29487107  0.27749610  1.0
  V  V757  1  0.19923037  0.62820440  0.27749610  1.0
  V  V758  1  0.19923037  0.96153773  0.27749610  1.0
  V  V759  1  0.53256370  0.29487107  0.27749610  1.0
  V  V760  1  0.53256370  0.62820440  0.27749610  1.0
  V  V761  1  0.53256370  0.96153773  0.27749610  1.0
  V  V762  1  0.86589703  0.29487107  0.27749610  1.0
  V  V763  1  0.86589703  0.62820440  0.27749610  1.0
  V  V764  1  0.86589703  0.96153773  0.27749610  1.0
  V  V765  1  0.23256370  0.02820440  0.37749610  1.0
  V  V766  1  0.23256370  0.36153773  0.37749610  1.0
  V  V767  1  0.23256370  0.69487107  0.37749610  1.0
  V  V768  1  0.56589703  0.02820440  0.37749610  1.0
  V  V769  1  0.56589703  0.36153773  0.37749610  1.0
  V  V770  1  0.56589703  0.69487107  0.37749610  1.0
  V  V771  1  0.89923037  0.02820440  0.37749610  1.0
  V  V772  1  0.89923037  0.36153773  0.37749610  1.0
  V  V773  1  0.89923037  0.69487107  0.37749610  1.0
  V  V774  1  0.01587603  0.14460907  0.36782310  1.0
  V  V775  1  0.01587603  0.47794240  0.36782310  1.0
  V  V776  1  0.01587603  0.81127573  0.36782310  1.0
  V  V777  1  0.34920937  0.14460907  0.36782310  1.0
  V  V778  1  0.34920937  0.47794240  0.36782310  1.0
  V  V779  1  0.34920937  0.81127573  0.36782310  1.0
  V  V780  1  0.68254270  0.14460907  0.36782310  1.0
  V  V781  1  0.68254270  0.47794240  0.36782310  1.0
  V  V782  1  0.68254270  0.81127573  0.36782310  1.0
  V  V783  1  0.31587603  0.07794240  0.26782310  1.0
  V  V784  1  0.31587603  0.41127573  0.26782310  1.0
  V  V785  1  0.31587603  0.74460907  0.26782310  1.0
  V  V786  1  0.64920937  0.07794240  0.26782310  1.0
  V  V787  1  0.64920937  0.41127573  0.26782310  1.0
  V  V788  1  0.64920937  0.74460907  0.26782310  1.0
  V  V789  1  0.98254270  0.07794240  0.26782310  1.0
  V  V790  1  0.98254270  0.41127573  0.26782310  1.0
  V  V791  1  0.98254270  0.74460907  0.26782310  1.0
  V  V792  1  0.17417663  0.17199527  0.33999690  1.0
  V  V793  1  0.17417663  0.50532860  0.33999690  1.0
  V  V794  1  0.17417663  0.83866193  0.33999690  1.0
  V  V795  1  0.50750997  0.17199527  0.33999690  1.0
  V  V796  1  0.50750997  0.50532860  0.33999690  1.0
  V  V797  1  0.50750997  0.83866193  0.33999690  1.0
  V  V798  1  0.84084330  0.17199527  0.33999690  1.0
  V  V799  1  0.84084330  0.50532860  0.33999690  1.0
  V  V800  1  0.84084330  0.83866193  0.33999690  1.0
  V  V801  1  0.14084330  0.10532860  0.23999690  1.0
  V  V802  1  0.14084330  0.43866193  0.23999690  1.0
  V  V803  1  0.14084330  0.77199527  0.23999690  1.0
  V  V804  1  0.47417663  0.10532860  0.23999690  1.0
  V  V805  1  0.47417663  0.43866193  0.23999690  1.0
  V  V806  1  0.47417663  0.77199527  0.23999690  1.0
  V  V807  1  0.80750997  0.10532860  0.23999690  1.0
  V  V808  1  0.80750997  0.43866193  0.23999690  1.0
  V  V809  1  0.80750997  0.77199527  0.23999690  1.0
  V  V810  1  0.00760230  0.20082993  0.20533990  1.0
  V  V811  1  0.00760230  0.53416327  0.20533990  1.0
  V  V812  1  0.00760230  0.86749660  0.20533990  1.0
  V  V813  1  0.34093563  0.20082993  0.20533990  1.0
  V  V814  1  0.34093563  0.53416327  0.20533990  1.0
  V  V815  1  0.34093563  0.86749660  0.20533990  1.0
  V  V816  1  0.67426897  0.20082993  0.20533990  1.0
  V  V817  1  0.67426897  0.53416327  0.20533990  1.0
  V  V818  1  0.67426897  0.86749660  0.20533990  1.0
  V  V819  1  0.04093563  0.26749660  0.30533990  1.0
  V  V820  1  0.04093563  0.60082993  0.30533990  1.0
  V  V821  1  0.04093563  0.93416327  0.30533990  1.0
  V  V822  1  0.37426897  0.26749660  0.30533990  1.0
  V  V823  1  0.37426897  0.60082993  0.30533990  1.0
  V  V824  1  0.37426897  0.93416327  0.30533990  1.0
  V  V825  1  0.70760230  0.26749660  0.30533990  1.0
  V  V826  1  0.70760230  0.60082993  0.30533990  1.0
  V  V827  1  0.70760230  0.93416327  0.30533990  1.0
  V  V828  1  0.33224950  0.11068933  0.31694350  1.0
  V  V829  1  0.33224950  0.44402267  0.31694350  1.0
  V  V830  1  0.33224950  0.77735600  0.31694350  1.0
  V  V831  1  0.66558283  0.11068933  0.31694350  1.0
  V  V832  1  0.66558283  0.44402267  0.31694350  1.0
  V  V833  1  0.66558283  0.77735600  0.31694350  1.0
  V  V834  1  0.99891617  0.11068933  0.31694350  1.0
  V  V835  1  0.99891617  0.44402267  0.31694350  1.0
  V  V836  1  0.99891617  0.77735600  0.31694350  1.0
  V  V837  1  0.29891617  0.04402267  0.21694350  1.0
  V  V838  1  0.29891617  0.37735600  0.21694350  1.0
  V  V839  1  0.29891617  0.71068933  0.21694350  1.0
  V  V840  1  0.63224950  0.04402267  0.21694350  1.0
  V  V841  1  0.63224950  0.37735600  0.21694350  1.0
  V  V842  1  0.63224950  0.71068933  0.21694350  1.0
  V  V843  1  0.96558283  0.04402267  0.21694350  1.0
  V  V844  1  0.96558283  0.37735600  0.21694350  1.0
  V  V845  1  0.96558283  0.71068933  0.21694350  1.0
  V  V846  1  0.18227050  0.26095133  0.22661650  1.0
  V  V847  1  0.18227050  0.59428467  0.22661650  1.0
  V  V848  1  0.18227050  0.92761800  0.22661650  1.0
  V  V849  1  0.51560383  0.26095133  0.22661650  1.0
  V  V850  1  0.51560383  0.59428467  0.22661650  1.0
  V  V851  1  0.51560383  0.92761800  0.22661650  1.0
  V  V852  1  0.84893717  0.26095133  0.22661650  1.0
  V  V853  1  0.84893717  0.59428467  0.22661650  1.0
  V  V854  1  0.84893717  0.92761800  0.22661650  1.0
  V  V855  1  0.21560383  0.32761800  0.32661650  1.0
  V  V856  1  0.21560383  0.66095133  0.32661650  1.0
  V  V857  1  0.21560383  0.99428467  0.32661650  1.0
  V  V858  1  0.54893717  0.32761800  0.32661650  1.0
  V  V859  1  0.54893717  0.66095133  0.32661650  1.0
  V  V860  1  0.54893717  0.99428467  0.32661650  1.0
  V  V861  1  0.88227050  0.32761800  0.32661650  1.0
  V  V862  1  0.88227050  0.66095133  0.32661650  1.0
  V  V863  1  0.88227050  0.99428467  0.32661650  1.0
  V  V864  1  0.02396990  0.23356513  0.25444270  1.0
  V  V865  1  0.02396990  0.56689847  0.25444270  1.0
  V  V866  1  0.02396990  0.90023180  0.25444270  1.0
  V  V867  1  0.35730323  0.23356513  0.25444270  1.0
  V  V868  1  0.35730323  0.56689847  0.25444270  1.0
  V  V869  1  0.35730323  0.90023180  0.25444270  1.0
  V  V870  1  0.69063657  0.23356513  0.25444270  1.0
  V  V871  1  0.69063657  0.56689847  0.25444270  1.0
  V  V872  1  0.69063657  0.90023180  0.25444270  1.0
  V  V873  1  0.05730323  0.30023180  0.35444270  1.0
  V  V874  1  0.05730323  0.63356513  0.35444270  1.0
  V  V875  1  0.05730323  0.96689847  0.35444270  1.0
  V  V876  1  0.39063657  0.30023180  0.35444270  1.0
  V  V877  1  0.39063657  0.63356513  0.35444270  1.0
  V  V878  1  0.39063657  0.96689847  0.35444270  1.0
  V  V879  1  0.72396990  0.30023180  0.35444270  1.0
  V  V880  1  0.72396990  0.63356513  0.35444270  1.0
  V  V881  1  0.72396990  0.96689847  0.35444270  1.0
  V  V882  1  0.19054423  0.20473047  0.38909970  1.0
  V  V883  1  0.19054423  0.53806380  0.38909970  1.0
  V  V884  1  0.19054423  0.87139713  0.38909970  1.0
  V  V885  1  0.52387757  0.20473047  0.38909970  1.0
  V  V886  1  0.52387757  0.53806380  0.38909970  1.0
  V  V887  1  0.52387757  0.87139713  0.38909970  1.0
  V  V888  1  0.85721090  0.20473047  0.38909970  1.0
  V  V889  1  0.85721090  0.53806380  0.38909970  1.0
  V  V890  1  0.85721090  0.87139713  0.38909970  1.0
  V  V891  1  0.15721090  0.13806380  0.28909970  1.0
  V  V892  1  0.15721090  0.47139713  0.28909970  1.0
  V  V893  1  0.15721090  0.80473047  0.28909970  1.0
  V  V894  1  0.49054423  0.13806380  0.28909970  1.0
  V  V895  1  0.49054423  0.47139713  0.28909970  1.0
  V  V896  1  0.49054423  0.80473047  0.28909970  1.0
  V  V897  1  0.82387757  0.13806380  0.28909970  1.0
  V  V898  1  0.82387757  0.47139713  0.28909970  1.0
  V  V899  1  0.82387757  0.80473047  0.28909970  1.0
  V  V900  1  0.13968140  0.25040080  0.31571020  1.0
  V  V901  1  0.13968140  0.58373413  0.31571020  1.0
  V  V902  1  0.13968140  0.91706747  0.31571020  1.0
  V  V903  1  0.47301473  0.25040080  0.31571020  1.0
  V  V904  1  0.47301473  0.58373413  0.31571020  1.0
  V  V905  1  0.47301473  0.91706747  0.31571020  1.0
  V  V906  1  0.80634807  0.25040080  0.31571020  1.0
  V  V907  1  0.80634807  0.58373413  0.31571020  1.0
  V  V908  1  0.80634807  0.91706747  0.31571020  1.0
  V  V909  1  0.10634807  0.18373413  0.21571020  1.0
  V  V910  1  0.10634807  0.51706747  0.21571020  1.0
  V  V911  1  0.10634807  0.85040080  0.21571020  1.0
  V  V912  1  0.43968140  0.18373413  0.21571020  1.0
  V  V913  1  0.43968140  0.51706747  0.21571020  1.0
  V  V914  1  0.43968140  0.85040080  0.21571020  1.0
  V  V915  1  0.77301473  0.18373413  0.21571020  1.0
  V  V916  1  0.77301473  0.51706747  0.21571020  1.0
  V  V917  1  0.77301473  0.85040080  0.21571020  1.0
  V  V918  1  0.05846513  0.15515960  0.27872940  1.0
  V  V919  1  0.05846513  0.48849293  0.27872940  1.0
  V  V920  1  0.05846513  0.82182627  0.27872940  1.0
  V  V921  1  0.39179847  0.15515960  0.27872940  1.0
  V  V922  1  0.39179847  0.48849293  0.27872940  1.0
  V  V923  1  0.39179847  0.82182627  0.27872940  1.0
  V  V924  1  0.72513180  0.15515960  0.27872940  1.0
  V  V925  1  0.72513180  0.48849293  0.27872940  1.0
  V  V926  1  0.72513180  0.82182627  0.27872940  1.0
  V  V927  1  0.09179847  0.22182627  0.37872940  1.0
  V  V928  1  0.09179847  0.55515960  0.37872940  1.0
  V  V929  1  0.09179847  0.88849293  0.37872940  1.0
  V  V930  1  0.42513180  0.22182627  0.37872940  1.0
  V  V931  1  0.42513180  0.55515960  0.37872940  1.0
  V  V932  1  0.42513180  0.88849293  0.37872940  1.0
  V  V933  1  0.75846513  0.22182627  0.37872940  1.0
  V  V934  1  0.75846513  0.55515960  0.37872940  1.0
  V  V935  1  0.75846513  0.88849293  0.37872940  1.0
  V  V936  1  0.24306833  0.09857667  0.33586700  1.0
  V  V937  1  0.24306833  0.43191000  0.33586700  1.0
  V  V938  1  0.24306833  0.76524333  0.33586700  1.0
  V  V939  1  0.57640167  0.09857667  0.33586700  1.0
  V  V940  1  0.57640167  0.43191000  0.33586700  1.0
  V  V941  1  0.57640167  0.76524333  0.33586700  1.0
  V  V942  1  0.90973500  0.09857667  0.33586700  1.0
  V  V943  1  0.90973500  0.43191000  0.33586700  1.0
  V  V944  1  0.90973500  0.76524333  0.33586700  1.0
  V  V945  1  0.20973500  0.03191000  0.23586700  1.0
  V  V946  1  0.20973500  0.36524333  0.23586700  1.0
  V  V947  1  0.20973500  0.69857667  0.23586700  1.0
  V  V948  1  0.54306833  0.03191000  0.23586700  1.0
  V  V949  1  0.54306833  0.36524333  0.23586700  1.0
  V  V950  1  0.54306833  0.69857667  0.23586700  1.0
  V  V951  1  0.87640167  0.03191000  0.23586700  1.0
  V  V952  1  0.87640167  0.36524333  0.23586700  1.0
  V  V953  1  0.87640167  0.69857667  0.23586700  1.0
  V  V954  1  0.32174487  0.04031707  0.35857260  1.0
  V  V955  1  0.32174487  0.37365040  0.35857260  1.0
  V  V956  1  0.32174487  0.70698373  0.35857260  1.0
  V  V957  1  0.65507820  0.04031707  0.35857260  1.0
  V  V958  1  0.65507820  0.37365040  0.35857260  1.0
  V  V959  1  0.65507820  0.70698373  0.35857260  1.0
  V  V960  1  0.98841153  0.04031707  0.35857260  1.0
  V  V961  1  0.98841153  0.37365040  0.35857260  1.0
  V  V962  1  0.98841153  0.70698373  0.35857260  1.0
  V  V963  1  0.28841153  0.30698373  0.25857260  1.0
  V  V964  1  0.28841153  0.64031707  0.25857260  1.0
  V  V965  1  0.28841153  0.97365040  0.25857260  1.0
  V  V966  1  0.62174487  0.30698373  0.25857260  1.0
  V  V967  1  0.62174487  0.64031707  0.25857260  1.0
  V  V968  1  0.62174487  0.97365040  0.25857260  1.0
  V  V969  1  0.95507820  0.30698373  0.25857260  1.0
  V  V970  1  0.95507820  0.64031707  0.25857260  1.0
  V  V971  1  0.95507820  0.97365040  0.25857260  1.0
  V  V972  1  0.16766440  0.10138513  0.37773920  1.0
  V  V973  1  0.16766440  0.43471847  0.37773920  1.0
  V  V974  1  0.16766440  0.76805180  0.37773920  1.0
  V  V975  1  0.50099773  0.10138513  0.37773920  1.0
  V  V976  1  0.50099773  0.43471847  0.37773920  1.0
  V  V977  1  0.50099773  0.76805180  0.37773920  1.0
  V  V978  1  0.83433107  0.10138513  0.37773920  1.0
  V  V979  1  0.83433107  0.43471847  0.37773920  1.0
  V  V980  1  0.83433107  0.76805180  0.37773920  1.0
  V  V981  1  0.13433107  0.03471847  0.27773920  1.0
  V  V982  1  0.13433107  0.36805180  0.27773920  1.0
  V  V983  1  0.13433107  0.70138513  0.27773920  1.0
  V  V984  1  0.46766440  0.03471847  0.27773920  1.0
  V  V985  1  0.46766440  0.36805180  0.27773920  1.0
  V  V986  1  0.46766440  0.70138513  0.27773920  1.0
  V  V987  1  0.80099773  0.03471847  0.27773920  1.0
  V  V988  1  0.80099773  0.36805180  0.27773920  1.0
  V  V989  1  0.80099773  0.70138513  0.27773920  1.0
  V  V990  1  0.06381547  0.03750860  0.31670040  1.0
  V  V991  1  0.06381547  0.37084193  0.31670040  1.0
  V  V992  1  0.06381547  0.70417527  0.31670040  1.0
  V  V993  1  0.39714880  0.03750860  0.31670040  1.0
  V  V994  1  0.39714880  0.37084193  0.31670040  1.0
  V  V995  1  0.39714880  0.70417527  0.31670040  1.0
  V  V996  1  0.73048213  0.03750860  0.31670040  1.0
  V  V997  1  0.73048213  0.37084193  0.31670040  1.0
  V  V998  1  0.73048213  0.70417527  0.31670040  1.0
  V  V999  1  0.03048213  0.30417527  0.21670040  1.0
  V  V1000  1  0.03048213  0.63750860  0.21670040  1.0
  V  V1001  1  0.03048213  0.97084193  0.21670040  1.0
  V  V1002  1  0.36381547  0.30417527  0.21670040  1.0
  V  V1003  1  0.36381547  0.63750860  0.21670040  1.0
  V  V1004  1  0.36381547  0.97084193  0.21670040  1.0
  V  V1005  1  0.69714880  0.30417527  0.21670040  1.0
  V  V1006  1  0.69714880  0.63750860  0.21670040  1.0
  V  V1007  1  0.69714880  0.97084193  0.21670040  1.0
  V  V1008  1  0.09660557  0.09709913  0.32551770  1.0
  V  V1009  1  0.09660557  0.43043247  0.32551770  1.0
  V  V1010  1  0.09660557  0.76376580  0.32551770  1.0
  V  V1011  1  0.42993890  0.09709913  0.32551770  1.0
  V  V1012  1  0.42993890  0.43043247  0.32551770  1.0
  V  V1013  1  0.42993890  0.76376580  0.32551770  1.0
  V  V1014  1  0.76327223  0.09709913  0.32551770  1.0
  V  V1015  1  0.76327223  0.43043247  0.32551770  1.0
  V  V1016  1  0.76327223  0.76376580  0.32551770  1.0
  V  V1017  1  0.06327223  0.03043247  0.22551770  1.0
  V  V1018  1  0.06327223  0.36376580  0.22551770  1.0
  V  V1019  1  0.06327223  0.69709913  0.22551770  1.0
  V  V1020  1  0.39660557  0.03043247  0.22551770  1.0
  V  V1021  1  0.39660557  0.36376580  0.22551770  1.0
  V  V1022  1  0.39660557  0.69709913  0.22551770  1.0
  V  V1023  1  0.72993890  0.03043247  0.22551770  1.0
  V  V1024  1  0.72993890  0.36376580  0.22551770  1.0
  V  V1025  1  0.72993890  0.69709913  0.22551770  1.0
  V  V1026  1  0.10154097  0.30846127  0.26892190  1.0
  V  V1027  1  0.10154097  0.64179460  0.26892190  1.0
  V  V1028  1  0.10154097  0.97512793  0.26892190  1.0
  V  V1029  1  0.43487430  0.30846127  0.26892190  1.0
  V  V1030  1  0.43487430  0.64179460  0.26892190  1.0
  V  V1031  1  0.43487430  0.97512793  0.26892190  1.0
  V  V1032  1  0.76820763  0.30846127  0.26892190  1.0
  V  V1033  1  0.76820763  0.64179460  0.26892190  1.0
  V  V1034  1  0.76820763  0.97512793  0.26892190  1.0
  V  V1035  1  0.13487430  0.04179460  0.36892190  1.0
  V  V1036  1  0.13487430  0.37512793  0.36892190  1.0
  V  V1037  1  0.13487430  0.70846127  0.36892190  1.0
  V  V1038  1  0.46820763  0.04179460  0.36892190  1.0
  V  V1039  1  0.46820763  0.37512793  0.36892190  1.0
  V  V1040  1  0.46820763  0.70846127  0.36892190  1.0
  V  V1041  1  0.80154097  0.04179460  0.36892190  1.0
  V  V1042  1  0.80154097  0.37512793  0.36892190  1.0
  V  V1043  1  0.80154097  0.70846127  0.36892190  1.0
  V  V1044  1  0.24694183  0.14733200  0.27503650  1.0
  V  V1045  1  0.24694183  0.48066533  0.27503650  1.0
  V  V1046  1  0.24694183  0.81399867  0.27503650  1.0
  V  V1047  1  0.58027517  0.14733200  0.27503650  1.0
  V  V1048  1  0.58027517  0.48066533  0.27503650  1.0
  V  V1049  1  0.58027517  0.81399867  0.27503650  1.0
  V  V1050  1  0.91360850  0.14733200  0.27503650  1.0
  V  V1051  1  0.91360850  0.48066533  0.27503650  1.0
  V  V1052  1  0.91360850  0.81399867  0.27503650  1.0
  V  V1053  1  0.28027517  0.21399867  0.37503650  1.0
  V  V1054  1  0.28027517  0.54733200  0.37503650  1.0
  V  V1055  1  0.28027517  0.88066533  0.37503650  1.0
  V  V1056  1  0.61360850  0.21399867  0.37503650  1.0
  V  V1057  1  0.61360850  0.54733200  0.37503650  1.0
  V  V1058  1  0.61360850  0.88066533  0.37503650  1.0
  V  V1059  1  0.94694183  0.21399867  0.37503650  1.0
  V  V1060  1  0.94694183  0.54733200  0.37503650  1.0
  V  V1061  1  0.94694183  0.88066533  0.37503650  1.0
  V  V1062  1  0.25120470  0.19156173  0.21940310  1.0
  V  V1063  1  0.25120470  0.52489507  0.21940310  1.0
  V  V1064  1  0.25120470  0.85822840  0.21940310  1.0
  V  V1065  1  0.58453803  0.19156173  0.21940310  1.0
  V  V1066  1  0.58453803  0.52489507  0.21940310  1.0
  V  V1067  1  0.58453803  0.85822840  0.21940310  1.0
  V  V1068  1  0.91787137  0.19156173  0.21940310  1.0
  V  V1069  1  0.91787137  0.52489507  0.21940310  1.0
  V  V1070  1  0.91787137  0.85822840  0.21940310  1.0
  V  V1071  1  0.28453803  0.25822840  0.31940310  1.0
  V  V1072  1  0.28453803  0.59156173  0.31940310  1.0
  V  V1073  1  0.28453803  0.92489507  0.31940310  1.0
  V  V1074  1  0.61787137  0.25822840  0.31940310  1.0
  V  V1075  1  0.61787137  0.59156173  0.31940310  1.0
  V  V1076  1  0.61787137  0.92489507  0.31940310  1.0
  V  V1077  1  0.95120470  0.25822840  0.31940310  1.0
  V  V1078  1  0.95120470  0.59156173  0.31940310  1.0
  V  V1079  1  0.95120470  0.92489507  0.31940310  1.0
