# generated using pymatgen
data_V3Ni2
_symmetry_space_group_name_H-M   'P 1'
_cell_length_a   13.83877800
_cell_length_b   60.57639990
_cell_length_c   35.57483600
_cell_angle_alpha   116.65820211
_cell_angle_beta   90.00000000
_cell_angle_gamma   90.00000000
_symmetry_Int_Tables_number   1
_chemical_formula_structural   V3Ni2
_chemical_formula_sum   'V648 Ni432'
_cell_volume   26652.34020661
_cell_formula_units_Z   216
loop_
 _symmetry_equiv_pos_site_id
 _symmetry_equiv_pos_as_xyz
  1  'x, y, z'
loop_
 _atom_site_type_symbol
 _atom_site_label
 _atom_site_symmetry_multiplicity
 _atom_site_fract_x
 _atom_site_fract_y
 _atom_site_fract_z
 _atom_site_occupancy
  V  V0  1  0.25146600  0.11330083  0.00334319  1.0
  V  V1  1  0.25146600  0.44663417  0.00334319  1.0
  V  V2  1  0.25146600  0.77996750  0.00334319  1.0
  V  V3  1  0.58479933  0.11330083  0.00334319  1.0
  V  V4  1  0.58479933  0.44663417  0.00334319  1.0
  V  V5  1  0.58479933  0.77996750  0.00334319  1.0
  V  V6  1  0.91813267  0.11330083  0.00334319  1.0
  V  V7  1  0.91813267  0.44663417  0.00334319  1.0
  V  V8  1  0.91813267  0.77996750  0.00334319  1.0
  V  V9  1  0.25146600  0.27996750  0.12834319  1.0
  V  V10  1  0.25146600  0.61330083  0.12834319  1.0
  V  V11  1  0.25146600  0.94663417  0.12834319  1.0
  V  V12  1  0.58479933  0.27996750  0.12834319  1.0
  V  V13  1  0.58479933  0.61330083  0.12834319  1.0
  V  V14  1  0.58479933  0.94663417  0.12834319  1.0
  V  V15  1  0.91813267  0.27996750  0.12834319  1.0
  V  V16  1  0.91813267  0.61330083  0.12834319  1.0
  V  V17  1  0.91813267  0.94663417  0.12834319  1.0
  V  V18  1  0.25146600  0.05336583  0.11625194  1.0
  V  V19  1  0.25146600  0.38669917  0.11625194  1.0
  V  V20  1  0.25146600  0.72003250  0.11625194  1.0
  V  V21  1  0.58479933  0.05336583  0.11625194  1.0
  V  V22  1  0.58479933  0.38669917  0.11625194  1.0
  V  V23  1  0.58479933  0.72003250  0.11625194  1.0
  V  V24  1  0.91813267  0.05336583  0.11625194  1.0
  V  V25  1  0.91813267  0.38669917  0.11625194  1.0
  V  V26  1  0.91813267  0.72003250  0.11625194  1.0
  V  V27  1  0.25146600  0.22003250  0.24125194  1.0
  V  V28  1  0.25146600  0.55336583  0.24125194  1.0
  V  V29  1  0.25146600  0.88669917  0.24125194  1.0
  V  V30  1  0.58479933  0.22003250  0.24125194  1.0
  V  V31  1  0.58479933  0.55336583  0.24125194  1.0
  V  V32  1  0.58479933  0.88669917  0.24125194  1.0
  V  V33  1  0.91813267  0.22003250  0.24125194  1.0
  V  V34  1  0.91813267  0.55336583  0.24125194  1.0
  V  V35  1  0.91813267  0.88669917  0.24125194  1.0
  V  V36  1  0.08482867  0.13624450  0.14395819  1.0
  V  V37  1  0.08482867  0.46957783  0.14395819  1.0
  V  V38  1  0.08482867  0.80291117  0.14395819  1.0
  V  V39  1  0.41816200  0.13624450  0.14395819  1.0
  V  V40  1  0.41816200  0.46957783  0.14395819  1.0
  V  V41  1  0.41816200  0.80291117  0.14395819  1.0
  V  V42  1  0.75149533  0.13624450  0.14395819  1.0
  V  V43  1  0.75149533  0.46957783  0.14395819  1.0
  V  V44  1  0.75149533  0.80291117  0.14395819  1.0
  V  V45  1  0.08482867  0.30291117  0.01895819  1.0
  V  V46  1  0.08482867  0.63624450  0.01895819  1.0
  V  V47  1  0.08482867  0.96957783  0.01895819  1.0
  V  V48  1  0.41816200  0.30291117  0.01895819  1.0
  V  V49  1  0.41816200  0.63624450  0.01895819  1.0
  V  V50  1  0.41816200  0.96957783  0.01895819  1.0
  V  V51  1  0.75149533  0.30291117  0.01895819  1.0
  V  V52  1  0.75149533  0.63624450  0.01895819  1.0
  V  V53  1  0.75149533  0.96957783  0.01895819  1.0
  V  V54  1  0.08482867  0.03042217  0.22563694  1.0
  V  V55  1  0.08482867  0.36375550  0.22563694  1.0
  V  V56  1  0.08482867  0.69708883  0.22563694  1.0
  V  V57  1  0.41816200  0.03042217  0.22563694  1.0
  V  V58  1  0.41816200  0.36375550  0.22563694  1.0
  V  V59  1  0.41816200  0.69708883  0.22563694  1.0
  V  V60  1  0.75149533  0.03042217  0.22563694  1.0
  V  V61  1  0.75149533  0.36375550  0.22563694  1.0
  V  V62  1  0.75149533  0.69708883  0.22563694  1.0
  V  V63  1  0.08482867  0.19708883  0.10063694  1.0
  V  V64  1  0.08482867  0.53042217  0.10063694  1.0
  V  V65  1  0.08482867  0.86375550  0.10063694  1.0
  V  V66  1  0.41816200  0.19708883  0.10063694  1.0
  V  V67  1  0.41816200  0.53042217  0.10063694  1.0
  V  V68  1  0.41816200  0.86375550  0.10063694  1.0
  V  V69  1  0.75149533  0.19708883  0.10063694  1.0
  V  V70  1  0.75149533  0.53042217  0.10063694  1.0
  V  V71  1  0.75149533  0.86375550  0.10063694  1.0
  V  V72  1  0.08186733  0.05336583  0.11625194  1.0
  V  V73  1  0.08186733  0.38669917  0.11625194  1.0
  V  V74  1  0.08186733  0.72003250  0.11625194  1.0
  V  V75  1  0.41520067  0.05336583  0.11625194  1.0
  V  V76  1  0.41520067  0.38669917  0.11625194  1.0
  V  V77  1  0.41520067  0.72003250  0.11625194  1.0
  V  V78  1  0.74853400  0.05336583  0.11625194  1.0
  V  V79  1  0.74853400  0.38669917  0.11625194  1.0
  V  V80  1  0.74853400  0.72003250  0.11625194  1.0
  V  V81  1  0.08186733  0.22003250  0.24125194  1.0
  V  V82  1  0.08186733  0.55336583  0.24125194  1.0
  V  V83  1  0.08186733  0.88669917  0.24125194  1.0
  V  V84  1  0.41520067  0.22003250  0.24125194  1.0
  V  V85  1  0.41520067  0.55336583  0.24125194  1.0
  V  V86  1  0.41520067  0.88669917  0.24125194  1.0
  V  V87  1  0.74853400  0.22003250  0.24125194  1.0
  V  V88  1  0.74853400  0.55336583  0.24125194  1.0
  V  V89  1  0.74853400  0.88669917  0.24125194  1.0
  V  V90  1  0.08186733  0.11330083  0.00334319  1.0
  V  V91  1  0.08186733  0.44663417  0.00334319  1.0
  V  V92  1  0.08186733  0.77996750  0.00334319  1.0
  V  V93  1  0.41520067  0.11330083  0.00334319  1.0
  V  V94  1  0.41520067  0.44663417  0.00334319  1.0
  V  V95  1  0.41520067  0.77996750  0.00334319  1.0
  V  V96  1  0.74853400  0.11330083  0.00334319  1.0
  V  V97  1  0.74853400  0.44663417  0.00334319  1.0
  V  V98  1  0.74853400  0.77996750  0.00334319  1.0
  V  V99  1  0.08186733  0.27996750  0.12834319  1.0
  V  V100  1  0.08186733  0.61330083  0.12834319  1.0
  V  V101  1  0.08186733  0.94663417  0.12834319  1.0
  V  V102  1  0.41520067  0.27996750  0.12834319  1.0
  V  V103  1  0.41520067  0.61330083  0.12834319  1.0
  V  V104  1  0.41520067  0.94663417  0.12834319  1.0
  V  V105  1  0.74853400  0.27996750  0.12834319  1.0
  V  V106  1  0.74853400  0.61330083  0.12834319  1.0
  V  V107  1  0.74853400  0.94663417  0.12834319  1.0
  V  V108  1  0.24850467  0.03042217  0.22563694  1.0
  V  V109  1  0.24850467  0.36375550  0.22563694  1.0
  V  V110  1  0.24850467  0.69708883  0.22563694  1.0
  V  V111  1  0.58183800  0.03042217  0.22563694  1.0
  V  V112  1  0.58183800  0.36375550  0.22563694  1.0
  V  V113  1  0.58183800  0.69708883  0.22563694  1.0
  V  V114  1  0.91517133  0.03042217  0.22563694  1.0
  V  V115  1  0.91517133  0.36375550  0.22563694  1.0
  V  V116  1  0.91517133  0.69708883  0.22563694  1.0
  V  V117  1  0.24850467  0.19708883  0.10063694  1.0
  V  V118  1  0.24850467  0.53042217  0.10063694  1.0
  V  V119  1  0.24850467  0.86375550  0.10063694  1.0
  V  V120  1  0.58183800  0.19708883  0.10063694  1.0
  V  V121  1  0.58183800  0.53042217  0.10063694  1.0
  V  V122  1  0.58183800  0.86375550  0.10063694  1.0
  V  V123  1  0.91517133  0.19708883  0.10063694  1.0
  V  V124  1  0.91517133  0.53042217  0.10063694  1.0
  V  V125  1  0.91517133  0.86375550  0.10063694  1.0
  V  V126  1  0.24850467  0.13624450  0.14395819  1.0
  V  V127  1  0.24850467  0.46957783  0.14395819  1.0
  V  V128  1  0.24850467  0.80291117  0.14395819  1.0
  V  V129  1  0.58183800  0.13624450  0.14395819  1.0
  V  V130  1  0.58183800  0.46957783  0.14395819  1.0
  V  V131  1  0.58183800  0.80291117  0.14395819  1.0
  V  V132  1  0.91517133  0.13624450  0.14395819  1.0
  V  V133  1  0.91517133  0.46957783  0.14395819  1.0
  V  V134  1  0.91517133  0.80291117  0.14395819  1.0
  V  V135  1  0.24850467  0.30291117  0.01895819  1.0
  V  V136  1  0.24850467  0.63624450  0.01895819  1.0
  V  V137  1  0.24850467  0.96957783  0.01895819  1.0
  V  V138  1  0.58183800  0.30291117  0.01895819  1.0
  V  V139  1  0.58183800  0.63624450  0.01895819  1.0
  V  V140  1  0.58183800  0.96957783  0.01895819  1.0
  V  V141  1  0.91517133  0.30291117  0.01895819  1.0
  V  V142  1  0.91517133  0.63624450  0.01895819  1.0
  V  V143  1  0.91517133  0.96957783  0.01895819  1.0
  V  V144  1  0.16666667  0.14944433  0.08291056  1.0
  V  V145  1  0.16666667  0.48277767  0.08291056  1.0
  V  V146  1  0.16666667  0.81611100  0.08291056  1.0
  V  V147  1  0.50000000  0.14944433  0.08291056  1.0
  V  V148  1  0.50000000  0.48277767  0.08291056  1.0
  V  V149  1  0.50000000  0.81611100  0.08291056  1.0
  V  V150  1  0.83333333  0.14944433  0.08291056  1.0
  V  V151  1  0.83333333  0.48277767  0.08291056  1.0
  V  V152  1  0.83333333  0.81611100  0.08291056  1.0
  V  V153  1  0.16666667  0.31611100  0.20791056  1.0
  V  V154  1  0.16666667  0.64944433  0.20791056  1.0
  V  V155  1  0.16666667  0.98277767  0.20791056  1.0
  V  V156  1  0.50000000  0.31611100  0.20791056  1.0
  V  V157  1  0.50000000  0.64944433  0.20791056  1.0
  V  V158  1  0.50000000  0.98277767  0.20791056  1.0
  V  V159  1  0.83333333  0.31611100  0.20791056  1.0
  V  V160  1  0.83333333  0.64944433  0.20791056  1.0
  V  V161  1  0.83333333  0.98277767  0.20791056  1.0
  V  V162  1  0.16666667  0.01722233  0.03668456  1.0
  V  V163  1  0.16666667  0.35055567  0.03668456  1.0
  V  V164  1  0.16666667  0.68388900  0.03668456  1.0
  V  V165  1  0.50000000  0.01722233  0.03668456  1.0
  V  V166  1  0.50000000  0.35055567  0.03668456  1.0
  V  V167  1  0.50000000  0.68388900  0.03668456  1.0
  V  V168  1  0.83333333  0.01722233  0.03668456  1.0
  V  V169  1  0.83333333  0.35055567  0.03668456  1.0
  V  V170  1  0.83333333  0.68388900  0.03668456  1.0
  V  V171  1  0.16666667  0.18388900  0.16168456  1.0
  V  V172  1  0.16666667  0.51722233  0.16168456  1.0
  V  V173  1  0.16666667  0.85055567  0.16168456  1.0
  V  V174  1  0.50000000  0.18388900  0.16168456  1.0
  V  V175  1  0.50000000  0.51722233  0.16168456  1.0
  V  V176  1  0.50000000  0.85055567  0.16168456  1.0
  V  V177  1  0.83333333  0.18388900  0.16168456  1.0
  V  V178  1  0.83333333  0.51722233  0.16168456  1.0
  V  V179  1  0.83333333  0.85055567  0.16168456  1.0
  V  V180  1  0.00000000  0.10111033  0.17060656  1.0
  V  V181  1  0.00000000  0.43444367  0.17060656  1.0
  V  V182  1  0.00000000  0.76777700  0.17060656  1.0
  V  V183  1  0.33333333  0.10111033  0.17060656  1.0
  V  V184  1  0.33333333  0.43444367  0.17060656  1.0
  V  V185  1  0.33333333  0.76777700  0.17060656  1.0
  V  V186  1  0.66666667  0.10111033  0.17060656  1.0
  V  V187  1  0.66666667  0.43444367  0.17060656  1.0
  V  V188  1  0.66666667  0.76777700  0.17060656  1.0
  V  V189  1  0.00000000  0.26777700  0.04560656  1.0
  V  V190  1  0.00000000  0.60111033  0.04560656  1.0
  V  V191  1  0.00000000  0.93444367  0.04560656  1.0
  V  V192  1  0.33333333  0.26777700  0.04560656  1.0
  V  V193  1  0.33333333  0.60111033  0.04560656  1.0
  V  V194  1  0.33333333  0.93444367  0.04560656  1.0
  V  V195  1  0.66666667  0.26777700  0.04560656  1.0
  V  V196  1  0.66666667  0.60111033  0.04560656  1.0
  V  V197  1  0.66666667  0.93444367  0.04560656  1.0
  V  V198  1  0.00000000  0.06555633  0.19898856  1.0
  V  V199  1  0.00000000  0.39888967  0.19898856  1.0
  V  V200  1  0.00000000  0.73222300  0.19898856  1.0
  V  V201  1  0.33333333  0.06555633  0.19898856  1.0
  V  V202  1  0.33333333  0.39888967  0.19898856  1.0
  V  V203  1  0.33333333  0.73222300  0.19898856  1.0
  V  V204  1  0.66666667  0.06555633  0.19898856  1.0
  V  V205  1  0.66666667  0.39888967  0.19898856  1.0
  V  V206  1  0.66666667  0.73222300  0.19898856  1.0
  V  V207  1  0.00000000  0.23222300  0.07398856  1.0
  V  V208  1  0.00000000  0.56555633  0.07398856  1.0
  V  V209  1  0.00000000  0.89888967  0.07398856  1.0
  V  V210  1  0.33333333  0.23222300  0.07398856  1.0
  V  V211  1  0.33333333  0.56555633  0.07398856  1.0
  V  V212  1  0.33333333  0.89888967  0.07398856  1.0
  V  V213  1  0.66666667  0.23222300  0.07398856  1.0
  V  V214  1  0.66666667  0.56555633  0.07398856  1.0
  V  V215  1  0.66666667  0.89888967  0.07398856  1.0
  V  V216  1  0.00000000  0.14579100  0.22294681  1.0
  V  V217  1  0.00000000  0.47912433  0.22294681  1.0
  V  V218  1  0.00000000  0.81245767  0.22294681  1.0
  V  V219  1  0.33333333  0.14579100  0.22294681  1.0
  V  V220  1  0.33333333  0.47912433  0.22294681  1.0
  V  V221  1  0.33333333  0.81245767  0.22294681  1.0
  V  V222  1  0.66666667  0.14579100  0.22294681  1.0
  V  V223  1  0.66666667  0.47912433  0.22294681  1.0
  V  V224  1  0.66666667  0.81245767  0.22294681  1.0
  V  V225  1  0.00000000  0.31245767  0.09794681  1.0
  V  V226  1  0.00000000  0.64579100  0.09794681  1.0
  V  V227  1  0.00000000  0.97912433  0.09794681  1.0
  V  V228  1  0.33333333  0.31245767  0.09794681  1.0
  V  V229  1  0.33333333  0.64579100  0.09794681  1.0
  V  V230  1  0.33333333  0.97912433  0.09794681  1.0
  V  V231  1  0.66666667  0.31245767  0.09794681  1.0
  V  V232  1  0.66666667  0.64579100  0.09794681  1.0
  V  V233  1  0.66666667  0.97912433  0.09794681  1.0
  V  V234  1  0.00000000  0.02087567  0.14664831  1.0
  V  V235  1  0.00000000  0.35420900  0.14664831  1.0
  V  V236  1  0.00000000  0.68754233  0.14664831  1.0
  V  V237  1  0.33333333  0.02087567  0.14664831  1.0
  V  V238  1  0.33333333  0.35420900  0.14664831  1.0
  V  V239  1  0.33333333  0.68754233  0.14664831  1.0
  V  V240  1  0.66666667  0.02087567  0.14664831  1.0
  V  V241  1  0.66666667  0.35420900  0.14664831  1.0
  V  V242  1  0.66666667  0.68754233  0.14664831  1.0
  V  V243  1  0.00000000  0.18754233  0.02164831  1.0
  V  V244  1  0.00000000  0.52087567  0.02164831  1.0
  V  V245  1  0.00000000  0.85420900  0.02164831  1.0
  V  V246  1  0.33333333  0.18754233  0.02164831  1.0
  V  V247  1  0.33333333  0.52087567  0.02164831  1.0
  V  V248  1  0.33333333  0.85420900  0.02164831  1.0
  V  V249  1  0.66666667  0.18754233  0.02164831  1.0
  V  V250  1  0.66666667  0.52087567  0.02164831  1.0
  V  V251  1  0.66666667  0.85420900  0.02164831  1.0
  V  V252  1  0.16666667  0.00595017  0.09516994  1.0
  V  V253  1  0.16666667  0.33928350  0.09516994  1.0
  V  V254  1  0.16666667  0.67261683  0.09516994  1.0
  V  V255  1  0.50000000  0.00595017  0.09516994  1.0
  V  V256  1  0.50000000  0.33928350  0.09516994  1.0
  V  V257  1  0.50000000  0.67261683  0.09516994  1.0
  V  V258  1  0.83333333  0.00595017  0.09516994  1.0
  V  V259  1  0.83333333  0.33928350  0.09516994  1.0
  V  V260  1  0.83333333  0.67261683  0.09516994  1.0
  V  V261  1  0.16666667  0.17261683  0.22016994  1.0
  V  V262  1  0.16666667  0.50595017  0.22016994  1.0
  V  V263  1  0.16666667  0.83928350  0.22016994  1.0
  V  V264  1  0.50000000  0.17261683  0.22016994  1.0
  V  V265  1  0.50000000  0.50595017  0.22016994  1.0
  V  V266  1  0.50000000  0.83928350  0.22016994  1.0
  V  V267  1  0.83333333  0.17261683  0.22016994  1.0
  V  V268  1  0.83333333  0.50595017  0.22016994  1.0
  V  V269  1  0.83333333  0.83928350  0.22016994  1.0
  V  V270  1  0.16666667  0.16071650  0.02442519  1.0
  V  V271  1  0.16666667  0.49404983  0.02442519  1.0
  V  V272  1  0.16666667  0.82738317  0.02442519  1.0
  V  V273  1  0.50000000  0.16071650  0.02442519  1.0
  V  V274  1  0.50000000  0.49404983  0.02442519  1.0
  V  V275  1  0.50000000  0.82738317  0.02442519  1.0
  V  V276  1  0.83333333  0.16071650  0.02442519  1.0
  V  V277  1  0.83333333  0.49404983  0.02442519  1.0
  V  V278  1  0.83333333  0.82738317  0.02442519  1.0
  V  V279  1  0.16666667  0.32738317  0.14942519  1.0
  V  V280  1  0.16666667  0.66071650  0.14942519  1.0
  V  V281  1  0.16666667  0.99404983  0.14942519  1.0
  V  V282  1  0.50000000  0.32738317  0.14942519  1.0
  V  V283  1  0.50000000  0.66071650  0.14942519  1.0
  V  V284  1  0.50000000  0.99404983  0.14942519  1.0
  V  V285  1  0.83333333  0.32738317  0.14942519  1.0
  V  V286  1  0.83333333  0.66071650  0.14942519  1.0
  V  V287  1  0.83333333  0.99404983  0.14942519  1.0
  V  V288  1  0.00000000  0.08903517  0.09456844  1.0
  V  V289  1  0.00000000  0.42236850  0.09456844  1.0
  V  V290  1  0.00000000  0.75570183  0.09456844  1.0
  V  V291  1  0.33333333  0.08903517  0.09456844  1.0
  V  V292  1  0.33333333  0.42236850  0.09456844  1.0
  V  V293  1  0.33333333  0.75570183  0.09456844  1.0
  V  V294  1  0.66666667  0.08903517  0.09456844  1.0
  V  V295  1  0.66666667  0.42236850  0.09456844  1.0
  V  V296  1  0.66666667  0.75570183  0.09456844  1.0
  V  V297  1  0.00000000  0.25570183  0.21956844  1.0
  V  V298  1  0.00000000  0.58903517  0.21956844  1.0
  V  V299  1  0.00000000  0.92236850  0.21956844  1.0
  V  V300  1  0.33333333  0.25570183  0.21956844  1.0
  V  V301  1  0.33333333  0.58903517  0.21956844  1.0
  V  V302  1  0.33333333  0.92236850  0.21956844  1.0
  V  V303  1  0.66666667  0.25570183  0.21956844  1.0
  V  V304  1  0.66666667  0.58903517  0.21956844  1.0
  V  V305  1  0.66666667  0.92236850  0.21956844  1.0
  V  V306  1  0.00000000  0.07763150  0.02502669  1.0
  V  V307  1  0.00000000  0.41096483  0.02502669  1.0
  V  V308  1  0.00000000  0.74429817  0.02502669  1.0
  V  V309  1  0.33333333  0.07763150  0.02502669  1.0
  V  V310  1  0.33333333  0.41096483  0.02502669  1.0
  V  V311  1  0.33333333  0.74429817  0.02502669  1.0
  V  V312  1  0.66666667  0.07763150  0.02502669  1.0
  V  V313  1  0.66666667  0.41096483  0.02502669  1.0
  V  V314  1  0.66666667  0.74429817  0.02502669  1.0
  V  V315  1  0.00000000  0.24429817  0.15002669  1.0
  V  V316  1  0.00000000  0.57763150  0.15002669  1.0
  V  V317  1  0.00000000  0.91096483  0.15002669  1.0
  V  V318  1  0.33333333  0.24429817  0.15002669  1.0
  V  V319  1  0.33333333  0.57763150  0.15002669  1.0
  V  V320  1  0.33333333  0.91096483  0.15002669  1.0
  V  V321  1  0.66666667  0.24429817  0.15002669  1.0
  V  V322  1  0.66666667  0.57763150  0.15002669  1.0
  V  V323  1  0.66666667  0.91096483  0.15002669  1.0
  Ni  Ni324  1  0.16666667  0.08333333  0.18479756  1.0
  Ni  Ni325  1  0.16666667  0.41666667  0.18479756  1.0
  Ni  Ni326  1  0.16666667  0.75000000  0.18479756  1.0
  Ni  Ni327  1  0.50000000  0.08333333  0.18479756  1.0
  Ni  Ni328  1  0.50000000  0.41666667  0.18479756  1.0
  Ni  Ni329  1  0.50000000  0.75000000  0.18479756  1.0
  Ni  Ni330  1  0.83333333  0.08333333  0.18479756  1.0
  Ni  Ni331  1  0.83333333  0.41666667  0.18479756  1.0
  Ni  Ni332  1  0.83333333  0.75000000  0.18479756  1.0
  Ni  Ni333  1  0.16666667  0.25000000  0.05979756  1.0
  Ni  Ni334  1  0.16666667  0.58333333  0.05979756  1.0
  Ni  Ni335  1  0.16666667  0.91666667  0.05979756  1.0
  Ni  Ni336  1  0.50000000  0.25000000  0.05979756  1.0
  Ni  Ni337  1  0.50000000  0.58333333  0.05979756  1.0
  Ni  Ni338  1  0.50000000  0.91666667  0.05979756  1.0
  Ni  Ni339  1  0.83333333  0.25000000  0.05979756  1.0
  Ni  Ni340  1  0.83333333  0.58333333  0.05979756  1.0
  Ni  Ni341  1  0.83333333  0.91666667  0.05979756  1.0
  Ni  Ni342  1  0.00000000  0.00000000  0.24729756  1.0
  Ni  Ni343  1  0.00000000  0.33333333  0.24729756  1.0
  Ni  Ni344  1  0.00000000  0.66666667  0.24729756  1.0
  Ni  Ni345  1  0.33333333  0.00000000  0.24729756  1.0
  Ni  Ni346  1  0.33333333  0.33333333  0.24729756  1.0
  Ni  Ni347  1  0.33333333  0.66666667  0.24729756  1.0
  Ni  Ni348  1  0.66666667  0.00000000  0.24729756  1.0
  Ni  Ni349  1  0.66666667  0.33333333  0.24729756  1.0
  Ni  Ni350  1  0.66666667  0.66666667  0.24729756  1.0
  Ni  Ni351  1  0.00000000  0.16666667  0.12229756  1.0
  Ni  Ni352  1  0.00000000  0.50000000  0.12229756  1.0
  Ni  Ni353  1  0.00000000  0.83333333  0.12229756  1.0
  Ni  Ni354  1  0.33333333  0.16666667  0.12229756  1.0
  Ni  Ni355  1  0.33333333  0.50000000  0.12229756  1.0
  Ni  Ni356  1  0.33333333  0.83333333  0.12229756  1.0
  Ni  Ni357  1  0.66666667  0.16666667  0.12229756  1.0
  Ni  Ni358  1  0.66666667  0.50000000  0.12229756  1.0
  Ni  Ni359  1  0.66666667  0.83333333  0.12229756  1.0
  Ni  Ni360  1  0.16666667  0.09413617  0.12770244  1.0
  Ni  Ni361  1  0.16666667  0.42746950  0.12770244  1.0
  Ni  Ni362  1  0.16666667  0.76080283  0.12770244  1.0
  Ni  Ni363  1  0.50000000  0.09413617  0.12770244  1.0
  Ni  Ni364  1  0.50000000  0.42746950  0.12770244  1.0
  Ni  Ni365  1  0.50000000  0.76080283  0.12770244  1.0
  Ni  Ni366  1  0.83333333  0.09413617  0.12770244  1.0
  Ni  Ni367  1  0.83333333  0.42746950  0.12770244  1.0
  Ni  Ni368  1  0.83333333  0.76080283  0.12770244  1.0
  Ni  Ni369  1  0.16666667  0.26080283  0.00270244  1.0
  Ni  Ni370  1  0.16666667  0.59413617  0.00270244  1.0
  Ni  Ni371  1  0.16666667  0.92746950  0.00270244  1.0
  Ni  Ni372  1  0.50000000  0.26080283  0.00270244  1.0
  Ni  Ni373  1  0.50000000  0.59413617  0.00270244  1.0
  Ni  Ni374  1  0.50000000  0.92746950  0.00270244  1.0
  Ni  Ni375  1  0.83333333  0.26080283  0.00270244  1.0
  Ni  Ni376  1  0.83333333  0.59413617  0.00270244  1.0
  Ni  Ni377  1  0.83333333  0.92746950  0.00270244  1.0
  Ni  Ni378  1  0.16666667  0.07253050  0.24189269  1.0
  Ni  Ni379  1  0.16666667  0.40586383  0.24189269  1.0
  Ni  Ni380  1  0.16666667  0.73919717  0.24189269  1.0
  Ni  Ni381  1  0.50000000  0.07253050  0.24189269  1.0
  Ni  Ni382  1  0.50000000  0.40586383  0.24189269  1.0
  Ni  Ni383  1  0.50000000  0.73919717  0.24189269  1.0
  Ni  Ni384  1  0.83333333  0.07253050  0.24189269  1.0
  Ni  Ni385  1  0.83333333  0.40586383  0.24189269  1.0
  Ni  Ni386  1  0.83333333  0.73919717  0.24189269  1.0
  Ni  Ni387  1  0.16666667  0.23919717  0.11689269  1.0
  Ni  Ni388  1  0.16666667  0.57253050  0.11689269  1.0
  Ni  Ni389  1  0.16666667  0.90586383  0.11689269  1.0
  Ni  Ni390  1  0.50000000  0.23919717  0.11689269  1.0
  Ni  Ni391  1  0.50000000  0.57253050  0.11689269  1.0
  Ni  Ni392  1  0.50000000  0.90586383  0.11689269  1.0
  Ni  Ni393  1  0.83333333  0.23919717  0.11689269  1.0
  Ni  Ni394  1  0.83333333  0.57253050  0.11689269  1.0
  Ni  Ni395  1  0.83333333  0.90586383  0.11689269  1.0
  Ni  Ni396  1  0.00000000  0.15586633  0.04962081  1.0
  Ni  Ni397  1  0.00000000  0.48919967  0.04962081  1.0
  Ni  Ni398  1  0.00000000  0.82253300  0.04962081  1.0
  Ni  Ni399  1  0.33333333  0.15586633  0.04962081  1.0
  Ni  Ni400  1  0.33333333  0.48919967  0.04962081  1.0
  Ni  Ni401  1  0.33333333  0.82253300  0.04962081  1.0
  Ni  Ni402  1  0.66666667  0.15586633  0.04962081  1.0
  Ni  Ni403  1  0.66666667  0.48919967  0.04962081  1.0
  Ni  Ni404  1  0.66666667  0.82253300  0.04962081  1.0
  Ni  Ni405  1  0.00000000  0.32253300  0.17462081  1.0
  Ni  Ni406  1  0.00000000  0.65586633  0.17462081  1.0
  Ni  Ni407  1  0.00000000  0.98919967  0.17462081  1.0
  Ni  Ni408  1  0.33333333  0.32253300  0.17462081  1.0
  Ni  Ni409  1  0.33333333  0.65586633  0.17462081  1.0
  Ni  Ni410  1  0.33333333  0.98919967  0.17462081  1.0
  Ni  Ni411  1  0.66666667  0.32253300  0.17462081  1.0
  Ni  Ni412  1  0.66666667  0.65586633  0.17462081  1.0
  Ni  Ni413  1  0.66666667  0.98919967  0.17462081  1.0
  Ni  Ni414  1  0.00000000  0.01080033  0.06997431  1.0
  Ni  Ni415  1  0.00000000  0.34413367  0.06997431  1.0
  Ni  Ni416  1  0.00000000  0.67746700  0.06997431  1.0
  Ni  Ni417  1  0.33333333  0.01080033  0.06997431  1.0
  Ni  Ni418  1  0.33333333  0.34413367  0.06997431  1.0
  Ni  Ni419  1  0.33333333  0.67746700  0.06997431  1.0
  Ni  Ni420  1  0.66666667  0.01080033  0.06997431  1.0
  Ni  Ni421  1  0.66666667  0.34413367  0.06997431  1.0
  Ni  Ni422  1  0.66666667  0.67746700  0.06997431  1.0
  Ni  Ni423  1  0.00000000  0.17746700  0.19497431  1.0
  Ni  Ni424  1  0.00000000  0.51080033  0.19497431  1.0
  Ni  Ni425  1  0.00000000  0.84413367  0.19497431  1.0
  Ni  Ni426  1  0.33333333  0.17746700  0.19497431  1.0
  Ni  Ni427  1  0.33333333  0.51080033  0.19497431  1.0
  Ni  Ni428  1  0.33333333  0.84413367  0.19497431  1.0
  Ni  Ni429  1  0.66666667  0.17746700  0.19497431  1.0
  Ni  Ni430  1  0.66666667  0.51080033  0.19497431  1.0
  Ni  Ni431  1  0.66666667  0.84413367  0.19497431  1.0
  Ni  Ni432  1  0.16666667  0.12612783  0.20067819  1.0
  Ni  Ni433  1  0.16666667  0.45946117  0.20067819  1.0
  Ni  Ni434  1  0.16666667  0.79279450  0.20067819  1.0
  Ni  Ni435  1  0.50000000  0.12612783  0.20067819  1.0
  Ni  Ni436  1  0.50000000  0.45946117  0.20067819  1.0
  Ni  Ni437  1  0.50000000  0.79279450  0.20067819  1.0
  Ni  Ni438  1  0.83333333  0.12612783  0.20067819  1.0
  Ni  Ni439  1  0.83333333  0.45946117  0.20067819  1.0
  Ni  Ni440  1  0.83333333  0.79279450  0.20067819  1.0
  Ni  Ni441  1  0.16666667  0.29279450  0.07567819  1.0
  Ni  Ni442  1  0.16666667  0.62612783  0.07567819  1.0
  Ni  Ni443  1  0.16666667  0.95946117  0.07567819  1.0
  Ni  Ni444  1  0.50000000  0.29279450  0.07567819  1.0
  Ni  Ni445  1  0.50000000  0.62612783  0.07567819  1.0
  Ni  Ni446  1  0.50000000  0.95946117  0.07567819  1.0
  Ni  Ni447  1  0.83333333  0.29279450  0.07567819  1.0
  Ni  Ni448  1  0.83333333  0.62612783  0.07567819  1.0
  Ni  Ni449  1  0.83333333  0.95946117  0.07567819  1.0
  Ni  Ni450  1  0.16666667  0.04053883  0.16891694  1.0
  Ni  Ni451  1  0.16666667  0.37387217  0.16891694  1.0
  Ni  Ni452  1  0.16666667  0.70720550  0.16891694  1.0
  Ni  Ni453  1  0.50000000  0.04053883  0.16891694  1.0
  Ni  Ni454  1  0.50000000  0.37387217  0.16891694  1.0
  Ni  Ni455  1  0.50000000  0.70720550  0.16891694  1.0
  Ni  Ni456  1  0.83333333  0.04053883  0.16891694  1.0
  Ni  Ni457  1  0.83333333  0.37387217  0.16891694  1.0
  Ni  Ni458  1  0.83333333  0.70720550  0.16891694  1.0
  Ni  Ni459  1  0.16666667  0.20720550  0.04391694  1.0
  Ni  Ni460  1  0.16666667  0.54053883  0.04391694  1.0
  Ni  Ni461  1  0.16666667  0.87387217  0.04391694  1.0
  Ni  Ni462  1  0.50000000  0.20720550  0.04391694  1.0
  Ni  Ni463  1  0.50000000  0.54053883  0.04391694  1.0
  Ni  Ni464  1  0.50000000  0.87387217  0.04391694  1.0
  Ni  Ni465  1  0.83333333  0.20720550  0.04391694  1.0
  Ni  Ni466  1  0.83333333  0.54053883  0.04391694  1.0
  Ni  Ni467  1  0.83333333  0.87387217  0.04391694  1.0
  Ni  Ni468  1  0.00000000  0.04307533  0.04604231  1.0
  Ni  Ni469  1  0.00000000  0.37640867  0.04604231  1.0
  Ni  Ni470  1  0.00000000  0.70974200  0.04604231  1.0
  Ni  Ni471  1  0.33333333  0.04307533  0.04604231  1.0
  Ni  Ni472  1  0.33333333  0.37640867  0.04604231  1.0
  Ni  Ni473  1  0.33333333  0.70974200  0.04604231  1.0
  Ni  Ni474  1  0.66666667  0.04307533  0.04604231  1.0
  Ni  Ni475  1  0.66666667  0.37640867  0.04604231  1.0
  Ni  Ni476  1  0.66666667  0.70974200  0.04604231  1.0
  Ni  Ni477  1  0.00000000  0.20974200  0.17104231  1.0
  Ni  Ni478  1  0.00000000  0.54307533  0.17104231  1.0
  Ni  Ni479  1  0.00000000  0.87640867  0.17104231  1.0
  Ni  Ni480  1  0.33333333  0.20974200  0.17104231  1.0
  Ni  Ni481  1  0.33333333  0.54307533  0.17104231  1.0
  Ni  Ni482  1  0.33333333  0.87640867  0.17104231  1.0
  Ni  Ni483  1  0.66666667  0.20974200  0.17104231  1.0
  Ni  Ni484  1  0.66666667  0.54307533  0.17104231  1.0
  Ni  Ni485  1  0.66666667  0.87640867  0.17104231  1.0
  Ni  Ni486  1  0.00000000  0.12359133  0.07355281  1.0
  Ni  Ni487  1  0.00000000  0.45692467  0.07355281  1.0
  Ni  Ni488  1  0.00000000  0.79025800  0.07355281  1.0
  Ni  Ni489  1  0.33333333  0.12359133  0.07355281  1.0
  Ni  Ni490  1  0.33333333  0.45692467  0.07355281  1.0
  Ni  Ni491  1  0.33333333  0.79025800  0.07355281  1.0
  Ni  Ni492  1  0.66666667  0.12359133  0.07355281  1.0
  Ni  Ni493  1  0.66666667  0.45692467  0.07355281  1.0
  Ni  Ni494  1  0.66666667  0.79025800  0.07355281  1.0
  Ni  Ni495  1  0.00000000  0.29025800  0.19855281  1.0
  Ni  Ni496  1  0.00000000  0.62359133  0.19855281  1.0
  Ni  Ni497  1  0.00000000  0.95692467  0.19855281  1.0
  Ni  Ni498  1  0.33333333  0.29025800  0.19855281  1.0
  Ni  Ni499  1  0.33333333  0.62359133  0.19855281  1.0
  Ni  Ni500  1  0.33333333  0.95692467  0.19855281  1.0
  Ni  Ni501  1  0.66666667  0.29025800  0.19855281  1.0
  Ni  Ni502  1  0.66666667  0.62359133  0.19855281  1.0
  Ni  Ni503  1  0.66666667  0.95692467  0.19855281  1.0
  Ni  Ni504  1  0.16666667  0.10521033  0.06674806  1.0
  Ni  Ni505  1  0.16666667  0.43854367  0.06674806  1.0
  Ni  Ni506  1  0.16666667  0.77187700  0.06674806  1.0
  Ni  Ni507  1  0.50000000  0.10521033  0.06674806  1.0
  Ni  Ni508  1  0.50000000  0.43854367  0.06674806  1.0
  Ni  Ni509  1  0.50000000  0.77187700  0.06674806  1.0
  Ni  Ni510  1  0.83333333  0.10521033  0.06674806  1.0
  Ni  Ni511  1  0.83333333  0.43854367  0.06674806  1.0
  Ni  Ni512  1  0.83333333  0.77187700  0.06674806  1.0
  Ni  Ni513  1  0.16666667  0.27187700  0.19174806  1.0
  Ni  Ni514  1  0.16666667  0.60521033  0.19174806  1.0
  Ni  Ni515  1  0.16666667  0.93854367  0.19174806  1.0
  Ni  Ni516  1  0.50000000  0.27187700  0.19174806  1.0
  Ni  Ni517  1  0.50000000  0.60521033  0.19174806  1.0
  Ni  Ni518  1  0.50000000  0.93854367  0.19174806  1.0
  Ni  Ni519  1  0.83333333  0.27187700  0.19174806  1.0
  Ni  Ni520  1  0.83333333  0.60521033  0.19174806  1.0
  Ni  Ni521  1  0.83333333  0.93854367  0.19174806  1.0
  Ni  Ni522  1  0.16666667  0.06145633  0.05284706  1.0
  Ni  Ni523  1  0.16666667  0.39478967  0.05284706  1.0
  Ni  Ni524  1  0.16666667  0.72812300  0.05284706  1.0
  Ni  Ni525  1  0.50000000  0.06145633  0.05284706  1.0
  Ni  Ni526  1  0.50000000  0.39478967  0.05284706  1.0
  Ni  Ni527  1  0.50000000  0.72812300  0.05284706  1.0
  Ni  Ni528  1  0.83333333  0.06145633  0.05284706  1.0
  Ni  Ni529  1  0.83333333  0.39478967  0.05284706  1.0
  Ni  Ni530  1  0.83333333  0.72812300  0.05284706  1.0
  Ni  Ni531  1  0.16666667  0.22812300  0.17784706  1.0
  Ni  Ni532  1  0.16666667  0.56145633  0.17784706  1.0
  Ni  Ni533  1  0.16666667  0.89478967  0.17784706  1.0
  Ni  Ni534  1  0.50000000  0.22812300  0.17784706  1.0
  Ni  Ni535  1  0.50000000  0.56145633  0.17784706  1.0
  Ni  Ni536  1  0.50000000  0.89478967  0.17784706  1.0
  Ni  Ni537  1  0.83333333  0.22812300  0.17784706  1.0
  Ni  Ni538  1  0.83333333  0.56145633  0.17784706  1.0
  Ni  Ni539  1  0.83333333  0.89478967  0.17784706  1.0
  V  V540  1  0.25146600  0.11330083  0.25334319  1.0
  V  V541  1  0.25146600  0.44663417  0.25334319  1.0
  V  V542  1  0.25146600  0.77996750  0.25334319  1.0
  V  V543  1  0.58479933  0.11330083  0.25334319  1.0
  V  V544  1  0.58479933  0.44663417  0.25334319  1.0
  V  V545  1  0.58479933  0.77996750  0.25334319  1.0
  V  V546  1  0.91813267  0.11330083  0.25334319  1.0
  V  V547  1  0.91813267  0.44663417  0.25334319  1.0
  V  V548  1  0.91813267  0.77996750  0.25334319  1.0
  V  V549  1  0.25146600  0.27996750  0.37834319  1.0
  V  V550  1  0.25146600  0.61330083  0.37834319  1.0
  V  V551  1  0.25146600  0.94663417  0.37834319  1.0
  V  V552  1  0.58479933  0.27996750  0.37834319  1.0
  V  V553  1  0.58479933  0.61330083  0.37834319  1.0
  V  V554  1  0.58479933  0.94663417  0.37834319  1.0
  V  V555  1  0.91813267  0.27996750  0.37834319  1.0
  V  V556  1  0.91813267  0.61330083  0.37834319  1.0
  V  V557  1  0.91813267  0.94663417  0.37834319  1.0
  V  V558  1  0.25146600  0.05336583  0.36625194  1.0
  V  V559  1  0.25146600  0.38669917  0.36625194  1.0
  V  V560  1  0.25146600  0.72003250  0.36625194  1.0
  V  V561  1  0.58479933  0.05336583  0.36625194  1.0
  V  V562  1  0.58479933  0.38669917  0.36625194  1.0
  V  V563  1  0.58479933  0.72003250  0.36625194  1.0
  V  V564  1  0.91813267  0.05336583  0.36625194  1.0
  V  V565  1  0.91813267  0.38669917  0.36625194  1.0
  V  V566  1  0.91813267  0.72003250  0.36625194  1.0
  V  V567  1  0.25146600  0.22003250  0.49125194  1.0
  V  V568  1  0.25146600  0.55336583  0.49125194  1.0
  V  V569  1  0.25146600  0.88669917  0.49125194  1.0
  V  V570  1  0.58479933  0.22003250  0.49125194  1.0
  V  V571  1  0.58479933  0.55336583  0.49125194  1.0
  V  V572  1  0.58479933  0.88669917  0.49125194  1.0
  V  V573  1  0.91813267  0.22003250  0.49125194  1.0
  V  V574  1  0.91813267  0.55336583  0.49125194  1.0
  V  V575  1  0.91813267  0.88669917  0.49125194  1.0
  V  V576  1  0.08482867  0.13624450  0.39395819  1.0
  V  V577  1  0.08482867  0.46957783  0.39395819  1.0
  V  V578  1  0.08482867  0.80291117  0.39395819  1.0
  V  V579  1  0.41816200  0.13624450  0.39395819  1.0
  V  V580  1  0.41816200  0.46957783  0.39395819  1.0
  V  V581  1  0.41816200  0.80291117  0.39395819  1.0
  V  V582  1  0.75149533  0.13624450  0.39395819  1.0
  V  V583  1  0.75149533  0.46957783  0.39395819  1.0
  V  V584  1  0.75149533  0.80291117  0.39395819  1.0
  V  V585  1  0.08482867  0.30291117  0.26895819  1.0
  V  V586  1  0.08482867  0.63624450  0.26895819  1.0
  V  V587  1  0.08482867  0.96957783  0.26895819  1.0
  V  V588  1  0.41816200  0.30291117  0.26895819  1.0
  V  V589  1  0.41816200  0.63624450  0.26895819  1.0
  V  V590  1  0.41816200  0.96957783  0.26895819  1.0
  V  V591  1  0.75149533  0.30291117  0.26895819  1.0
  V  V592  1  0.75149533  0.63624450  0.26895819  1.0
  V  V593  1  0.75149533  0.96957783  0.26895819  1.0
  V  V594  1  0.08482867  0.03042217  0.47563694  1.0
  V  V595  1  0.08482867  0.36375550  0.47563694  1.0
  V  V596  1  0.08482867  0.69708883  0.47563694  1.0
  V  V597  1  0.41816200  0.03042217  0.47563694  1.0
  V  V598  1  0.41816200  0.36375550  0.47563694  1.0
  V  V599  1  0.41816200  0.69708883  0.47563694  1.0
  V  V600  1  0.75149533  0.03042217  0.47563694  1.0
  V  V601  1  0.75149533  0.36375550  0.47563694  1.0
  V  V602  1  0.75149533  0.69708883  0.47563694  1.0
  V  V603  1  0.08482867  0.19708883  0.35063694  1.0
  V  V604  1  0.08482867  0.53042217  0.35063694  1.0
  V  V605  1  0.08482867  0.86375550  0.35063694  1.0
  V  V606  1  0.41816200  0.19708883  0.35063694  1.0
  V  V607  1  0.41816200  0.53042217  0.35063694  1.0
  V  V608  1  0.41816200  0.86375550  0.35063694  1.0
  V  V609  1  0.75149533  0.19708883  0.35063694  1.0
  V  V610  1  0.75149533  0.53042217  0.35063694  1.0
  V  V611  1  0.75149533  0.86375550  0.35063694  1.0
  V  V612  1  0.08186733  0.05336583  0.36625194  1.0
  V  V613  1  0.08186733  0.38669917  0.36625194  1.0
  V  V614  1  0.08186733  0.72003250  0.36625194  1.0
  V  V615  1  0.41520067  0.05336583  0.36625194  1.0
  V  V616  1  0.41520067  0.38669917  0.36625194  1.0
  V  V617  1  0.41520067  0.72003250  0.36625194  1.0
  V  V618  1  0.74853400  0.05336583  0.36625194  1.0
  V  V619  1  0.74853400  0.38669917  0.36625194  1.0
  V  V620  1  0.74853400  0.72003250  0.36625194  1.0
  V  V621  1  0.08186733  0.22003250  0.49125194  1.0
  V  V622  1  0.08186733  0.55336583  0.49125194  1.0
  V  V623  1  0.08186733  0.88669917  0.49125194  1.0
  V  V624  1  0.41520067  0.22003250  0.49125194  1.0
  V  V625  1  0.41520067  0.55336583  0.49125194  1.0
  V  V626  1  0.41520067  0.88669917  0.49125194  1.0
  V  V627  1  0.74853400  0.22003250  0.49125194  1.0
  V  V628  1  0.74853400  0.55336583  0.49125194  1.0
  V  V629  1  0.74853400  0.88669917  0.49125194  1.0
  V  V630  1  0.08186733  0.11330083  0.25334319  1.0
  V  V631  1  0.08186733  0.44663417  0.25334319  1.0
  V  V632  1  0.08186733  0.77996750  0.25334319  1.0
  V  V633  1  0.41520067  0.11330083  0.25334319  1.0
  V  V634  1  0.41520067  0.44663417  0.25334319  1.0
  V  V635  1  0.41520067  0.77996750  0.25334319  1.0
  V  V636  1  0.74853400  0.11330083  0.25334319  1.0
  V  V637  1  0.74853400  0.44663417  0.25334319  1.0
  V  V638  1  0.74853400  0.77996750  0.25334319  1.0
  V  V639  1  0.08186733  0.27996750  0.37834319  1.0
  V  V640  1  0.08186733  0.61330083  0.37834319  1.0
  V  V641  1  0.08186733  0.94663417  0.37834319  1.0
  V  V642  1  0.41520067  0.27996750  0.37834319  1.0
  V  V643  1  0.41520067  0.61330083  0.37834319  1.0
  V  V644  1  0.41520067  0.94663417  0.37834319  1.0
  V  V645  1  0.74853400  0.27996750  0.37834319  1.0
  V  V646  1  0.74853400  0.61330083  0.37834319  1.0
  V  V647  1  0.74853400  0.94663417  0.37834319  1.0
  V  V648  1  0.24850467  0.03042217  0.47563694  1.0
  V  V649  1  0.24850467  0.36375550  0.47563694  1.0
  V  V650  1  0.24850467  0.69708883  0.47563694  1.0
  V  V651  1  0.58183800  0.03042217  0.47563694  1.0
  V  V652  1  0.58183800  0.36375550  0.47563694  1.0
  V  V653  1  0.58183800  0.69708883  0.47563694  1.0
  V  V654  1  0.91517133  0.03042217  0.47563694  1.0
  V  V655  1  0.91517133  0.36375550  0.47563694  1.0
  V  V656  1  0.91517133  0.69708883  0.47563694  1.0
  V  V657  1  0.24850467  0.19708883  0.35063694  1.0
  V  V658  1  0.24850467  0.53042217  0.35063694  1.0
  V  V659  1  0.24850467  0.86375550  0.35063694  1.0
  V  V660  1  0.58183800  0.19708883  0.35063694  1.0
  V  V661  1  0.58183800  0.53042217  0.35063694  1.0
  V  V662  1  0.58183800  0.86375550  0.35063694  1.0
  V  V663  1  0.91517133  0.19708883  0.35063694  1.0
  V  V664  1  0.91517133  0.53042217  0.35063694  1.0
  V  V665  1  0.91517133  0.86375550  0.35063694  1.0
  V  V666  1  0.24850467  0.13624450  0.39395819  1.0
  V  V667  1  0.24850467  0.46957783  0.39395819  1.0
  V  V668  1  0.24850467  0.80291117  0.39395819  1.0
  V  V669  1  0.58183800  0.13624450  0.39395819  1.0
  V  V670  1  0.58183800  0.46957783  0.39395819  1.0
  V  V671  1  0.58183800  0.80291117  0.39395819  1.0
  V  V672  1  0.91517133  0.13624450  0.39395819  1.0
  V  V673  1  0.91517133  0.46957783  0.39395819  1.0
  V  V674  1  0.91517133  0.80291117  0.39395819  1.0
  V  V675  1  0.24850467  0.30291117  0.26895819  1.0
  V  V676  1  0.24850467  0.63624450  0.26895819  1.0
  V  V677  1  0.24850467  0.96957783  0.26895819  1.0
  V  V678  1  0.58183800  0.30291117  0.26895819  1.0
  V  V679  1  0.58183800  0.63624450  0.26895819  1.0
  V  V680  1  0.58183800  0.96957783  0.26895819  1.0
  V  V681  1  0.91517133  0.30291117  0.26895819  1.0
  V  V682  1  0.91517133  0.63624450  0.26895819  1.0
  V  V683  1  0.91517133  0.96957783  0.26895819  1.0
  V  V684  1  0.16666667  0.14944433  0.33291056  1.0
  V  V685  1  0.16666667  0.48277767  0.33291056  1.0
  V  V686  1  0.16666667  0.81611100  0.33291056  1.0
  V  V687  1  0.50000000  0.14944433  0.33291056  1.0
  V  V688  1  0.50000000  0.48277767  0.33291056  1.0
  V  V689  1  0.50000000  0.81611100  0.33291056  1.0
  V  V690  1  0.83333333  0.14944433  0.33291056  1.0
  V  V691  1  0.83333333  0.48277767  0.33291056  1.0
  V  V692  1  0.83333333  0.81611100  0.33291056  1.0
  V  V693  1  0.16666667  0.31611100  0.45791056  1.0
  V  V694  1  0.16666667  0.64944433  0.45791056  1.0
  V  V695  1  0.16666667  0.98277767  0.45791056  1.0
  V  V696  1  0.50000000  0.31611100  0.45791056  1.0
  V  V697  1  0.50000000  0.64944433  0.45791056  1.0
  V  V698  1  0.50000000  0.98277767  0.45791056  1.0
  V  V699  1  0.83333333  0.31611100  0.45791056  1.0
  V  V700  1  0.83333333  0.64944433  0.45791056  1.0
  V  V701  1  0.83333333  0.98277767  0.45791056  1.0
  V  V702  1  0.16666667  0.01722233  0.28668456  1.0
  V  V703  1  0.16666667  0.35055567  0.28668456  1.0
  V  V704  1  0.16666667  0.68388900  0.28668456  1.0
  V  V705  1  0.50000000  0.01722233  0.28668456  1.0
  V  V706  1  0.50000000  0.35055567  0.28668456  1.0
  V  V707  1  0.50000000  0.68388900  0.28668456  1.0
  V  V708  1  0.83333333  0.01722233  0.28668456  1.0
  V  V709  1  0.83333333  0.35055567  0.28668456  1.0
  V  V710  1  0.83333333  0.68388900  0.28668456  1.0
  V  V711  1  0.16666667  0.18388900  0.41168456  1.0
  V  V712  1  0.16666667  0.51722233  0.41168456  1.0
  V  V713  1  0.16666667  0.85055567  0.41168456  1.0
  V  V714  1  0.50000000  0.18388900  0.41168456  1.0
  V  V715  1  0.50000000  0.51722233  0.41168456  1.0
  V  V716  1  0.50000000  0.85055567  0.41168456  1.0
  V  V717  1  0.83333333  0.18388900  0.41168456  1.0
  V  V718  1  0.83333333  0.51722233  0.41168456  1.0
  V  V719  1  0.83333333  0.85055567  0.41168456  1.0
  V  V720  1  0.00000000  0.10111033  0.42060656  1.0
  V  V721  1  0.00000000  0.43444367  0.42060656  1.0
  V  V722  1  0.00000000  0.76777700  0.42060656  1.0
  V  V723  1  0.33333333  0.10111033  0.42060656  1.0
  V  V724  1  0.33333333  0.43444367  0.42060656  1.0
  V  V725  1  0.33333333  0.76777700  0.42060656  1.0
  V  V726  1  0.66666667  0.10111033  0.42060656  1.0
  V  V727  1  0.66666667  0.43444367  0.42060656  1.0
  V  V728  1  0.66666667  0.76777700  0.42060656  1.0
  V  V729  1  0.00000000  0.26777700  0.29560656  1.0
  V  V730  1  0.00000000  0.60111033  0.29560656  1.0
  V  V731  1  0.00000000  0.93444367  0.29560656  1.0
  V  V732  1  0.33333333  0.26777700  0.29560656  1.0
  V  V733  1  0.33333333  0.60111033  0.29560656  1.0
  V  V734  1  0.33333333  0.93444367  0.29560656  1.0
  V  V735  1  0.66666667  0.26777700  0.29560656  1.0
  V  V736  1  0.66666667  0.60111033  0.29560656  1.0
  V  V737  1  0.66666667  0.93444367  0.29560656  1.0
  V  V738  1  0.00000000  0.06555633  0.44898856  1.0
  V  V739  1  0.00000000  0.39888967  0.44898856  1.0
  V  V740  1  0.00000000  0.73222300  0.44898856  1.0
  V  V741  1  0.33333333  0.06555633  0.44898856  1.0
  V  V742  1  0.33333333  0.39888967  0.44898856  1.0
  V  V743  1  0.33333333  0.73222300  0.44898856  1.0
  V  V744  1  0.66666667  0.06555633  0.44898856  1.0
  V  V745  1  0.66666667  0.39888967  0.44898856  1.0
  V  V746  1  0.66666667  0.73222300  0.44898856  1.0
  V  V747  1  0.00000000  0.23222300  0.32398856  1.0
  V  V748  1  0.00000000  0.56555633  0.32398856  1.0
  V  V749  1  0.00000000  0.89888967  0.32398856  1.0
  V  V750  1  0.33333333  0.23222300  0.32398856  1.0
  V  V751  1  0.33333333  0.56555633  0.32398856  1.0
  V  V752  1  0.33333333  0.89888967  0.32398856  1.0
  V  V753  1  0.66666667  0.23222300  0.32398856  1.0
  V  V754  1  0.66666667  0.56555633  0.32398856  1.0
  V  V755  1  0.66666667  0.89888967  0.32398856  1.0
  V  V756  1  0.00000000  0.14579100  0.47294681  1.0
  V  V757  1  0.00000000  0.47912433  0.47294681  1.0
  V  V758  1  0.00000000  0.81245767  0.47294681  1.0
  V  V759  1  0.33333333  0.14579100  0.47294681  1.0
  V  V760  1  0.33333333  0.47912433  0.47294681  1.0
  V  V761  1  0.33333333  0.81245767  0.47294681  1.0
  V  V762  1  0.66666667  0.14579100  0.47294681  1.0
  V  V763  1  0.66666667  0.47912433  0.47294681  1.0
  V  V764  1  0.66666667  0.81245767  0.47294681  1.0
  V  V765  1  0.00000000  0.31245767  0.34794681  1.0
  V  V766  1  0.00000000  0.64579100  0.34794681  1.0
  V  V767  1  0.00000000  0.97912433  0.34794681  1.0
  V  V768  1  0.33333333  0.31245767  0.34794681  1.0
  V  V769  1  0.33333333  0.64579100  0.34794681  1.0
  V  V770  1  0.33333333  0.97912433  0.34794681  1.0
  V  V771  1  0.66666667  0.31245767  0.34794681  1.0
  V  V772  1  0.66666667  0.64579100  0.34794681  1.0
  V  V773  1  0.66666667  0.97912433  0.34794681  1.0
  V  V774  1  0.00000000  0.02087567  0.39664831  1.0
  V  V775  1  0.00000000  0.35420900  0.39664831  1.0
  V  V776  1  0.00000000  0.68754233  0.39664831  1.0
  V  V777  1  0.33333333  0.02087567  0.39664831  1.0
  V  V778  1  0.33333333  0.35420900  0.39664831  1.0
  V  V779  1  0.33333333  0.68754233  0.39664831  1.0
  V  V780  1  0.66666667  0.02087567  0.39664831  1.0
  V  V781  1  0.66666667  0.35420900  0.39664831  1.0
  V  V782  1  0.66666667  0.68754233  0.39664831  1.0
  V  V783  1  0.00000000  0.18754233  0.27164831  1.0
  V  V784  1  0.00000000  0.52087567  0.27164831  1.0
  V  V785  1  0.00000000  0.85420900  0.27164831  1.0
  V  V786  1  0.33333333  0.18754233  0.27164831  1.0
  V  V787  1  0.33333333  0.52087567  0.27164831  1.0
  V  V788  1  0.33333333  0.85420900  0.27164831  1.0
  V  V789  1  0.66666667  0.18754233  0.27164831  1.0
  V  V790  1  0.66666667  0.52087567  0.27164831  1.0
  V  V791  1  0.66666667  0.85420900  0.27164831  1.0
  V  V792  1  0.16666667  0.00595017  0.34516994  1.0
  V  V793  1  0.16666667  0.33928350  0.34516994  1.0
  V  V794  1  0.16666667  0.67261683  0.34516994  1.0
  V  V795  1  0.50000000  0.00595017  0.34516994  1.0
  V  V796  1  0.50000000  0.33928350  0.34516994  1.0
  V  V797  1  0.50000000  0.67261683  0.34516994  1.0
  V  V798  1  0.83333333  0.00595017  0.34516994  1.0
  V  V799  1  0.83333333  0.33928350  0.34516994  1.0
  V  V800  1  0.83333333  0.67261683  0.34516994  1.0
  V  V801  1  0.16666667  0.17261683  0.47016994  1.0
  V  V802  1  0.16666667  0.50595017  0.47016994  1.0
  V  V803  1  0.16666667  0.83928350  0.47016994  1.0
  V  V804  1  0.50000000  0.17261683  0.47016994  1.0
  V  V805  1  0.50000000  0.50595017  0.47016994  1.0
  V  V806  1  0.50000000  0.83928350  0.47016994  1.0
  V  V807  1  0.83333333  0.17261683  0.47016994  1.0
  V  V808  1  0.83333333  0.50595017  0.47016994  1.0
  V  V809  1  0.83333333  0.83928350  0.47016994  1.0
  V  V810  1  0.16666667  0.16071650  0.27442519  1.0
  V  V811  1  0.16666667  0.49404983  0.27442519  1.0
  V  V812  1  0.16666667  0.82738317  0.27442519  1.0
  V  V813  1  0.50000000  0.16071650  0.27442519  1.0
  V  V814  1  0.50000000  0.49404983  0.27442519  1.0
  V  V815  1  0.50000000  0.82738317  0.27442519  1.0
  V  V816  1  0.83333333  0.16071650  0.27442519  1.0
  V  V817  1  0.83333333  0.49404983  0.27442519  1.0
  V  V818  1  0.83333333  0.82738317  0.27442519  1.0
  V  V819  1  0.16666667  0.32738317  0.39942519  1.0
  V  V820  1  0.16666667  0.66071650  0.39942519  1.0
  V  V821  1  0.16666667  0.99404983  0.39942519  1.0
  V  V822  1  0.50000000  0.32738317  0.39942519  1.0
  V  V823  1  0.50000000  0.66071650  0.39942519  1.0
  V  V824  1  0.50000000  0.99404983  0.39942519  1.0
  V  V825  1  0.83333333  0.32738317  0.39942519  1.0
  V  V826  1  0.83333333  0.66071650  0.39942519  1.0
  V  V827  1  0.83333333  0.99404983  0.39942519  1.0
  V  V828  1  0.00000000  0.08903517  0.34456844  1.0
  V  V829  1  0.00000000  0.42236850  0.34456844  1.0
  V  V830  1  0.00000000  0.75570183  0.34456844  1.0
  V  V831  1  0.33333333  0.08903517  0.34456844  1.0
  V  V832  1  0.33333333  0.42236850  0.34456844  1.0
  V  V833  1  0.33333333  0.75570183  0.34456844  1.0
  V  V834  1  0.66666667  0.08903517  0.34456844  1.0
  V  V835  1  0.66666667  0.42236850  0.34456844  1.0
  V  V836  1  0.66666667  0.75570183  0.34456844  1.0
  V  V837  1  0.00000000  0.25570183  0.46956844  1.0
  V  V838  1  0.00000000  0.58903517  0.46956844  1.0
  V  V839  1  0.00000000  0.92236850  0.46956844  1.0
  V  V840  1  0.33333333  0.25570183  0.46956844  1.0
  V  V841  1  0.33333333  0.58903517  0.46956844  1.0
  V  V842  1  0.33333333  0.92236850  0.46956844  1.0
  V  V843  1  0.66666667  0.25570183  0.46956844  1.0
  V  V844  1  0.66666667  0.58903517  0.46956844  1.0
  V  V845  1  0.66666667  0.92236850  0.46956844  1.0
  V  V846  1  0.00000000  0.07763150  0.27502669  1.0
  V  V847  1  0.00000000  0.41096483  0.27502669  1.0
  V  V848  1  0.00000000  0.74429817  0.27502669  1.0
  V  V849  1  0.33333333  0.07763150  0.27502669  1.0
  V  V850  1  0.33333333  0.41096483  0.27502669  1.0
  V  V851  1  0.33333333  0.74429817  0.27502669  1.0
  V  V852  1  0.66666667  0.07763150  0.27502669  1.0
  V  V853  1  0.66666667  0.41096483  0.27502669  1.0
  V  V854  1  0.66666667  0.74429817  0.27502669  1.0
  V  V855  1  0.00000000  0.24429817  0.40002669  1.0
  V  V856  1  0.00000000  0.57763150  0.40002669  1.0
  V  V857  1  0.00000000  0.91096483  0.40002669  1.0
  V  V858  1  0.33333333  0.24429817  0.40002669  1.0
  V  V859  1  0.33333333  0.57763150  0.40002669  1.0
  V  V860  1  0.33333333  0.91096483  0.40002669  1.0
  V  V861  1  0.66666667  0.24429817  0.40002669  1.0
  V  V862  1  0.66666667  0.57763150  0.40002669  1.0
  V  V863  1  0.66666667  0.91096483  0.40002669  1.0
  Ni  Ni864  1  0.16666667  0.08333333  0.43479756  1.0
  Ni  Ni865  1  0.16666667  0.41666667  0.43479756  1.0
  Ni  Ni866  1  0.16666667  0.75000000  0.43479756  1.0
  Ni  Ni867  1  0.50000000  0.08333333  0.43479756  1.0
  Ni  Ni868  1  0.50000000  0.41666667  0.43479756  1.0
  Ni  Ni869  1  0.50000000  0.75000000  0.43479756  1.0
  Ni  Ni870  1  0.83333333  0.08333333  0.43479756  1.0
  Ni  Ni871  1  0.83333333  0.41666667  0.43479756  1.0
  Ni  Ni872  1  0.83333333  0.75000000  0.43479756  1.0
  Ni  Ni873  1  0.16666667  0.25000000  0.30979756  1.0
  Ni  Ni874  1  0.16666667  0.58333333  0.30979756  1.0
  Ni  Ni875  1  0.16666667  0.91666667  0.30979756  1.0
  Ni  Ni876  1  0.50000000  0.25000000  0.30979756  1.0
  Ni  Ni877  1  0.50000000  0.58333333  0.30979756  1.0
  Ni  Ni878  1  0.50000000  0.91666667  0.30979756  1.0
  Ni  Ni879  1  0.83333333  0.25000000  0.30979756  1.0
  Ni  Ni880  1  0.83333333  0.58333333  0.30979756  1.0
  Ni  Ni881  1  0.83333333  0.91666667  0.30979756  1.0
  Ni  Ni882  1  0.00000000  0.00000000  0.49729756  1.0
  Ni  Ni883  1  0.00000000  0.33333333  0.49729756  1.0
  Ni  Ni884  1  0.00000000  0.66666667  0.49729756  1.0
  Ni  Ni885  1  0.33333333  0.00000000  0.49729756  1.0
  Ni  Ni886  1  0.33333333  0.33333333  0.49729756  1.0
  Ni  Ni887  1  0.33333333  0.66666667  0.49729756  1.0
  Ni  Ni888  1  0.66666667  0.00000000  0.49729756  1.0
  Ni  Ni889  1  0.66666667  0.33333333  0.49729756  1.0
  Ni  Ni890  1  0.66666667  0.66666667  0.49729756  1.0
  Ni  Ni891  1  0.00000000  0.16666667  0.37229756  1.0
  Ni  Ni892  1  0.00000000  0.50000000  0.37229756  1.0
  Ni  Ni893  1  0.00000000  0.83333333  0.37229756  1.0
  Ni  Ni894  1  0.33333333  0.16666667  0.37229756  1.0
  Ni  Ni895  1  0.33333333  0.50000000  0.37229756  1.0
  Ni  Ni896  1  0.33333333  0.83333333  0.37229756  1.0
  Ni  Ni897  1  0.66666667  0.16666667  0.37229756  1.0
  Ni  Ni898  1  0.66666667  0.50000000  0.37229756  1.0
  Ni  Ni899  1  0.66666667  0.83333333  0.37229756  1.0
  Ni  Ni900  1  0.16666667  0.09413617  0.37770244  1.0
  Ni  Ni901  1  0.16666667  0.42746950  0.37770244  1.0
  Ni  Ni902  1  0.16666667  0.76080283  0.37770244  1.0
  Ni  Ni903  1  0.50000000  0.09413617  0.37770244  1.0
  Ni  Ni904  1  0.50000000  0.42746950  0.37770244  1.0
  Ni  Ni905  1  0.50000000  0.76080283  0.37770244  1.0
  Ni  Ni906  1  0.83333333  0.09413617  0.37770244  1.0
  Ni  Ni907  1  0.83333333  0.42746950  0.37770244  1.0
  Ni  Ni908  1  0.83333333  0.76080283  0.37770244  1.0
  Ni  Ni909  1  0.16666667  0.26080283  0.25270244  1.0
  Ni  Ni910  1  0.16666667  0.59413617  0.25270244  1.0
  Ni  Ni911  1  0.16666667  0.92746950  0.25270244  1.0
  Ni  Ni912  1  0.50000000  0.26080283  0.25270244  1.0
  Ni  Ni913  1  0.50000000  0.59413617  0.25270244  1.0
  Ni  Ni914  1  0.50000000  0.92746950  0.25270244  1.0
  Ni  Ni915  1  0.83333333  0.26080283  0.25270244  1.0
  Ni  Ni916  1  0.83333333  0.59413617  0.25270244  1.0
  Ni  Ni917  1  0.83333333  0.92746950  0.25270244  1.0
  Ni  Ni918  1  0.16666667  0.07253050  0.49189269  1.0
  Ni  Ni919  1  0.16666667  0.40586383  0.49189269  1.0
  Ni  Ni920  1  0.16666667  0.73919717  0.49189269  1.0
  Ni  Ni921  1  0.50000000  0.07253050  0.49189269  1.0
  Ni  Ni922  1  0.50000000  0.40586383  0.49189269  1.0
  Ni  Ni923  1  0.50000000  0.73919717  0.49189269  1.0
  Ni  Ni924  1  0.83333333  0.07253050  0.49189269  1.0
  Ni  Ni925  1  0.83333333  0.40586383  0.49189269  1.0
  Ni  Ni926  1  0.83333333  0.73919717  0.49189269  1.0
  Ni  Ni927  1  0.16666667  0.23919717  0.36689269  1.0
  Ni  Ni928  1  0.16666667  0.57253050  0.36689269  1.0
  Ni  Ni929  1  0.16666667  0.90586383  0.36689269  1.0
  Ni  Ni930  1  0.50000000  0.23919717  0.36689269  1.0
  Ni  Ni931  1  0.50000000  0.57253050  0.36689269  1.0
  Ni  Ni932  1  0.50000000  0.90586383  0.36689269  1.0
  Ni  Ni933  1  0.83333333  0.23919717  0.36689269  1.0
  Ni  Ni934  1  0.83333333  0.57253050  0.36689269  1.0
  Ni  Ni935  1  0.83333333  0.90586383  0.36689269  1.0
  Ni  Ni936  1  0.00000000  0.15586633  0.29962081  1.0
  Ni  Ni937  1  0.00000000  0.48919967  0.29962081  1.0
  Ni  Ni938  1  0.00000000  0.82253300  0.29962081  1.0
  Ni  Ni939  1  0.33333333  0.15586633  0.29962081  1.0
  Ni  Ni940  1  0.33333333  0.48919967  0.29962081  1.0
  Ni  Ni941  1  0.33333333  0.82253300  0.29962081  1.0
  Ni  Ni942  1  0.66666667  0.15586633  0.29962081  1.0
  Ni  Ni943  1  0.66666667  0.48919967  0.29962081  1.0
  Ni  Ni944  1  0.66666667  0.82253300  0.29962081  1.0
  Ni  Ni945  1  0.00000000  0.32253300  0.42462081  1.0
  Ni  Ni946  1  0.00000000  0.65586633  0.42462081  1.0
  Ni  Ni947  1  0.00000000  0.98919967  0.42462081  1.0
  Ni  Ni948  1  0.33333333  0.32253300  0.42462081  1.0
  Ni  Ni949  1  0.33333333  0.65586633  0.42462081  1.0
  Ni  Ni950  1  0.33333333  0.98919967  0.42462081  1.0
  Ni  Ni951  1  0.66666667  0.32253300  0.42462081  1.0
  Ni  Ni952  1  0.66666667  0.65586633  0.42462081  1.0
  Ni  Ni953  1  0.66666667  0.98919967  0.42462081  1.0
  Ni  Ni954  1  0.00000000  0.01080033  0.31997431  1.0
  Ni  Ni955  1  0.00000000  0.34413367  0.31997431  1.0
  Ni  Ni956  1  0.00000000  0.67746700  0.31997431  1.0
  Ni  Ni957  1  0.33333333  0.01080033  0.31997431  1.0
  Ni  Ni958  1  0.33333333  0.34413367  0.31997431  1.0
  Ni  Ni959  1  0.33333333  0.67746700  0.31997431  1.0
  Ni  Ni960  1  0.66666667  0.01080033  0.31997431  1.0
  Ni  Ni961  1  0.66666667  0.34413367  0.31997431  1.0
  Ni  Ni962  1  0.66666667  0.67746700  0.31997431  1.0
  Ni  Ni963  1  0.00000000  0.17746700  0.44497431  1.0
  Ni  Ni964  1  0.00000000  0.51080033  0.44497431  1.0
  Ni  Ni965  1  0.00000000  0.84413367  0.44497431  1.0
  Ni  Ni966  1  0.33333333  0.17746700  0.44497431  1.0
  Ni  Ni967  1  0.33333333  0.51080033  0.44497431  1.0
  Ni  Ni968  1  0.33333333  0.84413367  0.44497431  1.0
  Ni  Ni969  1  0.66666667  0.17746700  0.44497431  1.0
  Ni  Ni970  1  0.66666667  0.51080033  0.44497431  1.0
  Ni  Ni971  1  0.66666667  0.84413367  0.44497431  1.0
  Ni  Ni972  1  0.16666667  0.12612783  0.45067819  1.0
  Ni  Ni973  1  0.16666667  0.45946117  0.45067819  1.0
  Ni  Ni974  1  0.16666667  0.79279450  0.45067819  1.0
  Ni  Ni975  1  0.50000000  0.12612783  0.45067819  1.0
  Ni  Ni976  1  0.50000000  0.45946117  0.45067819  1.0
  Ni  Ni977  1  0.50000000  0.79279450  0.45067819  1.0
  Ni  Ni978  1  0.83333333  0.12612783  0.45067819  1.0
  Ni  Ni979  1  0.83333333  0.45946117  0.45067819  1.0
  Ni  Ni980  1  0.83333333  0.79279450  0.45067819  1.0
  Ni  Ni981  1  0.16666667  0.29279450  0.32567819  1.0
  Ni  Ni982  1  0.16666667  0.62612783  0.32567819  1.0
  Ni  Ni983  1  0.16666667  0.95946117  0.32567819  1.0
  Ni  Ni984  1  0.50000000  0.29279450  0.32567819  1.0
  Ni  Ni985  1  0.50000000  0.62612783  0.32567819  1.0
  Ni  Ni986  1  0.50000000  0.95946117  0.32567819  1.0
  Ni  Ni987  1  0.83333333  0.29279450  0.32567819  1.0
  Ni  Ni988  1  0.83333333  0.62612783  0.32567819  1.0
  Ni  Ni989  1  0.83333333  0.95946117  0.32567819  1.0
  Ni  Ni990  1  0.16666667  0.04053883  0.41891694  1.0
  Ni  Ni991  1  0.16666667  0.37387217  0.41891694  1.0
  Ni  Ni992  1  0.16666667  0.70720550  0.41891694  1.0
  Ni  Ni993  1  0.50000000  0.04053883  0.41891694  1.0
  Ni  Ni994  1  0.50000000  0.37387217  0.41891694  1.0
  Ni  Ni995  1  0.50000000  0.70720550  0.41891694  1.0
  Ni  Ni996  1  0.83333333  0.04053883  0.41891694  1.0
  Ni  Ni997  1  0.83333333  0.37387217  0.41891694  1.0
  Ni  Ni998  1  0.83333333  0.70720550  0.41891694  1.0
  Ni  Ni999  1  0.16666667  0.20720550  0.29391694  1.0
  Ni  Ni1000  1  0.16666667  0.54053883  0.29391694  1.0
  Ni  Ni1001  1  0.16666667  0.87387217  0.29391694  1.0
  Ni  Ni1002  1  0.50000000  0.20720550  0.29391694  1.0
  Ni  Ni1003  1  0.50000000  0.54053883  0.29391694  1.0
  Ni  Ni1004  1  0.50000000  0.87387217  0.29391694  1.0
  Ni  Ni1005  1  0.83333333  0.20720550  0.29391694  1.0
  Ni  Ni1006  1  0.83333333  0.54053883  0.29391694  1.0
  Ni  Ni1007  1  0.83333333  0.87387217  0.29391694  1.0
  Ni  Ni1008  1  0.00000000  0.04307533  0.29604231  1.0
  Ni  Ni1009  1  0.00000000  0.37640867  0.29604231  1.0
  Ni  Ni1010  1  0.00000000  0.70974200  0.29604231  1.0
  Ni  Ni1011  1  0.33333333  0.04307533  0.29604231  1.0
  Ni  Ni1012  1  0.33333333  0.37640867  0.29604231  1.0
  Ni  Ni1013  1  0.33333333  0.70974200  0.29604231  1.0
  Ni  Ni1014  1  0.66666667  0.04307533  0.29604231  1.0
  Ni  Ni1015  1  0.66666667  0.37640867  0.29604231  1.0
  Ni  Ni1016  1  0.66666667  0.70974200  0.29604231  1.0
  Ni  Ni1017  1  0.00000000  0.20974200  0.42104231  1.0
  Ni  Ni1018  1  0.00000000  0.54307533  0.42104231  1.0
  Ni  Ni1019  1  0.00000000  0.87640867  0.42104231  1.0
  Ni  Ni1020  1  0.33333333  0.20974200  0.42104231  1.0
  Ni  Ni1021  1  0.33333333  0.54307533  0.42104231  1.0
  Ni  Ni1022  1  0.33333333  0.87640867  0.42104231  1.0
  Ni  Ni1023  1  0.66666667  0.20974200  0.42104231  1.0
  Ni  Ni1024  1  0.66666667  0.54307533  0.42104231  1.0
  Ni  Ni1025  1  0.66666667  0.87640867  0.42104231  1.0
  Ni  Ni1026  1  0.00000000  0.12359133  0.32355281  1.0
  Ni  Ni1027  1  0.00000000  0.45692467  0.32355281  1.0
  Ni  Ni1028  1  0.00000000  0.79025800  0.32355281  1.0
  Ni  Ni1029  1  0.33333333  0.12359133  0.32355281  1.0
  Ni  Ni1030  1  0.33333333  0.45692467  0.32355281  1.0
  Ni  Ni1031  1  0.33333333  0.79025800  0.32355281  1.0
  Ni  Ni1032  1  0.66666667  0.12359133  0.32355281  1.0
  Ni  Ni1033  1  0.66666667  0.45692467  0.32355281  1.0
  Ni  Ni1034  1  0.66666667  0.79025800  0.32355281  1.0
  Ni  Ni1035  1  0.00000000  0.29025800  0.44855281  1.0
  Ni  Ni1036  1  0.00000000  0.62359133  0.44855281  1.0
  Ni  Ni1037  1  0.00000000  0.95692467  0.44855281  1.0
  Ni  Ni1038  1  0.33333333  0.29025800  0.44855281  1.0
  Ni  Ni1039  1  0.33333333  0.62359133  0.44855281  1.0
  Ni  Ni1040  1  0.33333333  0.95692467  0.44855281  1.0
  Ni  Ni1041  1  0.66666667  0.29025800  0.44855281  1.0
  Ni  Ni1042  1  0.66666667  0.62359133  0.44855281  1.0
  Ni  Ni1043  1  0.66666667  0.95692467  0.44855281  1.0
  Ni  Ni1044  1  0.16666667  0.10521033  0.31674806  1.0
  Ni  Ni1045  1  0.16666667  0.43854367  0.31674806  1.0
  Ni  Ni1046  1  0.16666667  0.77187700  0.31674806  1.0
  Ni  Ni1047  1  0.50000000  0.10521033  0.31674806  1.0
  Ni  Ni1048  1  0.50000000  0.43854367  0.31674806  1.0
  Ni  Ni1049  1  0.50000000  0.77187700  0.31674806  1.0
  Ni  Ni1050  1  0.83333333  0.10521033  0.31674806  1.0
  Ni  Ni1051  1  0.83333333  0.43854367  0.31674806  1.0
  Ni  Ni1052  1  0.83333333  0.77187700  0.31674806  1.0
  Ni  Ni1053  1  0.16666667  0.27187700  0.44174806  1.0
  Ni  Ni1054  1  0.16666667  0.60521033  0.44174806  1.0
  Ni  Ni1055  1  0.16666667  0.93854367  0.44174806  1.0
  Ni  Ni1056  1  0.50000000  0.27187700  0.44174806  1.0
  Ni  Ni1057  1  0.50000000  0.60521033  0.44174806  1.0
  Ni  Ni1058  1  0.50000000  0.93854367  0.44174806  1.0
  Ni  Ni1059  1  0.83333333  0.27187700  0.44174806  1.0
  Ni  Ni1060  1  0.83333333  0.60521033  0.44174806  1.0
  Ni  Ni1061  1  0.83333333  0.93854367  0.44174806  1.0
  Ni  Ni1062  1  0.16666667  0.06145633  0.30284706  1.0
  Ni  Ni1063  1  0.16666667  0.39478967  0.30284706  1.0
  Ni  Ni1064  1  0.16666667  0.72812300  0.30284706  1.0
  Ni  Ni1065  1  0.50000000  0.06145633  0.30284706  1.0
  Ni  Ni1066  1  0.50000000  0.39478967  0.30284706  1.0
  Ni  Ni1067  1  0.50000000  0.72812300  0.30284706  1.0
  Ni  Ni1068  1  0.83333333  0.06145633  0.30284706  1.0
  Ni  Ni1069  1  0.83333333  0.39478967  0.30284706  1.0
  Ni  Ni1070  1  0.83333333  0.72812300  0.30284706  1.0
  Ni  Ni1071  1  0.16666667  0.22812300  0.42784706  1.0
  Ni  Ni1072  1  0.16666667  0.56145633  0.42784706  1.0
  Ni  Ni1073  1  0.16666667  0.89478967  0.42784706  1.0
  Ni  Ni1074  1  0.50000000  0.22812300  0.42784706  1.0
  Ni  Ni1075  1  0.50000000  0.56145633  0.42784706  1.0
  Ni  Ni1076  1  0.50000000  0.89478967  0.42784706  1.0
  Ni  Ni1077  1  0.83333333  0.22812300  0.42784706  1.0
  Ni  Ni1078  1  0.83333333  0.56145633  0.42784706  1.0
  Ni  Ni1079  1  0.83333333  0.89478967  0.42784706  1.0
