# generated using pymatgen
data_V3Ni2
_symmetry_space_group_name_H-M   'P 1'
_cell_length_a   30.05651867
_cell_length_b   60.57639990
_cell_length_c   32.29048200
_cell_angle_alpha   90.00000000
_cell_angle_beta   62.58545305
_cell_angle_gamma   66.52923016
_symmetry_Int_Tables_number   1
_chemical_formula_structural   V3Ni2
_chemical_formula_sum   'V972 Ni648'
_cell_volume   46641.59536157
_cell_formula_units_Z   324
loop_
 _symmetry_equiv_pos_site_id
 _symmetry_equiv_pos_as_xyz
  1  'x, y, z'
loop_
 _atom_site_type_symbol
 _atom_site_label
 _atom_site_symmetry_multiplicity
 _atom_site_fract_x
 _atom_site_fract_y
 _atom_site_fract_z
 _atom_site_occupancy
  V  V0  1  0.15860583  0.27996750  0.03341886  1.0
  V  V1  1  0.15860583  0.61330083  0.03341886  1.0
  V  V2  1  0.15860583  0.94663417  0.03341886  1.0
  V  V3  1  0.49193917  0.27996750  0.03341886  1.0
  V  V4  1  0.49193917  0.61330083  0.03341886  1.0
  V  V5  1  0.49193917  0.94663417  0.03341886  1.0
  V  V6  1  0.82527250  0.27996750  0.03341886  1.0
  V  V7  1  0.82527250  0.61330083  0.03341886  1.0
  V  V8  1  0.82527250  0.94663417  0.03341886  1.0
  V  V9  1  0.32527250  0.11330083  0.10484743  1.0
  V  V10  1  0.32527250  0.44663417  0.10484743  1.0
  V  V11  1  0.32527250  0.77996750  0.10484743  1.0
  V  V12  1  0.65860583  0.11330083  0.10484743  1.0
  V  V13  1  0.65860583  0.44663417  0.10484743  1.0
  V  V14  1  0.65860583  0.77996750  0.10484743  1.0
  V  V15  1  0.99193917  0.11330083  0.10484743  1.0
  V  V16  1  0.99193917  0.44663417  0.10484743  1.0
  V  V17  1  0.99193917  0.77996750  0.10484743  1.0
  V  V18  1  0.00806083  0.22003250  0.09793814  1.0
  V  V19  1  0.00806083  0.55336583  0.09793814  1.0
  V  V20  1  0.00806083  0.88669917  0.09793814  1.0
  V  V21  1  0.34139417  0.22003250  0.09793814  1.0
  V  V22  1  0.34139417  0.55336583  0.09793814  1.0
  V  V23  1  0.34139417  0.88669917  0.09793814  1.0
  V  V24  1  0.67472750  0.22003250  0.09793814  1.0
  V  V25  1  0.67472750  0.55336583  0.09793814  1.0
  V  V26  1  0.67472750  0.88669917  0.09793814  1.0
  V  V27  1  0.17472750  0.05336583  0.02650957  1.0
  V  V28  1  0.17472750  0.38669917  0.02650957  1.0
  V  V29  1  0.17472750  0.72003250  0.02650957  1.0
  V  V30  1  0.50806083  0.05336583  0.02650957  1.0
  V  V31  1  0.50806083  0.38669917  0.02650957  1.0
  V  V32  1  0.50806083  0.72003250  0.02650957  1.0
  V  V33  1  0.84139417  0.05336583  0.02650957  1.0
  V  V34  1  0.84139417  0.38669917  0.02650957  1.0
  V  V35  1  0.84139417  0.72003250  0.02650957  1.0
  V  V36  1  0.30445250  0.30291117  0.04235429  1.0
  V  V37  1  0.30445250  0.63624450  0.04235429  1.0
  V  V38  1  0.30445250  0.96957783  0.04235429  1.0
  V  V39  1  0.63778583  0.30291117  0.04235429  1.0
  V  V40  1  0.63778583  0.63624450  0.04235429  1.0
  V  V41  1  0.63778583  0.96957783  0.04235429  1.0
  V  V42  1  0.97111917  0.30291117  0.04235429  1.0
  V  V43  1  0.97111917  0.63624450  0.04235429  1.0
  V  V44  1  0.97111917  0.96957783  0.04235429  1.0
  V  V45  1  0.13778583  0.13624450  0.11378286  1.0
  V  V46  1  0.13778583  0.46957783  0.11378286  1.0
  V  V47  1  0.13778583  0.80291117  0.11378286  1.0
  V  V48  1  0.47111917  0.13624450  0.11378286  1.0
  V  V49  1  0.47111917  0.46957783  0.11378286  1.0
  V  V50  1  0.47111917  0.80291117  0.11378286  1.0
  V  V51  1  0.80445250  0.13624450  0.11378286  1.0
  V  V52  1  0.80445250  0.46957783  0.11378286  1.0
  V  V53  1  0.80445250  0.80291117  0.11378286  1.0
  V  V54  1  0.19554750  0.19708883  0.08902786  1.0
  V  V55  1  0.19554750  0.53042217  0.08902786  1.0
  V  V56  1  0.19554750  0.86375550  0.08902786  1.0
  V  V57  1  0.52888083  0.19708883  0.08902786  1.0
  V  V58  1  0.52888083  0.53042217  0.08902786  1.0
  V  V59  1  0.52888083  0.86375550  0.08902786  1.0
  V  V60  1  0.86221417  0.19708883  0.08902786  1.0
  V  V61  1  0.86221417  0.53042217  0.08902786  1.0
  V  V62  1  0.86221417  0.86375550  0.08902786  1.0
  V  V63  1  0.02888083  0.03042217  0.01759929  1.0
  V  V64  1  0.02888083  0.36375550  0.01759929  1.0
  V  V65  1  0.02888083  0.69708883  0.01759929  1.0
  V  V66  1  0.36221417  0.03042217  0.01759929  1.0
  V  V67  1  0.36221417  0.36375550  0.01759929  1.0
  V  V68  1  0.36221417  0.69708883  0.01759929  1.0
  V  V69  1  0.69554750  0.03042217  0.01759929  1.0
  V  V70  1  0.69554750  0.36375550  0.01759929  1.0
  V  V71  1  0.69554750  0.69708883  0.01759929  1.0
  V  V72  1  0.00806083  0.22003250  0.02525300  1.0
  V  V73  1  0.00806083  0.55336583  0.02525300  1.0
  V  V74  1  0.00806083  0.88669917  0.02525300  1.0
  V  V75  1  0.34139417  0.22003250  0.02525300  1.0
  V  V76  1  0.34139417  0.55336583  0.02525300  1.0
  V  V77  1  0.34139417  0.88669917  0.02525300  1.0
  V  V78  1  0.67472750  0.22003250  0.02525300  1.0
  V  V79  1  0.67472750  0.55336583  0.02525300  1.0
  V  V80  1  0.67472750  0.88669917  0.02525300  1.0
  V  V81  1  0.17472750  0.05336583  0.09668157  1.0
  V  V82  1  0.17472750  0.38669917  0.09668157  1.0
  V  V83  1  0.17472750  0.72003250  0.09668157  1.0
  V  V84  1  0.50806083  0.05336583  0.09668157  1.0
  V  V85  1  0.50806083  0.38669917  0.09668157  1.0
  V  V86  1  0.50806083  0.72003250  0.09668157  1.0
  V  V87  1  0.84139417  0.05336583  0.09668157  1.0
  V  V88  1  0.84139417  0.38669917  0.09668157  1.0
  V  V89  1  0.84139417  0.72003250  0.09668157  1.0
  V  V90  1  0.15860583  0.27996750  0.10359086  1.0
  V  V91  1  0.15860583  0.61330083  0.10359086  1.0
  V  V92  1  0.15860583  0.94663417  0.10359086  1.0
  V  V93  1  0.49193917  0.27996750  0.10359086  1.0
  V  V94  1  0.49193917  0.61330083  0.10359086  1.0
  V  V95  1  0.49193917  0.94663417  0.10359086  1.0
  V  V96  1  0.82527250  0.27996750  0.10359086  1.0
  V  V97  1  0.82527250  0.61330083  0.10359086  1.0
  V  V98  1  0.82527250  0.94663417  0.10359086  1.0
  V  V99  1  0.32527250  0.11330083  0.03216229  1.0
  V  V100  1  0.32527250  0.44663417  0.03216229  1.0
  V  V101  1  0.32527250  0.77996750  0.03216229  1.0
  V  V102  1  0.65860583  0.11330083  0.03216229  1.0
  V  V103  1  0.65860583  0.44663417  0.03216229  1.0
  V  V104  1  0.65860583  0.77996750  0.03216229  1.0
  V  V105  1  0.99193917  0.11330083  0.03216229  1.0
  V  V106  1  0.99193917  0.44663417  0.03216229  1.0
  V  V107  1  0.99193917  0.77996750  0.03216229  1.0
  V  V108  1  0.19554750  0.19708883  0.01631757  1.0
  V  V109  1  0.19554750  0.53042217  0.01631757  1.0
  V  V110  1  0.19554750  0.86375550  0.01631757  1.0
  V  V111  1  0.52888083  0.19708883  0.01631757  1.0
  V  V112  1  0.52888083  0.53042217  0.01631757  1.0
  V  V113  1  0.52888083  0.86375550  0.01631757  1.0
  V  V114  1  0.86221417  0.19708883  0.01631757  1.0
  V  V115  1  0.86221417  0.53042217  0.01631757  1.0
  V  V116  1  0.86221417  0.86375550  0.01631757  1.0
  V  V117  1  0.02888083  0.03042217  0.08774614  1.0
  V  V118  1  0.02888083  0.36375550  0.08774614  1.0
  V  V119  1  0.02888083  0.69708883  0.08774614  1.0
  V  V120  1  0.36221417  0.03042217  0.08774614  1.0
  V  V121  1  0.36221417  0.36375550  0.08774614  1.0
  V  V122  1  0.36221417  0.69708883  0.08774614  1.0
  V  V123  1  0.69554750  0.03042217  0.08774614  1.0
  V  V124  1  0.69554750  0.36375550  0.08774614  1.0
  V  V125  1  0.69554750  0.69708883  0.08774614  1.0
  V  V126  1  0.30445250  0.30291117  0.11250114  1.0
  V  V127  1  0.30445250  0.63624450  0.11250114  1.0
  V  V128  1  0.30445250  0.96957783  0.11250114  1.0
  V  V129  1  0.63778583  0.30291117  0.11250114  1.0
  V  V130  1  0.63778583  0.63624450  0.11250114  1.0
  V  V131  1  0.63778583  0.96957783  0.11250114  1.0
  V  V132  1  0.97111917  0.30291117  0.11250114  1.0
  V  V133  1  0.97111917  0.63624450  0.11250114  1.0
  V  V134  1  0.97111917  0.96957783  0.11250114  1.0
  V  V135  1  0.13778583  0.13624450  0.04107257  1.0
  V  V136  1  0.13778583  0.46957783  0.04107257  1.0
  V  V137  1  0.13778583  0.80291117  0.04107257  1.0
  V  V138  1  0.47111917  0.13624450  0.04107257  1.0
  V  V139  1  0.47111917  0.46957783  0.04107257  1.0
  V  V140  1  0.47111917  0.80291117  0.04107257  1.0
  V  V141  1  0.80445250  0.13624450  0.04107257  1.0
  V  V142  1  0.80445250  0.46957783  0.04107257  1.0
  V  V143  1  0.80445250  0.80291117  0.04107257  1.0
  V  V144  1  0.05251600  0.31611100  0.04254336  1.0
  V  V145  1  0.05251600  0.64944433  0.04254336  1.0
  V  V146  1  0.05251600  0.98277767  0.04254336  1.0
  V  V147  1  0.38584933  0.31611100  0.04254336  1.0
  V  V148  1  0.38584933  0.64944433  0.04254336  1.0
  V  V149  1  0.38584933  0.98277767  0.04254336  1.0
  V  V150  1  0.71918267  0.31611100  0.04254336  1.0
  V  V151  1  0.71918267  0.64944433  0.04254336  1.0
  V  V152  1  0.71918267  0.98277767  0.04254336  1.0
  V  V153  1  0.21918267  0.14944433  0.11397193  1.0
  V  V154  1  0.21918267  0.48277767  0.11397193  1.0
  V  V155  1  0.21918267  0.81611100  0.11397193  1.0
  V  V156  1  0.55251600  0.14944433  0.11397193  1.0
  V  V157  1  0.55251600  0.48277767  0.11397193  1.0
  V  V158  1  0.55251600  0.81611100  0.11397193  1.0
  V  V159  1  0.88584933  0.14944433  0.11397193  1.0
  V  V160  1  0.88584933  0.48277767  0.11397193  1.0
  V  V161  1  0.88584933  0.81611100  0.11397193  1.0
  V  V162  1  0.11415067  0.18388900  0.01612850  1.0
  V  V163  1  0.11415067  0.51722233  0.01612850  1.0
  V  V164  1  0.11415067  0.85055567  0.01612850  1.0
  V  V165  1  0.44748400  0.18388900  0.01612850  1.0
  V  V166  1  0.44748400  0.51722233  0.01612850  1.0
  V  V167  1  0.44748400  0.85055567  0.01612850  1.0
  V  V168  1  0.78081733  0.18388900  0.01612850  1.0
  V  V169  1  0.78081733  0.51722233  0.01612850  1.0
  V  V170  1  0.78081733  0.85055567  0.01612850  1.0
  V  V171  1  0.28081733  0.01722233  0.08755707  1.0
  V  V172  1  0.28081733  0.35055567  0.08755707  1.0
  V  V173  1  0.28081733  0.68388900  0.08755707  1.0
  V  V174  1  0.61415067  0.01722233  0.08755707  1.0
  V  V175  1  0.61415067  0.35055567  0.08755707  1.0
  V  V176  1  0.61415067  0.68388900  0.08755707  1.0
  V  V177  1  0.94748400  0.01722233  0.08755707  1.0
  V  V178  1  0.94748400  0.35055567  0.08755707  1.0
  V  V179  1  0.94748400  0.68388900  0.08755707  1.0
  V  V180  1  0.26892133  0.26777700  0.02122679  1.0
  V  V181  1  0.26892133  0.60111033  0.02122679  1.0
  V  V182  1  0.26892133  0.93444367  0.02122679  1.0
  V  V183  1  0.60225467  0.26777700  0.02122679  1.0
  V  V184  1  0.60225467  0.60111033  0.02122679  1.0
  V  V185  1  0.60225467  0.93444367  0.02122679  1.0
  V  V186  1  0.93558800  0.26777700  0.02122679  1.0
  V  V187  1  0.93558800  0.60111033  0.02122679  1.0
  V  V188  1  0.93558800  0.93444367  0.02122679  1.0
  V  V189  1  0.10225467  0.10111033  0.09265536  1.0
  V  V190  1  0.10225467  0.43444367  0.09265536  1.0
  V  V191  1  0.10225467  0.76777700  0.09265536  1.0
  V  V192  1  0.43558800  0.10111033  0.09265536  1.0
  V  V193  1  0.43558800  0.43444367  0.09265536  1.0
  V  V194  1  0.43558800  0.76777700  0.09265536  1.0
  V  V195  1  0.76892133  0.10111033  0.09265536  1.0
  V  V196  1  0.76892133  0.43444367  0.09265536  1.0
  V  V197  1  0.76892133  0.76777700  0.09265536  1.0
  V  V198  1  0.23107867  0.23222300  0.03744507  1.0
  V  V199  1  0.23107867  0.56555633  0.03744507  1.0
  V  V200  1  0.23107867  0.89888967  0.03744507  1.0
  V  V201  1  0.56441200  0.23222300  0.03744507  1.0
  V  V202  1  0.56441200  0.56555633  0.03744507  1.0
  V  V203  1  0.56441200  0.89888967  0.03744507  1.0
  V  V204  1  0.89774533  0.23222300  0.03744507  1.0
  V  V205  1  0.89774533  0.56555633  0.03744507  1.0
  V  V206  1  0.89774533  0.89888967  0.03744507  1.0
  V  V207  1  0.06441200  0.06555633  0.10887364  1.0
  V  V208  1  0.06441200  0.39888967  0.10887364  1.0
  V  V209  1  0.06441200  0.73222300  0.10887364  1.0
  V  V210  1  0.39774533  0.06555633  0.10887364  1.0
  V  V211  1  0.39774533  0.39888967  0.10887364  1.0
  V  V212  1  0.39774533  0.73222300  0.10887364  1.0
  V  V213  1  0.73107867  0.06555633  0.10887364  1.0
  V  V214  1  0.73107867  0.39888967  0.10887364  1.0
  V  V215  1  0.73107867  0.73222300  0.10887364  1.0
  V  V216  1  0.19913433  0.31245767  0.05113550  1.0
  V  V217  1  0.19913433  0.64579100  0.05113550  1.0
  V  V218  1  0.19913433  0.97912433  0.05113550  1.0
  V  V219  1  0.53246767  0.31245767  0.05113550  1.0
  V  V220  1  0.53246767  0.64579100  0.05113550  1.0
  V  V221  1  0.53246767  0.97912433  0.05113550  1.0
  V  V222  1  0.86580100  0.31245767  0.05113550  1.0
  V  V223  1  0.86580100  0.64579100  0.05113550  1.0
  V  V224  1  0.86580100  0.97912433  0.05113550  1.0
  V  V225  1  0.03246767  0.14579100  0.12256407  1.0
  V  V226  1  0.03246767  0.47912433  0.12256407  1.0
  V  V227  1  0.03246767  0.81245767  0.12256407  1.0
  V  V228  1  0.36580100  0.14579100  0.12256407  1.0
  V  V229  1  0.36580100  0.47912433  0.12256407  1.0
  V  V230  1  0.36580100  0.81245767  0.12256407  1.0
  V  V231  1  0.69913433  0.14579100  0.12256407  1.0
  V  V232  1  0.69913433  0.47912433  0.12256407  1.0
  V  V233  1  0.69913433  0.81245767  0.12256407  1.0
  V  V234  1  0.30086567  0.18754233  0.00753636  1.0
  V  V235  1  0.30086567  0.52087567  0.00753636  1.0
  V  V236  1  0.30086567  0.85420900  0.00753636  1.0
  V  V237  1  0.63419900  0.18754233  0.00753636  1.0
  V  V238  1  0.63419900  0.52087567  0.00753636  1.0
  V  V239  1  0.63419900  0.85420900  0.00753636  1.0
  V  V240  1  0.96753233  0.18754233  0.00753636  1.0
  V  V241  1  0.96753233  0.52087567  0.00753636  1.0
  V  V242  1  0.96753233  0.85420900  0.00753636  1.0
  V  V243  1  0.13419900  0.02087567  0.07896493  1.0
  V  V244  1  0.13419900  0.35420900  0.07896493  1.0
  V  V245  1  0.13419900  0.68754233  0.07896493  1.0
  V  V246  1  0.46753233  0.02087567  0.07896493  1.0
  V  V247  1  0.46753233  0.35420900  0.07896493  1.0
  V  V248  1  0.46753233  0.68754233  0.07896493  1.0
  V  V249  1  0.80086567  0.02087567  0.07896493  1.0
  V  V250  1  0.80086567  0.35420900  0.07896493  1.0
  V  V251  1  0.80086567  0.68754233  0.07896493  1.0
  V  V252  1  0.03617017  0.17261683  0.04954871  1.0
  V  V253  1  0.03617017  0.50595017  0.04954871  1.0
  V  V254  1  0.03617017  0.83928350  0.04954871  1.0
  V  V255  1  0.36950350  0.17261683  0.04954871  1.0
  V  V256  1  0.36950350  0.50595017  0.04954871  1.0
  V  V257  1  0.36950350  0.83928350  0.04954871  1.0
  V  V258  1  0.70283683  0.17261683  0.04954871  1.0
  V  V259  1  0.70283683  0.50595017  0.04954871  1.0
  V  V260  1  0.70283683  0.83928350  0.04954871  1.0
  V  V261  1  0.20283683  0.00595017  0.12097729  1.0
  V  V262  1  0.20283683  0.33928350  0.12097729  1.0
  V  V263  1  0.20283683  0.67261683  0.12097729  1.0
  V  V264  1  0.53617017  0.00595017  0.12097729  1.0
  V  V265  1  0.53617017  0.33928350  0.12097729  1.0
  V  V266  1  0.53617017  0.67261683  0.12097729  1.0
  V  V267  1  0.86950350  0.00595017  0.12097729  1.0
  V  V268  1  0.86950350  0.33928350  0.12097729  1.0
  V  V269  1  0.86950350  0.67261683  0.12097729  1.0
  V  V270  1  0.13049650  0.32738317  0.00912314  1.0
  V  V271  1  0.13049650  0.66071650  0.00912314  1.0
  V  V272  1  0.13049650  0.99404983  0.00912314  1.0
  V  V273  1  0.46382983  0.32738317  0.00912314  1.0
  V  V274  1  0.46382983  0.66071650  0.00912314  1.0
  V  V275  1  0.46382983  0.99404983  0.00912314  1.0
  V  V276  1  0.79716317  0.32738317  0.00912314  1.0
  V  V277  1  0.79716317  0.66071650  0.00912314  1.0
  V  V278  1  0.79716317  0.99404983  0.00912314  1.0
  V  V279  1  0.29716317  0.16071650  0.08055171  1.0
  V  V280  1  0.29716317  0.49404983  0.08055171  1.0
  V  V281  1  0.29716317  0.82738317  0.08055171  1.0
  V  V282  1  0.63049650  0.16071650  0.08055171  1.0
  V  V283  1  0.63049650  0.49404983  0.08055171  1.0
  V  V284  1  0.63049650  0.82738317  0.08055171  1.0
  V  V285  1  0.96382983  0.16071650  0.08055171  1.0
  V  V286  1  0.96382983  0.49404983  0.08055171  1.0
  V  V287  1  0.96382983  0.82738317  0.08055171  1.0
  V  V288  1  0.03697217  0.25570183  0.12063357  1.0
  V  V289  1  0.03697217  0.58903517  0.12063357  1.0
  V  V290  1  0.03697217  0.92236850  0.12063357  1.0
  V  V291  1  0.37030550  0.25570183  0.12063357  1.0
  V  V292  1  0.37030550  0.58903517  0.12063357  1.0
  V  V293  1  0.37030550  0.92236850  0.12063357  1.0
  V  V294  1  0.70363883  0.25570183  0.12063357  1.0
  V  V295  1  0.70363883  0.58903517  0.12063357  1.0
  V  V296  1  0.70363883  0.92236850  0.12063357  1.0
  V  V297  1  0.20363883  0.08903517  0.04920500  1.0
  V  V298  1  0.20363883  0.42236850  0.04920500  1.0
  V  V299  1  0.20363883  0.75570183  0.04920500  1.0
  V  V300  1  0.53697217  0.08903517  0.04920500  1.0
  V  V301  1  0.53697217  0.42236850  0.04920500  1.0
  V  V302  1  0.53697217  0.75570183  0.04920500  1.0
  V  V303  1  0.87030550  0.08903517  0.04920500  1.0
  V  V304  1  0.87030550  0.42236850  0.04920500  1.0
  V  V305  1  0.87030550  0.75570183  0.04920500  1.0
  V  V306  1  0.12969450  0.24429817  0.08089543  1.0
  V  V307  1  0.12969450  0.57763150  0.08089543  1.0
  V  V308  1  0.12969450  0.91096483  0.08089543  1.0
  V  V309  1  0.46302783  0.24429817  0.08089543  1.0
  V  V310  1  0.46302783  0.57763150  0.08089543  1.0
  V  V311  1  0.46302783  0.91096483  0.08089543  1.0
  V  V312  1  0.79636117  0.24429817  0.08089543  1.0
  V  V313  1  0.79636117  0.57763150  0.08089543  1.0
  V  V314  1  0.79636117  0.91096483  0.08089543  1.0
  V  V315  1  0.29636117  0.07763150  0.00946686  1.0
  V  V316  1  0.29636117  0.41096483  0.00946686  1.0
  V  V317  1  0.29636117  0.74429817  0.00946686  1.0
  V  V318  1  0.62969450  0.07763150  0.00946686  1.0
  V  V319  1  0.62969450  0.41096483  0.00946686  1.0
  V  V320  1  0.62969450  0.74429817  0.00946686  1.0
  V  V321  1  0.96302783  0.07763150  0.00946686  1.0
  V  V322  1  0.96302783  0.41096483  0.00946686  1.0
  V  V323  1  0.96302783  0.74429817  0.00946686  1.0
  Ni  Ni324  1  0.25000000  0.25000000  0.10076450  1.0
  Ni  Ni325  1  0.25000000  0.58333333  0.10076450  1.0
  Ni  Ni326  1  0.25000000  0.91666667  0.10076450  1.0
  Ni  Ni327  1  0.58333333  0.25000000  0.10076450  1.0
  Ni  Ni328  1  0.58333333  0.58333333  0.10076450  1.0
  Ni  Ni329  1  0.58333333  0.91666667  0.10076450  1.0
  Ni  Ni330  1  0.91666667  0.25000000  0.10076450  1.0
  Ni  Ni331  1  0.91666667  0.58333333  0.10076450  1.0
  Ni  Ni332  1  0.91666667  0.91666667  0.10076450  1.0
  Ni  Ni333  1  0.08333333  0.08333333  0.02933593  1.0
  Ni  Ni334  1  0.08333333  0.41666667  0.02933593  1.0
  Ni  Ni335  1  0.08333333  0.75000000  0.02933593  1.0
  Ni  Ni336  1  0.41666667  0.08333333  0.02933593  1.0
  Ni  Ni337  1  0.41666667  0.41666667  0.02933593  1.0
  Ni  Ni338  1  0.41666667  0.75000000  0.02933593  1.0
  Ni  Ni339  1  0.75000000  0.08333333  0.02933593  1.0
  Ni  Ni340  1  0.75000000  0.41666667  0.02933593  1.0
  Ni  Ni341  1  0.75000000  0.75000000  0.02933593  1.0
  Ni  Ni342  1  0.16666667  0.16666667  0.06505021  1.0
  Ni  Ni343  1  0.16666667  0.50000000  0.06505021  1.0
  Ni  Ni344  1  0.16666667  0.83333333  0.06505021  1.0
  Ni  Ni345  1  0.50000000  0.16666667  0.06505021  1.0
  Ni  Ni346  1  0.50000000  0.50000000  0.06505021  1.0
  Ni  Ni347  1  0.50000000  0.83333333  0.06505021  1.0
  Ni  Ni348  1  0.83333333  0.16666667  0.06505021  1.0
  Ni  Ni349  1  0.83333333  0.50000000  0.06505021  1.0
  Ni  Ni350  1  0.83333333  0.83333333  0.06505021  1.0
  Ni  Ni351  1  0.00000000  0.00000000  0.13647879  1.0
  Ni  Ni352  1  0.00000000  0.33333333  0.13647879  1.0
  Ni  Ni353  1  0.00000000  0.66666667  0.13647879  1.0
  Ni  Ni354  1  0.33333333  0.00000000  0.13647879  1.0
  Ni  Ni355  1  0.33333333  0.33333333  0.13647879  1.0
  Ni  Ni356  1  0.33333333  0.66666667  0.13647879  1.0
  Ni  Ni357  1  0.66666667  0.00000000  0.13647879  1.0
  Ni  Ni358  1  0.66666667  0.33333333  0.13647879  1.0
  Ni  Ni359  1  0.66666667  0.66666667  0.13647879  1.0
  Ni  Ni360  1  0.32612683  0.26080283  0.06813871  1.0
  Ni  Ni361  1  0.32612683  0.59413617  0.06813871  1.0
  Ni  Ni362  1  0.32612683  0.92746950  0.06813871  1.0
  Ni  Ni363  1  0.65946017  0.26080283  0.06813871  1.0
  Ni  Ni364  1  0.65946017  0.59413617  0.06813871  1.0
  Ni  Ni365  1  0.65946017  0.92746950  0.06813871  1.0
  Ni  Ni366  1  0.99279350  0.26080283  0.06813871  1.0
  Ni  Ni367  1  0.99279350  0.59413617  0.06813871  1.0
  Ni  Ni368  1  0.99279350  0.92746950  0.06813871  1.0
  Ni  Ni369  1  0.15946017  0.09413617  0.13956729  1.0
  Ni  Ni370  1  0.15946017  0.42746950  0.13956729  1.0
  Ni  Ni371  1  0.15946017  0.76080283  0.13956729  1.0
  Ni  Ni372  1  0.49279350  0.09413617  0.13956729  1.0
  Ni  Ni373  1  0.49279350  0.42746950  0.13956729  1.0
  Ni  Ni374  1  0.49279350  0.76080283  0.13956729  1.0
  Ni  Ni375  1  0.82612683  0.09413617  0.13956729  1.0
  Ni  Ni376  1  0.82612683  0.42746950  0.13956729  1.0
  Ni  Ni377  1  0.82612683  0.76080283  0.13956729  1.0
  Ni  Ni378  1  0.17387317  0.23919717  0.13339029  1.0
  Ni  Ni379  1  0.17387317  0.57253050  0.13339029  1.0
  Ni  Ni380  1  0.17387317  0.90586383  0.13339029  1.0
  Ni  Ni381  1  0.50720650  0.23919717  0.13339029  1.0
  Ni  Ni382  1  0.50720650  0.57253050  0.13339029  1.0
  Ni  Ni383  1  0.50720650  0.90586383  0.13339029  1.0
  Ni  Ni384  1  0.84053983  0.23919717  0.13339029  1.0
  Ni  Ni385  1  0.84053983  0.57253050  0.13339029  1.0
  Ni  Ni386  1  0.84053983  0.90586383  0.13339029  1.0
  Ni  Ni387  1  0.00720650  0.07253050  0.06196171  1.0
  Ni  Ni388  1  0.00720650  0.40586383  0.06196171  1.0
  Ni  Ni389  1  0.00720650  0.73919717  0.06196171  1.0
  Ni  Ni390  1  0.34053983  0.07253050  0.06196171  1.0
  Ni  Ni391  1  0.34053983  0.40586383  0.06196171  1.0
  Ni  Ni392  1  0.34053983  0.73919717  0.06196171  1.0
  Ni  Ni393  1  0.67387317  0.07253050  0.06196171  1.0
  Ni  Ni394  1  0.67387317  0.40586383  0.06196171  1.0
  Ni  Ni395  1  0.67387317  0.73919717  0.06196171  1.0
  Ni  Ni396  1  0.09690233  0.32253300  0.09494921  1.0
  Ni  Ni397  1  0.09690233  0.65586633  0.09494921  1.0
  Ni  Ni398  1  0.09690233  0.98919967  0.09494921  1.0
  Ni  Ni399  1  0.43023567  0.32253300  0.09494921  1.0
  Ni  Ni400  1  0.43023567  0.65586633  0.09494921  1.0
  Ni  Ni401  1  0.43023567  0.98919967  0.09494921  1.0
  Ni  Ni402  1  0.76356900  0.32253300  0.09494921  1.0
  Ni  Ni403  1  0.76356900  0.65586633  0.09494921  1.0
  Ni  Ni404  1  0.76356900  0.98919967  0.09494921  1.0
  Ni  Ni405  1  0.26356900  0.15586633  0.02352064  1.0
  Ni  Ni406  1  0.26356900  0.48919967  0.02352064  1.0
  Ni  Ni407  1  0.26356900  0.82253300  0.02352064  1.0
  Ni  Ni408  1  0.59690233  0.15586633  0.02352064  1.0
  Ni  Ni409  1  0.59690233  0.48919967  0.02352064  1.0
  Ni  Ni410  1  0.59690233  0.82253300  0.02352064  1.0
  Ni  Ni411  1  0.93023567  0.15586633  0.02352064  1.0
  Ni  Ni412  1  0.93023567  0.48919967  0.02352064  1.0
  Ni  Ni413  1  0.93023567  0.82253300  0.02352064  1.0
  Ni  Ni414  1  0.06976433  0.17746700  0.10657979  1.0
  Ni  Ni415  1  0.06976433  0.51080033  0.10657979  1.0
  Ni  Ni416  1  0.06976433  0.84413367  0.10657979  1.0
  Ni  Ni417  1  0.40309767  0.17746700  0.10657979  1.0
  Ni  Ni418  1  0.40309767  0.51080033  0.10657979  1.0
  Ni  Ni419  1  0.40309767  0.84413367  0.10657979  1.0
  Ni  Ni420  1  0.73643100  0.17746700  0.10657979  1.0
  Ni  Ni421  1  0.73643100  0.51080033  0.10657979  1.0
  Ni  Ni422  1  0.73643100  0.84413367  0.10657979  1.0
  Ni  Ni423  1  0.23643100  0.01080033  0.03515121  1.0
  Ni  Ni424  1  0.23643100  0.34413367  0.03515121  1.0
  Ni  Ni425  1  0.23643100  0.67746700  0.03515121  1.0
  Ni  Ni426  1  0.56976433  0.01080033  0.03515121  1.0
  Ni  Ni427  1  0.56976433  0.34413367  0.03515121  1.0
  Ni  Ni428  1  0.56976433  0.67746700  0.03515121  1.0
  Ni  Ni429  1  0.90309767  0.01080033  0.03515121  1.0
  Ni  Ni430  1  0.90309767  0.34413367  0.03515121  1.0
  Ni  Ni431  1  0.90309767  0.67746700  0.03515121  1.0
  Ni  Ni432  1  0.22882583  0.29279450  0.10983914  1.0
  Ni  Ni433  1  0.22882583  0.62612783  0.10983914  1.0
  Ni  Ni434  1  0.22882583  0.95946117  0.10983914  1.0
  Ni  Ni435  1  0.56215917  0.29279450  0.10983914  1.0
  Ni  Ni436  1  0.56215917  0.62612783  0.10983914  1.0
  Ni  Ni437  1  0.56215917  0.95946117  0.10983914  1.0
  Ni  Ni438  1  0.89549250  0.29279450  0.10983914  1.0
  Ni  Ni439  1  0.89549250  0.62612783  0.10983914  1.0
  Ni  Ni440  1  0.89549250  0.95946117  0.10983914  1.0
  Ni  Ni441  1  0.06215917  0.12612783  0.03841057  1.0
  Ni  Ni442  1  0.06215917  0.45946117  0.03841057  1.0
  Ni  Ni443  1  0.06215917  0.79279450  0.03841057  1.0
  Ni  Ni444  1  0.39549250  0.12612783  0.03841057  1.0
  Ni  Ni445  1  0.39549250  0.45946117  0.03841057  1.0
  Ni  Ni446  1  0.39549250  0.79279450  0.03841057  1.0
  Ni  Ni447  1  0.72882583  0.12612783  0.03841057  1.0
  Ni  Ni448  1  0.72882583  0.45946117  0.03841057  1.0
  Ni  Ni449  1  0.72882583  0.79279450  0.03841057  1.0
  Ni  Ni450  1  0.27117417  0.20720550  0.09168986  1.0
  Ni  Ni451  1  0.27117417  0.54053883  0.09168986  1.0
  Ni  Ni452  1  0.27117417  0.87387217  0.09168986  1.0
  Ni  Ni453  1  0.60450750  0.20720550  0.09168986  1.0
  Ni  Ni454  1  0.60450750  0.54053883  0.09168986  1.0
  Ni  Ni455  1  0.60450750  0.87387217  0.09168986  1.0
  Ni  Ni456  1  0.93784083  0.20720550  0.09168986  1.0
  Ni  Ni457  1  0.93784083  0.54053883  0.09168986  1.0
  Ni  Ni458  1  0.93784083  0.87387217  0.09168986  1.0
  Ni  Ni459  1  0.10450750  0.04053883  0.02026129  1.0
  Ni  Ni460  1  0.10450750  0.37387217  0.02026129  1.0
  Ni  Ni461  1  0.10450750  0.70720550  0.02026129  1.0
  Ni  Ni462  1  0.43784083  0.04053883  0.02026129  1.0
  Ni  Ni463  1  0.43784083  0.37387217  0.02026129  1.0
  Ni  Ni464  1  0.43784083  0.70720550  0.02026129  1.0
  Ni  Ni465  1  0.77117417  0.04053883  0.02026129  1.0
  Ni  Ni466  1  0.77117417  0.37387217  0.02026129  1.0
  Ni  Ni467  1  0.77117417  0.70720550  0.02026129  1.0
  Ni  Ni468  1  0.10167367  0.20974200  0.09290436  1.0
  Ni  Ni469  1  0.10167367  0.54307533  0.09290436  1.0
  Ni  Ni470  1  0.10167367  0.87640867  0.09290436  1.0
  Ni  Ni471  1  0.43500700  0.20974200  0.09290436  1.0
  Ni  Ni472  1  0.43500700  0.54307533  0.09290436  1.0
  Ni  Ni473  1  0.43500700  0.87640867  0.09290436  1.0
  Ni  Ni474  1  0.76834033  0.20974200  0.09290436  1.0
  Ni  Ni475  1  0.76834033  0.54307533  0.09290436  1.0
  Ni  Ni476  1  0.76834033  0.87640867  0.09290436  1.0
  Ni  Ni477  1  0.26834033  0.04307533  0.02147579  1.0
  Ni  Ni478  1  0.26834033  0.37640867  0.02147579  1.0
  Ni  Ni479  1  0.26834033  0.70974200  0.02147579  1.0
  Ni  Ni480  1  0.60167367  0.04307533  0.02147579  1.0
  Ni  Ni481  1  0.60167367  0.37640867  0.02147579  1.0
  Ni  Ni482  1  0.60167367  0.70974200  0.02147579  1.0
  Ni  Ni483  1  0.93500700  0.04307533  0.02147579  1.0
  Ni  Ni484  1  0.93500700  0.37640867  0.02147579  1.0
  Ni  Ni485  1  0.93500700  0.70974200  0.02147579  1.0
  Ni  Ni486  1  0.06499300  0.29025800  0.10862464  1.0
  Ni  Ni487  1  0.06499300  0.62359133  0.10862464  1.0
  Ni  Ni488  1  0.06499300  0.95692467  0.10862464  1.0
  Ni  Ni489  1  0.39832633  0.29025800  0.10862464  1.0
  Ni  Ni490  1  0.39832633  0.62359133  0.10862464  1.0
  Ni  Ni491  1  0.39832633  0.95692467  0.10862464  1.0
  Ni  Ni492  1  0.73165967  0.29025800  0.10862464  1.0
  Ni  Ni493  1  0.73165967  0.62359133  0.10862464  1.0
  Ni  Ni494  1  0.73165967  0.95692467  0.10862464  1.0
  Ni  Ni495  1  0.23165967  0.12359133  0.03719607  1.0
  Ni  Ni496  1  0.23165967  0.45692467  0.03719607  1.0
  Ni  Ni497  1  0.23165967  0.79025800  0.03719607  1.0
  Ni  Ni498  1  0.56499300  0.12359133  0.03719607  1.0
  Ni  Ni499  1  0.56499300  0.45692467  0.03719607  1.0
  Ni  Ni500  1  0.56499300  0.79025800  0.03719607  1.0
  Ni  Ni501  1  0.89832633  0.12359133  0.03719607  1.0
  Ni  Ni502  1  0.89832633  0.45692467  0.03719607  1.0
  Ni  Ni503  1  0.89832633  0.79025800  0.03719607  1.0
  Ni  Ni504  1  0.07406600  0.27187700  0.03330764  1.0
  Ni  Ni505  1  0.07406600  0.60521033  0.03330764  1.0
  Ni  Ni506  1  0.07406600  0.93854367  0.03330764  1.0
  Ni  Ni507  1  0.40739933  0.27187700  0.03330764  1.0
  Ni  Ni508  1  0.40739933  0.60521033  0.03330764  1.0
  Ni  Ni509  1  0.40739933  0.93854367  0.03330764  1.0
  Ni  Ni510  1  0.74073267  0.27187700  0.03330764  1.0
  Ni  Ni511  1  0.74073267  0.60521033  0.03330764  1.0
  Ni  Ni512  1  0.74073267  0.93854367  0.03330764  1.0
  Ni  Ni513  1  0.24073267  0.10521033  0.10473621  1.0
  Ni  Ni514  1  0.24073267  0.43854367  0.10473621  1.0
  Ni  Ni515  1  0.24073267  0.77187700  0.10473621  1.0
  Ni  Ni516  1  0.57406600  0.10521033  0.10473621  1.0
  Ni  Ni517  1  0.57406600  0.43854367  0.10473621  1.0
  Ni  Ni518  1  0.57406600  0.77187700  0.10473621  1.0
  Ni  Ni519  1  0.90739933  0.10521033  0.10473621  1.0
  Ni  Ni520  1  0.90739933  0.43854367  0.10473621  1.0
  Ni  Ni521  1  0.90739933  0.77187700  0.10473621  1.0
  Ni  Ni522  1  0.09260067  0.22812300  0.02536421  1.0
  Ni  Ni523  1  0.09260067  0.56145633  0.02536421  1.0
  Ni  Ni524  1  0.09260067  0.89478967  0.02536421  1.0
  Ni  Ni525  1  0.42593400  0.22812300  0.02536421  1.0
  Ni  Ni526  1  0.42593400  0.56145633  0.02536421  1.0
  Ni  Ni527  1  0.42593400  0.89478967  0.02536421  1.0
  Ni  Ni528  1  0.75926733  0.22812300  0.02536421  1.0
  Ni  Ni529  1  0.75926733  0.56145633  0.02536421  1.0
  Ni  Ni530  1  0.75926733  0.89478967  0.02536421  1.0
  Ni  Ni531  1  0.25926733  0.06145633  0.09679279  1.0
  Ni  Ni532  1  0.25926733  0.39478967  0.09679279  1.0
  Ni  Ni533  1  0.25926733  0.72812300  0.09679279  1.0
  Ni  Ni534  1  0.59260067  0.06145633  0.09679279  1.0
  Ni  Ni535  1  0.59260067  0.39478967  0.09679279  1.0
  Ni  Ni536  1  0.59260067  0.72812300  0.09679279  1.0
  Ni  Ni537  1  0.92593400  0.06145633  0.09679279  1.0
  Ni  Ni538  1  0.92593400  0.39478967  0.09679279  1.0
  Ni  Ni539  1  0.92593400  0.72812300  0.09679279  1.0
  V  V540  1  0.15860583  0.27996750  0.17627600  1.0
  V  V541  1  0.15860583  0.61330083  0.17627600  1.0
  V  V542  1  0.15860583  0.94663417  0.17627600  1.0
  V  V543  1  0.49193917  0.27996750  0.17627600  1.0
  V  V544  1  0.49193917  0.61330083  0.17627600  1.0
  V  V545  1  0.49193917  0.94663417  0.17627600  1.0
  V  V546  1  0.82527250  0.27996750  0.17627600  1.0
  V  V547  1  0.82527250  0.61330083  0.17627600  1.0
  V  V548  1  0.82527250  0.94663417  0.17627600  1.0
  V  V549  1  0.32527250  0.11330083  0.24770457  1.0
  V  V550  1  0.32527250  0.44663417  0.24770457  1.0
  V  V551  1  0.32527250  0.77996750  0.24770457  1.0
  V  V552  1  0.65860583  0.11330083  0.24770457  1.0
  V  V553  1  0.65860583  0.44663417  0.24770457  1.0
  V  V554  1  0.65860583  0.77996750  0.24770457  1.0
  V  V555  1  0.99193917  0.11330083  0.24770457  1.0
  V  V556  1  0.99193917  0.44663417  0.24770457  1.0
  V  V557  1  0.99193917  0.77996750  0.24770457  1.0
  V  V558  1  0.00806083  0.22003250  0.24079529  1.0
  V  V559  1  0.00806083  0.55336583  0.24079529  1.0
  V  V560  1  0.00806083  0.88669917  0.24079529  1.0
  V  V561  1  0.34139417  0.22003250  0.24079529  1.0
  V  V562  1  0.34139417  0.55336583  0.24079529  1.0
  V  V563  1  0.34139417  0.88669917  0.24079529  1.0
  V  V564  1  0.67472750  0.22003250  0.24079529  1.0
  V  V565  1  0.67472750  0.55336583  0.24079529  1.0
  V  V566  1  0.67472750  0.88669917  0.24079529  1.0
  V  V567  1  0.17472750  0.05336583  0.16936671  1.0
  V  V568  1  0.17472750  0.38669917  0.16936671  1.0
  V  V569  1  0.17472750  0.72003250  0.16936671  1.0
  V  V570  1  0.50806083  0.05336583  0.16936671  1.0
  V  V571  1  0.50806083  0.38669917  0.16936671  1.0
  V  V572  1  0.50806083  0.72003250  0.16936671  1.0
  V  V573  1  0.84139417  0.05336583  0.16936671  1.0
  V  V574  1  0.84139417  0.38669917  0.16936671  1.0
  V  V575  1  0.84139417  0.72003250  0.16936671  1.0
  V  V576  1  0.30445250  0.30291117  0.18521143  1.0
  V  V577  1  0.30445250  0.63624450  0.18521143  1.0
  V  V578  1  0.30445250  0.96957783  0.18521143  1.0
  V  V579  1  0.63778583  0.30291117  0.18521143  1.0
  V  V580  1  0.63778583  0.63624450  0.18521143  1.0
  V  V581  1  0.63778583  0.96957783  0.18521143  1.0
  V  V582  1  0.97111917  0.30291117  0.18521143  1.0
  V  V583  1  0.97111917  0.63624450  0.18521143  1.0
  V  V584  1  0.97111917  0.96957783  0.18521143  1.0
  V  V585  1  0.13778583  0.13624450  0.25664000  1.0
  V  V586  1  0.13778583  0.46957783  0.25664000  1.0
  V  V587  1  0.13778583  0.80291117  0.25664000  1.0
  V  V588  1  0.47111917  0.13624450  0.25664000  1.0
  V  V589  1  0.47111917  0.46957783  0.25664000  1.0
  V  V590  1  0.47111917  0.80291117  0.25664000  1.0
  V  V591  1  0.80445250  0.13624450  0.25664000  1.0
  V  V592  1  0.80445250  0.46957783  0.25664000  1.0
  V  V593  1  0.80445250  0.80291117  0.25664000  1.0
  V  V594  1  0.19554750  0.19708883  0.23188500  1.0
  V  V595  1  0.19554750  0.53042217  0.23188500  1.0
  V  V596  1  0.19554750  0.86375550  0.23188500  1.0
  V  V597  1  0.52888083  0.19708883  0.23188500  1.0
  V  V598  1  0.52888083  0.53042217  0.23188500  1.0
  V  V599  1  0.52888083  0.86375550  0.23188500  1.0
  V  V600  1  0.86221417  0.19708883  0.23188500  1.0
  V  V601  1  0.86221417  0.53042217  0.23188500  1.0
  V  V602  1  0.86221417  0.86375550  0.23188500  1.0
  V  V603  1  0.02888083  0.03042217  0.16045643  1.0
  V  V604  1  0.02888083  0.36375550  0.16045643  1.0
  V  V605  1  0.02888083  0.69708883  0.16045643  1.0
  V  V606  1  0.36221417  0.03042217  0.16045643  1.0
  V  V607  1  0.36221417  0.36375550  0.16045643  1.0
  V  V608  1  0.36221417  0.69708883  0.16045643  1.0
  V  V609  1  0.69554750  0.03042217  0.16045643  1.0
  V  V610  1  0.69554750  0.36375550  0.16045643  1.0
  V  V611  1  0.69554750  0.69708883  0.16045643  1.0
  V  V612  1  0.00806083  0.22003250  0.16811014  1.0
  V  V613  1  0.00806083  0.55336583  0.16811014  1.0
  V  V614  1  0.00806083  0.88669917  0.16811014  1.0
  V  V615  1  0.34139417  0.22003250  0.16811014  1.0
  V  V616  1  0.34139417  0.55336583  0.16811014  1.0
  V  V617  1  0.34139417  0.88669917  0.16811014  1.0
  V  V618  1  0.67472750  0.22003250  0.16811014  1.0
  V  V619  1  0.67472750  0.55336583  0.16811014  1.0
  V  V620  1  0.67472750  0.88669917  0.16811014  1.0
  V  V621  1  0.17472750  0.05336583  0.23953871  1.0
  V  V622  1  0.17472750  0.38669917  0.23953871  1.0
  V  V623  1  0.17472750  0.72003250  0.23953871  1.0
  V  V624  1  0.50806083  0.05336583  0.23953871  1.0
  V  V625  1  0.50806083  0.38669917  0.23953871  1.0
  V  V626  1  0.50806083  0.72003250  0.23953871  1.0
  V  V627  1  0.84139417  0.05336583  0.23953871  1.0
  V  V628  1  0.84139417  0.38669917  0.23953871  1.0
  V  V629  1  0.84139417  0.72003250  0.23953871  1.0
  V  V630  1  0.15860583  0.27996750  0.24644800  1.0
  V  V631  1  0.15860583  0.61330083  0.24644800  1.0
  V  V632  1  0.15860583  0.94663417  0.24644800  1.0
  V  V633  1  0.49193917  0.27996750  0.24644800  1.0
  V  V634  1  0.49193917  0.61330083  0.24644800  1.0
  V  V635  1  0.49193917  0.94663417  0.24644800  1.0
  V  V636  1  0.82527250  0.27996750  0.24644800  1.0
  V  V637  1  0.82527250  0.61330083  0.24644800  1.0
  V  V638  1  0.82527250  0.94663417  0.24644800  1.0
  V  V639  1  0.32527250  0.11330083  0.17501943  1.0
  V  V640  1  0.32527250  0.44663417  0.17501943  1.0
  V  V641  1  0.32527250  0.77996750  0.17501943  1.0
  V  V642  1  0.65860583  0.11330083  0.17501943  1.0
  V  V643  1  0.65860583  0.44663417  0.17501943  1.0
  V  V644  1  0.65860583  0.77996750  0.17501943  1.0
  V  V645  1  0.99193917  0.11330083  0.17501943  1.0
  V  V646  1  0.99193917  0.44663417  0.17501943  1.0
  V  V647  1  0.99193917  0.77996750  0.17501943  1.0
  V  V648  1  0.19554750  0.19708883  0.15917471  1.0
  V  V649  1  0.19554750  0.53042217  0.15917471  1.0
  V  V650  1  0.19554750  0.86375550  0.15917471  1.0
  V  V651  1  0.52888083  0.19708883  0.15917471  1.0
  V  V652  1  0.52888083  0.53042217  0.15917471  1.0
  V  V653  1  0.52888083  0.86375550  0.15917471  1.0
  V  V654  1  0.86221417  0.19708883  0.15917471  1.0
  V  V655  1  0.86221417  0.53042217  0.15917471  1.0
  V  V656  1  0.86221417  0.86375550  0.15917471  1.0
  V  V657  1  0.02888083  0.03042217  0.23060329  1.0
  V  V658  1  0.02888083  0.36375550  0.23060329  1.0
  V  V659  1  0.02888083  0.69708883  0.23060329  1.0
  V  V660  1  0.36221417  0.03042217  0.23060329  1.0
  V  V661  1  0.36221417  0.36375550  0.23060329  1.0
  V  V662  1  0.36221417  0.69708883  0.23060329  1.0
  V  V663  1  0.69554750  0.03042217  0.23060329  1.0
  V  V664  1  0.69554750  0.36375550  0.23060329  1.0
  V  V665  1  0.69554750  0.69708883  0.23060329  1.0
  V  V666  1  0.30445250  0.30291117  0.25535829  1.0
  V  V667  1  0.30445250  0.63624450  0.25535829  1.0
  V  V668  1  0.30445250  0.96957783  0.25535829  1.0
  V  V669  1  0.63778583  0.30291117  0.25535829  1.0
  V  V670  1  0.63778583  0.63624450  0.25535829  1.0
  V  V671  1  0.63778583  0.96957783  0.25535829  1.0
  V  V672  1  0.97111917  0.30291117  0.25535829  1.0
  V  V673  1  0.97111917  0.63624450  0.25535829  1.0
  V  V674  1  0.97111917  0.96957783  0.25535829  1.0
  V  V675  1  0.13778583  0.13624450  0.18392971  1.0
  V  V676  1  0.13778583  0.46957783  0.18392971  1.0
  V  V677  1  0.13778583  0.80291117  0.18392971  1.0
  V  V678  1  0.47111917  0.13624450  0.18392971  1.0
  V  V679  1  0.47111917  0.46957783  0.18392971  1.0
  V  V680  1  0.47111917  0.80291117  0.18392971  1.0
  V  V681  1  0.80445250  0.13624450  0.18392971  1.0
  V  V682  1  0.80445250  0.46957783  0.18392971  1.0
  V  V683  1  0.80445250  0.80291117  0.18392971  1.0
  V  V684  1  0.05251600  0.31611100  0.18540050  1.0
  V  V685  1  0.05251600  0.64944433  0.18540050  1.0
  V  V686  1  0.05251600  0.98277767  0.18540050  1.0
  V  V687  1  0.38584933  0.31611100  0.18540050  1.0
  V  V688  1  0.38584933  0.64944433  0.18540050  1.0
  V  V689  1  0.38584933  0.98277767  0.18540050  1.0
  V  V690  1  0.71918267  0.31611100  0.18540050  1.0
  V  V691  1  0.71918267  0.64944433  0.18540050  1.0
  V  V692  1  0.71918267  0.98277767  0.18540050  1.0
  V  V693  1  0.21918267  0.14944433  0.25682907  1.0
  V  V694  1  0.21918267  0.48277767  0.25682907  1.0
  V  V695  1  0.21918267  0.81611100  0.25682907  1.0
  V  V696  1  0.55251600  0.14944433  0.25682907  1.0
  V  V697  1  0.55251600  0.48277767  0.25682907  1.0
  V  V698  1  0.55251600  0.81611100  0.25682907  1.0
  V  V699  1  0.88584933  0.14944433  0.25682907  1.0
  V  V700  1  0.88584933  0.48277767  0.25682907  1.0
  V  V701  1  0.88584933  0.81611100  0.25682907  1.0
  V  V702  1  0.11415067  0.18388900  0.15898564  1.0
  V  V703  1  0.11415067  0.51722233  0.15898564  1.0
  V  V704  1  0.11415067  0.85055567  0.15898564  1.0
  V  V705  1  0.44748400  0.18388900  0.15898564  1.0
  V  V706  1  0.44748400  0.51722233  0.15898564  1.0
  V  V707  1  0.44748400  0.85055567  0.15898564  1.0
  V  V708  1  0.78081733  0.18388900  0.15898564  1.0
  V  V709  1  0.78081733  0.51722233  0.15898564  1.0
  V  V710  1  0.78081733  0.85055567  0.15898564  1.0
  V  V711  1  0.28081733  0.01722233  0.23041421  1.0
  V  V712  1  0.28081733  0.35055567  0.23041421  1.0
  V  V713  1  0.28081733  0.68388900  0.23041421  1.0
  V  V714  1  0.61415067  0.01722233  0.23041421  1.0
  V  V715  1  0.61415067  0.35055567  0.23041421  1.0
  V  V716  1  0.61415067  0.68388900  0.23041421  1.0
  V  V717  1  0.94748400  0.01722233  0.23041421  1.0
  V  V718  1  0.94748400  0.35055567  0.23041421  1.0
  V  V719  1  0.94748400  0.68388900  0.23041421  1.0
  V  V720  1  0.26892133  0.26777700  0.16408393  1.0
  V  V721  1  0.26892133  0.60111033  0.16408393  1.0
  V  V722  1  0.26892133  0.93444367  0.16408393  1.0
  V  V723  1  0.60225467  0.26777700  0.16408393  1.0
  V  V724  1  0.60225467  0.60111033  0.16408393  1.0
  V  V725  1  0.60225467  0.93444367  0.16408393  1.0
  V  V726  1  0.93558800  0.26777700  0.16408393  1.0
  V  V727  1  0.93558800  0.60111033  0.16408393  1.0
  V  V728  1  0.93558800  0.93444367  0.16408393  1.0
  V  V729  1  0.10225467  0.10111033  0.23551250  1.0
  V  V730  1  0.10225467  0.43444367  0.23551250  1.0
  V  V731  1  0.10225467  0.76777700  0.23551250  1.0
  V  V732  1  0.43558800  0.10111033  0.23551250  1.0
  V  V733  1  0.43558800  0.43444367  0.23551250  1.0
  V  V734  1  0.43558800  0.76777700  0.23551250  1.0
  V  V735  1  0.76892133  0.10111033  0.23551250  1.0
  V  V736  1  0.76892133  0.43444367  0.23551250  1.0
  V  V737  1  0.76892133  0.76777700  0.23551250  1.0
  V  V738  1  0.23107867  0.23222300  0.18030221  1.0
  V  V739  1  0.23107867  0.56555633  0.18030221  1.0
  V  V740  1  0.23107867  0.89888967  0.18030221  1.0
  V  V741  1  0.56441200  0.23222300  0.18030221  1.0
  V  V742  1  0.56441200  0.56555633  0.18030221  1.0
  V  V743  1  0.56441200  0.89888967  0.18030221  1.0
  V  V744  1  0.89774533  0.23222300  0.18030221  1.0
  V  V745  1  0.89774533  0.56555633  0.18030221  1.0
  V  V746  1  0.89774533  0.89888967  0.18030221  1.0
  V  V747  1  0.06441200  0.06555633  0.25173079  1.0
  V  V748  1  0.06441200  0.39888967  0.25173079  1.0
  V  V749  1  0.06441200  0.73222300  0.25173079  1.0
  V  V750  1  0.39774533  0.06555633  0.25173079  1.0
  V  V751  1  0.39774533  0.39888967  0.25173079  1.0
  V  V752  1  0.39774533  0.73222300  0.25173079  1.0
  V  V753  1  0.73107867  0.06555633  0.25173079  1.0
  V  V754  1  0.73107867  0.39888967  0.25173079  1.0
  V  V755  1  0.73107867  0.73222300  0.25173079  1.0
  V  V756  1  0.19913433  0.31245767  0.19399264  1.0
  V  V757  1  0.19913433  0.64579100  0.19399264  1.0
  V  V758  1  0.19913433  0.97912433  0.19399264  1.0
  V  V759  1  0.53246767  0.31245767  0.19399264  1.0
  V  V760  1  0.53246767  0.64579100  0.19399264  1.0
  V  V761  1  0.53246767  0.97912433  0.19399264  1.0
  V  V762  1  0.86580100  0.31245767  0.19399264  1.0
  V  V763  1  0.86580100  0.64579100  0.19399264  1.0
  V  V764  1  0.86580100  0.97912433  0.19399264  1.0
  V  V765  1  0.03246767  0.14579100  0.26542121  1.0
  V  V766  1  0.03246767  0.47912433  0.26542121  1.0
  V  V767  1  0.03246767  0.81245767  0.26542121  1.0
  V  V768  1  0.36580100  0.14579100  0.26542121  1.0
  V  V769  1  0.36580100  0.47912433  0.26542121  1.0
  V  V770  1  0.36580100  0.81245767  0.26542121  1.0
  V  V771  1  0.69913433  0.14579100  0.26542121  1.0
  V  V772  1  0.69913433  0.47912433  0.26542121  1.0
  V  V773  1  0.69913433  0.81245767  0.26542121  1.0
  V  V774  1  0.30086567  0.18754233  0.15039350  1.0
  V  V775  1  0.30086567  0.52087567  0.15039350  1.0
  V  V776  1  0.30086567  0.85420900  0.15039350  1.0
  V  V777  1  0.63419900  0.18754233  0.15039350  1.0
  V  V778  1  0.63419900  0.52087567  0.15039350  1.0
  V  V779  1  0.63419900  0.85420900  0.15039350  1.0
  V  V780  1  0.96753233  0.18754233  0.15039350  1.0
  V  V781  1  0.96753233  0.52087567  0.15039350  1.0
  V  V782  1  0.96753233  0.85420900  0.15039350  1.0
  V  V783  1  0.13419900  0.02087567  0.22182207  1.0
  V  V784  1  0.13419900  0.35420900  0.22182207  1.0
  V  V785  1  0.13419900  0.68754233  0.22182207  1.0
  V  V786  1  0.46753233  0.02087567  0.22182207  1.0
  V  V787  1  0.46753233  0.35420900  0.22182207  1.0
  V  V788  1  0.46753233  0.68754233  0.22182207  1.0
  V  V789  1  0.80086567  0.02087567  0.22182207  1.0
  V  V790  1  0.80086567  0.35420900  0.22182207  1.0
  V  V791  1  0.80086567  0.68754233  0.22182207  1.0
  V  V792  1  0.03617017  0.17261683  0.19240586  1.0
  V  V793  1  0.03617017  0.50595017  0.19240586  1.0
  V  V794  1  0.03617017  0.83928350  0.19240586  1.0
  V  V795  1  0.36950350  0.17261683  0.19240586  1.0
  V  V796  1  0.36950350  0.50595017  0.19240586  1.0
  V  V797  1  0.36950350  0.83928350  0.19240586  1.0
  V  V798  1  0.70283683  0.17261683  0.19240586  1.0
  V  V799  1  0.70283683  0.50595017  0.19240586  1.0
  V  V800  1  0.70283683  0.83928350  0.19240586  1.0
  V  V801  1  0.20283683  0.00595017  0.26383443  1.0
  V  V802  1  0.20283683  0.33928350  0.26383443  1.0
  V  V803  1  0.20283683  0.67261683  0.26383443  1.0
  V  V804  1  0.53617017  0.00595017  0.26383443  1.0
  V  V805  1  0.53617017  0.33928350  0.26383443  1.0
  V  V806  1  0.53617017  0.67261683  0.26383443  1.0
  V  V807  1  0.86950350  0.00595017  0.26383443  1.0
  V  V808  1  0.86950350  0.33928350  0.26383443  1.0
  V  V809  1  0.86950350  0.67261683  0.26383443  1.0
  V  V810  1  0.13049650  0.32738317  0.15198029  1.0
  V  V811  1  0.13049650  0.66071650  0.15198029  1.0
  V  V812  1  0.13049650  0.99404983  0.15198029  1.0
  V  V813  1  0.46382983  0.32738317  0.15198029  1.0
  V  V814  1  0.46382983  0.66071650  0.15198029  1.0
  V  V815  1  0.46382983  0.99404983  0.15198029  1.0
  V  V816  1  0.79716317  0.32738317  0.15198029  1.0
  V  V817  1  0.79716317  0.66071650  0.15198029  1.0
  V  V818  1  0.79716317  0.99404983  0.15198029  1.0
  V  V819  1  0.29716317  0.16071650  0.22340886  1.0
  V  V820  1  0.29716317  0.49404983  0.22340886  1.0
  V  V821  1  0.29716317  0.82738317  0.22340886  1.0
  V  V822  1  0.63049650  0.16071650  0.22340886  1.0
  V  V823  1  0.63049650  0.49404983  0.22340886  1.0
  V  V824  1  0.63049650  0.82738317  0.22340886  1.0
  V  V825  1  0.96382983  0.16071650  0.22340886  1.0
  V  V826  1  0.96382983  0.49404983  0.22340886  1.0
  V  V827  1  0.96382983  0.82738317  0.22340886  1.0
  V  V828  1  0.03697217  0.25570183  0.26349071  1.0
  V  V829  1  0.03697217  0.58903517  0.26349071  1.0
  V  V830  1  0.03697217  0.92236850  0.26349071  1.0
  V  V831  1  0.37030550  0.25570183  0.26349071  1.0
  V  V832  1  0.37030550  0.58903517  0.26349071  1.0
  V  V833  1  0.37030550  0.92236850  0.26349071  1.0
  V  V834  1  0.70363883  0.25570183  0.26349071  1.0
  V  V835  1  0.70363883  0.58903517  0.26349071  1.0
  V  V836  1  0.70363883  0.92236850  0.26349071  1.0
  V  V837  1  0.20363883  0.08903517  0.19206214  1.0
  V  V838  1  0.20363883  0.42236850  0.19206214  1.0
  V  V839  1  0.20363883  0.75570183  0.19206214  1.0
  V  V840  1  0.53697217  0.08903517  0.19206214  1.0
  V  V841  1  0.53697217  0.42236850  0.19206214  1.0
  V  V842  1  0.53697217  0.75570183  0.19206214  1.0
  V  V843  1  0.87030550  0.08903517  0.19206214  1.0
  V  V844  1  0.87030550  0.42236850  0.19206214  1.0
  V  V845  1  0.87030550  0.75570183  0.19206214  1.0
  V  V846  1  0.12969450  0.24429817  0.22375257  1.0
  V  V847  1  0.12969450  0.57763150  0.22375257  1.0
  V  V848  1  0.12969450  0.91096483  0.22375257  1.0
  V  V849  1  0.46302783  0.24429817  0.22375257  1.0
  V  V850  1  0.46302783  0.57763150  0.22375257  1.0
  V  V851  1  0.46302783  0.91096483  0.22375257  1.0
  V  V852  1  0.79636117  0.24429817  0.22375257  1.0
  V  V853  1  0.79636117  0.57763150  0.22375257  1.0
  V  V854  1  0.79636117  0.91096483  0.22375257  1.0
  V  V855  1  0.29636117  0.07763150  0.15232400  1.0
  V  V856  1  0.29636117  0.41096483  0.15232400  1.0
  V  V857  1  0.29636117  0.74429817  0.15232400  1.0
  V  V858  1  0.62969450  0.07763150  0.15232400  1.0
  V  V859  1  0.62969450  0.41096483  0.15232400  1.0
  V  V860  1  0.62969450  0.74429817  0.15232400  1.0
  V  V861  1  0.96302783  0.07763150  0.15232400  1.0
  V  V862  1  0.96302783  0.41096483  0.15232400  1.0
  V  V863  1  0.96302783  0.74429817  0.15232400  1.0
  Ni  Ni864  1  0.25000000  0.25000000  0.24362164  1.0
  Ni  Ni865  1  0.25000000  0.58333333  0.24362164  1.0
  Ni  Ni866  1  0.25000000  0.91666667  0.24362164  1.0
  Ni  Ni867  1  0.58333333  0.25000000  0.24362164  1.0
  Ni  Ni868  1  0.58333333  0.58333333  0.24362164  1.0
  Ni  Ni869  1  0.58333333  0.91666667  0.24362164  1.0
  Ni  Ni870  1  0.91666667  0.25000000  0.24362164  1.0
  Ni  Ni871  1  0.91666667  0.58333333  0.24362164  1.0
  Ni  Ni872  1  0.91666667  0.91666667  0.24362164  1.0
  Ni  Ni873  1  0.08333333  0.08333333  0.17219307  1.0
  Ni  Ni874  1  0.08333333  0.41666667  0.17219307  1.0
  Ni  Ni875  1  0.08333333  0.75000000  0.17219307  1.0
  Ni  Ni876  1  0.41666667  0.08333333  0.17219307  1.0
  Ni  Ni877  1  0.41666667  0.41666667  0.17219307  1.0
  Ni  Ni878  1  0.41666667  0.75000000  0.17219307  1.0
  Ni  Ni879  1  0.75000000  0.08333333  0.17219307  1.0
  Ni  Ni880  1  0.75000000  0.41666667  0.17219307  1.0
  Ni  Ni881  1  0.75000000  0.75000000  0.17219307  1.0
  Ni  Ni882  1  0.16666667  0.16666667  0.20790736  1.0
  Ni  Ni883  1  0.16666667  0.50000000  0.20790736  1.0
  Ni  Ni884  1  0.16666667  0.83333333  0.20790736  1.0
  Ni  Ni885  1  0.50000000  0.16666667  0.20790736  1.0
  Ni  Ni886  1  0.50000000  0.50000000  0.20790736  1.0
  Ni  Ni887  1  0.50000000  0.83333333  0.20790736  1.0
  Ni  Ni888  1  0.83333333  0.16666667  0.20790736  1.0
  Ni  Ni889  1  0.83333333  0.50000000  0.20790736  1.0
  Ni  Ni890  1  0.83333333  0.83333333  0.20790736  1.0
  Ni  Ni891  1  0.00000000  0.00000000  0.27933593  1.0
  Ni  Ni892  1  0.00000000  0.33333333  0.27933593  1.0
  Ni  Ni893  1  0.00000000  0.66666667  0.27933593  1.0
  Ni  Ni894  1  0.33333333  0.00000000  0.27933593  1.0
  Ni  Ni895  1  0.33333333  0.33333333  0.27933593  1.0
  Ni  Ni896  1  0.33333333  0.66666667  0.27933593  1.0
  Ni  Ni897  1  0.66666667  0.00000000  0.27933593  1.0
  Ni  Ni898  1  0.66666667  0.33333333  0.27933593  1.0
  Ni  Ni899  1  0.66666667  0.66666667  0.27933593  1.0
  Ni  Ni900  1  0.32612683  0.26080283  0.21099586  1.0
  Ni  Ni901  1  0.32612683  0.59413617  0.21099586  1.0
  Ni  Ni902  1  0.32612683  0.92746950  0.21099586  1.0
  Ni  Ni903  1  0.65946017  0.26080283  0.21099586  1.0
  Ni  Ni904  1  0.65946017  0.59413617  0.21099586  1.0
  Ni  Ni905  1  0.65946017  0.92746950  0.21099586  1.0
  Ni  Ni906  1  0.99279350  0.26080283  0.21099586  1.0
  Ni  Ni907  1  0.99279350  0.59413617  0.21099586  1.0
  Ni  Ni908  1  0.99279350  0.92746950  0.21099586  1.0
  Ni  Ni909  1  0.15946017  0.09413617  0.28242443  1.0
  Ni  Ni910  1  0.15946017  0.42746950  0.28242443  1.0
  Ni  Ni911  1  0.15946017  0.76080283  0.28242443  1.0
  Ni  Ni912  1  0.49279350  0.09413617  0.28242443  1.0
  Ni  Ni913  1  0.49279350  0.42746950  0.28242443  1.0
  Ni  Ni914  1  0.49279350  0.76080283  0.28242443  1.0
  Ni  Ni915  1  0.82612683  0.09413617  0.28242443  1.0
  Ni  Ni916  1  0.82612683  0.42746950  0.28242443  1.0
  Ni  Ni917  1  0.82612683  0.76080283  0.28242443  1.0
  Ni  Ni918  1  0.17387317  0.23919717  0.27624743  1.0
  Ni  Ni919  1  0.17387317  0.57253050  0.27624743  1.0
  Ni  Ni920  1  0.17387317  0.90586383  0.27624743  1.0
  Ni  Ni921  1  0.50720650  0.23919717  0.27624743  1.0
  Ni  Ni922  1  0.50720650  0.57253050  0.27624743  1.0
  Ni  Ni923  1  0.50720650  0.90586383  0.27624743  1.0
  Ni  Ni924  1  0.84053983  0.23919717  0.27624743  1.0
  Ni  Ni925  1  0.84053983  0.57253050  0.27624743  1.0
  Ni  Ni926  1  0.84053983  0.90586383  0.27624743  1.0
  Ni  Ni927  1  0.00720650  0.07253050  0.20481886  1.0
  Ni  Ni928  1  0.00720650  0.40586383  0.20481886  1.0
  Ni  Ni929  1  0.00720650  0.73919717  0.20481886  1.0
  Ni  Ni930  1  0.34053983  0.07253050  0.20481886  1.0
  Ni  Ni931  1  0.34053983  0.40586383  0.20481886  1.0
  Ni  Ni932  1  0.34053983  0.73919717  0.20481886  1.0
  Ni  Ni933  1  0.67387317  0.07253050  0.20481886  1.0
  Ni  Ni934  1  0.67387317  0.40586383  0.20481886  1.0
  Ni  Ni935  1  0.67387317  0.73919717  0.20481886  1.0
  Ni  Ni936  1  0.09690233  0.32253300  0.23780636  1.0
  Ni  Ni937  1  0.09690233  0.65586633  0.23780636  1.0
  Ni  Ni938  1  0.09690233  0.98919967  0.23780636  1.0
  Ni  Ni939  1  0.43023567  0.32253300  0.23780636  1.0
  Ni  Ni940  1  0.43023567  0.65586633  0.23780636  1.0
  Ni  Ni941  1  0.43023567  0.98919967  0.23780636  1.0
  Ni  Ni942  1  0.76356900  0.32253300  0.23780636  1.0
  Ni  Ni943  1  0.76356900  0.65586633  0.23780636  1.0
  Ni  Ni944  1  0.76356900  0.98919967  0.23780636  1.0
  Ni  Ni945  1  0.26356900  0.15586633  0.16637779  1.0
  Ni  Ni946  1  0.26356900  0.48919967  0.16637779  1.0
  Ni  Ni947  1  0.26356900  0.82253300  0.16637779  1.0
  Ni  Ni948  1  0.59690233  0.15586633  0.16637779  1.0
  Ni  Ni949  1  0.59690233  0.48919967  0.16637779  1.0
  Ni  Ni950  1  0.59690233  0.82253300  0.16637779  1.0
  Ni  Ni951  1  0.93023567  0.15586633  0.16637779  1.0
  Ni  Ni952  1  0.93023567  0.48919967  0.16637779  1.0
  Ni  Ni953  1  0.93023567  0.82253300  0.16637779  1.0
  Ni  Ni954  1  0.06976433  0.17746700  0.24943693  1.0
  Ni  Ni955  1  0.06976433  0.51080033  0.24943693  1.0
  Ni  Ni956  1  0.06976433  0.84413367  0.24943693  1.0
  Ni  Ni957  1  0.40309767  0.17746700  0.24943693  1.0
  Ni  Ni958  1  0.40309767  0.51080033  0.24943693  1.0
  Ni  Ni959  1  0.40309767  0.84413367  0.24943693  1.0
  Ni  Ni960  1  0.73643100  0.17746700  0.24943693  1.0
  Ni  Ni961  1  0.73643100  0.51080033  0.24943693  1.0
  Ni  Ni962  1  0.73643100  0.84413367  0.24943693  1.0
  Ni  Ni963  1  0.23643100  0.01080033  0.17800836  1.0
  Ni  Ni964  1  0.23643100  0.34413367  0.17800836  1.0
  Ni  Ni965  1  0.23643100  0.67746700  0.17800836  1.0
  Ni  Ni966  1  0.56976433  0.01080033  0.17800836  1.0
  Ni  Ni967  1  0.56976433  0.34413367  0.17800836  1.0
  Ni  Ni968  1  0.56976433  0.67746700  0.17800836  1.0
  Ni  Ni969  1  0.90309767  0.01080033  0.17800836  1.0
  Ni  Ni970  1  0.90309767  0.34413367  0.17800836  1.0
  Ni  Ni971  1  0.90309767  0.67746700  0.17800836  1.0
  Ni  Ni972  1  0.22882583  0.29279450  0.25269629  1.0
  Ni  Ni973  1  0.22882583  0.62612783  0.25269629  1.0
  Ni  Ni974  1  0.22882583  0.95946117  0.25269629  1.0
  Ni  Ni975  1  0.56215917  0.29279450  0.25269629  1.0
  Ni  Ni976  1  0.56215917  0.62612783  0.25269629  1.0
  Ni  Ni977  1  0.56215917  0.95946117  0.25269629  1.0
  Ni  Ni978  1  0.89549250  0.29279450  0.25269629  1.0
  Ni  Ni979  1  0.89549250  0.62612783  0.25269629  1.0
  Ni  Ni980  1  0.89549250  0.95946117  0.25269629  1.0
  Ni  Ni981  1  0.06215917  0.12612783  0.18126771  1.0
  Ni  Ni982  1  0.06215917  0.45946117  0.18126771  1.0
  Ni  Ni983  1  0.06215917  0.79279450  0.18126771  1.0
  Ni  Ni984  1  0.39549250  0.12612783  0.18126771  1.0
  Ni  Ni985  1  0.39549250  0.45946117  0.18126771  1.0
  Ni  Ni986  1  0.39549250  0.79279450  0.18126771  1.0
  Ni  Ni987  1  0.72882583  0.12612783  0.18126771  1.0
  Ni  Ni988  1  0.72882583  0.45946117  0.18126771  1.0
  Ni  Ni989  1  0.72882583  0.79279450  0.18126771  1.0
  Ni  Ni990  1  0.27117417  0.20720550  0.23454700  1.0
  Ni  Ni991  1  0.27117417  0.54053883  0.23454700  1.0
  Ni  Ni992  1  0.27117417  0.87387217  0.23454700  1.0
  Ni  Ni993  1  0.60450750  0.20720550  0.23454700  1.0
  Ni  Ni994  1  0.60450750  0.54053883  0.23454700  1.0
  Ni  Ni995  1  0.60450750  0.87387217  0.23454700  1.0
  Ni  Ni996  1  0.93784083  0.20720550  0.23454700  1.0
  Ni  Ni997  1  0.93784083  0.54053883  0.23454700  1.0
  Ni  Ni998  1  0.93784083  0.87387217  0.23454700  1.0
  Ni  Ni999  1  0.10450750  0.04053883  0.16311843  1.0
  Ni  Ni1000  1  0.10450750  0.37387217  0.16311843  1.0
  Ni  Ni1001  1  0.10450750  0.70720550  0.16311843  1.0
  Ni  Ni1002  1  0.43784083  0.04053883  0.16311843  1.0
  Ni  Ni1003  1  0.43784083  0.37387217  0.16311843  1.0
  Ni  Ni1004  1  0.43784083  0.70720550  0.16311843  1.0
  Ni  Ni1005  1  0.77117417  0.04053883  0.16311843  1.0
  Ni  Ni1006  1  0.77117417  0.37387217  0.16311843  1.0
  Ni  Ni1007  1  0.77117417  0.70720550  0.16311843  1.0
  Ni  Ni1008  1  0.10167367  0.20974200  0.23576150  1.0
  Ni  Ni1009  1  0.10167367  0.54307533  0.23576150  1.0
  Ni  Ni1010  1  0.10167367  0.87640867  0.23576150  1.0
  Ni  Ni1011  1  0.43500700  0.20974200  0.23576150  1.0
  Ni  Ni1012  1  0.43500700  0.54307533  0.23576150  1.0
  Ni  Ni1013  1  0.43500700  0.87640867  0.23576150  1.0
  Ni  Ni1014  1  0.76834033  0.20974200  0.23576150  1.0
  Ni  Ni1015  1  0.76834033  0.54307533  0.23576150  1.0
  Ni  Ni1016  1  0.76834033  0.87640867  0.23576150  1.0
  Ni  Ni1017  1  0.26834033  0.04307533  0.16433293  1.0
  Ni  Ni1018  1  0.26834033  0.37640867  0.16433293  1.0
  Ni  Ni1019  1  0.26834033  0.70974200  0.16433293  1.0
  Ni  Ni1020  1  0.60167367  0.04307533  0.16433293  1.0
  Ni  Ni1021  1  0.60167367  0.37640867  0.16433293  1.0
  Ni  Ni1022  1  0.60167367  0.70974200  0.16433293  1.0
  Ni  Ni1023  1  0.93500700  0.04307533  0.16433293  1.0
  Ni  Ni1024  1  0.93500700  0.37640867  0.16433293  1.0
  Ni  Ni1025  1  0.93500700  0.70974200  0.16433293  1.0
  Ni  Ni1026  1  0.06499300  0.29025800  0.25148179  1.0
  Ni  Ni1027  1  0.06499300  0.62359133  0.25148179  1.0
  Ni  Ni1028  1  0.06499300  0.95692467  0.25148179  1.0
  Ni  Ni1029  1  0.39832633  0.29025800  0.25148179  1.0
  Ni  Ni1030  1  0.39832633  0.62359133  0.25148179  1.0
  Ni  Ni1031  1  0.39832633  0.95692467  0.25148179  1.0
  Ni  Ni1032  1  0.73165967  0.29025800  0.25148179  1.0
  Ni  Ni1033  1  0.73165967  0.62359133  0.25148179  1.0
  Ni  Ni1034  1  0.73165967  0.95692467  0.25148179  1.0
  Ni  Ni1035  1  0.23165967  0.12359133  0.18005321  1.0
  Ni  Ni1036  1  0.23165967  0.45692467  0.18005321  1.0
  Ni  Ni1037  1  0.23165967  0.79025800  0.18005321  1.0
  Ni  Ni1038  1  0.56499300  0.12359133  0.18005321  1.0
  Ni  Ni1039  1  0.56499300  0.45692467  0.18005321  1.0
  Ni  Ni1040  1  0.56499300  0.79025800  0.18005321  1.0
  Ni  Ni1041  1  0.89832633  0.12359133  0.18005321  1.0
  Ni  Ni1042  1  0.89832633  0.45692467  0.18005321  1.0
  Ni  Ni1043  1  0.89832633  0.79025800  0.18005321  1.0
  Ni  Ni1044  1  0.07406600  0.27187700  0.17616479  1.0
  Ni  Ni1045  1  0.07406600  0.60521033  0.17616479  1.0
  Ni  Ni1046  1  0.07406600  0.93854367  0.17616479  1.0
  Ni  Ni1047  1  0.40739933  0.27187700  0.17616479  1.0
  Ni  Ni1048  1  0.40739933  0.60521033  0.17616479  1.0
  Ni  Ni1049  1  0.40739933  0.93854367  0.17616479  1.0
  Ni  Ni1050  1  0.74073267  0.27187700  0.17616479  1.0
  Ni  Ni1051  1  0.74073267  0.60521033  0.17616479  1.0
  Ni  Ni1052  1  0.74073267  0.93854367  0.17616479  1.0
  Ni  Ni1053  1  0.24073267  0.10521033  0.24759336  1.0
  Ni  Ni1054  1  0.24073267  0.43854367  0.24759336  1.0
  Ni  Ni1055  1  0.24073267  0.77187700  0.24759336  1.0
  Ni  Ni1056  1  0.57406600  0.10521033  0.24759336  1.0
  Ni  Ni1057  1  0.57406600  0.43854367  0.24759336  1.0
  Ni  Ni1058  1  0.57406600  0.77187700  0.24759336  1.0
  Ni  Ni1059  1  0.90739933  0.10521033  0.24759336  1.0
  Ni  Ni1060  1  0.90739933  0.43854367  0.24759336  1.0
  Ni  Ni1061  1  0.90739933  0.77187700  0.24759336  1.0
  Ni  Ni1062  1  0.09260067  0.22812300  0.16822136  1.0
  Ni  Ni1063  1  0.09260067  0.56145633  0.16822136  1.0
  Ni  Ni1064  1  0.09260067  0.89478967  0.16822136  1.0
  Ni  Ni1065  1  0.42593400  0.22812300  0.16822136  1.0
  Ni  Ni1066  1  0.42593400  0.56145633  0.16822136  1.0
  Ni  Ni1067  1  0.42593400  0.89478967  0.16822136  1.0
  Ni  Ni1068  1  0.75926733  0.22812300  0.16822136  1.0
  Ni  Ni1069  1  0.75926733  0.56145633  0.16822136  1.0
  Ni  Ni1070  1  0.75926733  0.89478967  0.16822136  1.0
  Ni  Ni1071  1  0.25926733  0.06145633  0.23964993  1.0
  Ni  Ni1072  1  0.25926733  0.39478967  0.23964993  1.0
  Ni  Ni1073  1  0.25926733  0.72812300  0.23964993  1.0
  Ni  Ni1074  1  0.59260067  0.06145633  0.23964993  1.0
  Ni  Ni1075  1  0.59260067  0.39478967  0.23964993  1.0
  Ni  Ni1076  1  0.59260067  0.72812300  0.23964993  1.0
  Ni  Ni1077  1  0.92593400  0.06145633  0.23964993  1.0
  Ni  Ni1078  1  0.92593400  0.39478967  0.23964993  1.0
  Ni  Ni1079  1  0.92593400  0.72812300  0.23964993  1.0
  V  V1080  1  0.15860583  0.27996750  0.31913314  1.0
  V  V1081  1  0.15860583  0.61330083  0.31913314  1.0
  V  V1082  1  0.15860583  0.94663417  0.31913314  1.0
  V  V1083  1  0.49193917  0.27996750  0.31913314  1.0
  V  V1084  1  0.49193917  0.61330083  0.31913314  1.0
  V  V1085  1  0.49193917  0.94663417  0.31913314  1.0
  V  V1086  1  0.82527250  0.27996750  0.31913314  1.0
  V  V1087  1  0.82527250  0.61330083  0.31913314  1.0
  V  V1088  1  0.82527250  0.94663417  0.31913314  1.0
  V  V1089  1  0.32527250  0.11330083  0.39056171  1.0
  V  V1090  1  0.32527250  0.44663417  0.39056171  1.0
  V  V1091  1  0.32527250  0.77996750  0.39056171  1.0
  V  V1092  1  0.65860583  0.11330083  0.39056171  1.0
  V  V1093  1  0.65860583  0.44663417  0.39056171  1.0
  V  V1094  1  0.65860583  0.77996750  0.39056171  1.0
  V  V1095  1  0.99193917  0.11330083  0.39056171  1.0
  V  V1096  1  0.99193917  0.44663417  0.39056171  1.0
  V  V1097  1  0.99193917  0.77996750  0.39056171  1.0
  V  V1098  1  0.00806083  0.22003250  0.38365243  1.0
  V  V1099  1  0.00806083  0.55336583  0.38365243  1.0
  V  V1100  1  0.00806083  0.88669917  0.38365243  1.0
  V  V1101  1  0.34139417  0.22003250  0.38365243  1.0
  V  V1102  1  0.34139417  0.55336583  0.38365243  1.0
  V  V1103  1  0.34139417  0.88669917  0.38365243  1.0
  V  V1104  1  0.67472750  0.22003250  0.38365243  1.0
  V  V1105  1  0.67472750  0.55336583  0.38365243  1.0
  V  V1106  1  0.67472750  0.88669917  0.38365243  1.0
  V  V1107  1  0.17472750  0.05336583  0.31222386  1.0
  V  V1108  1  0.17472750  0.38669917  0.31222386  1.0
  V  V1109  1  0.17472750  0.72003250  0.31222386  1.0
  V  V1110  1  0.50806083  0.05336583  0.31222386  1.0
  V  V1111  1  0.50806083  0.38669917  0.31222386  1.0
  V  V1112  1  0.50806083  0.72003250  0.31222386  1.0
  V  V1113  1  0.84139417  0.05336583  0.31222386  1.0
  V  V1114  1  0.84139417  0.38669917  0.31222386  1.0
  V  V1115  1  0.84139417  0.72003250  0.31222386  1.0
  V  V1116  1  0.30445250  0.30291117  0.32806857  1.0
  V  V1117  1  0.30445250  0.63624450  0.32806857  1.0
  V  V1118  1  0.30445250  0.96957783  0.32806857  1.0
  V  V1119  1  0.63778583  0.30291117  0.32806857  1.0
  V  V1120  1  0.63778583  0.63624450  0.32806857  1.0
  V  V1121  1  0.63778583  0.96957783  0.32806857  1.0
  V  V1122  1  0.97111917  0.30291117  0.32806857  1.0
  V  V1123  1  0.97111917  0.63624450  0.32806857  1.0
  V  V1124  1  0.97111917  0.96957783  0.32806857  1.0
  V  V1125  1  0.13778583  0.13624450  0.39949714  1.0
  V  V1126  1  0.13778583  0.46957783  0.39949714  1.0
  V  V1127  1  0.13778583  0.80291117  0.39949714  1.0
  V  V1128  1  0.47111917  0.13624450  0.39949714  1.0
  V  V1129  1  0.47111917  0.46957783  0.39949714  1.0
  V  V1130  1  0.47111917  0.80291117  0.39949714  1.0
  V  V1131  1  0.80445250  0.13624450  0.39949714  1.0
  V  V1132  1  0.80445250  0.46957783  0.39949714  1.0
  V  V1133  1  0.80445250  0.80291117  0.39949714  1.0
  V  V1134  1  0.19554750  0.19708883  0.37474214  1.0
  V  V1135  1  0.19554750  0.53042217  0.37474214  1.0
  V  V1136  1  0.19554750  0.86375550  0.37474214  1.0
  V  V1137  1  0.52888083  0.19708883  0.37474214  1.0
  V  V1138  1  0.52888083  0.53042217  0.37474214  1.0
  V  V1139  1  0.52888083  0.86375550  0.37474214  1.0
  V  V1140  1  0.86221417  0.19708883  0.37474214  1.0
  V  V1141  1  0.86221417  0.53042217  0.37474214  1.0
  V  V1142  1  0.86221417  0.86375550  0.37474214  1.0
  V  V1143  1  0.02888083  0.03042217  0.30331357  1.0
  V  V1144  1  0.02888083  0.36375550  0.30331357  1.0
  V  V1145  1  0.02888083  0.69708883  0.30331357  1.0
  V  V1146  1  0.36221417  0.03042217  0.30331357  1.0
  V  V1147  1  0.36221417  0.36375550  0.30331357  1.0
  V  V1148  1  0.36221417  0.69708883  0.30331357  1.0
  V  V1149  1  0.69554750  0.03042217  0.30331357  1.0
  V  V1150  1  0.69554750  0.36375550  0.30331357  1.0
  V  V1151  1  0.69554750  0.69708883  0.30331357  1.0
  V  V1152  1  0.00806083  0.22003250  0.31096729  1.0
  V  V1153  1  0.00806083  0.55336583  0.31096729  1.0
  V  V1154  1  0.00806083  0.88669917  0.31096729  1.0
  V  V1155  1  0.34139417  0.22003250  0.31096729  1.0
  V  V1156  1  0.34139417  0.55336583  0.31096729  1.0
  V  V1157  1  0.34139417  0.88669917  0.31096729  1.0
  V  V1158  1  0.67472750  0.22003250  0.31096729  1.0
  V  V1159  1  0.67472750  0.55336583  0.31096729  1.0
  V  V1160  1  0.67472750  0.88669917  0.31096729  1.0
  V  V1161  1  0.17472750  0.05336583  0.38239586  1.0
  V  V1162  1  0.17472750  0.38669917  0.38239586  1.0
  V  V1163  1  0.17472750  0.72003250  0.38239586  1.0
  V  V1164  1  0.50806083  0.05336583  0.38239586  1.0
  V  V1165  1  0.50806083  0.38669917  0.38239586  1.0
  V  V1166  1  0.50806083  0.72003250  0.38239586  1.0
  V  V1167  1  0.84139417  0.05336583  0.38239586  1.0
  V  V1168  1  0.84139417  0.38669917  0.38239586  1.0
  V  V1169  1  0.84139417  0.72003250  0.38239586  1.0
  V  V1170  1  0.15860583  0.27996750  0.38930514  1.0
  V  V1171  1  0.15860583  0.61330083  0.38930514  1.0
  V  V1172  1  0.15860583  0.94663417  0.38930514  1.0
  V  V1173  1  0.49193917  0.27996750  0.38930514  1.0
  V  V1174  1  0.49193917  0.61330083  0.38930514  1.0
  V  V1175  1  0.49193917  0.94663417  0.38930514  1.0
  V  V1176  1  0.82527250  0.27996750  0.38930514  1.0
  V  V1177  1  0.82527250  0.61330083  0.38930514  1.0
  V  V1178  1  0.82527250  0.94663417  0.38930514  1.0
  V  V1179  1  0.32527250  0.11330083  0.31787657  1.0
  V  V1180  1  0.32527250  0.44663417  0.31787657  1.0
  V  V1181  1  0.32527250  0.77996750  0.31787657  1.0
  V  V1182  1  0.65860583  0.11330083  0.31787657  1.0
  V  V1183  1  0.65860583  0.44663417  0.31787657  1.0
  V  V1184  1  0.65860583  0.77996750  0.31787657  1.0
  V  V1185  1  0.99193917  0.11330083  0.31787657  1.0
  V  V1186  1  0.99193917  0.44663417  0.31787657  1.0
  V  V1187  1  0.99193917  0.77996750  0.31787657  1.0
  V  V1188  1  0.19554750  0.19708883  0.30203186  1.0
  V  V1189  1  0.19554750  0.53042217  0.30203186  1.0
  V  V1190  1  0.19554750  0.86375550  0.30203186  1.0
  V  V1191  1  0.52888083  0.19708883  0.30203186  1.0
  V  V1192  1  0.52888083  0.53042217  0.30203186  1.0
  V  V1193  1  0.52888083  0.86375550  0.30203186  1.0
  V  V1194  1  0.86221417  0.19708883  0.30203186  1.0
  V  V1195  1  0.86221417  0.53042217  0.30203186  1.0
  V  V1196  1  0.86221417  0.86375550  0.30203186  1.0
  V  V1197  1  0.02888083  0.03042217  0.37346043  1.0
  V  V1198  1  0.02888083  0.36375550  0.37346043  1.0
  V  V1199  1  0.02888083  0.69708883  0.37346043  1.0
  V  V1200  1  0.36221417  0.03042217  0.37346043  1.0
  V  V1201  1  0.36221417  0.36375550  0.37346043  1.0
  V  V1202  1  0.36221417  0.69708883  0.37346043  1.0
  V  V1203  1  0.69554750  0.03042217  0.37346043  1.0
  V  V1204  1  0.69554750  0.36375550  0.37346043  1.0
  V  V1205  1  0.69554750  0.69708883  0.37346043  1.0
  V  V1206  1  0.30445250  0.30291117  0.39821543  1.0
  V  V1207  1  0.30445250  0.63624450  0.39821543  1.0
  V  V1208  1  0.30445250  0.96957783  0.39821543  1.0
  V  V1209  1  0.63778583  0.30291117  0.39821543  1.0
  V  V1210  1  0.63778583  0.63624450  0.39821543  1.0
  V  V1211  1  0.63778583  0.96957783  0.39821543  1.0
  V  V1212  1  0.97111917  0.30291117  0.39821543  1.0
  V  V1213  1  0.97111917  0.63624450  0.39821543  1.0
  V  V1214  1  0.97111917  0.96957783  0.39821543  1.0
  V  V1215  1  0.13778583  0.13624450  0.32678686  1.0
  V  V1216  1  0.13778583  0.46957783  0.32678686  1.0
  V  V1217  1  0.13778583  0.80291117  0.32678686  1.0
  V  V1218  1  0.47111917  0.13624450  0.32678686  1.0
  V  V1219  1  0.47111917  0.46957783  0.32678686  1.0
  V  V1220  1  0.47111917  0.80291117  0.32678686  1.0
  V  V1221  1  0.80445250  0.13624450  0.32678686  1.0
  V  V1222  1  0.80445250  0.46957783  0.32678686  1.0
  V  V1223  1  0.80445250  0.80291117  0.32678686  1.0
  V  V1224  1  0.05251600  0.31611100  0.32825764  1.0
  V  V1225  1  0.05251600  0.64944433  0.32825764  1.0
  V  V1226  1  0.05251600  0.98277767  0.32825764  1.0
  V  V1227  1  0.38584933  0.31611100  0.32825764  1.0
  V  V1228  1  0.38584933  0.64944433  0.32825764  1.0
  V  V1229  1  0.38584933  0.98277767  0.32825764  1.0
  V  V1230  1  0.71918267  0.31611100  0.32825764  1.0
  V  V1231  1  0.71918267  0.64944433  0.32825764  1.0
  V  V1232  1  0.71918267  0.98277767  0.32825764  1.0
  V  V1233  1  0.21918267  0.14944433  0.39968621  1.0
  V  V1234  1  0.21918267  0.48277767  0.39968621  1.0
  V  V1235  1  0.21918267  0.81611100  0.39968621  1.0
  V  V1236  1  0.55251600  0.14944433  0.39968621  1.0
  V  V1237  1  0.55251600  0.48277767  0.39968621  1.0
  V  V1238  1  0.55251600  0.81611100  0.39968621  1.0
  V  V1239  1  0.88584933  0.14944433  0.39968621  1.0
  V  V1240  1  0.88584933  0.48277767  0.39968621  1.0
  V  V1241  1  0.88584933  0.81611100  0.39968621  1.0
  V  V1242  1  0.11415067  0.18388900  0.30184279  1.0
  V  V1243  1  0.11415067  0.51722233  0.30184279  1.0
  V  V1244  1  0.11415067  0.85055567  0.30184279  1.0
  V  V1245  1  0.44748400  0.18388900  0.30184279  1.0
  V  V1246  1  0.44748400  0.51722233  0.30184279  1.0
  V  V1247  1  0.44748400  0.85055567  0.30184279  1.0
  V  V1248  1  0.78081733  0.18388900  0.30184279  1.0
  V  V1249  1  0.78081733  0.51722233  0.30184279  1.0
  V  V1250  1  0.78081733  0.85055567  0.30184279  1.0
  V  V1251  1  0.28081733  0.01722233  0.37327136  1.0
  V  V1252  1  0.28081733  0.35055567  0.37327136  1.0
  V  V1253  1  0.28081733  0.68388900  0.37327136  1.0
  V  V1254  1  0.61415067  0.01722233  0.37327136  1.0
  V  V1255  1  0.61415067  0.35055567  0.37327136  1.0
  V  V1256  1  0.61415067  0.68388900  0.37327136  1.0
  V  V1257  1  0.94748400  0.01722233  0.37327136  1.0
  V  V1258  1  0.94748400  0.35055567  0.37327136  1.0
  V  V1259  1  0.94748400  0.68388900  0.37327136  1.0
  V  V1260  1  0.26892133  0.26777700  0.30694107  1.0
  V  V1261  1  0.26892133  0.60111033  0.30694107  1.0
  V  V1262  1  0.26892133  0.93444367  0.30694107  1.0
  V  V1263  1  0.60225467  0.26777700  0.30694107  1.0
  V  V1264  1  0.60225467  0.60111033  0.30694107  1.0
  V  V1265  1  0.60225467  0.93444367  0.30694107  1.0
  V  V1266  1  0.93558800  0.26777700  0.30694107  1.0
  V  V1267  1  0.93558800  0.60111033  0.30694107  1.0
  V  V1268  1  0.93558800  0.93444367  0.30694107  1.0
  V  V1269  1  0.10225467  0.10111033  0.37836964  1.0
  V  V1270  1  0.10225467  0.43444367  0.37836964  1.0
  V  V1271  1  0.10225467  0.76777700  0.37836964  1.0
  V  V1272  1  0.43558800  0.10111033  0.37836964  1.0
  V  V1273  1  0.43558800  0.43444367  0.37836964  1.0
  V  V1274  1  0.43558800  0.76777700  0.37836964  1.0
  V  V1275  1  0.76892133  0.10111033  0.37836964  1.0
  V  V1276  1  0.76892133  0.43444367  0.37836964  1.0
  V  V1277  1  0.76892133  0.76777700  0.37836964  1.0
  V  V1278  1  0.23107867  0.23222300  0.32315936  1.0
  V  V1279  1  0.23107867  0.56555633  0.32315936  1.0
  V  V1280  1  0.23107867  0.89888967  0.32315936  1.0
  V  V1281  1  0.56441200  0.23222300  0.32315936  1.0
  V  V1282  1  0.56441200  0.56555633  0.32315936  1.0
  V  V1283  1  0.56441200  0.89888967  0.32315936  1.0
  V  V1284  1  0.89774533  0.23222300  0.32315936  1.0
  V  V1285  1  0.89774533  0.56555633  0.32315936  1.0
  V  V1286  1  0.89774533  0.89888967  0.32315936  1.0
  V  V1287  1  0.06441200  0.06555633  0.39458793  1.0
  V  V1288  1  0.06441200  0.39888967  0.39458793  1.0
  V  V1289  1  0.06441200  0.73222300  0.39458793  1.0
  V  V1290  1  0.39774533  0.06555633  0.39458793  1.0
  V  V1291  1  0.39774533  0.39888967  0.39458793  1.0
  V  V1292  1  0.39774533  0.73222300  0.39458793  1.0
  V  V1293  1  0.73107867  0.06555633  0.39458793  1.0
  V  V1294  1  0.73107867  0.39888967  0.39458793  1.0
  V  V1295  1  0.73107867  0.73222300  0.39458793  1.0
  V  V1296  1  0.19913433  0.31245767  0.33684979  1.0
  V  V1297  1  0.19913433  0.64579100  0.33684979  1.0
  V  V1298  1  0.19913433  0.97912433  0.33684979  1.0
  V  V1299  1  0.53246767  0.31245767  0.33684979  1.0
  V  V1300  1  0.53246767  0.64579100  0.33684979  1.0
  V  V1301  1  0.53246767  0.97912433  0.33684979  1.0
  V  V1302  1  0.86580100  0.31245767  0.33684979  1.0
  V  V1303  1  0.86580100  0.64579100  0.33684979  1.0
  V  V1304  1  0.86580100  0.97912433  0.33684979  1.0
  V  V1305  1  0.03246767  0.14579100  0.40827836  1.0
  V  V1306  1  0.03246767  0.47912433  0.40827836  1.0
  V  V1307  1  0.03246767  0.81245767  0.40827836  1.0
  V  V1308  1  0.36580100  0.14579100  0.40827836  1.0
  V  V1309  1  0.36580100  0.47912433  0.40827836  1.0
  V  V1310  1  0.36580100  0.81245767  0.40827836  1.0
  V  V1311  1  0.69913433  0.14579100  0.40827836  1.0
  V  V1312  1  0.69913433  0.47912433  0.40827836  1.0
  V  V1313  1  0.69913433  0.81245767  0.40827836  1.0
  V  V1314  1  0.30086567  0.18754233  0.29325064  1.0
  V  V1315  1  0.30086567  0.52087567  0.29325064  1.0
  V  V1316  1  0.30086567  0.85420900  0.29325064  1.0
  V  V1317  1  0.63419900  0.18754233  0.29325064  1.0
  V  V1318  1  0.63419900  0.52087567  0.29325064  1.0
  V  V1319  1  0.63419900  0.85420900  0.29325064  1.0
  V  V1320  1  0.96753233  0.18754233  0.29325064  1.0
  V  V1321  1  0.96753233  0.52087567  0.29325064  1.0
  V  V1322  1  0.96753233  0.85420900  0.29325064  1.0
  V  V1323  1  0.13419900  0.02087567  0.36467921  1.0
  V  V1324  1  0.13419900  0.35420900  0.36467921  1.0
  V  V1325  1  0.13419900  0.68754233  0.36467921  1.0
  V  V1326  1  0.46753233  0.02087567  0.36467921  1.0
  V  V1327  1  0.46753233  0.35420900  0.36467921  1.0
  V  V1328  1  0.46753233  0.68754233  0.36467921  1.0
  V  V1329  1  0.80086567  0.02087567  0.36467921  1.0
  V  V1330  1  0.80086567  0.35420900  0.36467921  1.0
  V  V1331  1  0.80086567  0.68754233  0.36467921  1.0
  V  V1332  1  0.03617017  0.17261683  0.33526300  1.0
  V  V1333  1  0.03617017  0.50595017  0.33526300  1.0
  V  V1334  1  0.03617017  0.83928350  0.33526300  1.0
  V  V1335  1  0.36950350  0.17261683  0.33526300  1.0
  V  V1336  1  0.36950350  0.50595017  0.33526300  1.0
  V  V1337  1  0.36950350  0.83928350  0.33526300  1.0
  V  V1338  1  0.70283683  0.17261683  0.33526300  1.0
  V  V1339  1  0.70283683  0.50595017  0.33526300  1.0
  V  V1340  1  0.70283683  0.83928350  0.33526300  1.0
  V  V1341  1  0.20283683  0.00595017  0.40669157  1.0
  V  V1342  1  0.20283683  0.33928350  0.40669157  1.0
  V  V1343  1  0.20283683  0.67261683  0.40669157  1.0
  V  V1344  1  0.53617017  0.00595017  0.40669157  1.0
  V  V1345  1  0.53617017  0.33928350  0.40669157  1.0
  V  V1346  1  0.53617017  0.67261683  0.40669157  1.0
  V  V1347  1  0.86950350  0.00595017  0.40669157  1.0
  V  V1348  1  0.86950350  0.33928350  0.40669157  1.0
  V  V1349  1  0.86950350  0.67261683  0.40669157  1.0
  V  V1350  1  0.13049650  0.32738317  0.29483743  1.0
  V  V1351  1  0.13049650  0.66071650  0.29483743  1.0
  V  V1352  1  0.13049650  0.99404983  0.29483743  1.0
  V  V1353  1  0.46382983  0.32738317  0.29483743  1.0
  V  V1354  1  0.46382983  0.66071650  0.29483743  1.0
  V  V1355  1  0.46382983  0.99404983  0.29483743  1.0
  V  V1356  1  0.79716317  0.32738317  0.29483743  1.0
  V  V1357  1  0.79716317  0.66071650  0.29483743  1.0
  V  V1358  1  0.79716317  0.99404983  0.29483743  1.0
  V  V1359  1  0.29716317  0.16071650  0.36626600  1.0
  V  V1360  1  0.29716317  0.49404983  0.36626600  1.0
  V  V1361  1  0.29716317  0.82738317  0.36626600  1.0
  V  V1362  1  0.63049650  0.16071650  0.36626600  1.0
  V  V1363  1  0.63049650  0.49404983  0.36626600  1.0
  V  V1364  1  0.63049650  0.82738317  0.36626600  1.0
  V  V1365  1  0.96382983  0.16071650  0.36626600  1.0
  V  V1366  1  0.96382983  0.49404983  0.36626600  1.0
  V  V1367  1  0.96382983  0.82738317  0.36626600  1.0
  V  V1368  1  0.03697217  0.25570183  0.40634786  1.0
  V  V1369  1  0.03697217  0.58903517  0.40634786  1.0
  V  V1370  1  0.03697217  0.92236850  0.40634786  1.0
  V  V1371  1  0.37030550  0.25570183  0.40634786  1.0
  V  V1372  1  0.37030550  0.58903517  0.40634786  1.0
  V  V1373  1  0.37030550  0.92236850  0.40634786  1.0
  V  V1374  1  0.70363883  0.25570183  0.40634786  1.0
  V  V1375  1  0.70363883  0.58903517  0.40634786  1.0
  V  V1376  1  0.70363883  0.92236850  0.40634786  1.0
  V  V1377  1  0.20363883  0.08903517  0.33491929  1.0
  V  V1378  1  0.20363883  0.42236850  0.33491929  1.0
  V  V1379  1  0.20363883  0.75570183  0.33491929  1.0
  V  V1380  1  0.53697217  0.08903517  0.33491929  1.0
  V  V1381  1  0.53697217  0.42236850  0.33491929  1.0
  V  V1382  1  0.53697217  0.75570183  0.33491929  1.0
  V  V1383  1  0.87030550  0.08903517  0.33491929  1.0
  V  V1384  1  0.87030550  0.42236850  0.33491929  1.0
  V  V1385  1  0.87030550  0.75570183  0.33491929  1.0
  V  V1386  1  0.12969450  0.24429817  0.36660971  1.0
  V  V1387  1  0.12969450  0.57763150  0.36660971  1.0
  V  V1388  1  0.12969450  0.91096483  0.36660971  1.0
  V  V1389  1  0.46302783  0.24429817  0.36660971  1.0
  V  V1390  1  0.46302783  0.57763150  0.36660971  1.0
  V  V1391  1  0.46302783  0.91096483  0.36660971  1.0
  V  V1392  1  0.79636117  0.24429817  0.36660971  1.0
  V  V1393  1  0.79636117  0.57763150  0.36660971  1.0
  V  V1394  1  0.79636117  0.91096483  0.36660971  1.0
  V  V1395  1  0.29636117  0.07763150  0.29518114  1.0
  V  V1396  1  0.29636117  0.41096483  0.29518114  1.0
  V  V1397  1  0.29636117  0.74429817  0.29518114  1.0
  V  V1398  1  0.62969450  0.07763150  0.29518114  1.0
  V  V1399  1  0.62969450  0.41096483  0.29518114  1.0
  V  V1400  1  0.62969450  0.74429817  0.29518114  1.0
  V  V1401  1  0.96302783  0.07763150  0.29518114  1.0
  V  V1402  1  0.96302783  0.41096483  0.29518114  1.0
  V  V1403  1  0.96302783  0.74429817  0.29518114  1.0
  Ni  Ni1404  1  0.25000000  0.25000000  0.38647879  1.0
  Ni  Ni1405  1  0.25000000  0.58333333  0.38647879  1.0
  Ni  Ni1406  1  0.25000000  0.91666667  0.38647879  1.0
  Ni  Ni1407  1  0.58333333  0.25000000  0.38647879  1.0
  Ni  Ni1408  1  0.58333333  0.58333333  0.38647879  1.0
  Ni  Ni1409  1  0.58333333  0.91666667  0.38647879  1.0
  Ni  Ni1410  1  0.91666667  0.25000000  0.38647879  1.0
  Ni  Ni1411  1  0.91666667  0.58333333  0.38647879  1.0
  Ni  Ni1412  1  0.91666667  0.91666667  0.38647879  1.0
  Ni  Ni1413  1  0.08333333  0.08333333  0.31505021  1.0
  Ni  Ni1414  1  0.08333333  0.41666667  0.31505021  1.0
  Ni  Ni1415  1  0.08333333  0.75000000  0.31505021  1.0
  Ni  Ni1416  1  0.41666667  0.08333333  0.31505021  1.0
  Ni  Ni1417  1  0.41666667  0.41666667  0.31505021  1.0
  Ni  Ni1418  1  0.41666667  0.75000000  0.31505021  1.0
  Ni  Ni1419  1  0.75000000  0.08333333  0.31505021  1.0
  Ni  Ni1420  1  0.75000000  0.41666667  0.31505021  1.0
  Ni  Ni1421  1  0.75000000  0.75000000  0.31505021  1.0
  Ni  Ni1422  1  0.16666667  0.16666667  0.35076450  1.0
  Ni  Ni1423  1  0.16666667  0.50000000  0.35076450  1.0
  Ni  Ni1424  1  0.16666667  0.83333333  0.35076450  1.0
  Ni  Ni1425  1  0.50000000  0.16666667  0.35076450  1.0
  Ni  Ni1426  1  0.50000000  0.50000000  0.35076450  1.0
  Ni  Ni1427  1  0.50000000  0.83333333  0.35076450  1.0
  Ni  Ni1428  1  0.83333333  0.16666667  0.35076450  1.0
  Ni  Ni1429  1  0.83333333  0.50000000  0.35076450  1.0
  Ni  Ni1430  1  0.83333333  0.83333333  0.35076450  1.0
  Ni  Ni1431  1  0.00000000  0.00000000  0.42219307  1.0
  Ni  Ni1432  1  0.00000000  0.33333333  0.42219307  1.0
  Ni  Ni1433  1  0.00000000  0.66666667  0.42219307  1.0
  Ni  Ni1434  1  0.33333333  0.00000000  0.42219307  1.0
  Ni  Ni1435  1  0.33333333  0.33333333  0.42219307  1.0
  Ni  Ni1436  1  0.33333333  0.66666667  0.42219307  1.0
  Ni  Ni1437  1  0.66666667  0.00000000  0.42219307  1.0
  Ni  Ni1438  1  0.66666667  0.33333333  0.42219307  1.0
  Ni  Ni1439  1  0.66666667  0.66666667  0.42219307  1.0
  Ni  Ni1440  1  0.32612683  0.26080283  0.35385300  1.0
  Ni  Ni1441  1  0.32612683  0.59413617  0.35385300  1.0
  Ni  Ni1442  1  0.32612683  0.92746950  0.35385300  1.0
  Ni  Ni1443  1  0.65946017  0.26080283  0.35385300  1.0
  Ni  Ni1444  1  0.65946017  0.59413617  0.35385300  1.0
  Ni  Ni1445  1  0.65946017  0.92746950  0.35385300  1.0
  Ni  Ni1446  1  0.99279350  0.26080283  0.35385300  1.0
  Ni  Ni1447  1  0.99279350  0.59413617  0.35385300  1.0
  Ni  Ni1448  1  0.99279350  0.92746950  0.35385300  1.0
  Ni  Ni1449  1  0.15946017  0.09413617  0.42528157  1.0
  Ni  Ni1450  1  0.15946017  0.42746950  0.42528157  1.0
  Ni  Ni1451  1  0.15946017  0.76080283  0.42528157  1.0
  Ni  Ni1452  1  0.49279350  0.09413617  0.42528157  1.0
  Ni  Ni1453  1  0.49279350  0.42746950  0.42528157  1.0
  Ni  Ni1454  1  0.49279350  0.76080283  0.42528157  1.0
  Ni  Ni1455  1  0.82612683  0.09413617  0.42528157  1.0
  Ni  Ni1456  1  0.82612683  0.42746950  0.42528157  1.0
  Ni  Ni1457  1  0.82612683  0.76080283  0.42528157  1.0
  Ni  Ni1458  1  0.17387317  0.23919717  0.41910457  1.0
  Ni  Ni1459  1  0.17387317  0.57253050  0.41910457  1.0
  Ni  Ni1460  1  0.17387317  0.90586383  0.41910457  1.0
  Ni  Ni1461  1  0.50720650  0.23919717  0.41910457  1.0
  Ni  Ni1462  1  0.50720650  0.57253050  0.41910457  1.0
  Ni  Ni1463  1  0.50720650  0.90586383  0.41910457  1.0
  Ni  Ni1464  1  0.84053983  0.23919717  0.41910457  1.0
  Ni  Ni1465  1  0.84053983  0.57253050  0.41910457  1.0
  Ni  Ni1466  1  0.84053983  0.90586383  0.41910457  1.0
  Ni  Ni1467  1  0.00720650  0.07253050  0.34767600  1.0
  Ni  Ni1468  1  0.00720650  0.40586383  0.34767600  1.0
  Ni  Ni1469  1  0.00720650  0.73919717  0.34767600  1.0
  Ni  Ni1470  1  0.34053983  0.07253050  0.34767600  1.0
  Ni  Ni1471  1  0.34053983  0.40586383  0.34767600  1.0
  Ni  Ni1472  1  0.34053983  0.73919717  0.34767600  1.0
  Ni  Ni1473  1  0.67387317  0.07253050  0.34767600  1.0
  Ni  Ni1474  1  0.67387317  0.40586383  0.34767600  1.0
  Ni  Ni1475  1  0.67387317  0.73919717  0.34767600  1.0
  Ni  Ni1476  1  0.09690233  0.32253300  0.38066350  1.0
  Ni  Ni1477  1  0.09690233  0.65586633  0.38066350  1.0
  Ni  Ni1478  1  0.09690233  0.98919967  0.38066350  1.0
  Ni  Ni1479  1  0.43023567  0.32253300  0.38066350  1.0
  Ni  Ni1480  1  0.43023567  0.65586633  0.38066350  1.0
  Ni  Ni1481  1  0.43023567  0.98919967  0.38066350  1.0
  Ni  Ni1482  1  0.76356900  0.32253300  0.38066350  1.0
  Ni  Ni1483  1  0.76356900  0.65586633  0.38066350  1.0
  Ni  Ni1484  1  0.76356900  0.98919967  0.38066350  1.0
  Ni  Ni1485  1  0.26356900  0.15586633  0.30923493  1.0
  Ni  Ni1486  1  0.26356900  0.48919967  0.30923493  1.0
  Ni  Ni1487  1  0.26356900  0.82253300  0.30923493  1.0
  Ni  Ni1488  1  0.59690233  0.15586633  0.30923493  1.0
  Ni  Ni1489  1  0.59690233  0.48919967  0.30923493  1.0
  Ni  Ni1490  1  0.59690233  0.82253300  0.30923493  1.0
  Ni  Ni1491  1  0.93023567  0.15586633  0.30923493  1.0
  Ni  Ni1492  1  0.93023567  0.48919967  0.30923493  1.0
  Ni  Ni1493  1  0.93023567  0.82253300  0.30923493  1.0
  Ni  Ni1494  1  0.06976433  0.17746700  0.39229407  1.0
  Ni  Ni1495  1  0.06976433  0.51080033  0.39229407  1.0
  Ni  Ni1496  1  0.06976433  0.84413367  0.39229407  1.0
  Ni  Ni1497  1  0.40309767  0.17746700  0.39229407  1.0
  Ni  Ni1498  1  0.40309767  0.51080033  0.39229407  1.0
  Ni  Ni1499  1  0.40309767  0.84413367  0.39229407  1.0
  Ni  Ni1500  1  0.73643100  0.17746700  0.39229407  1.0
  Ni  Ni1501  1  0.73643100  0.51080033  0.39229407  1.0
  Ni  Ni1502  1  0.73643100  0.84413367  0.39229407  1.0
  Ni  Ni1503  1  0.23643100  0.01080033  0.32086550  1.0
  Ni  Ni1504  1  0.23643100  0.34413367  0.32086550  1.0
  Ni  Ni1505  1  0.23643100  0.67746700  0.32086550  1.0
  Ni  Ni1506  1  0.56976433  0.01080033  0.32086550  1.0
  Ni  Ni1507  1  0.56976433  0.34413367  0.32086550  1.0
  Ni  Ni1508  1  0.56976433  0.67746700  0.32086550  1.0
  Ni  Ni1509  1  0.90309767  0.01080033  0.32086550  1.0
  Ni  Ni1510  1  0.90309767  0.34413367  0.32086550  1.0
  Ni  Ni1511  1  0.90309767  0.67746700  0.32086550  1.0
  Ni  Ni1512  1  0.22882583  0.29279450  0.39555343  1.0
  Ni  Ni1513  1  0.22882583  0.62612783  0.39555343  1.0
  Ni  Ni1514  1  0.22882583  0.95946117  0.39555343  1.0
  Ni  Ni1515  1  0.56215917  0.29279450  0.39555343  1.0
  Ni  Ni1516  1  0.56215917  0.62612783  0.39555343  1.0
  Ni  Ni1517  1  0.56215917  0.95946117  0.39555343  1.0
  Ni  Ni1518  1  0.89549250  0.29279450  0.39555343  1.0
  Ni  Ni1519  1  0.89549250  0.62612783  0.39555343  1.0
  Ni  Ni1520  1  0.89549250  0.95946117  0.39555343  1.0
  Ni  Ni1521  1  0.06215917  0.12612783  0.32412486  1.0
  Ni  Ni1522  1  0.06215917  0.45946117  0.32412486  1.0
  Ni  Ni1523  1  0.06215917  0.79279450  0.32412486  1.0
  Ni  Ni1524  1  0.39549250  0.12612783  0.32412486  1.0
  Ni  Ni1525  1  0.39549250  0.45946117  0.32412486  1.0
  Ni  Ni1526  1  0.39549250  0.79279450  0.32412486  1.0
  Ni  Ni1527  1  0.72882583  0.12612783  0.32412486  1.0
  Ni  Ni1528  1  0.72882583  0.45946117  0.32412486  1.0
  Ni  Ni1529  1  0.72882583  0.79279450  0.32412486  1.0
  Ni  Ni1530  1  0.27117417  0.20720550  0.37740414  1.0
  Ni  Ni1531  1  0.27117417  0.54053883  0.37740414  1.0
  Ni  Ni1532  1  0.27117417  0.87387217  0.37740414  1.0
  Ni  Ni1533  1  0.60450750  0.20720550  0.37740414  1.0
  Ni  Ni1534  1  0.60450750  0.54053883  0.37740414  1.0
  Ni  Ni1535  1  0.60450750  0.87387217  0.37740414  1.0
  Ni  Ni1536  1  0.93784083  0.20720550  0.37740414  1.0
  Ni  Ni1537  1  0.93784083  0.54053883  0.37740414  1.0
  Ni  Ni1538  1  0.93784083  0.87387217  0.37740414  1.0
  Ni  Ni1539  1  0.10450750  0.04053883  0.30597557  1.0
  Ni  Ni1540  1  0.10450750  0.37387217  0.30597557  1.0
  Ni  Ni1541  1  0.10450750  0.70720550  0.30597557  1.0
  Ni  Ni1542  1  0.43784083  0.04053883  0.30597557  1.0
  Ni  Ni1543  1  0.43784083  0.37387217  0.30597557  1.0
  Ni  Ni1544  1  0.43784083  0.70720550  0.30597557  1.0
  Ni  Ni1545  1  0.77117417  0.04053883  0.30597557  1.0
  Ni  Ni1546  1  0.77117417  0.37387217  0.30597557  1.0
  Ni  Ni1547  1  0.77117417  0.70720550  0.30597557  1.0
  Ni  Ni1548  1  0.10167367  0.20974200  0.37861864  1.0
  Ni  Ni1549  1  0.10167367  0.54307533  0.37861864  1.0
  Ni  Ni1550  1  0.10167367  0.87640867  0.37861864  1.0
  Ni  Ni1551  1  0.43500700  0.20974200  0.37861864  1.0
  Ni  Ni1552  1  0.43500700  0.54307533  0.37861864  1.0
  Ni  Ni1553  1  0.43500700  0.87640867  0.37861864  1.0
  Ni  Ni1554  1  0.76834033  0.20974200  0.37861864  1.0
  Ni  Ni1555  1  0.76834033  0.54307533  0.37861864  1.0
  Ni  Ni1556  1  0.76834033  0.87640867  0.37861864  1.0
  Ni  Ni1557  1  0.26834033  0.04307533  0.30719007  1.0
  Ni  Ni1558  1  0.26834033  0.37640867  0.30719007  1.0
  Ni  Ni1559  1  0.26834033  0.70974200  0.30719007  1.0
  Ni  Ni1560  1  0.60167367  0.04307533  0.30719007  1.0
  Ni  Ni1561  1  0.60167367  0.37640867  0.30719007  1.0
  Ni  Ni1562  1  0.60167367  0.70974200  0.30719007  1.0
  Ni  Ni1563  1  0.93500700  0.04307533  0.30719007  1.0
  Ni  Ni1564  1  0.93500700  0.37640867  0.30719007  1.0
  Ni  Ni1565  1  0.93500700  0.70974200  0.30719007  1.0
  Ni  Ni1566  1  0.06499300  0.29025800  0.39433893  1.0
  Ni  Ni1567  1  0.06499300  0.62359133  0.39433893  1.0
  Ni  Ni1568  1  0.06499300  0.95692467  0.39433893  1.0
  Ni  Ni1569  1  0.39832633  0.29025800  0.39433893  1.0
  Ni  Ni1570  1  0.39832633  0.62359133  0.39433893  1.0
  Ni  Ni1571  1  0.39832633  0.95692467  0.39433893  1.0
  Ni  Ni1572  1  0.73165967  0.29025800  0.39433893  1.0
  Ni  Ni1573  1  0.73165967  0.62359133  0.39433893  1.0
  Ni  Ni1574  1  0.73165967  0.95692467  0.39433893  1.0
  Ni  Ni1575  1  0.23165967  0.12359133  0.32291036  1.0
  Ni  Ni1576  1  0.23165967  0.45692467  0.32291036  1.0
  Ni  Ni1577  1  0.23165967  0.79025800  0.32291036  1.0
  Ni  Ni1578  1  0.56499300  0.12359133  0.32291036  1.0
  Ni  Ni1579  1  0.56499300  0.45692467  0.32291036  1.0
  Ni  Ni1580  1  0.56499300  0.79025800  0.32291036  1.0
  Ni  Ni1581  1  0.89832633  0.12359133  0.32291036  1.0
  Ni  Ni1582  1  0.89832633  0.45692467  0.32291036  1.0
  Ni  Ni1583  1  0.89832633  0.79025800  0.32291036  1.0
  Ni  Ni1584  1  0.07406600  0.27187700  0.31902193  1.0
  Ni  Ni1585  1  0.07406600  0.60521033  0.31902193  1.0
  Ni  Ni1586  1  0.07406600  0.93854367  0.31902193  1.0
  Ni  Ni1587  1  0.40739933  0.27187700  0.31902193  1.0
  Ni  Ni1588  1  0.40739933  0.60521033  0.31902193  1.0
  Ni  Ni1589  1  0.40739933  0.93854367  0.31902193  1.0
  Ni  Ni1590  1  0.74073267  0.27187700  0.31902193  1.0
  Ni  Ni1591  1  0.74073267  0.60521033  0.31902193  1.0
  Ni  Ni1592  1  0.74073267  0.93854367  0.31902193  1.0
  Ni  Ni1593  1  0.24073267  0.10521033  0.39045050  1.0
  Ni  Ni1594  1  0.24073267  0.43854367  0.39045050  1.0
  Ni  Ni1595  1  0.24073267  0.77187700  0.39045050  1.0
  Ni  Ni1596  1  0.57406600  0.10521033  0.39045050  1.0
  Ni  Ni1597  1  0.57406600  0.43854367  0.39045050  1.0
  Ni  Ni1598  1  0.57406600  0.77187700  0.39045050  1.0
  Ni  Ni1599  1  0.90739933  0.10521033  0.39045050  1.0
  Ni  Ni1600  1  0.90739933  0.43854367  0.39045050  1.0
  Ni  Ni1601  1  0.90739933  0.77187700  0.39045050  1.0
  Ni  Ni1602  1  0.09260067  0.22812300  0.31107850  1.0
  Ni  Ni1603  1  0.09260067  0.56145633  0.31107850  1.0
  Ni  Ni1604  1  0.09260067  0.89478967  0.31107850  1.0
  Ni  Ni1605  1  0.42593400  0.22812300  0.31107850  1.0
  Ni  Ni1606  1  0.42593400  0.56145633  0.31107850  1.0
  Ni  Ni1607  1  0.42593400  0.89478967  0.31107850  1.0
  Ni  Ni1608  1  0.75926733  0.22812300  0.31107850  1.0
  Ni  Ni1609  1  0.75926733  0.56145633  0.31107850  1.0
  Ni  Ni1610  1  0.75926733  0.89478967  0.31107850  1.0
  Ni  Ni1611  1  0.25926733  0.06145633  0.38250707  1.0
  Ni  Ni1612  1  0.25926733  0.39478967  0.38250707  1.0
  Ni  Ni1613  1  0.25926733  0.72812300  0.38250707  1.0
  Ni  Ni1614  1  0.59260067  0.06145633  0.38250707  1.0
  Ni  Ni1615  1  0.59260067  0.39478967  0.38250707  1.0
  Ni  Ni1616  1  0.59260067  0.72812300  0.38250707  1.0
  Ni  Ni1617  1  0.92593400  0.06145633  0.38250707  1.0
  Ni  Ni1618  1  0.92593400  0.39478967  0.38250707  1.0
  Ni  Ni1619  1  0.92593400  0.72812300  0.38250707  1.0
