# generated using pymatgen
data_Y15Ni32
_symmetry_space_group_name_H-M   'P 1'
_cell_length_a   52.86089008
_cell_length_b   52.86089008
_cell_length_c   71.21158128
_cell_angle_alpha   30.00000000
_cell_angle_beta   90.00000000
_cell_angle_gamma   99.59406823
_symmetry_Int_Tables_number   1
_chemical_formula_structural   Y15Ni32
_chemical_formula_sum   'Y810 Ni1728'
_cell_volume   93802.26298640
_cell_formula_units_Z   54
loop_
 _symmetry_equiv_pos_site_id
 _symmetry_equiv_pos_as_xyz
  1  'x, y, z'
loop_
 _atom_site_type_symbol
 _atom_site_label
 _atom_site_symmetry_multiplicity
 _atom_site_fract_x
 _atom_site_fract_y
 _atom_site_fract_z
 _atom_site_occupancy
  Y  Y0  1  0.25000000  0.16666667  0.03378025  1.0
  Y  Y1  1  0.25000000  0.50000000  0.03378025  1.0
  Y  Y2  1  0.25000000  0.83333333  0.03378025  1.0
  Y  Y3  1  0.58333333  0.16666667  0.03378025  1.0
  Y  Y4  1  0.58333333  0.50000000  0.03378025  1.0
  Y  Y5  1  0.58333333  0.83333333  0.03378025  1.0
  Y  Y6  1  0.91666667  0.16666667  0.03378025  1.0
  Y  Y7  1  0.91666667  0.50000000  0.03378025  1.0
  Y  Y8  1  0.91666667  0.83333333  0.03378025  1.0
  Y  Y9  1  0.08333333  0.16666667  0.10520882  1.0
  Y  Y10  1  0.08333333  0.50000000  0.10520882  1.0
  Y  Y11  1  0.08333333  0.83333333  0.10520882  1.0
  Y  Y12  1  0.41666667  0.16666667  0.10520882  1.0
  Y  Y13  1  0.41666667  0.50000000  0.10520882  1.0
  Y  Y14  1  0.41666667  0.83333333  0.10520882  1.0
  Y  Y15  1  0.75000000  0.16666667  0.10520882  1.0
  Y  Y16  1  0.75000000  0.50000000  0.10520882  1.0
  Y  Y17  1  0.75000000  0.83333333  0.10520882  1.0
  Y  Y18  1  0.31730350  0.03205967  0.00493589  1.0
  Y  Y19  1  0.31730350  0.36539300  0.00493589  1.0
  Y  Y20  1  0.31730350  0.69872633  0.00493589  1.0
  Y  Y21  1  0.65063683  0.03205967  0.00493589  1.0
  Y  Y22  1  0.65063683  0.36539300  0.00493589  1.0
  Y  Y23  1  0.65063683  0.69872633  0.00493589  1.0
  Y  Y24  1  0.98397017  0.03205967  0.00493589  1.0
  Y  Y25  1  0.98397017  0.36539300  0.00493589  1.0
  Y  Y26  1  0.98397017  0.69872633  0.00493589  1.0
  Y  Y27  1  0.15063683  0.03205967  0.07636446  1.0
  Y  Y28  1  0.15063683  0.36539300  0.07636446  1.0
  Y  Y29  1  0.15063683  0.69872633  0.07636446  1.0
  Y  Y30  1  0.48397017  0.03205967  0.07636446  1.0
  Y  Y31  1  0.48397017  0.36539300  0.07636446  1.0
  Y  Y32  1  0.48397017  0.69872633  0.07636446  1.0
  Y  Y33  1  0.81730350  0.03205967  0.07636446  1.0
  Y  Y34  1  0.81730350  0.36539300  0.07636446  1.0
  Y  Y35  1  0.81730350  0.69872633  0.07636446  1.0
  Y  Y36  1  0.31730350  0.03205967  0.09283361  1.0
  Y  Y37  1  0.31730350  0.36539300  0.09283361  1.0
  Y  Y38  1  0.31730350  0.69872633  0.09283361  1.0
  Y  Y39  1  0.65063683  0.03205967  0.09283361  1.0
  Y  Y40  1  0.65063683  0.36539300  0.09283361  1.0
  Y  Y41  1  0.65063683  0.69872633  0.09283361  1.0
  Y  Y42  1  0.98397017  0.03205967  0.09283361  1.0
  Y  Y43  1  0.98397017  0.36539300  0.09283361  1.0
  Y  Y44  1  0.98397017  0.69872633  0.09283361  1.0
  Y  Y45  1  0.15063683  0.03205967  0.02140504  1.0
  Y  Y46  1  0.15063683  0.36539300  0.02140504  1.0
  Y  Y47  1  0.15063683  0.69872633  0.02140504  1.0
  Y  Y48  1  0.48397017  0.03205967  0.02140504  1.0
  Y  Y49  1  0.48397017  0.36539300  0.02140504  1.0
  Y  Y50  1  0.48397017  0.69872633  0.02140504  1.0
  Y  Y51  1  0.81730350  0.03205967  0.02140504  1.0
  Y  Y52  1  0.81730350  0.36539300  0.02140504  1.0
  Y  Y53  1  0.81730350  0.69872633  0.02140504  1.0
  Y  Y54  1  0.31730350  0.23715433  0.05989532  1.0
  Y  Y55  1  0.31730350  0.57048767  0.05989532  1.0
  Y  Y56  1  0.31730350  0.90382100  0.05989532  1.0
  Y  Y57  1  0.65063683  0.23715433  0.05989532  1.0
  Y  Y58  1  0.65063683  0.57048767  0.05989532  1.0
  Y  Y59  1  0.65063683  0.90382100  0.05989532  1.0
  Y  Y60  1  0.98397017  0.23715433  0.05989532  1.0
  Y  Y61  1  0.98397017  0.57048767  0.05989532  1.0
  Y  Y62  1  0.98397017  0.90382100  0.05989532  1.0
  Y  Y63  1  0.15063683  0.23715433  0.13132389  1.0
  Y  Y64  1  0.15063683  0.57048767  0.13132389  1.0
  Y  Y65  1  0.15063683  0.90382100  0.13132389  1.0
  Y  Y66  1  0.48397017  0.23715433  0.13132389  1.0
  Y  Y67  1  0.48397017  0.57048767  0.13132389  1.0
  Y  Y68  1  0.48397017  0.90382100  0.13132389  1.0
  Y  Y69  1  0.81730350  0.23715433  0.13132389  1.0
  Y  Y70  1  0.81730350  0.57048767  0.13132389  1.0
  Y  Y71  1  0.81730350  0.90382100  0.13132389  1.0
  Y  Y72  1  0.21475617  0.03205967  0.04888475  1.0
  Y  Y73  1  0.21475617  0.36539300  0.04888475  1.0
  Y  Y74  1  0.21475617  0.69872633  0.04888475  1.0
  Y  Y75  1  0.54808950  0.03205967  0.04888475  1.0
  Y  Y76  1  0.54808950  0.36539300  0.04888475  1.0
  Y  Y77  1  0.54808950  0.69872633  0.04888475  1.0
  Y  Y78  1  0.88142283  0.03205967  0.04888475  1.0
  Y  Y79  1  0.88142283  0.36539300  0.04888475  1.0
  Y  Y80  1  0.88142283  0.69872633  0.04888475  1.0
  Y  Y81  1  0.04808950  0.03205967  0.12031332  1.0
  Y  Y82  1  0.04808950  0.36539300  0.12031332  1.0
  Y  Y83  1  0.04808950  0.69872633  0.12031332  1.0
  Y  Y84  1  0.38142283  0.03205967  0.12031332  1.0
  Y  Y85  1  0.38142283  0.36539300  0.12031332  1.0
  Y  Y86  1  0.38142283  0.69872633  0.12031332  1.0
  Y  Y87  1  0.71475617  0.03205967  0.12031332  1.0
  Y  Y88  1  0.71475617  0.36539300  0.12031332  1.0
  Y  Y89  1  0.71475617  0.69872633  0.12031332  1.0
  Y  Y90  1  0.22886017  0.20894633  0.04284018  1.0
  Y  Y91  1  0.22886017  0.54227967  0.04284018  1.0
  Y  Y92  1  0.22886017  0.87561300  0.04284018  1.0
  Y  Y93  1  0.56219350  0.20894633  0.04284018  1.0
  Y  Y94  1  0.56219350  0.54227967  0.04284018  1.0
  Y  Y95  1  0.56219350  0.87561300  0.04284018  1.0
  Y  Y96  1  0.89552683  0.20894633  0.04284018  1.0
  Y  Y97  1  0.89552683  0.54227967  0.04284018  1.0
  Y  Y98  1  0.89552683  0.87561300  0.04284018  1.0
  Y  Y99  1  0.06219350  0.20894633  0.11426875  1.0
  Y  Y100  1  0.06219350  0.54227967  0.11426875  1.0
  Y  Y101  1  0.06219350  0.87561300  0.11426875  1.0
  Y  Y102  1  0.39552683  0.20894633  0.11426875  1.0
  Y  Y103  1  0.39552683  0.54227967  0.11426875  1.0
  Y  Y104  1  0.39552683  0.87561300  0.11426875  1.0
  Y  Y105  1  0.72886017  0.20894633  0.11426875  1.0
  Y  Y106  1  0.72886017  0.54227967  0.11426875  1.0
  Y  Y107  1  0.72886017  0.87561300  0.11426875  1.0
  Y  Y108  1  0.22886017  0.20894633  0.11321789  1.0
  Y  Y109  1  0.22886017  0.54227967  0.11321789  1.0
  Y  Y110  1  0.22886017  0.87561300  0.11321789  1.0
  Y  Y111  1  0.56219350  0.20894633  0.11321789  1.0
  Y  Y112  1  0.56219350  0.54227967  0.11321789  1.0
  Y  Y113  1  0.56219350  0.87561300  0.11321789  1.0
  Y  Y114  1  0.89552683  0.20894633  0.11321789  1.0
  Y  Y115  1  0.89552683  0.54227967  0.11321789  1.0
  Y  Y116  1  0.89552683  0.87561300  0.11321789  1.0
  Y  Y117  1  0.06219350  0.20894633  0.04178932  1.0
  Y  Y118  1  0.06219350  0.54227967  0.04178932  1.0
  Y  Y119  1  0.06219350  0.87561300  0.04178932  1.0
  Y  Y120  1  0.39552683  0.20894633  0.04178932  1.0
  Y  Y121  1  0.39552683  0.54227967  0.04178932  1.0
  Y  Y122  1  0.39552683  0.87561300  0.04178932  1.0
  Y  Y123  1  0.72886017  0.20894633  0.04178932  1.0
  Y  Y124  1  0.72886017  0.54227967  0.04178932  1.0
  Y  Y125  1  0.72886017  0.87561300  0.04178932  1.0
  Y  Y126  1  0.22886017  0.03982767  0.11531961  1.0
  Y  Y127  1  0.22886017  0.37316100  0.11531961  1.0
  Y  Y128  1  0.22886017  0.70649433  0.11531961  1.0
  Y  Y129  1  0.56219350  0.03982767  0.11531961  1.0
  Y  Y130  1  0.56219350  0.37316100  0.11531961  1.0
  Y  Y131  1  0.56219350  0.70649433  0.11531961  1.0
  Y  Y132  1  0.89552683  0.03982767  0.11531961  1.0
  Y  Y133  1  0.89552683  0.37316100  0.11531961  1.0
  Y  Y134  1  0.89552683  0.70649433  0.11531961  1.0
  Y  Y135  1  0.06219350  0.03982767  0.04389104  1.0
  Y  Y136  1  0.06219350  0.37316100  0.04389104  1.0
  Y  Y137  1  0.06219350  0.70649433  0.04389104  1.0
  Y  Y138  1  0.39552683  0.03982767  0.04389104  1.0
  Y  Y139  1  0.39552683  0.37316100  0.04389104  1.0
  Y  Y140  1  0.39552683  0.70649433  0.04389104  1.0
  Y  Y141  1  0.72886017  0.03982767  0.04389104  1.0
  Y  Y142  1  0.72886017  0.37316100  0.04389104  1.0
  Y  Y143  1  0.72886017  0.70649433  0.04389104  1.0
  Y  Y144  1  0.31341950  0.20894633  0.00660046  1.0
  Y  Y145  1  0.31341950  0.54227967  0.00660046  1.0
  Y  Y146  1  0.31341950  0.87561300  0.00660046  1.0
  Y  Y147  1  0.64675283  0.20894633  0.00660046  1.0
  Y  Y148  1  0.64675283  0.54227967  0.00660046  1.0
  Y  Y149  1  0.64675283  0.87561300  0.00660046  1.0
  Y  Y150  1  0.98008617  0.20894633  0.00660046  1.0
  Y  Y151  1  0.98008617  0.54227967  0.00660046  1.0
  Y  Y152  1  0.98008617  0.87561300  0.00660046  1.0
  Y  Y153  1  0.14675283  0.20894633  0.07802904  1.0
  Y  Y154  1  0.14675283  0.54227967  0.07802904  1.0
  Y  Y155  1  0.14675283  0.87561300  0.07802904  1.0
  Y  Y156  1  0.48008617  0.20894633  0.07802904  1.0
  Y  Y157  1  0.48008617  0.54227967  0.07802904  1.0
  Y  Y158  1  0.48008617  0.87561300  0.07802904  1.0
  Y  Y159  1  0.81341950  0.20894633  0.07802904  1.0
  Y  Y160  1  0.81341950  0.54227967  0.07802904  1.0
  Y  Y161  1  0.81341950  0.87561300  0.07802904  1.0
  Y  Y162  1  0.25251883  0.00503767  0.03270075  1.0
  Y  Y163  1  0.25251883  0.33837100  0.03270075  1.0
  Y  Y164  1  0.25251883  0.67170433  0.03270075  1.0
  Y  Y165  1  0.58585217  0.00503767  0.03270075  1.0
  Y  Y166  1  0.58585217  0.33837100  0.03270075  1.0
  Y  Y167  1  0.58585217  0.67170433  0.03270075  1.0
  Y  Y168  1  0.91918550  0.00503767  0.03270075  1.0
  Y  Y169  1  0.91918550  0.33837100  0.03270075  1.0
  Y  Y170  1  0.91918550  0.67170433  0.03270075  1.0
  Y  Y171  1  0.08585217  0.00503767  0.10412932  1.0
  Y  Y172  1  0.08585217  0.33837100  0.10412932  1.0
  Y  Y173  1  0.08585217  0.67170433  0.10412932  1.0
  Y  Y174  1  0.41918550  0.00503767  0.10412932  1.0
  Y  Y175  1  0.41918550  0.33837100  0.10412932  1.0
  Y  Y176  1  0.41918550  0.67170433  0.10412932  1.0
  Y  Y177  1  0.75251883  0.00503767  0.10412932  1.0
  Y  Y178  1  0.75251883  0.33837100  0.10412932  1.0
  Y  Y179  1  0.75251883  0.67170433  0.10412932  1.0
  Y  Y180  1  0.33081450  0.16162900  0.07489204  1.0
  Y  Y181  1  0.33081450  0.49496233  0.07489204  1.0
  Y  Y182  1  0.33081450  0.82829567  0.07489204  1.0
  Y  Y183  1  0.66414783  0.16162900  0.07489204  1.0
  Y  Y184  1  0.66414783  0.49496233  0.07489204  1.0
  Y  Y185  1  0.66414783  0.82829567  0.07489204  1.0
  Y  Y186  1  0.99748117  0.16162900  0.07489204  1.0
  Y  Y187  1  0.99748117  0.49496233  0.07489204  1.0
  Y  Y188  1  0.99748117  0.82829567  0.07489204  1.0
  Y  Y189  1  0.16414783  0.16162900  0.00346346  1.0
  Y  Y190  1  0.16414783  0.49496233  0.00346346  1.0
  Y  Y191  1  0.16414783  0.82829567  0.00346346  1.0
  Y  Y192  1  0.49748117  0.16162900  0.00346346  1.0
  Y  Y193  1  0.49748117  0.49496233  0.00346346  1.0
  Y  Y194  1  0.49748117  0.82829567  0.00346346  1.0
  Y  Y195  1  0.83081450  0.16162900  0.00346346  1.0
  Y  Y196  1  0.83081450  0.49496233  0.00346346  1.0
  Y  Y197  1  0.83081450  0.82829567  0.00346346  1.0
  Y  Y198  1  0.33081450  0.00503767  0.06625604  1.0
  Y  Y199  1  0.33081450  0.33837100  0.06625604  1.0
  Y  Y200  1  0.33081450  0.67170433  0.06625604  1.0
  Y  Y201  1  0.66414783  0.00503767  0.06625604  1.0
  Y  Y202  1  0.66414783  0.33837100  0.06625604  1.0
  Y  Y203  1  0.66414783  0.67170433  0.06625604  1.0
  Y  Y204  1  0.99748117  0.00503767  0.06625604  1.0
  Y  Y205  1  0.99748117  0.33837100  0.06625604  1.0
  Y  Y206  1  0.99748117  0.67170433  0.06625604  1.0
  Y  Y207  1  0.16414783  0.00503767  0.13768461  1.0
  Y  Y208  1  0.16414783  0.33837100  0.13768461  1.0
  Y  Y209  1  0.16414783  0.67170433  0.13768461  1.0
  Y  Y210  1  0.49748117  0.00503767  0.13768461  1.0
  Y  Y211  1  0.49748117  0.33837100  0.13768461  1.0
  Y  Y212  1  0.49748117  0.67170433  0.13768461  1.0
  Y  Y213  1  0.83081450  0.00503767  0.13768461  1.0
  Y  Y214  1  0.83081450  0.33837100  0.13768461  1.0
  Y  Y215  1  0.83081450  0.67170433  0.13768461  1.0
  Y  Y216  1  0.33081450  0.16162900  0.14200261  1.0
  Y  Y217  1  0.33081450  0.49496233  0.14200261  1.0
  Y  Y218  1  0.33081450  0.82829567  0.14200261  1.0
  Y  Y219  1  0.66414783  0.16162900  0.14200261  1.0
  Y  Y220  1  0.66414783  0.49496233  0.14200261  1.0
  Y  Y221  1  0.66414783  0.82829567  0.14200261  1.0
  Y  Y222  1  0.99748117  0.16162900  0.14200261  1.0
  Y  Y223  1  0.99748117  0.49496233  0.14200261  1.0
  Y  Y224  1  0.99748117  0.82829567  0.14200261  1.0
  Y  Y225  1  0.16414783  0.16162900  0.07057404  1.0
  Y  Y226  1  0.16414783  0.49496233  0.07057404  1.0
  Y  Y227  1  0.16414783  0.82829567  0.07057404  1.0
  Y  Y228  1  0.49748117  0.16162900  0.07057404  1.0
  Y  Y229  1  0.49748117  0.49496233  0.07057404  1.0
  Y  Y230  1  0.49748117  0.82829567  0.07057404  1.0
  Y  Y231  1  0.83081450  0.16162900  0.07057404  1.0
  Y  Y232  1  0.83081450  0.49496233  0.07057404  1.0
  Y  Y233  1  0.83081450  0.82829567  0.07057404  1.0
  Y  Y234  1  0.25251883  0.00503767  0.09981132  1.0
  Y  Y235  1  0.25251883  0.33837100  0.09981132  1.0
  Y  Y236  1  0.25251883  0.67170433  0.09981132  1.0
  Y  Y237  1  0.58585217  0.00503767  0.09981132  1.0
  Y  Y238  1  0.58585217  0.33837100  0.09981132  1.0
  Y  Y239  1  0.58585217  0.67170433  0.09981132  1.0
  Y  Y240  1  0.91918550  0.00503767  0.09981132  1.0
  Y  Y241  1  0.91918550  0.33837100  0.09981132  1.0
  Y  Y242  1  0.91918550  0.67170433  0.09981132  1.0
  Y  Y243  1  0.08585217  0.00503767  0.02838275  1.0
  Y  Y244  1  0.08585217  0.33837100  0.02838275  1.0
  Y  Y245  1  0.08585217  0.67170433  0.02838275  1.0
  Y  Y246  1  0.41918550  0.00503767  0.02838275  1.0
  Y  Y247  1  0.41918550  0.33837100  0.02838275  1.0
  Y  Y248  1  0.41918550  0.67170433  0.02838275  1.0
  Y  Y249  1  0.75251883  0.00503767  0.02838275  1.0
  Y  Y250  1  0.75251883  0.33837100  0.02838275  1.0
  Y  Y251  1  0.75251883  0.67170433  0.02838275  1.0
  Y  Y252  1  0.25251883  0.16162900  0.10844732  1.0
  Y  Y253  1  0.25251883  0.49496233  0.10844732  1.0
  Y  Y254  1  0.25251883  0.82829567  0.10844732  1.0
  Y  Y255  1  0.58585217  0.16162900  0.10844732  1.0
  Y  Y256  1  0.58585217  0.49496233  0.10844732  1.0
  Y  Y257  1  0.58585217  0.82829567  0.10844732  1.0
  Y  Y258  1  0.91918550  0.16162900  0.10844732  1.0
  Y  Y259  1  0.91918550  0.49496233  0.10844732  1.0
  Y  Y260  1  0.91918550  0.82829567  0.10844732  1.0
  Y  Y261  1  0.08585217  0.16162900  0.03701875  1.0
  Y  Y262  1  0.08585217  0.49496233  0.03701875  1.0
  Y  Y263  1  0.08585217  0.82829567  0.03701875  1.0
  Y  Y264  1  0.41918550  0.16162900  0.03701875  1.0
  Y  Y265  1  0.41918550  0.49496233  0.03701875  1.0
  Y  Y266  1  0.41918550  0.82829567  0.03701875  1.0
  Y  Y267  1  0.75251883  0.16162900  0.03701875  1.0
  Y  Y268  1  0.75251883  0.49496233  0.03701875  1.0
  Y  Y269  1  0.75251883  0.82829567  0.03701875  1.0
  Ni  Ni270  1  0.28142950  0.10380767  0.02031046  1.0
  Ni  Ni271  1  0.28142950  0.43714100  0.02031046  1.0
  Ni  Ni272  1  0.28142950  0.77047433  0.02031046  1.0
  Ni  Ni273  1  0.61476283  0.10380767  0.02031046  1.0
  Ni  Ni274  1  0.61476283  0.43714100  0.02031046  1.0
  Ni  Ni275  1  0.61476283  0.77047433  0.02031046  1.0
  Ni  Ni276  1  0.94809617  0.10380767  0.02031046  1.0
  Ni  Ni277  1  0.94809617  0.43714100  0.02031046  1.0
  Ni  Ni278  1  0.94809617  0.77047433  0.02031046  1.0
  Ni  Ni279  1  0.11476283  0.10380767  0.09173904  1.0
  Ni  Ni280  1  0.11476283  0.43714100  0.09173904  1.0
  Ni  Ni281  1  0.11476283  0.77047433  0.09173904  1.0
  Ni  Ni282  1  0.44809617  0.10380767  0.09173904  1.0
  Ni  Ni283  1  0.44809617  0.43714100  0.09173904  1.0
  Ni  Ni284  1  0.44809617  0.77047433  0.09173904  1.0
  Ni  Ni285  1  0.78142950  0.10380767  0.09173904  1.0
  Ni  Ni286  1  0.78142950  0.43714100  0.09173904  1.0
  Ni  Ni287  1  0.78142950  0.77047433  0.09173904  1.0
  Ni  Ni288  1  0.28142950  0.10380767  0.12806875  1.0
  Ni  Ni289  1  0.28142950  0.43714100  0.12806875  1.0
  Ni  Ni290  1  0.28142950  0.77047433  0.12806875  1.0
  Ni  Ni291  1  0.61476283  0.10380767  0.12806875  1.0
  Ni  Ni292  1  0.61476283  0.43714100  0.12806875  1.0
  Ni  Ni293  1  0.61476283  0.77047433  0.12806875  1.0
  Ni  Ni294  1  0.94809617  0.10380767  0.12806875  1.0
  Ni  Ni295  1  0.94809617  0.43714100  0.12806875  1.0
  Ni  Ni296  1  0.94809617  0.77047433  0.12806875  1.0
  Ni  Ni297  1  0.11476283  0.10380767  0.05664018  1.0
  Ni  Ni298  1  0.11476283  0.43714100  0.05664018  1.0
  Ni  Ni299  1  0.11476283  0.77047433  0.05664018  1.0
  Ni  Ni300  1  0.44809617  0.10380767  0.05664018  1.0
  Ni  Ni301  1  0.44809617  0.43714100  0.05664018  1.0
  Ni  Ni302  1  0.44809617  0.77047433  0.05664018  1.0
  Ni  Ni303  1  0.78142950  0.10380767  0.05664018  1.0
  Ni  Ni304  1  0.78142950  0.43714100  0.05664018  1.0
  Ni  Ni305  1  0.78142950  0.77047433  0.05664018  1.0
  Ni  Ni306  1  0.28142950  0.02191033  0.05540932  1.0
  Ni  Ni307  1  0.28142950  0.35524367  0.05540932  1.0
  Ni  Ni308  1  0.28142950  0.68857700  0.05540932  1.0
  Ni  Ni309  1  0.61476283  0.02191033  0.05540932  1.0
  Ni  Ni310  1  0.61476283  0.35524367  0.05540932  1.0
  Ni  Ni311  1  0.61476283  0.68857700  0.05540932  1.0
  Ni  Ni312  1  0.94809617  0.02191033  0.05540932  1.0
  Ni  Ni313  1  0.94809617  0.35524367  0.05540932  1.0
  Ni  Ni314  1  0.94809617  0.68857700  0.05540932  1.0
  Ni  Ni315  1  0.11476283  0.02191033  0.12683789  1.0
  Ni  Ni316  1  0.11476283  0.35524367  0.12683789  1.0
  Ni  Ni317  1  0.11476283  0.68857700  0.12683789  1.0
  Ni  Ni318  1  0.44809617  0.02191033  0.12683789  1.0
  Ni  Ni319  1  0.44809617  0.35524367  0.12683789  1.0
  Ni  Ni320  1  0.44809617  0.68857700  0.12683789  1.0
  Ni  Ni321  1  0.78142950  0.02191033  0.12683789  1.0
  Ni  Ni322  1  0.78142950  0.35524367  0.12683789  1.0
  Ni  Ni323  1  0.78142950  0.68857700  0.12683789  1.0
  Ni  Ni324  1  0.32237817  0.10380767  0.00276104  1.0
  Ni  Ni325  1  0.32237817  0.43714100  0.00276104  1.0
  Ni  Ni326  1  0.32237817  0.77047433  0.00276104  1.0
  Ni  Ni327  1  0.65571150  0.10380767  0.00276104  1.0
  Ni  Ni328  1  0.65571150  0.43714100  0.00276104  1.0
  Ni  Ni329  1  0.65571150  0.77047433  0.00276104  1.0
  Ni  Ni330  1  0.98904483  0.10380767  0.00276104  1.0
  Ni  Ni331  1  0.98904483  0.43714100  0.00276104  1.0
  Ni  Ni332  1  0.98904483  0.77047433  0.00276104  1.0
  Ni  Ni333  1  0.15571150  0.10380767  0.07418961  1.0
  Ni  Ni334  1  0.15571150  0.43714100  0.07418961  1.0
  Ni  Ni335  1  0.15571150  0.77047433  0.07418961  1.0
  Ni  Ni336  1  0.48904483  0.10380767  0.07418961  1.0
  Ni  Ni337  1  0.48904483  0.43714100  0.07418961  1.0
  Ni  Ni338  1  0.48904483  0.77047433  0.07418961  1.0
  Ni  Ni339  1  0.82237817  0.10380767  0.07418961  1.0
  Ni  Ni340  1  0.82237817  0.43714100  0.07418961  1.0
  Ni  Ni341  1  0.82237817  0.77047433  0.07418961  1.0
  Ni  Ni342  1  0.19809900  0.27046867  0.05602354  1.0
  Ni  Ni343  1  0.19809900  0.60380200  0.05602354  1.0
  Ni  Ni344  1  0.19809900  0.93713533  0.05602354  1.0
  Ni  Ni345  1  0.53143233  0.27046867  0.05602354  1.0
  Ni  Ni346  1  0.53143233  0.60380200  0.05602354  1.0
  Ni  Ni347  1  0.53143233  0.93713533  0.05602354  1.0
  Ni  Ni348  1  0.86476567  0.27046867  0.05602354  1.0
  Ni  Ni349  1  0.86476567  0.60380200  0.05602354  1.0
  Ni  Ni350  1  0.86476567  0.93713533  0.05602354  1.0
  Ni  Ni351  1  0.03143233  0.27046867  0.12745211  1.0
  Ni  Ni352  1  0.03143233  0.60380200  0.12745211  1.0
  Ni  Ni353  1  0.03143233  0.93713533  0.12745211  1.0
  Ni  Ni354  1  0.36476567  0.27046867  0.12745211  1.0
  Ni  Ni355  1  0.36476567  0.60380200  0.12745211  1.0
  Ni  Ni356  1  0.36476567  0.93713533  0.12745211  1.0
  Ni  Ni357  1  0.69809900  0.27046867  0.12745211  1.0
  Ni  Ni358  1  0.69809900  0.60380200  0.12745211  1.0
  Ni  Ni359  1  0.69809900  0.93713533  0.12745211  1.0
  Ni  Ni360  1  0.19809900  0.27046867  0.02093439  1.0
  Ni  Ni361  1  0.19809900  0.60380200  0.02093439  1.0
  Ni  Ni362  1  0.19809900  0.93713533  0.02093439  1.0
  Ni  Ni363  1  0.53143233  0.27046867  0.02093439  1.0
  Ni  Ni364  1  0.53143233  0.60380200  0.02093439  1.0
  Ni  Ni365  1  0.53143233  0.93713533  0.02093439  1.0
  Ni  Ni366  1  0.86476567  0.27046867  0.02093439  1.0
  Ni  Ni367  1  0.86476567  0.60380200  0.02093439  1.0
  Ni  Ni368  1  0.86476567  0.93713533  0.02093439  1.0
  Ni  Ni369  1  0.03143233  0.27046867  0.09236296  1.0
  Ni  Ni370  1  0.03143233  0.60380200  0.09236296  1.0
  Ni  Ni371  1  0.03143233  0.93713533  0.09236296  1.0
  Ni  Ni372  1  0.36476567  0.27046867  0.09236296  1.0
  Ni  Ni373  1  0.36476567  0.60380200  0.09236296  1.0
  Ni  Ni374  1  0.36476567  0.93713533  0.09236296  1.0
  Ni  Ni375  1  0.69809900  0.27046867  0.09236296  1.0
  Ni  Ni376  1  0.69809900  0.60380200  0.09236296  1.0
  Ni  Ni377  1  0.69809900  0.93713533  0.09236296  1.0
  Ni  Ni378  1  0.19809900  0.18859400  0.09111268  1.0
  Ni  Ni379  1  0.19809900  0.52192733  0.09111268  1.0
  Ni  Ni380  1  0.19809900  0.85526067  0.09111268  1.0
  Ni  Ni381  1  0.53143233  0.18859400  0.09111268  1.0
  Ni  Ni382  1  0.53143233  0.52192733  0.09111268  1.0
  Ni  Ni383  1  0.53143233  0.85526067  0.09111268  1.0
  Ni  Ni384  1  0.86476567  0.18859400  0.09111268  1.0
  Ni  Ni385  1  0.86476567  0.52192733  0.09111268  1.0
  Ni  Ni386  1  0.86476567  0.85526067  0.09111268  1.0
  Ni  Ni387  1  0.03143233  0.18859400  0.01968411  1.0
  Ni  Ni388  1  0.03143233  0.52192733  0.01968411  1.0
  Ni  Ni389  1  0.03143233  0.85526067  0.01968411  1.0
  Ni  Ni390  1  0.36476567  0.18859400  0.01968411  1.0
  Ni  Ni391  1  0.36476567  0.52192733  0.01968411  1.0
  Ni  Ni392  1  0.36476567  0.85526067  0.01968411  1.0
  Ni  Ni393  1  0.69809900  0.18859400  0.01968411  1.0
  Ni  Ni394  1  0.69809900  0.52192733  0.01968411  1.0
  Ni  Ni395  1  0.69809900  0.85526067  0.01968411  1.0
  Ni  Ni396  1  0.23903633  0.27046867  0.03847896  1.0
  Ni  Ni397  1  0.23903633  0.60380200  0.03847896  1.0
  Ni  Ni398  1  0.23903633  0.93713533  0.03847896  1.0
  Ni  Ni399  1  0.57236967  0.27046867  0.03847896  1.0
  Ni  Ni400  1  0.57236967  0.60380200  0.03847896  1.0
  Ni  Ni401  1  0.57236967  0.93713533  0.03847896  1.0
  Ni  Ni402  1  0.90570300  0.27046867  0.03847896  1.0
  Ni  Ni403  1  0.90570300  0.60380200  0.03847896  1.0
  Ni  Ni404  1  0.90570300  0.93713533  0.03847896  1.0
  Ni  Ni405  1  0.07236967  0.27046867  0.10990754  1.0
  Ni  Ni406  1  0.07236967  0.60380200  0.10990754  1.0
  Ni  Ni407  1  0.07236967  0.93713533  0.10990754  1.0
  Ni  Ni408  1  0.40570300  0.27046867  0.10990754  1.0
  Ni  Ni409  1  0.40570300  0.60380200  0.10990754  1.0
  Ni  Ni410  1  0.40570300  0.93713533  0.10990754  1.0
  Ni  Ni411  1  0.73903633  0.27046867  0.10990754  1.0
  Ni  Ni412  1  0.73903633  0.60380200  0.10990754  1.0
  Ni  Ni413  1  0.73903633  0.93713533  0.10990754  1.0
  Ni  Ni414  1  0.19883992  0.26898683  0.13004507  1.0
  Ni  Ni415  1  0.19883992  0.60232017  0.13004507  1.0
  Ni  Ni416  1  0.19883992  0.93565350  0.13004507  1.0
  Ni  Ni417  1  0.53217325  0.26898683  0.13004507  1.0
  Ni  Ni418  1  0.53217325  0.60232017  0.13004507  1.0
  Ni  Ni419  1  0.53217325  0.93565350  0.13004507  1.0
  Ni  Ni420  1  0.86550658  0.26898683  0.13004507  1.0
  Ni  Ni421  1  0.86550658  0.60232017  0.13004507  1.0
  Ni  Ni422  1  0.86550658  0.93565350  0.13004507  1.0
  Ni  Ni423  1  0.03217325  0.26898683  0.05861650  1.0
  Ni  Ni424  1  0.03217325  0.60232017  0.05861650  1.0
  Ni  Ni425  1  0.03217325  0.93565350  0.05861650  1.0
  Ni  Ni426  1  0.36550658  0.26898683  0.05861650  1.0
  Ni  Ni427  1  0.36550658  0.60232017  0.05861650  1.0
  Ni  Ni428  1  0.36550658  0.93565350  0.05861650  1.0
  Ni  Ni429  1  0.69883992  0.26898683  0.05861650  1.0
  Ni  Ni430  1  0.69883992  0.60232017  0.05861650  1.0
  Ni  Ni431  1  0.69883992  0.93565350  0.05861650  1.0
  Ni  Ni432  1  0.27877767  0.26898683  0.02144696  1.0
  Ni  Ni433  1  0.27877767  0.60232017  0.02144696  1.0
  Ni  Ni434  1  0.27877767  0.93565350  0.02144696  1.0
  Ni  Ni435  1  0.61211100  0.26898683  0.02144696  1.0
  Ni  Ni436  1  0.61211100  0.60232017  0.02144696  1.0
  Ni  Ni437  1  0.61211100  0.93565350  0.02144696  1.0
  Ni  Ni438  1  0.94544433  0.26898683  0.02144696  1.0
  Ni  Ni439  1  0.94544433  0.60232017  0.02144696  1.0
  Ni  Ni440  1  0.94544433  0.93565350  0.02144696  1.0
  Ni  Ni441  1  0.11211100  0.26898683  0.09287554  1.0
  Ni  Ni442  1  0.11211100  0.60232017  0.09287554  1.0
  Ni  Ni443  1  0.11211100  0.93565350  0.09287554  1.0
  Ni  Ni444  1  0.44544433  0.26898683  0.09287554  1.0
  Ni  Ni445  1  0.44544433  0.60232017  0.09287554  1.0
  Ni  Ni446  1  0.44544433  0.93565350  0.09287554  1.0
  Ni  Ni447  1  0.77877767  0.26898683  0.09287554  1.0
  Ni  Ni448  1  0.77877767  0.60232017  0.09287554  1.0
  Ni  Ni449  1  0.77877767  0.93565350  0.09287554  1.0
  Ni  Ni450  1  0.19883992  0.10911133  0.12422407  1.0
  Ni  Ni451  1  0.19883992  0.44244467  0.12422407  1.0
  Ni  Ni452  1  0.19883992  0.77577800  0.12422407  1.0
  Ni  Ni453  1  0.53217325  0.10911133  0.12422407  1.0
  Ni  Ni454  1  0.53217325  0.44244467  0.12422407  1.0
  Ni  Ni455  1  0.53217325  0.77577800  0.12422407  1.0
  Ni  Ni456  1  0.86550658  0.10911133  0.12422407  1.0
  Ni  Ni457  1  0.86550658  0.44244467  0.12422407  1.0
  Ni  Ni458  1  0.86550658  0.77577800  0.12422407  1.0
  Ni  Ni459  1  0.03217325  0.10911133  0.05279550  1.0
  Ni  Ni460  1  0.03217325  0.44244467  0.05279550  1.0
  Ni  Ni461  1  0.03217325  0.77577800  0.05279550  1.0
  Ni  Ni462  1  0.36550658  0.10911133  0.05279550  1.0
  Ni  Ni463  1  0.36550658  0.44244467  0.05279550  1.0
  Ni  Ni464  1  0.36550658  0.77577800  0.05279550  1.0
  Ni  Ni465  1  0.69883992  0.10911133  0.05279550  1.0
  Ni  Ni466  1  0.69883992  0.44244467  0.05279550  1.0
  Ni  Ni467  1  0.69883992  0.77577800  0.05279550  1.0
  Ni  Ni468  1  0.19883992  0.26898683  0.09167521  1.0
  Ni  Ni469  1  0.19883992  0.60232017  0.09167521  1.0
  Ni  Ni470  1  0.19883992  0.93565350  0.09167521  1.0
  Ni  Ni471  1  0.53217325  0.26898683  0.09167521  1.0
  Ni  Ni472  1  0.53217325  0.60232017  0.09167521  1.0
  Ni  Ni473  1  0.53217325  0.93565350  0.09167521  1.0
  Ni  Ni474  1  0.86550658  0.26898683  0.09167521  1.0
  Ni  Ni475  1  0.86550658  0.60232017  0.09167521  1.0
  Ni  Ni476  1  0.86550658  0.93565350  0.09167521  1.0
  Ni  Ni477  1  0.03217325  0.26898683  0.02024664  1.0
  Ni  Ni478  1  0.03217325  0.60232017  0.02024664  1.0
  Ni  Ni479  1  0.03217325  0.93565350  0.02024664  1.0
  Ni  Ni480  1  0.36550658  0.26898683  0.02024664  1.0
  Ni  Ni481  1  0.36550658  0.60232017  0.02024664  1.0
  Ni  Ni482  1  0.36550658  0.93565350  0.02024664  1.0
  Ni  Ni483  1  0.69883992  0.26898683  0.02024664  1.0
  Ni  Ni484  1  0.69883992  0.60232017  0.02024664  1.0
  Ni  Ni485  1  0.69883992  0.93565350  0.02024664  1.0
  Ni  Ni486  1  0.19883992  0.10911133  0.01733614  1.0
  Ni  Ni487  1  0.19883992  0.44244467  0.01733614  1.0
  Ni  Ni488  1  0.19883992  0.77577800  0.01733614  1.0
  Ni  Ni489  1  0.53217325  0.10911133  0.01733614  1.0
  Ni  Ni490  1  0.53217325  0.44244467  0.01733614  1.0
  Ni  Ni491  1  0.53217325  0.77577800  0.01733614  1.0
  Ni  Ni492  1  0.86550658  0.10911133  0.01733614  1.0
  Ni  Ni493  1  0.86550658  0.44244467  0.01733614  1.0
  Ni  Ni494  1  0.86550658  0.77577800  0.01733614  1.0
  Ni  Ni495  1  0.03217325  0.10911133  0.08876471  1.0
  Ni  Ni496  1  0.03217325  0.44244467  0.08876471  1.0
  Ni  Ni497  1  0.03217325  0.77577800  0.08876471  1.0
  Ni  Ni498  1  0.36550658  0.10911133  0.08876471  1.0
  Ni  Ni499  1  0.36550658  0.44244467  0.08876471  1.0
  Ni  Ni500  1  0.36550658  0.77577800  0.08876471  1.0
  Ni  Ni501  1  0.69883992  0.10911133  0.08876471  1.0
  Ni  Ni502  1  0.69883992  0.44244467  0.08876471  1.0
  Ni  Ni503  1  0.69883992  0.77577800  0.08876471  1.0
  Ni  Ni504  1  0.27877767  0.26898683  0.05741618  1.0
  Ni  Ni505  1  0.27877767  0.60232017  0.05741618  1.0
  Ni  Ni506  1  0.27877767  0.93565350  0.05741618  1.0
  Ni  Ni507  1  0.61211100  0.26898683  0.05741618  1.0
  Ni  Ni508  1  0.61211100  0.60232017  0.05741618  1.0
  Ni  Ni509  1  0.61211100  0.93565350  0.05741618  1.0
  Ni  Ni510  1  0.94544433  0.26898683  0.05741618  1.0
  Ni  Ni511  1  0.94544433  0.60232017  0.05741618  1.0
  Ni  Ni512  1  0.94544433  0.93565350  0.05741618  1.0
  Ni  Ni513  1  0.11211100  0.26898683  0.12884475  1.0
  Ni  Ni514  1  0.11211100  0.60232017  0.12884475  1.0
  Ni  Ni515  1  0.11211100  0.93565350  0.12884475  1.0
  Ni  Ni516  1  0.44544433  0.26898683  0.12884475  1.0
  Ni  Ni517  1  0.44544433  0.60232017  0.12884475  1.0
  Ni  Ni518  1  0.44544433  0.93565350  0.12884475  1.0
  Ni  Ni519  1  0.77877767  0.26898683  0.12884475  1.0
  Ni  Ni520  1  0.77877767  0.60232017  0.12884475  1.0
  Ni  Ni521  1  0.77877767  0.93565350  0.12884475  1.0
  Ni  Ni522  1  0.27877767  0.01958167  0.12833489  1.0
  Ni  Ni523  1  0.27877767  0.35291500  0.12833489  1.0
  Ni  Ni524  1  0.27877767  0.68624833  0.12833489  1.0
  Ni  Ni525  1  0.61211100  0.01958167  0.12833489  1.0
  Ni  Ni526  1  0.61211100  0.35291500  0.12833489  1.0
  Ni  Ni527  1  0.61211100  0.68624833  0.12833489  1.0
  Ni  Ni528  1  0.94544433  0.01958167  0.12833489  1.0
  Ni  Ni529  1  0.94544433  0.35291500  0.12833489  1.0
  Ni  Ni530  1  0.94544433  0.68624833  0.12833489  1.0
  Ni  Ni531  1  0.11211100  0.01958167  0.05690632  1.0
  Ni  Ni532  1  0.11211100  0.35291500  0.05690632  1.0
  Ni  Ni533  1  0.11211100  0.68624833  0.05690632  1.0
  Ni  Ni534  1  0.44544433  0.01958167  0.05690632  1.0
  Ni  Ni535  1  0.44544433  0.35291500  0.05690632  1.0
  Ni  Ni536  1  0.44544433  0.68624833  0.05690632  1.0
  Ni  Ni537  1  0.77877767  0.01958167  0.05690632  1.0
  Ni  Ni538  1  0.77877767  0.35291500  0.05690632  1.0
  Ni  Ni539  1  0.77877767  0.68624833  0.05690632  1.0
  Ni  Ni540  1  0.19883992  0.01958167  0.09407586  1.0
  Ni  Ni541  1  0.19883992  0.35291500  0.09407586  1.0
  Ni  Ni542  1  0.19883992  0.68624833  0.09407586  1.0
  Ni  Ni543  1  0.53217325  0.01958167  0.09407586  1.0
  Ni  Ni544  1  0.53217325  0.35291500  0.09407586  1.0
  Ni  Ni545  1  0.53217325  0.68624833  0.09407586  1.0
  Ni  Ni546  1  0.86550658  0.01958167  0.09407586  1.0
  Ni  Ni547  1  0.86550658  0.35291500  0.09407586  1.0
  Ni  Ni548  1  0.86550658  0.68624833  0.09407586  1.0
  Ni  Ni549  1  0.03217325  0.01958167  0.02264729  1.0
  Ni  Ni550  1  0.03217325  0.35291500  0.02264729  1.0
  Ni  Ni551  1  0.03217325  0.68624833  0.02264729  1.0
  Ni  Ni552  1  0.36550658  0.01958167  0.02264729  1.0
  Ni  Ni553  1  0.36550658  0.35291500  0.02264729  1.0
  Ni  Ni554  1  0.36550658  0.68624833  0.02264729  1.0
  Ni  Ni555  1  0.69883992  0.01958167  0.02264729  1.0
  Ni  Ni556  1  0.69883992  0.35291500  0.02264729  1.0
  Ni  Ni557  1  0.69883992  0.68624833  0.02264729  1.0
  Ni  Ni558  1  0.19883992  0.01958167  0.01973679  1.0
  Ni  Ni559  1  0.19883992  0.35291500  0.01973679  1.0
  Ni  Ni560  1  0.19883992  0.68624833  0.01973679  1.0
  Ni  Ni561  1  0.53217325  0.01958167  0.01973679  1.0
  Ni  Ni562  1  0.53217325  0.35291500  0.01973679  1.0
  Ni  Ni563  1  0.53217325  0.68624833  0.01973679  1.0
  Ni  Ni564  1  0.86550658  0.01958167  0.01973679  1.0
  Ni  Ni565  1  0.86550658  0.35291500  0.01973679  1.0
  Ni  Ni566  1  0.86550658  0.68624833  0.01973679  1.0
  Ni  Ni567  1  0.03217325  0.01958167  0.09116536  1.0
  Ni  Ni568  1  0.03217325  0.35291500  0.09116536  1.0
  Ni  Ni569  1  0.03217325  0.68624833  0.09116536  1.0
  Ni  Ni570  1  0.36550658  0.01958167  0.09116536  1.0
  Ni  Ni571  1  0.36550658  0.35291500  0.09116536  1.0
  Ni  Ni572  1  0.36550658  0.68624833  0.09116536  1.0
  Ni  Ni573  1  0.69883992  0.01958167  0.09116536  1.0
  Ni  Ni574  1  0.69883992  0.35291500  0.09116536  1.0
  Ni  Ni575  1  0.69883992  0.68624833  0.09116536  1.0
  Ni  Ni576  1  0.32354250  0.10911133  0.07078011  1.0
  Ni  Ni577  1  0.32354250  0.44244467  0.07078011  1.0
  Ni  Ni578  1  0.32354250  0.77577800  0.07078011  1.0
  Ni  Ni579  1  0.65687583  0.10911133  0.07078011  1.0
  Ni  Ni580  1  0.65687583  0.44244467  0.07078011  1.0
  Ni  Ni581  1  0.65687583  0.77577800  0.07078011  1.0
  Ni  Ni582  1  0.99020917  0.10911133  0.07078011  1.0
  Ni  Ni583  1  0.99020917  0.44244467  0.07078011  1.0
  Ni  Ni584  1  0.99020917  0.77577800  0.07078011  1.0
  Ni  Ni585  1  0.15687583  0.10911133  0.14220868  1.0
  Ni  Ni586  1  0.15687583  0.44244467  0.14220868  1.0
  Ni  Ni587  1  0.15687583  0.77577800  0.14220868  1.0
  Ni  Ni588  1  0.49020917  0.10911133  0.14220868  1.0
  Ni  Ni589  1  0.49020917  0.44244467  0.14220868  1.0
  Ni  Ni590  1  0.49020917  0.77577800  0.14220868  1.0
  Ni  Ni591  1  0.82354250  0.10911133  0.14220868  1.0
  Ni  Ni592  1  0.82354250  0.44244467  0.14220868  1.0
  Ni  Ni593  1  0.82354250  0.77577800  0.14220868  1.0
  Ni  Ni594  1  0.32354250  0.26898683  0.00226204  1.0
  Ni  Ni595  1  0.32354250  0.60232017  0.00226204  1.0
  Ni  Ni596  1  0.32354250  0.93565350  0.00226204  1.0
  Ni  Ni597  1  0.65687583  0.26898683  0.00226204  1.0
  Ni  Ni598  1  0.65687583  0.60232017  0.00226204  1.0
  Ni  Ni599  1  0.65687583  0.93565350  0.00226204  1.0
  Ni  Ni600  1  0.99020917  0.26898683  0.00226204  1.0
  Ni  Ni601  1  0.99020917  0.60232017  0.00226204  1.0
  Ni  Ni602  1  0.99020917  0.93565350  0.00226204  1.0
  Ni  Ni603  1  0.15687583  0.26898683  0.07369061  1.0
  Ni  Ni604  1  0.15687583  0.60232017  0.07369061  1.0
  Ni  Ni605  1  0.15687583  0.93565350  0.07369061  1.0
  Ni  Ni606  1  0.49020917  0.26898683  0.07369061  1.0
  Ni  Ni607  1  0.49020917  0.60232017  0.07369061  1.0
  Ni  Ni608  1  0.49020917  0.93565350  0.07369061  1.0
  Ni  Ni609  1  0.82354250  0.26898683  0.07369061  1.0
  Ni  Ni610  1  0.82354250  0.60232017  0.07369061  1.0
  Ni  Ni611  1  0.82354250  0.93565350  0.07369061  1.0
  Ni  Ni612  1  0.32354250  0.26898683  0.07660111  1.0
  Ni  Ni613  1  0.32354250  0.60232017  0.07660111  1.0
  Ni  Ni614  1  0.32354250  0.93565350  0.07660111  1.0
  Ni  Ni615  1  0.65687583  0.26898683  0.07660111  1.0
  Ni  Ni616  1  0.65687583  0.60232017  0.07660111  1.0
  Ni  Ni617  1  0.65687583  0.93565350  0.07660111  1.0
  Ni  Ni618  1  0.99020917  0.26898683  0.07660111  1.0
  Ni  Ni619  1  0.99020917  0.60232017  0.07660111  1.0
  Ni  Ni620  1  0.99020917  0.93565350  0.07660111  1.0
  Ni  Ni621  1  0.15687583  0.26898683  0.00517254  1.0
  Ni  Ni622  1  0.15687583  0.60232017  0.00517254  1.0
  Ni  Ni623  1  0.15687583  0.93565350  0.00517254  1.0
  Ni  Ni624  1  0.49020917  0.26898683  0.00517254  1.0
  Ni  Ni625  1  0.49020917  0.60232017  0.00517254  1.0
  Ni  Ni626  1  0.49020917  0.93565350  0.00517254  1.0
  Ni  Ni627  1  0.82354250  0.26898683  0.00517254  1.0
  Ni  Ni628  1  0.82354250  0.60232017  0.00517254  1.0
  Ni  Ni629  1  0.82354250  0.93565350  0.00517254  1.0
  Ni  Ni630  1  0.28130667  0.10405333  0.09185596  1.0
  Ni  Ni631  1  0.28130667  0.43738667  0.09185596  1.0
  Ni  Ni632  1  0.28130667  0.77072000  0.09185596  1.0
  Ni  Ni633  1  0.61464000  0.10405333  0.09185596  1.0
  Ni  Ni634  1  0.61464000  0.43738667  0.09185596  1.0
  Ni  Ni635  1  0.61464000  0.77072000  0.09185596  1.0
  Ni  Ni636  1  0.94797333  0.10405333  0.09185596  1.0
  Ni  Ni637  1  0.94797333  0.43738667  0.09185596  1.0
  Ni  Ni638  1  0.94797333  0.77072000  0.09185596  1.0
  Ni  Ni639  1  0.11464000  0.10405333  0.02042739  1.0
  Ni  Ni640  1  0.11464000  0.43738667  0.02042739  1.0
  Ni  Ni641  1  0.11464000  0.77072000  0.02042739  1.0
  Ni  Ni642  1  0.44797333  0.10405333  0.02042739  1.0
  Ni  Ni643  1  0.44797333  0.43738667  0.02042739  1.0
  Ni  Ni644  1  0.44797333  0.77072000  0.02042739  1.0
  Ni  Ni645  1  0.78130667  0.10405333  0.02042739  1.0
  Ni  Ni646  1  0.78130667  0.43738667  0.02042739  1.0
  Ni  Ni647  1  0.78130667  0.77072000  0.02042739  1.0
  Ni  Ni648  1  0.19789833  0.10405333  0.05610954  1.0
  Ni  Ni649  1  0.19789833  0.43738667  0.05610954  1.0
  Ni  Ni650  1  0.19789833  0.77072000  0.05610954  1.0
  Ni  Ni651  1  0.53123167  0.10405333  0.05610954  1.0
  Ni  Ni652  1  0.53123167  0.43738667  0.05610954  1.0
  Ni  Ni653  1  0.53123167  0.77072000  0.05610954  1.0
  Ni  Ni654  1  0.86456500  0.10405333  0.05610954  1.0
  Ni  Ni655  1  0.86456500  0.43738667  0.05610954  1.0
  Ni  Ni656  1  0.86456500  0.77072000  0.05610954  1.0
  Ni  Ni657  1  0.03123167  0.10405333  0.12753811  1.0
  Ni  Ni658  1  0.03123167  0.43738667  0.12753811  1.0
  Ni  Ni659  1  0.03123167  0.77072000  0.12753811  1.0
  Ni  Ni660  1  0.36456500  0.10405333  0.12753811  1.0
  Ni  Ni661  1  0.36456500  0.43738667  0.12753811  1.0
  Ni  Ni662  1  0.36456500  0.77072000  0.12753811  1.0
  Ni  Ni663  1  0.69789833  0.10405333  0.12753811  1.0
  Ni  Ni664  1  0.69789833  0.43738667  0.12753811  1.0
  Ni  Ni665  1  0.69789833  0.77072000  0.12753811  1.0
  Ni  Ni666  1  0.28130667  0.27087000  0.09172739  1.0
  Ni  Ni667  1  0.28130667  0.60420333  0.09172739  1.0
  Ni  Ni668  1  0.28130667  0.93753667  0.09172739  1.0
  Ni  Ni669  1  0.61464000  0.27087000  0.09172739  1.0
  Ni  Ni670  1  0.61464000  0.60420333  0.09172739  1.0
  Ni  Ni671  1  0.61464000  0.93753667  0.09172739  1.0
  Ni  Ni672  1  0.94797333  0.27087000  0.09172739  1.0
  Ni  Ni673  1  0.94797333  0.60420333  0.09172739  1.0
  Ni  Ni674  1  0.94797333  0.93753667  0.09172739  1.0
  Ni  Ni675  1  0.11464000  0.27087000  0.02029882  1.0
  Ni  Ni676  1  0.11464000  0.60420333  0.02029882  1.0
  Ni  Ni677  1  0.11464000  0.93753667  0.02029882  1.0
  Ni  Ni678  1  0.44797333  0.27087000  0.02029882  1.0
  Ni  Ni679  1  0.44797333  0.60420333  0.02029882  1.0
  Ni  Ni680  1  0.44797333  0.93753667  0.02029882  1.0
  Ni  Ni681  1  0.78130667  0.27087000  0.02029882  1.0
  Ni  Ni682  1  0.78130667  0.60420333  0.02029882  1.0
  Ni  Ni683  1  0.78130667  0.93753667  0.02029882  1.0
  Ni  Ni684  1  0.28130667  0.10405333  0.05620739  1.0
  Ni  Ni685  1  0.28130667  0.43738667  0.05620739  1.0
  Ni  Ni686  1  0.28130667  0.77072000  0.05620739  1.0
  Ni  Ni687  1  0.61464000  0.10405333  0.05620739  1.0
  Ni  Ni688  1  0.61464000  0.43738667  0.05620739  1.0
  Ni  Ni689  1  0.61464000  0.77072000  0.05620739  1.0
  Ni  Ni690  1  0.94797333  0.10405333  0.05620739  1.0
  Ni  Ni691  1  0.94797333  0.43738667  0.05620739  1.0
  Ni  Ni692  1  0.94797333  0.77072000  0.05620739  1.0
  Ni  Ni693  1  0.11464000  0.10405333  0.12763596  1.0
  Ni  Ni694  1  0.11464000  0.43738667  0.12763596  1.0
  Ni  Ni695  1  0.11464000  0.77072000  0.12763596  1.0
  Ni  Ni696  1  0.44797333  0.10405333  0.12763596  1.0
  Ni  Ni697  1  0.44797333  0.43738667  0.12763596  1.0
  Ni  Ni698  1  0.44797333  0.77072000  0.12763596  1.0
  Ni  Ni699  1  0.78130667  0.10405333  0.12763596  1.0
  Ni  Ni700  1  0.78130667  0.43738667  0.12763596  1.0
  Ni  Ni701  1  0.78130667  0.77072000  0.12763596  1.0
  Ni  Ni702  1  0.28130667  0.27087000  0.12757168  1.0
  Ni  Ni703  1  0.28130667  0.60420333  0.12757168  1.0
  Ni  Ni704  1  0.28130667  0.93753667  0.12757168  1.0
  Ni  Ni705  1  0.61464000  0.27087000  0.12757168  1.0
  Ni  Ni706  1  0.61464000  0.60420333  0.12757168  1.0
  Ni  Ni707  1  0.61464000  0.93753667  0.12757168  1.0
  Ni  Ni708  1  0.94797333  0.27087000  0.12757168  1.0
  Ni  Ni709  1  0.94797333  0.60420333  0.12757168  1.0
  Ni  Ni710  1  0.94797333  0.93753667  0.12757168  1.0
  Ni  Ni711  1  0.11464000  0.27087000  0.05614311  1.0
  Ni  Ni712  1  0.11464000  0.60420333  0.05614311  1.0
  Ni  Ni713  1  0.11464000  0.93753667  0.05614311  1.0
  Ni  Ni714  1  0.44797333  0.27087000  0.05614311  1.0
  Ni  Ni715  1  0.44797333  0.60420333  0.05614311  1.0
  Ni  Ni716  1  0.44797333  0.93753667  0.05614311  1.0
  Ni  Ni717  1  0.78130667  0.27087000  0.05614311  1.0
  Ni  Ni718  1  0.78130667  0.60420333  0.05614311  1.0
  Ni  Ni719  1  0.78130667  0.93753667  0.05614311  1.0
  Ni  Ni720  1  0.19789833  0.10405333  0.09195382  1.0
  Ni  Ni721  1  0.19789833  0.43738667  0.09195382  1.0
  Ni  Ni722  1  0.19789833  0.77072000  0.09195382  1.0
  Ni  Ni723  1  0.53123167  0.10405333  0.09195382  1.0
  Ni  Ni724  1  0.53123167  0.43738667  0.09195382  1.0
  Ni  Ni725  1  0.53123167  0.77072000  0.09195382  1.0
  Ni  Ni726  1  0.86456500  0.10405333  0.09195382  1.0
  Ni  Ni727  1  0.86456500  0.43738667  0.09195382  1.0
  Ni  Ni728  1  0.86456500  0.77072000  0.09195382  1.0
  Ni  Ni729  1  0.03123167  0.10405333  0.02052525  1.0
  Ni  Ni730  1  0.03123167  0.43738667  0.02052525  1.0
  Ni  Ni731  1  0.03123167  0.77072000  0.02052525  1.0
  Ni  Ni732  1  0.36456500  0.10405333  0.02052525  1.0
  Ni  Ni733  1  0.36456500  0.43738667  0.02052525  1.0
  Ni  Ni734  1  0.36456500  0.77072000  0.02052525  1.0
  Ni  Ni735  1  0.69789833  0.10405333  0.02052525  1.0
  Ni  Ni736  1  0.69789833  0.43738667  0.02052525  1.0
  Ni  Ni737  1  0.69789833  0.77072000  0.02052525  1.0
  Ni  Ni738  1  0.19789833  0.18769000  0.02026525  1.0
  Ni  Ni739  1  0.19789833  0.52102333  0.02026525  1.0
  Ni  Ni740  1  0.19789833  0.85435667  0.02026525  1.0
  Ni  Ni741  1  0.53123167  0.18769000  0.02026525  1.0
  Ni  Ni742  1  0.53123167  0.52102333  0.02026525  1.0
  Ni  Ni743  1  0.53123167  0.85435667  0.02026525  1.0
  Ni  Ni744  1  0.86456500  0.18769000  0.02026525  1.0
  Ni  Ni745  1  0.86456500  0.52102333  0.02026525  1.0
  Ni  Ni746  1  0.86456500  0.85435667  0.02026525  1.0
  Ni  Ni747  1  0.03123167  0.18769000  0.09169382  1.0
  Ni  Ni748  1  0.03123167  0.52102333  0.09169382  1.0
  Ni  Ni749  1  0.03123167  0.85435667  0.09169382  1.0
  Ni  Ni750  1  0.36456500  0.18769000  0.09169382  1.0
  Ni  Ni751  1  0.36456500  0.52102333  0.09169382  1.0
  Ni  Ni752  1  0.36456500  0.85435667  0.09169382  1.0
  Ni  Ni753  1  0.69789833  0.18769000  0.09169382  1.0
  Ni  Ni754  1  0.69789833  0.52102333  0.09169382  1.0
  Ni  Ni755  1  0.69789833  0.85435667  0.09169382  1.0
  Ni  Ni756  1  0.28130667  0.18769000  0.05601168  1.0
  Ni  Ni757  1  0.28130667  0.52102333  0.05601168  1.0
  Ni  Ni758  1  0.28130667  0.85435667  0.05601168  1.0
  Ni  Ni759  1  0.61464000  0.18769000  0.05601168  1.0
  Ni  Ni760  1  0.61464000  0.52102333  0.05601168  1.0
  Ni  Ni761  1  0.61464000  0.85435667  0.05601168  1.0
  Ni  Ni762  1  0.94797333  0.18769000  0.05601168  1.0
  Ni  Ni763  1  0.94797333  0.52102333  0.05601168  1.0
  Ni  Ni764  1  0.94797333  0.85435667  0.05601168  1.0
  Ni  Ni765  1  0.11464000  0.18769000  0.12744025  1.0
  Ni  Ni766  1  0.11464000  0.52102333  0.12744025  1.0
  Ni  Ni767  1  0.11464000  0.85435667  0.12744025  1.0
  Ni  Ni768  1  0.44797333  0.18769000  0.12744025  1.0
  Ni  Ni769  1  0.44797333  0.52102333  0.12744025  1.0
  Ni  Ni770  1  0.44797333  0.85435667  0.12744025  1.0
  Ni  Ni771  1  0.78130667  0.18769000  0.12744025  1.0
  Ni  Ni772  1  0.78130667  0.52102333  0.12744025  1.0
  Ni  Ni773  1  0.78130667  0.85435667  0.12744025  1.0
  Ni  Ni774  1  0.28130667  0.18769000  0.12737596  1.0
  Ni  Ni775  1  0.28130667  0.52102333  0.12737596  1.0
  Ni  Ni776  1  0.28130667  0.85435667  0.12737596  1.0
  Ni  Ni777  1  0.61464000  0.18769000  0.12737596  1.0
  Ni  Ni778  1  0.61464000  0.52102333  0.12737596  1.0
  Ni  Ni779  1  0.61464000  0.85435667  0.12737596  1.0
  Ni  Ni780  1  0.94797333  0.18769000  0.12737596  1.0
  Ni  Ni781  1  0.94797333  0.52102333  0.12737596  1.0
  Ni  Ni782  1  0.94797333  0.85435667  0.12737596  1.0
  Ni  Ni783  1  0.11464000  0.18769000  0.05594739  1.0
  Ni  Ni784  1  0.11464000  0.52102333  0.05594739  1.0
  Ni  Ni785  1  0.11464000  0.85435667  0.05594739  1.0
  Ni  Ni786  1  0.44797333  0.18769000  0.05594739  1.0
  Ni  Ni787  1  0.44797333  0.52102333  0.05594739  1.0
  Ni  Ni788  1  0.44797333  0.85435667  0.05594739  1.0
  Ni  Ni789  1  0.78130667  0.18769000  0.05594739  1.0
  Ni  Ni790  1  0.78130667  0.52102333  0.05594739  1.0
  Ni  Ni791  1  0.78130667  0.85435667  0.05594739  1.0
  Ni  Ni792  1  0.23948833  0.27087000  0.10964954  1.0
  Ni  Ni793  1  0.23948833  0.60420333  0.10964954  1.0
  Ni  Ni794  1  0.23948833  0.93753667  0.10964954  1.0
  Ni  Ni795  1  0.57282167  0.27087000  0.10964954  1.0
  Ni  Ni796  1  0.57282167  0.60420333  0.10964954  1.0
  Ni  Ni797  1  0.57282167  0.93753667  0.10964954  1.0
  Ni  Ni798  1  0.90615500  0.27087000  0.10964954  1.0
  Ni  Ni799  1  0.90615500  0.60420333  0.10964954  1.0
  Ni  Ni800  1  0.90615500  0.93753667  0.10964954  1.0
  Ni  Ni801  1  0.07282167  0.27087000  0.03822096  1.0
  Ni  Ni802  1  0.07282167  0.60420333  0.03822096  1.0
  Ni  Ni803  1  0.07282167  0.93753667  0.03822096  1.0
  Ni  Ni804  1  0.40615500  0.27087000  0.03822096  1.0
  Ni  Ni805  1  0.40615500  0.60420333  0.03822096  1.0
  Ni  Ni806  1  0.40615500  0.93753667  0.03822096  1.0
  Ni  Ni807  1  0.73948833  0.27087000  0.03822096  1.0
  Ni  Ni808  1  0.73948833  0.60420333  0.03822096  1.0
  Ni  Ni809  1  0.73948833  0.93753667  0.03822096  1.0
  Ni  Ni810  1  0.23948833  0.10405333  0.03828525  1.0
  Ni  Ni811  1  0.23948833  0.43738667  0.03828525  1.0
  Ni  Ni812  1  0.23948833  0.77072000  0.03828525  1.0
  Ni  Ni813  1  0.57282167  0.10405333  0.03828525  1.0
  Ni  Ni814  1  0.57282167  0.43738667  0.03828525  1.0
  Ni  Ni815  1  0.57282167  0.77072000  0.03828525  1.0
  Ni  Ni816  1  0.90615500  0.10405333  0.03828525  1.0
  Ni  Ni817  1  0.90615500  0.43738667  0.03828525  1.0
  Ni  Ni818  1  0.90615500  0.77072000  0.03828525  1.0
  Ni  Ni819  1  0.07282167  0.10405333  0.10971382  1.0
  Ni  Ni820  1  0.07282167  0.43738667  0.10971382  1.0
  Ni  Ni821  1  0.07282167  0.77072000  0.10971382  1.0
  Ni  Ni822  1  0.40615500  0.10405333  0.10971382  1.0
  Ni  Ni823  1  0.40615500  0.43738667  0.10971382  1.0
  Ni  Ni824  1  0.40615500  0.77072000  0.10971382  1.0
  Ni  Ni825  1  0.73948833  0.10405333  0.10971382  1.0
  Ni  Ni826  1  0.73948833  0.43738667  0.10971382  1.0
  Ni  Ni827  1  0.73948833  0.77072000  0.10971382  1.0
  Ni  Ni828  1  0.23948833  0.10405333  0.10977811  1.0
  Ni  Ni829  1  0.23948833  0.43738667  0.10977811  1.0
  Ni  Ni830  1  0.23948833  0.77072000  0.10977811  1.0
  Ni  Ni831  1  0.57282167  0.10405333  0.10977811  1.0
  Ni  Ni832  1  0.57282167  0.43738667  0.10977811  1.0
  Ni  Ni833  1  0.57282167  0.77072000  0.10977811  1.0
  Ni  Ni834  1  0.90615500  0.10405333  0.10977811  1.0
  Ni  Ni835  1  0.90615500  0.43738667  0.10977811  1.0
  Ni  Ni836  1  0.90615500  0.77072000  0.10977811  1.0
  Ni  Ni837  1  0.07282167  0.10405333  0.03834954  1.0
  Ni  Ni838  1  0.07282167  0.43738667  0.03834954  1.0
  Ni  Ni839  1  0.07282167  0.77072000  0.03834954  1.0
  Ni  Ni840  1  0.40615500  0.10405333  0.03834954  1.0
  Ni  Ni841  1  0.40615500  0.43738667  0.03834954  1.0
  Ni  Ni842  1  0.40615500  0.77072000  0.03834954  1.0
  Ni  Ni843  1  0.73948833  0.10405333  0.03834954  1.0
  Ni  Ni844  1  0.73948833  0.43738667  0.03834954  1.0
  Ni  Ni845  1  0.73948833  0.77072000  0.03834954  1.0
  Y  Y846  1  0.25000000  0.16666667  0.17663739  1.0
  Y  Y847  1  0.25000000  0.50000000  0.17663739  1.0
  Y  Y848  1  0.25000000  0.83333333  0.17663739  1.0
  Y  Y849  1  0.58333333  0.16666667  0.17663739  1.0
  Y  Y850  1  0.58333333  0.50000000  0.17663739  1.0
  Y  Y851  1  0.58333333  0.83333333  0.17663739  1.0
  Y  Y852  1  0.91666667  0.16666667  0.17663739  1.0
  Y  Y853  1  0.91666667  0.50000000  0.17663739  1.0
  Y  Y854  1  0.91666667  0.83333333  0.17663739  1.0
  Y  Y855  1  0.08333333  0.16666667  0.24806596  1.0
  Y  Y856  1  0.08333333  0.50000000  0.24806596  1.0
  Y  Y857  1  0.08333333  0.83333333  0.24806596  1.0
  Y  Y858  1  0.41666667  0.16666667  0.24806596  1.0
  Y  Y859  1  0.41666667  0.50000000  0.24806596  1.0
  Y  Y860  1  0.41666667  0.83333333  0.24806596  1.0
  Y  Y861  1  0.75000000  0.16666667  0.24806596  1.0
  Y  Y862  1  0.75000000  0.50000000  0.24806596  1.0
  Y  Y863  1  0.75000000  0.83333333  0.24806596  1.0
  Y  Y864  1  0.31730350  0.03205967  0.14779304  1.0
  Y  Y865  1  0.31730350  0.36539300  0.14779304  1.0
  Y  Y866  1  0.31730350  0.69872633  0.14779304  1.0
  Y  Y867  1  0.65063683  0.03205967  0.14779304  1.0
  Y  Y868  1  0.65063683  0.36539300  0.14779304  1.0
  Y  Y869  1  0.65063683  0.69872633  0.14779304  1.0
  Y  Y870  1  0.98397017  0.03205967  0.14779304  1.0
  Y  Y871  1  0.98397017  0.36539300  0.14779304  1.0
  Y  Y872  1  0.98397017  0.69872633  0.14779304  1.0
  Y  Y873  1  0.15063683  0.03205967  0.21922161  1.0
  Y  Y874  1  0.15063683  0.36539300  0.21922161  1.0
  Y  Y875  1  0.15063683  0.69872633  0.21922161  1.0
  Y  Y876  1  0.48397017  0.03205967  0.21922161  1.0
  Y  Y877  1  0.48397017  0.36539300  0.21922161  1.0
  Y  Y878  1  0.48397017  0.69872633  0.21922161  1.0
  Y  Y879  1  0.81730350  0.03205967  0.21922161  1.0
  Y  Y880  1  0.81730350  0.36539300  0.21922161  1.0
  Y  Y881  1  0.81730350  0.69872633  0.21922161  1.0
  Y  Y882  1  0.31730350  0.03205967  0.23569075  1.0
  Y  Y883  1  0.31730350  0.36539300  0.23569075  1.0
  Y  Y884  1  0.31730350  0.69872633  0.23569075  1.0
  Y  Y885  1  0.65063683  0.03205967  0.23569075  1.0
  Y  Y886  1  0.65063683  0.36539300  0.23569075  1.0
  Y  Y887  1  0.65063683  0.69872633  0.23569075  1.0
  Y  Y888  1  0.98397017  0.03205967  0.23569075  1.0
  Y  Y889  1  0.98397017  0.36539300  0.23569075  1.0
  Y  Y890  1  0.98397017  0.69872633  0.23569075  1.0
  Y  Y891  1  0.15063683  0.03205967  0.16426218  1.0
  Y  Y892  1  0.15063683  0.36539300  0.16426218  1.0
  Y  Y893  1  0.15063683  0.69872633  0.16426218  1.0
  Y  Y894  1  0.48397017  0.03205967  0.16426218  1.0
  Y  Y895  1  0.48397017  0.36539300  0.16426218  1.0
  Y  Y896  1  0.48397017  0.69872633  0.16426218  1.0
  Y  Y897  1  0.81730350  0.03205967  0.16426218  1.0
  Y  Y898  1  0.81730350  0.36539300  0.16426218  1.0
  Y  Y899  1  0.81730350  0.69872633  0.16426218  1.0
  Y  Y900  1  0.31730350  0.23715433  0.20275246  1.0
  Y  Y901  1  0.31730350  0.57048767  0.20275246  1.0
  Y  Y902  1  0.31730350  0.90382100  0.20275246  1.0
  Y  Y903  1  0.65063683  0.23715433  0.20275246  1.0
  Y  Y904  1  0.65063683  0.57048767  0.20275246  1.0
  Y  Y905  1  0.65063683  0.90382100  0.20275246  1.0
  Y  Y906  1  0.98397017  0.23715433  0.20275246  1.0
  Y  Y907  1  0.98397017  0.57048767  0.20275246  1.0
  Y  Y908  1  0.98397017  0.90382100  0.20275246  1.0
  Y  Y909  1  0.15063683  0.23715433  0.27418104  1.0
  Y  Y910  1  0.15063683  0.57048767  0.27418104  1.0
  Y  Y911  1  0.15063683  0.90382100  0.27418104  1.0
  Y  Y912  1  0.48397017  0.23715433  0.27418104  1.0
  Y  Y913  1  0.48397017  0.57048767  0.27418104  1.0
  Y  Y914  1  0.48397017  0.90382100  0.27418104  1.0
  Y  Y915  1  0.81730350  0.23715433  0.27418104  1.0
  Y  Y916  1  0.81730350  0.57048767  0.27418104  1.0
  Y  Y917  1  0.81730350  0.90382100  0.27418104  1.0
  Y  Y918  1  0.21475617  0.03205967  0.19174189  1.0
  Y  Y919  1  0.21475617  0.36539300  0.19174189  1.0
  Y  Y920  1  0.21475617  0.69872633  0.19174189  1.0
  Y  Y921  1  0.54808950  0.03205967  0.19174189  1.0
  Y  Y922  1  0.54808950  0.36539300  0.19174189  1.0
  Y  Y923  1  0.54808950  0.69872633  0.19174189  1.0
  Y  Y924  1  0.88142283  0.03205967  0.19174189  1.0
  Y  Y925  1  0.88142283  0.36539300  0.19174189  1.0
  Y  Y926  1  0.88142283  0.69872633  0.19174189  1.0
  Y  Y927  1  0.04808950  0.03205967  0.26317046  1.0
  Y  Y928  1  0.04808950  0.36539300  0.26317046  1.0
  Y  Y929  1  0.04808950  0.69872633  0.26317046  1.0
  Y  Y930  1  0.38142283  0.03205967  0.26317046  1.0
  Y  Y931  1  0.38142283  0.36539300  0.26317046  1.0
  Y  Y932  1  0.38142283  0.69872633  0.26317046  1.0
  Y  Y933  1  0.71475617  0.03205967  0.26317046  1.0
  Y  Y934  1  0.71475617  0.36539300  0.26317046  1.0
  Y  Y935  1  0.71475617  0.69872633  0.26317046  1.0
  Y  Y936  1  0.22886017  0.20894633  0.18569732  1.0
  Y  Y937  1  0.22886017  0.54227967  0.18569732  1.0
  Y  Y938  1  0.22886017  0.87561300  0.18569732  1.0
  Y  Y939  1  0.56219350  0.20894633  0.18569732  1.0
  Y  Y940  1  0.56219350  0.54227967  0.18569732  1.0
  Y  Y941  1  0.56219350  0.87561300  0.18569732  1.0
  Y  Y942  1  0.89552683  0.20894633  0.18569732  1.0
  Y  Y943  1  0.89552683  0.54227967  0.18569732  1.0
  Y  Y944  1  0.89552683  0.87561300  0.18569732  1.0
  Y  Y945  1  0.06219350  0.20894633  0.25712589  1.0
  Y  Y946  1  0.06219350  0.54227967  0.25712589  1.0
  Y  Y947  1  0.06219350  0.87561300  0.25712589  1.0
  Y  Y948  1  0.39552683  0.20894633  0.25712589  1.0
  Y  Y949  1  0.39552683  0.54227967  0.25712589  1.0
  Y  Y950  1  0.39552683  0.87561300  0.25712589  1.0
  Y  Y951  1  0.72886017  0.20894633  0.25712589  1.0
  Y  Y952  1  0.72886017  0.54227967  0.25712589  1.0
  Y  Y953  1  0.72886017  0.87561300  0.25712589  1.0
  Y  Y954  1  0.22886017  0.20894633  0.25607504  1.0
  Y  Y955  1  0.22886017  0.54227967  0.25607504  1.0
  Y  Y956  1  0.22886017  0.87561300  0.25607504  1.0
  Y  Y957  1  0.56219350  0.20894633  0.25607504  1.0
  Y  Y958  1  0.56219350  0.54227967  0.25607504  1.0
  Y  Y959  1  0.56219350  0.87561300  0.25607504  1.0
  Y  Y960  1  0.89552683  0.20894633  0.25607504  1.0
  Y  Y961  1  0.89552683  0.54227967  0.25607504  1.0
  Y  Y962  1  0.89552683  0.87561300  0.25607504  1.0
  Y  Y963  1  0.06219350  0.20894633  0.18464646  1.0
  Y  Y964  1  0.06219350  0.54227967  0.18464646  1.0
  Y  Y965  1  0.06219350  0.87561300  0.18464646  1.0
  Y  Y966  1  0.39552683  0.20894633  0.18464646  1.0
  Y  Y967  1  0.39552683  0.54227967  0.18464646  1.0
  Y  Y968  1  0.39552683  0.87561300  0.18464646  1.0
  Y  Y969  1  0.72886017  0.20894633  0.18464646  1.0
  Y  Y970  1  0.72886017  0.54227967  0.18464646  1.0
  Y  Y971  1  0.72886017  0.87561300  0.18464646  1.0
  Y  Y972  1  0.22886017  0.03982767  0.25817675  1.0
  Y  Y973  1  0.22886017  0.37316100  0.25817675  1.0
  Y  Y974  1  0.22886017  0.70649433  0.25817675  1.0
  Y  Y975  1  0.56219350  0.03982767  0.25817675  1.0
  Y  Y976  1  0.56219350  0.37316100  0.25817675  1.0
  Y  Y977  1  0.56219350  0.70649433  0.25817675  1.0
  Y  Y978  1  0.89552683  0.03982767  0.25817675  1.0
  Y  Y979  1  0.89552683  0.37316100  0.25817675  1.0
  Y  Y980  1  0.89552683  0.70649433  0.25817675  1.0
  Y  Y981  1  0.06219350  0.03982767  0.18674818  1.0
  Y  Y982  1  0.06219350  0.37316100  0.18674818  1.0
  Y  Y983  1  0.06219350  0.70649433  0.18674818  1.0
  Y  Y984  1  0.39552683  0.03982767  0.18674818  1.0
  Y  Y985  1  0.39552683  0.37316100  0.18674818  1.0
  Y  Y986  1  0.39552683  0.70649433  0.18674818  1.0
  Y  Y987  1  0.72886017  0.03982767  0.18674818  1.0
  Y  Y988  1  0.72886017  0.37316100  0.18674818  1.0
  Y  Y989  1  0.72886017  0.70649433  0.18674818  1.0
  Y  Y990  1  0.31341950  0.20894633  0.14945761  1.0
  Y  Y991  1  0.31341950  0.54227967  0.14945761  1.0
  Y  Y992  1  0.31341950  0.87561300  0.14945761  1.0
  Y  Y993  1  0.64675283  0.20894633  0.14945761  1.0
  Y  Y994  1  0.64675283  0.54227967  0.14945761  1.0
  Y  Y995  1  0.64675283  0.87561300  0.14945761  1.0
  Y  Y996  1  0.98008617  0.20894633  0.14945761  1.0
  Y  Y997  1  0.98008617  0.54227967  0.14945761  1.0
  Y  Y998  1  0.98008617  0.87561300  0.14945761  1.0
  Y  Y999  1  0.14675283  0.20894633  0.22088618  1.0
  Y  Y1000  1  0.14675283  0.54227967  0.22088618  1.0
  Y  Y1001  1  0.14675283  0.87561300  0.22088618  1.0
  Y  Y1002  1  0.48008617  0.20894633  0.22088618  1.0
  Y  Y1003  1  0.48008617  0.54227967  0.22088618  1.0
  Y  Y1004  1  0.48008617  0.87561300  0.22088618  1.0
  Y  Y1005  1  0.81341950  0.20894633  0.22088618  1.0
  Y  Y1006  1  0.81341950  0.54227967  0.22088618  1.0
  Y  Y1007  1  0.81341950  0.87561300  0.22088618  1.0
  Y  Y1008  1  0.25251883  0.00503767  0.17555789  1.0
  Y  Y1009  1  0.25251883  0.33837100  0.17555789  1.0
  Y  Y1010  1  0.25251883  0.67170433  0.17555789  1.0
  Y  Y1011  1  0.58585217  0.00503767  0.17555789  1.0
  Y  Y1012  1  0.58585217  0.33837100  0.17555789  1.0
  Y  Y1013  1  0.58585217  0.67170433  0.17555789  1.0
  Y  Y1014  1  0.91918550  0.00503767  0.17555789  1.0
  Y  Y1015  1  0.91918550  0.33837100  0.17555789  1.0
  Y  Y1016  1  0.91918550  0.67170433  0.17555789  1.0
  Y  Y1017  1  0.08585217  0.00503767  0.24698646  1.0
  Y  Y1018  1  0.08585217  0.33837100  0.24698646  1.0
  Y  Y1019  1  0.08585217  0.67170433  0.24698646  1.0
  Y  Y1020  1  0.41918550  0.00503767  0.24698646  1.0
  Y  Y1021  1  0.41918550  0.33837100  0.24698646  1.0
  Y  Y1022  1  0.41918550  0.67170433  0.24698646  1.0
  Y  Y1023  1  0.75251883  0.00503767  0.24698646  1.0
  Y  Y1024  1  0.75251883  0.33837100  0.24698646  1.0
  Y  Y1025  1  0.75251883  0.67170433  0.24698646  1.0
  Y  Y1026  1  0.33081450  0.16162900  0.21774918  1.0
  Y  Y1027  1  0.33081450  0.49496233  0.21774918  1.0
  Y  Y1028  1  0.33081450  0.82829567  0.21774918  1.0
  Y  Y1029  1  0.66414783  0.16162900  0.21774918  1.0
  Y  Y1030  1  0.66414783  0.49496233  0.21774918  1.0
  Y  Y1031  1  0.66414783  0.82829567  0.21774918  1.0
  Y  Y1032  1  0.99748117  0.16162900  0.21774918  1.0
  Y  Y1033  1  0.99748117  0.49496233  0.21774918  1.0
  Y  Y1034  1  0.99748117  0.82829567  0.21774918  1.0
  Y  Y1035  1  0.16414783  0.16162900  0.14632061  1.0
  Y  Y1036  1  0.16414783  0.49496233  0.14632061  1.0
  Y  Y1037  1  0.16414783  0.82829567  0.14632061  1.0
  Y  Y1038  1  0.49748117  0.16162900  0.14632061  1.0
  Y  Y1039  1  0.49748117  0.49496233  0.14632061  1.0
  Y  Y1040  1  0.49748117  0.82829567  0.14632061  1.0
  Y  Y1041  1  0.83081450  0.16162900  0.14632061  1.0
  Y  Y1042  1  0.83081450  0.49496233  0.14632061  1.0
  Y  Y1043  1  0.83081450  0.82829567  0.14632061  1.0
  Y  Y1044  1  0.33081450  0.00503767  0.20911318  1.0
  Y  Y1045  1  0.33081450  0.33837100  0.20911318  1.0
  Y  Y1046  1  0.33081450  0.67170433  0.20911318  1.0
  Y  Y1047  1  0.66414783  0.00503767  0.20911318  1.0
  Y  Y1048  1  0.66414783  0.33837100  0.20911318  1.0
  Y  Y1049  1  0.66414783  0.67170433  0.20911318  1.0
  Y  Y1050  1  0.99748117  0.00503767  0.20911318  1.0
  Y  Y1051  1  0.99748117  0.33837100  0.20911318  1.0
  Y  Y1052  1  0.99748117  0.67170433  0.20911318  1.0
  Y  Y1053  1  0.16414783  0.00503767  0.28054175  1.0
  Y  Y1054  1  0.16414783  0.33837100  0.28054175  1.0
  Y  Y1055  1  0.16414783  0.67170433  0.28054175  1.0
  Y  Y1056  1  0.49748117  0.00503767  0.28054175  1.0
  Y  Y1057  1  0.49748117  0.33837100  0.28054175  1.0
  Y  Y1058  1  0.49748117  0.67170433  0.28054175  1.0
  Y  Y1059  1  0.83081450  0.00503767  0.28054175  1.0
  Y  Y1060  1  0.83081450  0.33837100  0.28054175  1.0
  Y  Y1061  1  0.83081450  0.67170433  0.28054175  1.0
  Y  Y1062  1  0.33081450  0.16162900  0.28485975  1.0
  Y  Y1063  1  0.33081450  0.49496233  0.28485975  1.0
  Y  Y1064  1  0.33081450  0.82829567  0.28485975  1.0
  Y  Y1065  1  0.66414783  0.16162900  0.28485975  1.0
  Y  Y1066  1  0.66414783  0.49496233  0.28485975  1.0
  Y  Y1067  1  0.66414783  0.82829567  0.28485975  1.0
  Y  Y1068  1  0.99748117  0.16162900  0.28485975  1.0
  Y  Y1069  1  0.99748117  0.49496233  0.28485975  1.0
  Y  Y1070  1  0.99748117  0.82829567  0.28485975  1.0
  Y  Y1071  1  0.16414783  0.16162900  0.21343118  1.0
  Y  Y1072  1  0.16414783  0.49496233  0.21343118  1.0
  Y  Y1073  1  0.16414783  0.82829567  0.21343118  1.0
  Y  Y1074  1  0.49748117  0.16162900  0.21343118  1.0
  Y  Y1075  1  0.49748117  0.49496233  0.21343118  1.0
  Y  Y1076  1  0.49748117  0.82829567  0.21343118  1.0
  Y  Y1077  1  0.83081450  0.16162900  0.21343118  1.0
  Y  Y1078  1  0.83081450  0.49496233  0.21343118  1.0
  Y  Y1079  1  0.83081450  0.82829567  0.21343118  1.0
  Y  Y1080  1  0.25251883  0.00503767  0.24266846  1.0
  Y  Y1081  1  0.25251883  0.33837100  0.24266846  1.0
  Y  Y1082  1  0.25251883  0.67170433  0.24266846  1.0
  Y  Y1083  1  0.58585217  0.00503767  0.24266846  1.0
  Y  Y1084  1  0.58585217  0.33837100  0.24266846  1.0
  Y  Y1085  1  0.58585217  0.67170433  0.24266846  1.0
  Y  Y1086  1  0.91918550  0.00503767  0.24266846  1.0
  Y  Y1087  1  0.91918550  0.33837100  0.24266846  1.0
  Y  Y1088  1  0.91918550  0.67170433  0.24266846  1.0
  Y  Y1089  1  0.08585217  0.00503767  0.17123989  1.0
  Y  Y1090  1  0.08585217  0.33837100  0.17123989  1.0
  Y  Y1091  1  0.08585217  0.67170433  0.17123989  1.0
  Y  Y1092  1  0.41918550  0.00503767  0.17123989  1.0
  Y  Y1093  1  0.41918550  0.33837100  0.17123989  1.0
  Y  Y1094  1  0.41918550  0.67170433  0.17123989  1.0
  Y  Y1095  1  0.75251883  0.00503767  0.17123989  1.0
  Y  Y1096  1  0.75251883  0.33837100  0.17123989  1.0
  Y  Y1097  1  0.75251883  0.67170433  0.17123989  1.0
  Y  Y1098  1  0.25251883  0.16162900  0.25130446  1.0
  Y  Y1099  1  0.25251883  0.49496233  0.25130446  1.0
  Y  Y1100  1  0.25251883  0.82829567  0.25130446  1.0
  Y  Y1101  1  0.58585217  0.16162900  0.25130446  1.0
  Y  Y1102  1  0.58585217  0.49496233  0.25130446  1.0
  Y  Y1103  1  0.58585217  0.82829567  0.25130446  1.0
  Y  Y1104  1  0.91918550  0.16162900  0.25130446  1.0
  Y  Y1105  1  0.91918550  0.49496233  0.25130446  1.0
  Y  Y1106  1  0.91918550  0.82829567  0.25130446  1.0
  Y  Y1107  1  0.08585217  0.16162900  0.17987589  1.0
  Y  Y1108  1  0.08585217  0.49496233  0.17987589  1.0
  Y  Y1109  1  0.08585217  0.82829567  0.17987589  1.0
  Y  Y1110  1  0.41918550  0.16162900  0.17987589  1.0
  Y  Y1111  1  0.41918550  0.49496233  0.17987589  1.0
  Y  Y1112  1  0.41918550  0.82829567  0.17987589  1.0
  Y  Y1113  1  0.75251883  0.16162900  0.17987589  1.0
  Y  Y1114  1  0.75251883  0.49496233  0.17987589  1.0
  Y  Y1115  1  0.75251883  0.82829567  0.17987589  1.0
  Ni  Ni1116  1  0.28142950  0.10380767  0.16316761  1.0
  Ni  Ni1117  1  0.28142950  0.43714100  0.16316761  1.0
  Ni  Ni1118  1  0.28142950  0.77047433  0.16316761  1.0
  Ni  Ni1119  1  0.61476283  0.10380767  0.16316761  1.0
  Ni  Ni1120  1  0.61476283  0.43714100  0.16316761  1.0
  Ni  Ni1121  1  0.61476283  0.77047433  0.16316761  1.0
  Ni  Ni1122  1  0.94809617  0.10380767  0.16316761  1.0
  Ni  Ni1123  1  0.94809617  0.43714100  0.16316761  1.0
  Ni  Ni1124  1  0.94809617  0.77047433  0.16316761  1.0
  Ni  Ni1125  1  0.11476283  0.10380767  0.23459618  1.0
  Ni  Ni1126  1  0.11476283  0.43714100  0.23459618  1.0
  Ni  Ni1127  1  0.11476283  0.77047433  0.23459618  1.0
  Ni  Ni1128  1  0.44809617  0.10380767  0.23459618  1.0
  Ni  Ni1129  1  0.44809617  0.43714100  0.23459618  1.0
  Ni  Ni1130  1  0.44809617  0.77047433  0.23459618  1.0
  Ni  Ni1131  1  0.78142950  0.10380767  0.23459618  1.0
  Ni  Ni1132  1  0.78142950  0.43714100  0.23459618  1.0
  Ni  Ni1133  1  0.78142950  0.77047433  0.23459618  1.0
  Ni  Ni1134  1  0.28142950  0.10380767  0.27092589  1.0
  Ni  Ni1135  1  0.28142950  0.43714100  0.27092589  1.0
  Ni  Ni1136  1  0.28142950  0.77047433  0.27092589  1.0
  Ni  Ni1137  1  0.61476283  0.10380767  0.27092589  1.0
  Ni  Ni1138  1  0.61476283  0.43714100  0.27092589  1.0
  Ni  Ni1139  1  0.61476283  0.77047433  0.27092589  1.0
  Ni  Ni1140  1  0.94809617  0.10380767  0.27092589  1.0
  Ni  Ni1141  1  0.94809617  0.43714100  0.27092589  1.0
  Ni  Ni1142  1  0.94809617  0.77047433  0.27092589  1.0
  Ni  Ni1143  1  0.11476283  0.10380767  0.19949732  1.0
  Ni  Ni1144  1  0.11476283  0.43714100  0.19949732  1.0
  Ni  Ni1145  1  0.11476283  0.77047433  0.19949732  1.0
  Ni  Ni1146  1  0.44809617  0.10380767  0.19949732  1.0
  Ni  Ni1147  1  0.44809617  0.43714100  0.19949732  1.0
  Ni  Ni1148  1  0.44809617  0.77047433  0.19949732  1.0
  Ni  Ni1149  1  0.78142950  0.10380767  0.19949732  1.0
  Ni  Ni1150  1  0.78142950  0.43714100  0.19949732  1.0
  Ni  Ni1151  1  0.78142950  0.77047433  0.19949732  1.0
  Ni  Ni1152  1  0.28142950  0.02191033  0.19826646  1.0
  Ni  Ni1153  1  0.28142950  0.35524367  0.19826646  1.0
  Ni  Ni1154  1  0.28142950  0.68857700  0.19826646  1.0
  Ni  Ni1155  1  0.61476283  0.02191033  0.19826646  1.0
  Ni  Ni1156  1  0.61476283  0.35524367  0.19826646  1.0
  Ni  Ni1157  1  0.61476283  0.68857700  0.19826646  1.0
  Ni  Ni1158  1  0.94809617  0.02191033  0.19826646  1.0
  Ni  Ni1159  1  0.94809617  0.35524367  0.19826646  1.0
  Ni  Ni1160  1  0.94809617  0.68857700  0.19826646  1.0
  Ni  Ni1161  1  0.11476283  0.02191033  0.26969504  1.0
  Ni  Ni1162  1  0.11476283  0.35524367  0.26969504  1.0
  Ni  Ni1163  1  0.11476283  0.68857700  0.26969504  1.0
  Ni  Ni1164  1  0.44809617  0.02191033  0.26969504  1.0
  Ni  Ni1165  1  0.44809617  0.35524367  0.26969504  1.0
  Ni  Ni1166  1  0.44809617  0.68857700  0.26969504  1.0
  Ni  Ni1167  1  0.78142950  0.02191033  0.26969504  1.0
  Ni  Ni1168  1  0.78142950  0.35524367  0.26969504  1.0
  Ni  Ni1169  1  0.78142950  0.68857700  0.26969504  1.0
  Ni  Ni1170  1  0.32237817  0.10380767  0.14561818  1.0
  Ni  Ni1171  1  0.32237817  0.43714100  0.14561818  1.0
  Ni  Ni1172  1  0.32237817  0.77047433  0.14561818  1.0
  Ni  Ni1173  1  0.65571150  0.10380767  0.14561818  1.0
  Ni  Ni1174  1  0.65571150  0.43714100  0.14561818  1.0
  Ni  Ni1175  1  0.65571150  0.77047433  0.14561818  1.0
  Ni  Ni1176  1  0.98904483  0.10380767  0.14561818  1.0
  Ni  Ni1177  1  0.98904483  0.43714100  0.14561818  1.0
  Ni  Ni1178  1  0.98904483  0.77047433  0.14561818  1.0
  Ni  Ni1179  1  0.15571150  0.10380767  0.21704675  1.0
  Ni  Ni1180  1  0.15571150  0.43714100  0.21704675  1.0
  Ni  Ni1181  1  0.15571150  0.77047433  0.21704675  1.0
  Ni  Ni1182  1  0.48904483  0.10380767  0.21704675  1.0
  Ni  Ni1183  1  0.48904483  0.43714100  0.21704675  1.0
  Ni  Ni1184  1  0.48904483  0.77047433  0.21704675  1.0
  Ni  Ni1185  1  0.82237817  0.10380767  0.21704675  1.0
  Ni  Ni1186  1  0.82237817  0.43714100  0.21704675  1.0
  Ni  Ni1187  1  0.82237817  0.77047433  0.21704675  1.0
  Ni  Ni1188  1  0.19809900  0.27046867  0.19888068  1.0
  Ni  Ni1189  1  0.19809900  0.60380200  0.19888068  1.0
  Ni  Ni1190  1  0.19809900  0.93713533  0.19888068  1.0
  Ni  Ni1191  1  0.53143233  0.27046867  0.19888068  1.0
  Ni  Ni1192  1  0.53143233  0.60380200  0.19888068  1.0
  Ni  Ni1193  1  0.53143233  0.93713533  0.19888068  1.0
  Ni  Ni1194  1  0.86476567  0.27046867  0.19888068  1.0
  Ni  Ni1195  1  0.86476567  0.60380200  0.19888068  1.0
  Ni  Ni1196  1  0.86476567  0.93713533  0.19888068  1.0
  Ni  Ni1197  1  0.03143233  0.27046867  0.27030925  1.0
  Ni  Ni1198  1  0.03143233  0.60380200  0.27030925  1.0
  Ni  Ni1199  1  0.03143233  0.93713533  0.27030925  1.0
  Ni  Ni1200  1  0.36476567  0.27046867  0.27030925  1.0
  Ni  Ni1201  1  0.36476567  0.60380200  0.27030925  1.0
  Ni  Ni1202  1  0.36476567  0.93713533  0.27030925  1.0
  Ni  Ni1203  1  0.69809900  0.27046867  0.27030925  1.0
  Ni  Ni1204  1  0.69809900  0.60380200  0.27030925  1.0
  Ni  Ni1205  1  0.69809900  0.93713533  0.27030925  1.0
  Ni  Ni1206  1  0.19809900  0.27046867  0.16379154  1.0
  Ni  Ni1207  1  0.19809900  0.60380200  0.16379154  1.0
  Ni  Ni1208  1  0.19809900  0.93713533  0.16379154  1.0
  Ni  Ni1209  1  0.53143233  0.27046867  0.16379154  1.0
  Ni  Ni1210  1  0.53143233  0.60380200  0.16379154  1.0
  Ni  Ni1211  1  0.53143233  0.93713533  0.16379154  1.0
  Ni  Ni1212  1  0.86476567  0.27046867  0.16379154  1.0
  Ni  Ni1213  1  0.86476567  0.60380200  0.16379154  1.0
  Ni  Ni1214  1  0.86476567  0.93713533  0.16379154  1.0
  Ni  Ni1215  1  0.03143233  0.27046867  0.23522011  1.0
  Ni  Ni1216  1  0.03143233  0.60380200  0.23522011  1.0
  Ni  Ni1217  1  0.03143233  0.93713533  0.23522011  1.0
  Ni  Ni1218  1  0.36476567  0.27046867  0.23522011  1.0
  Ni  Ni1219  1  0.36476567  0.60380200  0.23522011  1.0
  Ni  Ni1220  1  0.36476567  0.93713533  0.23522011  1.0
  Ni  Ni1221  1  0.69809900  0.27046867  0.23522011  1.0
  Ni  Ni1222  1  0.69809900  0.60380200  0.23522011  1.0
  Ni  Ni1223  1  0.69809900  0.93713533  0.23522011  1.0
  Ni  Ni1224  1  0.19809900  0.18859400  0.23396982  1.0
  Ni  Ni1225  1  0.19809900  0.52192733  0.23396982  1.0
  Ni  Ni1226  1  0.19809900  0.85526067  0.23396982  1.0
  Ni  Ni1227  1  0.53143233  0.18859400  0.23396982  1.0
  Ni  Ni1228  1  0.53143233  0.52192733  0.23396982  1.0
  Ni  Ni1229  1  0.53143233  0.85526067  0.23396982  1.0
  Ni  Ni1230  1  0.86476567  0.18859400  0.23396982  1.0
  Ni  Ni1231  1  0.86476567  0.52192733  0.23396982  1.0
  Ni  Ni1232  1  0.86476567  0.85526067  0.23396982  1.0
  Ni  Ni1233  1  0.03143233  0.18859400  0.16254125  1.0
  Ni  Ni1234  1  0.03143233  0.52192733  0.16254125  1.0
  Ni  Ni1235  1  0.03143233  0.85526067  0.16254125  1.0
  Ni  Ni1236  1  0.36476567  0.18859400  0.16254125  1.0
  Ni  Ni1237  1  0.36476567  0.52192733  0.16254125  1.0
  Ni  Ni1238  1  0.36476567  0.85526067  0.16254125  1.0
  Ni  Ni1239  1  0.69809900  0.18859400  0.16254125  1.0
  Ni  Ni1240  1  0.69809900  0.52192733  0.16254125  1.0
  Ni  Ni1241  1  0.69809900  0.85526067  0.16254125  1.0
  Ni  Ni1242  1  0.23903633  0.27046867  0.18133611  1.0
  Ni  Ni1243  1  0.23903633  0.60380200  0.18133611  1.0
  Ni  Ni1244  1  0.23903633  0.93713533  0.18133611  1.0
  Ni  Ni1245  1  0.57236967  0.27046867  0.18133611  1.0
  Ni  Ni1246  1  0.57236967  0.60380200  0.18133611  1.0
  Ni  Ni1247  1  0.57236967  0.93713533  0.18133611  1.0
  Ni  Ni1248  1  0.90570300  0.27046867  0.18133611  1.0
  Ni  Ni1249  1  0.90570300  0.60380200  0.18133611  1.0
  Ni  Ni1250  1  0.90570300  0.93713533  0.18133611  1.0
  Ni  Ni1251  1  0.07236967  0.27046867  0.25276468  1.0
  Ni  Ni1252  1  0.07236967  0.60380200  0.25276468  1.0
  Ni  Ni1253  1  0.07236967  0.93713533  0.25276468  1.0
  Ni  Ni1254  1  0.40570300  0.27046867  0.25276468  1.0
  Ni  Ni1255  1  0.40570300  0.60380200  0.25276468  1.0
  Ni  Ni1256  1  0.40570300  0.93713533  0.25276468  1.0
  Ni  Ni1257  1  0.73903633  0.27046867  0.25276468  1.0
  Ni  Ni1258  1  0.73903633  0.60380200  0.25276468  1.0
  Ni  Ni1259  1  0.73903633  0.93713533  0.25276468  1.0
  Ni  Ni1260  1  0.19883992  0.26898683  0.27290221  1.0
  Ni  Ni1261  1  0.19883992  0.60232017  0.27290221  1.0
  Ni  Ni1262  1  0.19883992  0.93565350  0.27290221  1.0
  Ni  Ni1263  1  0.53217325  0.26898683  0.27290221  1.0
  Ni  Ni1264  1  0.53217325  0.60232017  0.27290221  1.0
  Ni  Ni1265  1  0.53217325  0.93565350  0.27290221  1.0
  Ni  Ni1266  1  0.86550658  0.26898683  0.27290221  1.0
  Ni  Ni1267  1  0.86550658  0.60232017  0.27290221  1.0
  Ni  Ni1268  1  0.86550658  0.93565350  0.27290221  1.0
  Ni  Ni1269  1  0.03217325  0.26898683  0.20147364  1.0
  Ni  Ni1270  1  0.03217325  0.60232017  0.20147364  1.0
  Ni  Ni1271  1  0.03217325  0.93565350  0.20147364  1.0
  Ni  Ni1272  1  0.36550658  0.26898683  0.20147364  1.0
  Ni  Ni1273  1  0.36550658  0.60232017  0.20147364  1.0
  Ni  Ni1274  1  0.36550658  0.93565350  0.20147364  1.0
  Ni  Ni1275  1  0.69883992  0.26898683  0.20147364  1.0
  Ni  Ni1276  1  0.69883992  0.60232017  0.20147364  1.0
  Ni  Ni1277  1  0.69883992  0.93565350  0.20147364  1.0
  Ni  Ni1278  1  0.27877767  0.26898683  0.16430411  1.0
  Ni  Ni1279  1  0.27877767  0.60232017  0.16430411  1.0
  Ni  Ni1280  1  0.27877767  0.93565350  0.16430411  1.0
  Ni  Ni1281  1  0.61211100  0.26898683  0.16430411  1.0
  Ni  Ni1282  1  0.61211100  0.60232017  0.16430411  1.0
  Ni  Ni1283  1  0.61211100  0.93565350  0.16430411  1.0
  Ni  Ni1284  1  0.94544433  0.26898683  0.16430411  1.0
  Ni  Ni1285  1  0.94544433  0.60232017  0.16430411  1.0
  Ni  Ni1286  1  0.94544433  0.93565350  0.16430411  1.0
  Ni  Ni1287  1  0.11211100  0.26898683  0.23573268  1.0
  Ni  Ni1288  1  0.11211100  0.60232017  0.23573268  1.0
  Ni  Ni1289  1  0.11211100  0.93565350  0.23573268  1.0
  Ni  Ni1290  1  0.44544433  0.26898683  0.23573268  1.0
  Ni  Ni1291  1  0.44544433  0.60232017  0.23573268  1.0
  Ni  Ni1292  1  0.44544433  0.93565350  0.23573268  1.0
  Ni  Ni1293  1  0.77877767  0.26898683  0.23573268  1.0
  Ni  Ni1294  1  0.77877767  0.60232017  0.23573268  1.0
  Ni  Ni1295  1  0.77877767  0.93565350  0.23573268  1.0
  Ni  Ni1296  1  0.19883992  0.10911133  0.26708121  1.0
  Ni  Ni1297  1  0.19883992  0.44244467  0.26708121  1.0
  Ni  Ni1298  1  0.19883992  0.77577800  0.26708121  1.0
  Ni  Ni1299  1  0.53217325  0.10911133  0.26708121  1.0
  Ni  Ni1300  1  0.53217325  0.44244467  0.26708121  1.0
  Ni  Ni1301  1  0.53217325  0.77577800  0.26708121  1.0
  Ni  Ni1302  1  0.86550658  0.10911133  0.26708121  1.0
  Ni  Ni1303  1  0.86550658  0.44244467  0.26708121  1.0
  Ni  Ni1304  1  0.86550658  0.77577800  0.26708121  1.0
  Ni  Ni1305  1  0.03217325  0.10911133  0.19565264  1.0
  Ni  Ni1306  1  0.03217325  0.44244467  0.19565264  1.0
  Ni  Ni1307  1  0.03217325  0.77577800  0.19565264  1.0
  Ni  Ni1308  1  0.36550658  0.10911133  0.19565264  1.0
  Ni  Ni1309  1  0.36550658  0.44244467  0.19565264  1.0
  Ni  Ni1310  1  0.36550658  0.77577800  0.19565264  1.0
  Ni  Ni1311  1  0.69883992  0.10911133  0.19565264  1.0
  Ni  Ni1312  1  0.69883992  0.44244467  0.19565264  1.0
  Ni  Ni1313  1  0.69883992  0.77577800  0.19565264  1.0
  Ni  Ni1314  1  0.19883992  0.26898683  0.23453236  1.0
  Ni  Ni1315  1  0.19883992  0.60232017  0.23453236  1.0
  Ni  Ni1316  1  0.19883992  0.93565350  0.23453236  1.0
  Ni  Ni1317  1  0.53217325  0.26898683  0.23453236  1.0
  Ni  Ni1318  1  0.53217325  0.60232017  0.23453236  1.0
  Ni  Ni1319  1  0.53217325  0.93565350  0.23453236  1.0
  Ni  Ni1320  1  0.86550658  0.26898683  0.23453236  1.0
  Ni  Ni1321  1  0.86550658  0.60232017  0.23453236  1.0
  Ni  Ni1322  1  0.86550658  0.93565350  0.23453236  1.0
  Ni  Ni1323  1  0.03217325  0.26898683  0.16310379  1.0
  Ni  Ni1324  1  0.03217325  0.60232017  0.16310379  1.0
  Ni  Ni1325  1  0.03217325  0.93565350  0.16310379  1.0
  Ni  Ni1326  1  0.36550658  0.26898683  0.16310379  1.0
  Ni  Ni1327  1  0.36550658  0.60232017  0.16310379  1.0
  Ni  Ni1328  1  0.36550658  0.93565350  0.16310379  1.0
  Ni  Ni1329  1  0.69883992  0.26898683  0.16310379  1.0
  Ni  Ni1330  1  0.69883992  0.60232017  0.16310379  1.0
  Ni  Ni1331  1  0.69883992  0.93565350  0.16310379  1.0
  Ni  Ni1332  1  0.19883992  0.10911133  0.16019329  1.0
  Ni  Ni1333  1  0.19883992  0.44244467  0.16019329  1.0
  Ni  Ni1334  1  0.19883992  0.77577800  0.16019329  1.0
  Ni  Ni1335  1  0.53217325  0.10911133  0.16019329  1.0
  Ni  Ni1336  1  0.53217325  0.44244467  0.16019329  1.0
  Ni  Ni1337  1  0.53217325  0.77577800  0.16019329  1.0
  Ni  Ni1338  1  0.86550658  0.10911133  0.16019329  1.0
  Ni  Ni1339  1  0.86550658  0.44244467  0.16019329  1.0
  Ni  Ni1340  1  0.86550658  0.77577800  0.16019329  1.0
  Ni  Ni1341  1  0.03217325  0.10911133  0.23162186  1.0
  Ni  Ni1342  1  0.03217325  0.44244467  0.23162186  1.0
  Ni  Ni1343  1  0.03217325  0.77577800  0.23162186  1.0
  Ni  Ni1344  1  0.36550658  0.10911133  0.23162186  1.0
  Ni  Ni1345  1  0.36550658  0.44244467  0.23162186  1.0
  Ni  Ni1346  1  0.36550658  0.77577800  0.23162186  1.0
  Ni  Ni1347  1  0.69883992  0.10911133  0.23162186  1.0
  Ni  Ni1348  1  0.69883992  0.44244467  0.23162186  1.0
  Ni  Ni1349  1  0.69883992  0.77577800  0.23162186  1.0
  Ni  Ni1350  1  0.27877767  0.26898683  0.20027332  1.0
  Ni  Ni1351  1  0.27877767  0.60232017  0.20027332  1.0
  Ni  Ni1352  1  0.27877767  0.93565350  0.20027332  1.0
  Ni  Ni1353  1  0.61211100  0.26898683  0.20027332  1.0
  Ni  Ni1354  1  0.61211100  0.60232017  0.20027332  1.0
  Ni  Ni1355  1  0.61211100  0.93565350  0.20027332  1.0
  Ni  Ni1356  1  0.94544433  0.26898683  0.20027332  1.0
  Ni  Ni1357  1  0.94544433  0.60232017  0.20027332  1.0
  Ni  Ni1358  1  0.94544433  0.93565350  0.20027332  1.0
  Ni  Ni1359  1  0.11211100  0.26898683  0.27170189  1.0
  Ni  Ni1360  1  0.11211100  0.60232017  0.27170189  1.0
  Ni  Ni1361  1  0.11211100  0.93565350  0.27170189  1.0
  Ni  Ni1362  1  0.44544433  0.26898683  0.27170189  1.0
  Ni  Ni1363  1  0.44544433  0.60232017  0.27170189  1.0
  Ni  Ni1364  1  0.44544433  0.93565350  0.27170189  1.0
  Ni  Ni1365  1  0.77877767  0.26898683  0.27170189  1.0
  Ni  Ni1366  1  0.77877767  0.60232017  0.27170189  1.0
  Ni  Ni1367  1  0.77877767  0.93565350  0.27170189  1.0
  Ni  Ni1368  1  0.27877767  0.01958167  0.27119204  1.0
  Ni  Ni1369  1  0.27877767  0.35291500  0.27119204  1.0
  Ni  Ni1370  1  0.27877767  0.68624833  0.27119204  1.0
  Ni  Ni1371  1  0.61211100  0.01958167  0.27119204  1.0
  Ni  Ni1372  1  0.61211100  0.35291500  0.27119204  1.0
  Ni  Ni1373  1  0.61211100  0.68624833  0.27119204  1.0
  Ni  Ni1374  1  0.94544433  0.01958167  0.27119204  1.0
  Ni  Ni1375  1  0.94544433  0.35291500  0.27119204  1.0
  Ni  Ni1376  1  0.94544433  0.68624833  0.27119204  1.0
  Ni  Ni1377  1  0.11211100  0.01958167  0.19976346  1.0
  Ni  Ni1378  1  0.11211100  0.35291500  0.19976346  1.0
  Ni  Ni1379  1  0.11211100  0.68624833  0.19976346  1.0
  Ni  Ni1380  1  0.44544433  0.01958167  0.19976346  1.0
  Ni  Ni1381  1  0.44544433  0.35291500  0.19976346  1.0
  Ni  Ni1382  1  0.44544433  0.68624833  0.19976346  1.0
  Ni  Ni1383  1  0.77877767  0.01958167  0.19976346  1.0
  Ni  Ni1384  1  0.77877767  0.35291500  0.19976346  1.0
  Ni  Ni1385  1  0.77877767  0.68624833  0.19976346  1.0
  Ni  Ni1386  1  0.19883992  0.01958167  0.23693300  1.0
  Ni  Ni1387  1  0.19883992  0.35291500  0.23693300  1.0
  Ni  Ni1388  1  0.19883992  0.68624833  0.23693300  1.0
  Ni  Ni1389  1  0.53217325  0.01958167  0.23693300  1.0
  Ni  Ni1390  1  0.53217325  0.35291500  0.23693300  1.0
  Ni  Ni1391  1  0.53217325  0.68624833  0.23693300  1.0
  Ni  Ni1392  1  0.86550658  0.01958167  0.23693300  1.0
  Ni  Ni1393  1  0.86550658  0.35291500  0.23693300  1.0
  Ni  Ni1394  1  0.86550658  0.68624833  0.23693300  1.0
  Ni  Ni1395  1  0.03217325  0.01958167  0.16550443  1.0
  Ni  Ni1396  1  0.03217325  0.35291500  0.16550443  1.0
  Ni  Ni1397  1  0.03217325  0.68624833  0.16550443  1.0
  Ni  Ni1398  1  0.36550658  0.01958167  0.16550443  1.0
  Ni  Ni1399  1  0.36550658  0.35291500  0.16550443  1.0
  Ni  Ni1400  1  0.36550658  0.68624833  0.16550443  1.0
  Ni  Ni1401  1  0.69883992  0.01958167  0.16550443  1.0
  Ni  Ni1402  1  0.69883992  0.35291500  0.16550443  1.0
  Ni  Ni1403  1  0.69883992  0.68624833  0.16550443  1.0
  Ni  Ni1404  1  0.19883992  0.01958167  0.16259393  1.0
  Ni  Ni1405  1  0.19883992  0.35291500  0.16259393  1.0
  Ni  Ni1406  1  0.19883992  0.68624833  0.16259393  1.0
  Ni  Ni1407  1  0.53217325  0.01958167  0.16259393  1.0
  Ni  Ni1408  1  0.53217325  0.35291500  0.16259393  1.0
  Ni  Ni1409  1  0.53217325  0.68624833  0.16259393  1.0
  Ni  Ni1410  1  0.86550658  0.01958167  0.16259393  1.0
  Ni  Ni1411  1  0.86550658  0.35291500  0.16259393  1.0
  Ni  Ni1412  1  0.86550658  0.68624833  0.16259393  1.0
  Ni  Ni1413  1  0.03217325  0.01958167  0.23402250  1.0
  Ni  Ni1414  1  0.03217325  0.35291500  0.23402250  1.0
  Ni  Ni1415  1  0.03217325  0.68624833  0.23402250  1.0
  Ni  Ni1416  1  0.36550658  0.01958167  0.23402250  1.0
  Ni  Ni1417  1  0.36550658  0.35291500  0.23402250  1.0
  Ni  Ni1418  1  0.36550658  0.68624833  0.23402250  1.0
  Ni  Ni1419  1  0.69883992  0.01958167  0.23402250  1.0
  Ni  Ni1420  1  0.69883992  0.35291500  0.23402250  1.0
  Ni  Ni1421  1  0.69883992  0.68624833  0.23402250  1.0
  Ni  Ni1422  1  0.32354250  0.10911133  0.21363725  1.0
  Ni  Ni1423  1  0.32354250  0.44244467  0.21363725  1.0
  Ni  Ni1424  1  0.32354250  0.77577800  0.21363725  1.0
  Ni  Ni1425  1  0.65687583  0.10911133  0.21363725  1.0
  Ni  Ni1426  1  0.65687583  0.44244467  0.21363725  1.0
  Ni  Ni1427  1  0.65687583  0.77577800  0.21363725  1.0
  Ni  Ni1428  1  0.99020917  0.10911133  0.21363725  1.0
  Ni  Ni1429  1  0.99020917  0.44244467  0.21363725  1.0
  Ni  Ni1430  1  0.99020917  0.77577800  0.21363725  1.0
  Ni  Ni1431  1  0.15687583  0.10911133  0.28506582  1.0
  Ni  Ni1432  1  0.15687583  0.44244467  0.28506582  1.0
  Ni  Ni1433  1  0.15687583  0.77577800  0.28506582  1.0
  Ni  Ni1434  1  0.49020917  0.10911133  0.28506582  1.0
  Ni  Ni1435  1  0.49020917  0.44244467  0.28506582  1.0
  Ni  Ni1436  1  0.49020917  0.77577800  0.28506582  1.0
  Ni  Ni1437  1  0.82354250  0.10911133  0.28506582  1.0
  Ni  Ni1438  1  0.82354250  0.44244467  0.28506582  1.0
  Ni  Ni1439  1  0.82354250  0.77577800  0.28506582  1.0
  Ni  Ni1440  1  0.32354250  0.26898683  0.14511918  1.0
  Ni  Ni1441  1  0.32354250  0.60232017  0.14511918  1.0
  Ni  Ni1442  1  0.32354250  0.93565350  0.14511918  1.0
  Ni  Ni1443  1  0.65687583  0.26898683  0.14511918  1.0
  Ni  Ni1444  1  0.65687583  0.60232017  0.14511918  1.0
  Ni  Ni1445  1  0.65687583  0.93565350  0.14511918  1.0
  Ni  Ni1446  1  0.99020917  0.26898683  0.14511918  1.0
  Ni  Ni1447  1  0.99020917  0.60232017  0.14511918  1.0
  Ni  Ni1448  1  0.99020917  0.93565350  0.14511918  1.0
  Ni  Ni1449  1  0.15687583  0.26898683  0.21654775  1.0
  Ni  Ni1450  1  0.15687583  0.60232017  0.21654775  1.0
  Ni  Ni1451  1  0.15687583  0.93565350  0.21654775  1.0
  Ni  Ni1452  1  0.49020917  0.26898683  0.21654775  1.0
  Ni  Ni1453  1  0.49020917  0.60232017  0.21654775  1.0
  Ni  Ni1454  1  0.49020917  0.93565350  0.21654775  1.0
  Ni  Ni1455  1  0.82354250  0.26898683  0.21654775  1.0
  Ni  Ni1456  1  0.82354250  0.60232017  0.21654775  1.0
  Ni  Ni1457  1  0.82354250  0.93565350  0.21654775  1.0
  Ni  Ni1458  1  0.32354250  0.26898683  0.21945825  1.0
  Ni  Ni1459  1  0.32354250  0.60232017  0.21945825  1.0
  Ni  Ni1460  1  0.32354250  0.93565350  0.21945825  1.0
  Ni  Ni1461  1  0.65687583  0.26898683  0.21945825  1.0
  Ni  Ni1462  1  0.65687583  0.60232017  0.21945825  1.0
  Ni  Ni1463  1  0.65687583  0.93565350  0.21945825  1.0
  Ni  Ni1464  1  0.99020917  0.26898683  0.21945825  1.0
  Ni  Ni1465  1  0.99020917  0.60232017  0.21945825  1.0
  Ni  Ni1466  1  0.99020917  0.93565350  0.21945825  1.0
  Ni  Ni1467  1  0.15687583  0.26898683  0.14802968  1.0
  Ni  Ni1468  1  0.15687583  0.60232017  0.14802968  1.0
  Ni  Ni1469  1  0.15687583  0.93565350  0.14802968  1.0
  Ni  Ni1470  1  0.49020917  0.26898683  0.14802968  1.0
  Ni  Ni1471  1  0.49020917  0.60232017  0.14802968  1.0
  Ni  Ni1472  1  0.49020917  0.93565350  0.14802968  1.0
  Ni  Ni1473  1  0.82354250  0.26898683  0.14802968  1.0
  Ni  Ni1474  1  0.82354250  0.60232017  0.14802968  1.0
  Ni  Ni1475  1  0.82354250  0.93565350  0.14802968  1.0
  Ni  Ni1476  1  0.28130667  0.10405333  0.23471311  1.0
  Ni  Ni1477  1  0.28130667  0.43738667  0.23471311  1.0
  Ni  Ni1478  1  0.28130667  0.77072000  0.23471311  1.0
  Ni  Ni1479  1  0.61464000  0.10405333  0.23471311  1.0
  Ni  Ni1480  1  0.61464000  0.43738667  0.23471311  1.0
  Ni  Ni1481  1  0.61464000  0.77072000  0.23471311  1.0
  Ni  Ni1482  1  0.94797333  0.10405333  0.23471311  1.0
  Ni  Ni1483  1  0.94797333  0.43738667  0.23471311  1.0
  Ni  Ni1484  1  0.94797333  0.77072000  0.23471311  1.0
  Ni  Ni1485  1  0.11464000  0.10405333  0.16328454  1.0
  Ni  Ni1486  1  0.11464000  0.43738667  0.16328454  1.0
  Ni  Ni1487  1  0.11464000  0.77072000  0.16328454  1.0
  Ni  Ni1488  1  0.44797333  0.10405333  0.16328454  1.0
  Ni  Ni1489  1  0.44797333  0.43738667  0.16328454  1.0
  Ni  Ni1490  1  0.44797333  0.77072000  0.16328454  1.0
  Ni  Ni1491  1  0.78130667  0.10405333  0.16328454  1.0
  Ni  Ni1492  1  0.78130667  0.43738667  0.16328454  1.0
  Ni  Ni1493  1  0.78130667  0.77072000  0.16328454  1.0
  Ni  Ni1494  1  0.19789833  0.10405333  0.19896668  1.0
  Ni  Ni1495  1  0.19789833  0.43738667  0.19896668  1.0
  Ni  Ni1496  1  0.19789833  0.77072000  0.19896668  1.0
  Ni  Ni1497  1  0.53123167  0.10405333  0.19896668  1.0
  Ni  Ni1498  1  0.53123167  0.43738667  0.19896668  1.0
  Ni  Ni1499  1  0.53123167  0.77072000  0.19896668  1.0
  Ni  Ni1500  1  0.86456500  0.10405333  0.19896668  1.0
  Ni  Ni1501  1  0.86456500  0.43738667  0.19896668  1.0
  Ni  Ni1502  1  0.86456500  0.77072000  0.19896668  1.0
  Ni  Ni1503  1  0.03123167  0.10405333  0.27039525  1.0
  Ni  Ni1504  1  0.03123167  0.43738667  0.27039525  1.0
  Ni  Ni1505  1  0.03123167  0.77072000  0.27039525  1.0
  Ni  Ni1506  1  0.36456500  0.10405333  0.27039525  1.0
  Ni  Ni1507  1  0.36456500  0.43738667  0.27039525  1.0
  Ni  Ni1508  1  0.36456500  0.77072000  0.27039525  1.0
  Ni  Ni1509  1  0.69789833  0.10405333  0.27039525  1.0
  Ni  Ni1510  1  0.69789833  0.43738667  0.27039525  1.0
  Ni  Ni1511  1  0.69789833  0.77072000  0.27039525  1.0
  Ni  Ni1512  1  0.28130667  0.27087000  0.23458454  1.0
  Ni  Ni1513  1  0.28130667  0.60420333  0.23458454  1.0
  Ni  Ni1514  1  0.28130667  0.93753667  0.23458454  1.0
  Ni  Ni1515  1  0.61464000  0.27087000  0.23458454  1.0
  Ni  Ni1516  1  0.61464000  0.60420333  0.23458454  1.0
  Ni  Ni1517  1  0.61464000  0.93753667  0.23458454  1.0
  Ni  Ni1518  1  0.94797333  0.27087000  0.23458454  1.0
  Ni  Ni1519  1  0.94797333  0.60420333  0.23458454  1.0
  Ni  Ni1520  1  0.94797333  0.93753667  0.23458454  1.0
  Ni  Ni1521  1  0.11464000  0.27087000  0.16315596  1.0
  Ni  Ni1522  1  0.11464000  0.60420333  0.16315596  1.0
  Ni  Ni1523  1  0.11464000  0.93753667  0.16315596  1.0
  Ni  Ni1524  1  0.44797333  0.27087000  0.16315596  1.0
  Ni  Ni1525  1  0.44797333  0.60420333  0.16315596  1.0
  Ni  Ni1526  1  0.44797333  0.93753667  0.16315596  1.0
  Ni  Ni1527  1  0.78130667  0.27087000  0.16315596  1.0
  Ni  Ni1528  1  0.78130667  0.60420333  0.16315596  1.0
  Ni  Ni1529  1  0.78130667  0.93753667  0.16315596  1.0
  Ni  Ni1530  1  0.28130667  0.10405333  0.19906454  1.0
  Ni  Ni1531  1  0.28130667  0.43738667  0.19906454  1.0
  Ni  Ni1532  1  0.28130667  0.77072000  0.19906454  1.0
  Ni  Ni1533  1  0.61464000  0.10405333  0.19906454  1.0
  Ni  Ni1534  1  0.61464000  0.43738667  0.19906454  1.0
  Ni  Ni1535  1  0.61464000  0.77072000  0.19906454  1.0
  Ni  Ni1536  1  0.94797333  0.10405333  0.19906454  1.0
  Ni  Ni1537  1  0.94797333  0.43738667  0.19906454  1.0
  Ni  Ni1538  1  0.94797333  0.77072000  0.19906454  1.0
  Ni  Ni1539  1  0.11464000  0.10405333  0.27049311  1.0
  Ni  Ni1540  1  0.11464000  0.43738667  0.27049311  1.0
  Ni  Ni1541  1  0.11464000  0.77072000  0.27049311  1.0
  Ni  Ni1542  1  0.44797333  0.10405333  0.27049311  1.0
  Ni  Ni1543  1  0.44797333  0.43738667  0.27049311  1.0
  Ni  Ni1544  1  0.44797333  0.77072000  0.27049311  1.0
  Ni  Ni1545  1  0.78130667  0.10405333  0.27049311  1.0
  Ni  Ni1546  1  0.78130667  0.43738667  0.27049311  1.0
  Ni  Ni1547  1  0.78130667  0.77072000  0.27049311  1.0
  Ni  Ni1548  1  0.28130667  0.27087000  0.27042882  1.0
  Ni  Ni1549  1  0.28130667  0.60420333  0.27042882  1.0
  Ni  Ni1550  1  0.28130667  0.93753667  0.27042882  1.0
  Ni  Ni1551  1  0.61464000  0.27087000  0.27042882  1.0
  Ni  Ni1552  1  0.61464000  0.60420333  0.27042882  1.0
  Ni  Ni1553  1  0.61464000  0.93753667  0.27042882  1.0
  Ni  Ni1554  1  0.94797333  0.27087000  0.27042882  1.0
  Ni  Ni1555  1  0.94797333  0.60420333  0.27042882  1.0
  Ni  Ni1556  1  0.94797333  0.93753667  0.27042882  1.0
  Ni  Ni1557  1  0.11464000  0.27087000  0.19900025  1.0
  Ni  Ni1558  1  0.11464000  0.60420333  0.19900025  1.0
  Ni  Ni1559  1  0.11464000  0.93753667  0.19900025  1.0
  Ni  Ni1560  1  0.44797333  0.27087000  0.19900025  1.0
  Ni  Ni1561  1  0.44797333  0.60420333  0.19900025  1.0
  Ni  Ni1562  1  0.44797333  0.93753667  0.19900025  1.0
  Ni  Ni1563  1  0.78130667  0.27087000  0.19900025  1.0
  Ni  Ni1564  1  0.78130667  0.60420333  0.19900025  1.0
  Ni  Ni1565  1  0.78130667  0.93753667  0.19900025  1.0
  Ni  Ni1566  1  0.19789833  0.10405333  0.23481096  1.0
  Ni  Ni1567  1  0.19789833  0.43738667  0.23481096  1.0
  Ni  Ni1568  1  0.19789833  0.77072000  0.23481096  1.0
  Ni  Ni1569  1  0.53123167  0.10405333  0.23481096  1.0
  Ni  Ni1570  1  0.53123167  0.43738667  0.23481096  1.0
  Ni  Ni1571  1  0.53123167  0.77072000  0.23481096  1.0
  Ni  Ni1572  1  0.86456500  0.10405333  0.23481096  1.0
  Ni  Ni1573  1  0.86456500  0.43738667  0.23481096  1.0
  Ni  Ni1574  1  0.86456500  0.77072000  0.23481096  1.0
  Ni  Ni1575  1  0.03123167  0.10405333  0.16338239  1.0
  Ni  Ni1576  1  0.03123167  0.43738667  0.16338239  1.0
  Ni  Ni1577  1  0.03123167  0.77072000  0.16338239  1.0
  Ni  Ni1578  1  0.36456500  0.10405333  0.16338239  1.0
  Ni  Ni1579  1  0.36456500  0.43738667  0.16338239  1.0
  Ni  Ni1580  1  0.36456500  0.77072000  0.16338239  1.0
  Ni  Ni1581  1  0.69789833  0.10405333  0.16338239  1.0
  Ni  Ni1582  1  0.69789833  0.43738667  0.16338239  1.0
  Ni  Ni1583  1  0.69789833  0.77072000  0.16338239  1.0
  Ni  Ni1584  1  0.19789833  0.18769000  0.16312239  1.0
  Ni  Ni1585  1  0.19789833  0.52102333  0.16312239  1.0
  Ni  Ni1586  1  0.19789833  0.85435667  0.16312239  1.0
  Ni  Ni1587  1  0.53123167  0.18769000  0.16312239  1.0
  Ni  Ni1588  1  0.53123167  0.52102333  0.16312239  1.0
  Ni  Ni1589  1  0.53123167  0.85435667  0.16312239  1.0
  Ni  Ni1590  1  0.86456500  0.18769000  0.16312239  1.0
  Ni  Ni1591  1  0.86456500  0.52102333  0.16312239  1.0
  Ni  Ni1592  1  0.86456500  0.85435667  0.16312239  1.0
  Ni  Ni1593  1  0.03123167  0.18769000  0.23455096  1.0
  Ni  Ni1594  1  0.03123167  0.52102333  0.23455096  1.0
  Ni  Ni1595  1  0.03123167  0.85435667  0.23455096  1.0
  Ni  Ni1596  1  0.36456500  0.18769000  0.23455096  1.0
  Ni  Ni1597  1  0.36456500  0.52102333  0.23455096  1.0
  Ni  Ni1598  1  0.36456500  0.85435667  0.23455096  1.0
  Ni  Ni1599  1  0.69789833  0.18769000  0.23455096  1.0
  Ni  Ni1600  1  0.69789833  0.52102333  0.23455096  1.0
  Ni  Ni1601  1  0.69789833  0.85435667  0.23455096  1.0
  Ni  Ni1602  1  0.28130667  0.18769000  0.19886882  1.0
  Ni  Ni1603  1  0.28130667  0.52102333  0.19886882  1.0
  Ni  Ni1604  1  0.28130667  0.85435667  0.19886882  1.0
  Ni  Ni1605  1  0.61464000  0.18769000  0.19886882  1.0
  Ni  Ni1606  1  0.61464000  0.52102333  0.19886882  1.0
  Ni  Ni1607  1  0.61464000  0.85435667  0.19886882  1.0
  Ni  Ni1608  1  0.94797333  0.18769000  0.19886882  1.0
  Ni  Ni1609  1  0.94797333  0.52102333  0.19886882  1.0
  Ni  Ni1610  1  0.94797333  0.85435667  0.19886882  1.0
  Ni  Ni1611  1  0.11464000  0.18769000  0.27029739  1.0
  Ni  Ni1612  1  0.11464000  0.52102333  0.27029739  1.0
  Ni  Ni1613  1  0.11464000  0.85435667  0.27029739  1.0
  Ni  Ni1614  1  0.44797333  0.18769000  0.27029739  1.0
  Ni  Ni1615  1  0.44797333  0.52102333  0.27029739  1.0
  Ni  Ni1616  1  0.44797333  0.85435667  0.27029739  1.0
  Ni  Ni1617  1  0.78130667  0.18769000  0.27029739  1.0
  Ni  Ni1618  1  0.78130667  0.52102333  0.27029739  1.0
  Ni  Ni1619  1  0.78130667  0.85435667  0.27029739  1.0
  Ni  Ni1620  1  0.28130667  0.18769000  0.27023311  1.0
  Ni  Ni1621  1  0.28130667  0.52102333  0.27023311  1.0
  Ni  Ni1622  1  0.28130667  0.85435667  0.27023311  1.0
  Ni  Ni1623  1  0.61464000  0.18769000  0.27023311  1.0
  Ni  Ni1624  1  0.61464000  0.52102333  0.27023311  1.0
  Ni  Ni1625  1  0.61464000  0.85435667  0.27023311  1.0
  Ni  Ni1626  1  0.94797333  0.18769000  0.27023311  1.0
  Ni  Ni1627  1  0.94797333  0.52102333  0.27023311  1.0
  Ni  Ni1628  1  0.94797333  0.85435667  0.27023311  1.0
  Ni  Ni1629  1  0.11464000  0.18769000  0.19880454  1.0
  Ni  Ni1630  1  0.11464000  0.52102333  0.19880454  1.0
  Ni  Ni1631  1  0.11464000  0.85435667  0.19880454  1.0
  Ni  Ni1632  1  0.44797333  0.18769000  0.19880454  1.0
  Ni  Ni1633  1  0.44797333  0.52102333  0.19880454  1.0
  Ni  Ni1634  1  0.44797333  0.85435667  0.19880454  1.0
  Ni  Ni1635  1  0.78130667  0.18769000  0.19880454  1.0
  Ni  Ni1636  1  0.78130667  0.52102333  0.19880454  1.0
  Ni  Ni1637  1  0.78130667  0.85435667  0.19880454  1.0
  Ni  Ni1638  1  0.23948833  0.27087000  0.25250668  1.0
  Ni  Ni1639  1  0.23948833  0.60420333  0.25250668  1.0
  Ni  Ni1640  1  0.23948833  0.93753667  0.25250668  1.0
  Ni  Ni1641  1  0.57282167  0.27087000  0.25250668  1.0
  Ni  Ni1642  1  0.57282167  0.60420333  0.25250668  1.0
  Ni  Ni1643  1  0.57282167  0.93753667  0.25250668  1.0
  Ni  Ni1644  1  0.90615500  0.27087000  0.25250668  1.0
  Ni  Ni1645  1  0.90615500  0.60420333  0.25250668  1.0
  Ni  Ni1646  1  0.90615500  0.93753667  0.25250668  1.0
  Ni  Ni1647  1  0.07282167  0.27087000  0.18107811  1.0
  Ni  Ni1648  1  0.07282167  0.60420333  0.18107811  1.0
  Ni  Ni1649  1  0.07282167  0.93753667  0.18107811  1.0
  Ni  Ni1650  1  0.40615500  0.27087000  0.18107811  1.0
  Ni  Ni1651  1  0.40615500  0.60420333  0.18107811  1.0
  Ni  Ni1652  1  0.40615500  0.93753667  0.18107811  1.0
  Ni  Ni1653  1  0.73948833  0.27087000  0.18107811  1.0
  Ni  Ni1654  1  0.73948833  0.60420333  0.18107811  1.0
  Ni  Ni1655  1  0.73948833  0.93753667  0.18107811  1.0
  Ni  Ni1656  1  0.23948833  0.10405333  0.18114239  1.0
  Ni  Ni1657  1  0.23948833  0.43738667  0.18114239  1.0
  Ni  Ni1658  1  0.23948833  0.77072000  0.18114239  1.0
  Ni  Ni1659  1  0.57282167  0.10405333  0.18114239  1.0
  Ni  Ni1660  1  0.57282167  0.43738667  0.18114239  1.0
  Ni  Ni1661  1  0.57282167  0.77072000  0.18114239  1.0
  Ni  Ni1662  1  0.90615500  0.10405333  0.18114239  1.0
  Ni  Ni1663  1  0.90615500  0.43738667  0.18114239  1.0
  Ni  Ni1664  1  0.90615500  0.77072000  0.18114239  1.0
  Ni  Ni1665  1  0.07282167  0.10405333  0.25257096  1.0
  Ni  Ni1666  1  0.07282167  0.43738667  0.25257096  1.0
  Ni  Ni1667  1  0.07282167  0.77072000  0.25257096  1.0
  Ni  Ni1668  1  0.40615500  0.10405333  0.25257096  1.0
  Ni  Ni1669  1  0.40615500  0.43738667  0.25257096  1.0
  Ni  Ni1670  1  0.40615500  0.77072000  0.25257096  1.0
  Ni  Ni1671  1  0.73948833  0.10405333  0.25257096  1.0
  Ni  Ni1672  1  0.73948833  0.43738667  0.25257096  1.0
  Ni  Ni1673  1  0.73948833  0.77072000  0.25257096  1.0
  Ni  Ni1674  1  0.23948833  0.10405333  0.25263525  1.0
  Ni  Ni1675  1  0.23948833  0.43738667  0.25263525  1.0
  Ni  Ni1676  1  0.23948833  0.77072000  0.25263525  1.0
  Ni  Ni1677  1  0.57282167  0.10405333  0.25263525  1.0
  Ni  Ni1678  1  0.57282167  0.43738667  0.25263525  1.0
  Ni  Ni1679  1  0.57282167  0.77072000  0.25263525  1.0
  Ni  Ni1680  1  0.90615500  0.10405333  0.25263525  1.0
  Ni  Ni1681  1  0.90615500  0.43738667  0.25263525  1.0
  Ni  Ni1682  1  0.90615500  0.77072000  0.25263525  1.0
  Ni  Ni1683  1  0.07282167  0.10405333  0.18120668  1.0
  Ni  Ni1684  1  0.07282167  0.43738667  0.18120668  1.0
  Ni  Ni1685  1  0.07282167  0.77072000  0.18120668  1.0
  Ni  Ni1686  1  0.40615500  0.10405333  0.18120668  1.0
  Ni  Ni1687  1  0.40615500  0.43738667  0.18120668  1.0
  Ni  Ni1688  1  0.40615500  0.77072000  0.18120668  1.0
  Ni  Ni1689  1  0.73948833  0.10405333  0.18120668  1.0
  Ni  Ni1690  1  0.73948833  0.43738667  0.18120668  1.0
  Ni  Ni1691  1  0.73948833  0.77072000  0.18120668  1.0
  Y  Y1692  1  0.25000000  0.16666667  0.31949454  1.0
  Y  Y1693  1  0.25000000  0.50000000  0.31949454  1.0
  Y  Y1694  1  0.25000000  0.83333333  0.31949454  1.0
  Y  Y1695  1  0.58333333  0.16666667  0.31949454  1.0
  Y  Y1696  1  0.58333333  0.50000000  0.31949454  1.0
  Y  Y1697  1  0.58333333  0.83333333  0.31949454  1.0
  Y  Y1698  1  0.91666667  0.16666667  0.31949454  1.0
  Y  Y1699  1  0.91666667  0.50000000  0.31949454  1.0
  Y  Y1700  1  0.91666667  0.83333333  0.31949454  1.0
  Y  Y1701  1  0.08333333  0.16666667  0.39092311  1.0
  Y  Y1702  1  0.08333333  0.50000000  0.39092311  1.0
  Y  Y1703  1  0.08333333  0.83333333  0.39092311  1.0
  Y  Y1704  1  0.41666667  0.16666667  0.39092311  1.0
  Y  Y1705  1  0.41666667  0.50000000  0.39092311  1.0
  Y  Y1706  1  0.41666667  0.83333333  0.39092311  1.0
  Y  Y1707  1  0.75000000  0.16666667  0.39092311  1.0
  Y  Y1708  1  0.75000000  0.50000000  0.39092311  1.0
  Y  Y1709  1  0.75000000  0.83333333  0.39092311  1.0
  Y  Y1710  1  0.31730350  0.03205967  0.29065018  1.0
  Y  Y1711  1  0.31730350  0.36539300  0.29065018  1.0
  Y  Y1712  1  0.31730350  0.69872633  0.29065018  1.0
  Y  Y1713  1  0.65063683  0.03205967  0.29065018  1.0
  Y  Y1714  1  0.65063683  0.36539300  0.29065018  1.0
  Y  Y1715  1  0.65063683  0.69872633  0.29065018  1.0
  Y  Y1716  1  0.98397017  0.03205967  0.29065018  1.0
  Y  Y1717  1  0.98397017  0.36539300  0.29065018  1.0
  Y  Y1718  1  0.98397017  0.69872633  0.29065018  1.0
  Y  Y1719  1  0.15063683  0.03205967  0.36207875  1.0
  Y  Y1720  1  0.15063683  0.36539300  0.36207875  1.0
  Y  Y1721  1  0.15063683  0.69872633  0.36207875  1.0
  Y  Y1722  1  0.48397017  0.03205967  0.36207875  1.0
  Y  Y1723  1  0.48397017  0.36539300  0.36207875  1.0
  Y  Y1724  1  0.48397017  0.69872633  0.36207875  1.0
  Y  Y1725  1  0.81730350  0.03205967  0.36207875  1.0
  Y  Y1726  1  0.81730350  0.36539300  0.36207875  1.0
  Y  Y1727  1  0.81730350  0.69872633  0.36207875  1.0
  Y  Y1728  1  0.31730350  0.03205967  0.37854789  1.0
  Y  Y1729  1  0.31730350  0.36539300  0.37854789  1.0
  Y  Y1730  1  0.31730350  0.69872633  0.37854789  1.0
  Y  Y1731  1  0.65063683  0.03205967  0.37854789  1.0
  Y  Y1732  1  0.65063683  0.36539300  0.37854789  1.0
  Y  Y1733  1  0.65063683  0.69872633  0.37854789  1.0
  Y  Y1734  1  0.98397017  0.03205967  0.37854789  1.0
  Y  Y1735  1  0.98397017  0.36539300  0.37854789  1.0
  Y  Y1736  1  0.98397017  0.69872633  0.37854789  1.0
  Y  Y1737  1  0.15063683  0.03205967  0.30711932  1.0
  Y  Y1738  1  0.15063683  0.36539300  0.30711932  1.0
  Y  Y1739  1  0.15063683  0.69872633  0.30711932  1.0
  Y  Y1740  1  0.48397017  0.03205967  0.30711932  1.0
  Y  Y1741  1  0.48397017  0.36539300  0.30711932  1.0
  Y  Y1742  1  0.48397017  0.69872633  0.30711932  1.0
  Y  Y1743  1  0.81730350  0.03205967  0.30711932  1.0
  Y  Y1744  1  0.81730350  0.36539300  0.30711932  1.0
  Y  Y1745  1  0.81730350  0.69872633  0.30711932  1.0
  Y  Y1746  1  0.31730350  0.23715433  0.34560961  1.0
  Y  Y1747  1  0.31730350  0.57048767  0.34560961  1.0
  Y  Y1748  1  0.31730350  0.90382100  0.34560961  1.0
  Y  Y1749  1  0.65063683  0.23715433  0.34560961  1.0
  Y  Y1750  1  0.65063683  0.57048767  0.34560961  1.0
  Y  Y1751  1  0.65063683  0.90382100  0.34560961  1.0
  Y  Y1752  1  0.98397017  0.23715433  0.34560961  1.0
  Y  Y1753  1  0.98397017  0.57048767  0.34560961  1.0
  Y  Y1754  1  0.98397017  0.90382100  0.34560961  1.0
  Y  Y1755  1  0.15063683  0.23715433  0.41703818  1.0
  Y  Y1756  1  0.15063683  0.57048767  0.41703818  1.0
  Y  Y1757  1  0.15063683  0.90382100  0.41703818  1.0
  Y  Y1758  1  0.48397017  0.23715433  0.41703818  1.0
  Y  Y1759  1  0.48397017  0.57048767  0.41703818  1.0
  Y  Y1760  1  0.48397017  0.90382100  0.41703818  1.0
  Y  Y1761  1  0.81730350  0.23715433  0.41703818  1.0
  Y  Y1762  1  0.81730350  0.57048767  0.41703818  1.0
  Y  Y1763  1  0.81730350  0.90382100  0.41703818  1.0
  Y  Y1764  1  0.21475617  0.03205967  0.33459904  1.0
  Y  Y1765  1  0.21475617  0.36539300  0.33459904  1.0
  Y  Y1766  1  0.21475617  0.69872633  0.33459904  1.0
  Y  Y1767  1  0.54808950  0.03205967  0.33459904  1.0
  Y  Y1768  1  0.54808950  0.36539300  0.33459904  1.0
  Y  Y1769  1  0.54808950  0.69872633  0.33459904  1.0
  Y  Y1770  1  0.88142283  0.03205967  0.33459904  1.0
  Y  Y1771  1  0.88142283  0.36539300  0.33459904  1.0
  Y  Y1772  1  0.88142283  0.69872633  0.33459904  1.0
  Y  Y1773  1  0.04808950  0.03205967  0.40602761  1.0
  Y  Y1774  1  0.04808950  0.36539300  0.40602761  1.0
  Y  Y1775  1  0.04808950  0.69872633  0.40602761  1.0
  Y  Y1776  1  0.38142283  0.03205967  0.40602761  1.0
  Y  Y1777  1  0.38142283  0.36539300  0.40602761  1.0
  Y  Y1778  1  0.38142283  0.69872633  0.40602761  1.0
  Y  Y1779  1  0.71475617  0.03205967  0.40602761  1.0
  Y  Y1780  1  0.71475617  0.36539300  0.40602761  1.0
  Y  Y1781  1  0.71475617  0.69872633  0.40602761  1.0
  Y  Y1782  1  0.22886017  0.20894633  0.32855446  1.0
  Y  Y1783  1  0.22886017  0.54227967  0.32855446  1.0
  Y  Y1784  1  0.22886017  0.87561300  0.32855446  1.0
  Y  Y1785  1  0.56219350  0.20894633  0.32855446  1.0
  Y  Y1786  1  0.56219350  0.54227967  0.32855446  1.0
  Y  Y1787  1  0.56219350  0.87561300  0.32855446  1.0
  Y  Y1788  1  0.89552683  0.20894633  0.32855446  1.0
  Y  Y1789  1  0.89552683  0.54227967  0.32855446  1.0
  Y  Y1790  1  0.89552683  0.87561300  0.32855446  1.0
  Y  Y1791  1  0.06219350  0.20894633  0.39998304  1.0
  Y  Y1792  1  0.06219350  0.54227967  0.39998304  1.0
  Y  Y1793  1  0.06219350  0.87561300  0.39998304  1.0
  Y  Y1794  1  0.39552683  0.20894633  0.39998304  1.0
  Y  Y1795  1  0.39552683  0.54227967  0.39998304  1.0
  Y  Y1796  1  0.39552683  0.87561300  0.39998304  1.0
  Y  Y1797  1  0.72886017  0.20894633  0.39998304  1.0
  Y  Y1798  1  0.72886017  0.54227967  0.39998304  1.0
  Y  Y1799  1  0.72886017  0.87561300  0.39998304  1.0
  Y  Y1800  1  0.22886017  0.20894633  0.39893218  1.0
  Y  Y1801  1  0.22886017  0.54227967  0.39893218  1.0
  Y  Y1802  1  0.22886017  0.87561300  0.39893218  1.0
  Y  Y1803  1  0.56219350  0.20894633  0.39893218  1.0
  Y  Y1804  1  0.56219350  0.54227967  0.39893218  1.0
  Y  Y1805  1  0.56219350  0.87561300  0.39893218  1.0
  Y  Y1806  1  0.89552683  0.20894633  0.39893218  1.0
  Y  Y1807  1  0.89552683  0.54227967  0.39893218  1.0
  Y  Y1808  1  0.89552683  0.87561300  0.39893218  1.0
  Y  Y1809  1  0.06219350  0.20894633  0.32750361  1.0
  Y  Y1810  1  0.06219350  0.54227967  0.32750361  1.0
  Y  Y1811  1  0.06219350  0.87561300  0.32750361  1.0
  Y  Y1812  1  0.39552683  0.20894633  0.32750361  1.0
  Y  Y1813  1  0.39552683  0.54227967  0.32750361  1.0
  Y  Y1814  1  0.39552683  0.87561300  0.32750361  1.0
  Y  Y1815  1  0.72886017  0.20894633  0.32750361  1.0
  Y  Y1816  1  0.72886017  0.54227967  0.32750361  1.0
  Y  Y1817  1  0.72886017  0.87561300  0.32750361  1.0
  Y  Y1818  1  0.22886017  0.03982767  0.40103389  1.0
  Y  Y1819  1  0.22886017  0.37316100  0.40103389  1.0
  Y  Y1820  1  0.22886017  0.70649433  0.40103389  1.0
  Y  Y1821  1  0.56219350  0.03982767  0.40103389  1.0
  Y  Y1822  1  0.56219350  0.37316100  0.40103389  1.0
  Y  Y1823  1  0.56219350  0.70649433  0.40103389  1.0
  Y  Y1824  1  0.89552683  0.03982767  0.40103389  1.0
  Y  Y1825  1  0.89552683  0.37316100  0.40103389  1.0
  Y  Y1826  1  0.89552683  0.70649433  0.40103389  1.0
  Y  Y1827  1  0.06219350  0.03982767  0.32960532  1.0
  Y  Y1828  1  0.06219350  0.37316100  0.32960532  1.0
  Y  Y1829  1  0.06219350  0.70649433  0.32960532  1.0
  Y  Y1830  1  0.39552683  0.03982767  0.32960532  1.0
  Y  Y1831  1  0.39552683  0.37316100  0.32960532  1.0
  Y  Y1832  1  0.39552683  0.70649433  0.32960532  1.0
  Y  Y1833  1  0.72886017  0.03982767  0.32960532  1.0
  Y  Y1834  1  0.72886017  0.37316100  0.32960532  1.0
  Y  Y1835  1  0.72886017  0.70649433  0.32960532  1.0
  Y  Y1836  1  0.31341950  0.20894633  0.29231475  1.0
  Y  Y1837  1  0.31341950  0.54227967  0.29231475  1.0
  Y  Y1838  1  0.31341950  0.87561300  0.29231475  1.0
  Y  Y1839  1  0.64675283  0.20894633  0.29231475  1.0
  Y  Y1840  1  0.64675283  0.54227967  0.29231475  1.0
  Y  Y1841  1  0.64675283  0.87561300  0.29231475  1.0
  Y  Y1842  1  0.98008617  0.20894633  0.29231475  1.0
  Y  Y1843  1  0.98008617  0.54227967  0.29231475  1.0
  Y  Y1844  1  0.98008617  0.87561300  0.29231475  1.0
  Y  Y1845  1  0.14675283  0.20894633  0.36374332  1.0
  Y  Y1846  1  0.14675283  0.54227967  0.36374332  1.0
  Y  Y1847  1  0.14675283  0.87561300  0.36374332  1.0
  Y  Y1848  1  0.48008617  0.20894633  0.36374332  1.0
  Y  Y1849  1  0.48008617  0.54227967  0.36374332  1.0
  Y  Y1850  1  0.48008617  0.87561300  0.36374332  1.0
  Y  Y1851  1  0.81341950  0.20894633  0.36374332  1.0
  Y  Y1852  1  0.81341950  0.54227967  0.36374332  1.0
  Y  Y1853  1  0.81341950  0.87561300  0.36374332  1.0
  Y  Y1854  1  0.25251883  0.00503767  0.31841504  1.0
  Y  Y1855  1  0.25251883  0.33837100  0.31841504  1.0
  Y  Y1856  1  0.25251883  0.67170433  0.31841504  1.0
  Y  Y1857  1  0.58585217  0.00503767  0.31841504  1.0
  Y  Y1858  1  0.58585217  0.33837100  0.31841504  1.0
  Y  Y1859  1  0.58585217  0.67170433  0.31841504  1.0
  Y  Y1860  1  0.91918550  0.00503767  0.31841504  1.0
  Y  Y1861  1  0.91918550  0.33837100  0.31841504  1.0
  Y  Y1862  1  0.91918550  0.67170433  0.31841504  1.0
  Y  Y1863  1  0.08585217  0.00503767  0.38984361  1.0
  Y  Y1864  1  0.08585217  0.33837100  0.38984361  1.0
  Y  Y1865  1  0.08585217  0.67170433  0.38984361  1.0
  Y  Y1866  1  0.41918550  0.00503767  0.38984361  1.0
  Y  Y1867  1  0.41918550  0.33837100  0.38984361  1.0
  Y  Y1868  1  0.41918550  0.67170433  0.38984361  1.0
  Y  Y1869  1  0.75251883  0.00503767  0.38984361  1.0
  Y  Y1870  1  0.75251883  0.33837100  0.38984361  1.0
  Y  Y1871  1  0.75251883  0.67170433  0.38984361  1.0
  Y  Y1872  1  0.33081450  0.16162900  0.36060632  1.0
  Y  Y1873  1  0.33081450  0.49496233  0.36060632  1.0
  Y  Y1874  1  0.33081450  0.82829567  0.36060632  1.0
  Y  Y1875  1  0.66414783  0.16162900  0.36060632  1.0
  Y  Y1876  1  0.66414783  0.49496233  0.36060632  1.0
  Y  Y1877  1  0.66414783  0.82829567  0.36060632  1.0
  Y  Y1878  1  0.99748117  0.16162900  0.36060632  1.0
  Y  Y1879  1  0.99748117  0.49496233  0.36060632  1.0
  Y  Y1880  1  0.99748117  0.82829567  0.36060632  1.0
  Y  Y1881  1  0.16414783  0.16162900  0.28917775  1.0
  Y  Y1882  1  0.16414783  0.49496233  0.28917775  1.0
  Y  Y1883  1  0.16414783  0.82829567  0.28917775  1.0
  Y  Y1884  1  0.49748117  0.16162900  0.28917775  1.0
  Y  Y1885  1  0.49748117  0.49496233  0.28917775  1.0
  Y  Y1886  1  0.49748117  0.82829567  0.28917775  1.0
  Y  Y1887  1  0.83081450  0.16162900  0.28917775  1.0
  Y  Y1888  1  0.83081450  0.49496233  0.28917775  1.0
  Y  Y1889  1  0.83081450  0.82829567  0.28917775  1.0
  Y  Y1890  1  0.33081450  0.00503767  0.35197032  1.0
  Y  Y1891  1  0.33081450  0.33837100  0.35197032  1.0
  Y  Y1892  1  0.33081450  0.67170433  0.35197032  1.0
  Y  Y1893  1  0.66414783  0.00503767  0.35197032  1.0
  Y  Y1894  1  0.66414783  0.33837100  0.35197032  1.0
  Y  Y1895  1  0.66414783  0.67170433  0.35197032  1.0
  Y  Y1896  1  0.99748117  0.00503767  0.35197032  1.0
  Y  Y1897  1  0.99748117  0.33837100  0.35197032  1.0
  Y  Y1898  1  0.99748117  0.67170433  0.35197032  1.0
  Y  Y1899  1  0.16414783  0.00503767  0.42339889  1.0
  Y  Y1900  1  0.16414783  0.33837100  0.42339889  1.0
  Y  Y1901  1  0.16414783  0.67170433  0.42339889  1.0
  Y  Y1902  1  0.49748117  0.00503767  0.42339889  1.0
  Y  Y1903  1  0.49748117  0.33837100  0.42339889  1.0
  Y  Y1904  1  0.49748117  0.67170433  0.42339889  1.0
  Y  Y1905  1  0.83081450  0.00503767  0.42339889  1.0
  Y  Y1906  1  0.83081450  0.33837100  0.42339889  1.0
  Y  Y1907  1  0.83081450  0.67170433  0.42339889  1.0
  Y  Y1908  1  0.33081450  0.16162900  0.42771689  1.0
  Y  Y1909  1  0.33081450  0.49496233  0.42771689  1.0
  Y  Y1910  1  0.33081450  0.82829567  0.42771689  1.0
  Y  Y1911  1  0.66414783  0.16162900  0.42771689  1.0
  Y  Y1912  1  0.66414783  0.49496233  0.42771689  1.0
  Y  Y1913  1  0.66414783  0.82829567  0.42771689  1.0
  Y  Y1914  1  0.99748117  0.16162900  0.42771689  1.0
  Y  Y1915  1  0.99748117  0.49496233  0.42771689  1.0
  Y  Y1916  1  0.99748117  0.82829567  0.42771689  1.0
  Y  Y1917  1  0.16414783  0.16162900  0.35628832  1.0
  Y  Y1918  1  0.16414783  0.49496233  0.35628832  1.0
  Y  Y1919  1  0.16414783  0.82829567  0.35628832  1.0
  Y  Y1920  1  0.49748117  0.16162900  0.35628832  1.0
  Y  Y1921  1  0.49748117  0.49496233  0.35628832  1.0
  Y  Y1922  1  0.49748117  0.82829567  0.35628832  1.0
  Y  Y1923  1  0.83081450  0.16162900  0.35628832  1.0
  Y  Y1924  1  0.83081450  0.49496233  0.35628832  1.0
  Y  Y1925  1  0.83081450  0.82829567  0.35628832  1.0
  Y  Y1926  1  0.25251883  0.00503767  0.38552561  1.0
  Y  Y1927  1  0.25251883  0.33837100  0.38552561  1.0
  Y  Y1928  1  0.25251883  0.67170433  0.38552561  1.0
  Y  Y1929  1  0.58585217  0.00503767  0.38552561  1.0
  Y  Y1930  1  0.58585217  0.33837100  0.38552561  1.0
  Y  Y1931  1  0.58585217  0.67170433  0.38552561  1.0
  Y  Y1932  1  0.91918550  0.00503767  0.38552561  1.0
  Y  Y1933  1  0.91918550  0.33837100  0.38552561  1.0
  Y  Y1934  1  0.91918550  0.67170433  0.38552561  1.0
  Y  Y1935  1  0.08585217  0.00503767  0.31409704  1.0
  Y  Y1936  1  0.08585217  0.33837100  0.31409704  1.0
  Y  Y1937  1  0.08585217  0.67170433  0.31409704  1.0
  Y  Y1938  1  0.41918550  0.00503767  0.31409704  1.0
  Y  Y1939  1  0.41918550  0.33837100  0.31409704  1.0
  Y  Y1940  1  0.41918550  0.67170433  0.31409704  1.0
  Y  Y1941  1  0.75251883  0.00503767  0.31409704  1.0
  Y  Y1942  1  0.75251883  0.33837100  0.31409704  1.0
  Y  Y1943  1  0.75251883  0.67170433  0.31409704  1.0
  Y  Y1944  1  0.25251883  0.16162900  0.39416161  1.0
  Y  Y1945  1  0.25251883  0.49496233  0.39416161  1.0
  Y  Y1946  1  0.25251883  0.82829567  0.39416161  1.0
  Y  Y1947  1  0.58585217  0.16162900  0.39416161  1.0
  Y  Y1948  1  0.58585217  0.49496233  0.39416161  1.0
  Y  Y1949  1  0.58585217  0.82829567  0.39416161  1.0
  Y  Y1950  1  0.91918550  0.16162900  0.39416161  1.0
  Y  Y1951  1  0.91918550  0.49496233  0.39416161  1.0
  Y  Y1952  1  0.91918550  0.82829567  0.39416161  1.0
  Y  Y1953  1  0.08585217  0.16162900  0.32273304  1.0
  Y  Y1954  1  0.08585217  0.49496233  0.32273304  1.0
  Y  Y1955  1  0.08585217  0.82829567  0.32273304  1.0
  Y  Y1956  1  0.41918550  0.16162900  0.32273304  1.0
  Y  Y1957  1  0.41918550  0.49496233  0.32273304  1.0
  Y  Y1958  1  0.41918550  0.82829567  0.32273304  1.0
  Y  Y1959  1  0.75251883  0.16162900  0.32273304  1.0
  Y  Y1960  1  0.75251883  0.49496233  0.32273304  1.0
  Y  Y1961  1  0.75251883  0.82829567  0.32273304  1.0
  Ni  Ni1962  1  0.28142950  0.10380767  0.30602475  1.0
  Ni  Ni1963  1  0.28142950  0.43714100  0.30602475  1.0
  Ni  Ni1964  1  0.28142950  0.77047433  0.30602475  1.0
  Ni  Ni1965  1  0.61476283  0.10380767  0.30602475  1.0
  Ni  Ni1966  1  0.61476283  0.43714100  0.30602475  1.0
  Ni  Ni1967  1  0.61476283  0.77047433  0.30602475  1.0
  Ni  Ni1968  1  0.94809617  0.10380767  0.30602475  1.0
  Ni  Ni1969  1  0.94809617  0.43714100  0.30602475  1.0
  Ni  Ni1970  1  0.94809617  0.77047433  0.30602475  1.0
  Ni  Ni1971  1  0.11476283  0.10380767  0.37745332  1.0
  Ni  Ni1972  1  0.11476283  0.43714100  0.37745332  1.0
  Ni  Ni1973  1  0.11476283  0.77047433  0.37745332  1.0
  Ni  Ni1974  1  0.44809617  0.10380767  0.37745332  1.0
  Ni  Ni1975  1  0.44809617  0.43714100  0.37745332  1.0
  Ni  Ni1976  1  0.44809617  0.77047433  0.37745332  1.0
  Ni  Ni1977  1  0.78142950  0.10380767  0.37745332  1.0
  Ni  Ni1978  1  0.78142950  0.43714100  0.37745332  1.0
  Ni  Ni1979  1  0.78142950  0.77047433  0.37745332  1.0
  Ni  Ni1980  1  0.28142950  0.10380767  0.41378304  1.0
  Ni  Ni1981  1  0.28142950  0.43714100  0.41378304  1.0
  Ni  Ni1982  1  0.28142950  0.77047433  0.41378304  1.0
  Ni  Ni1983  1  0.61476283  0.10380767  0.41378304  1.0
  Ni  Ni1984  1  0.61476283  0.43714100  0.41378304  1.0
  Ni  Ni1985  1  0.61476283  0.77047433  0.41378304  1.0
  Ni  Ni1986  1  0.94809617  0.10380767  0.41378304  1.0
  Ni  Ni1987  1  0.94809617  0.43714100  0.41378304  1.0
  Ni  Ni1988  1  0.94809617  0.77047433  0.41378304  1.0
  Ni  Ni1989  1  0.11476283  0.10380767  0.34235446  1.0
  Ni  Ni1990  1  0.11476283  0.43714100  0.34235446  1.0
  Ni  Ni1991  1  0.11476283  0.77047433  0.34235446  1.0
  Ni  Ni1992  1  0.44809617  0.10380767  0.34235446  1.0
  Ni  Ni1993  1  0.44809617  0.43714100  0.34235446  1.0
  Ni  Ni1994  1  0.44809617  0.77047433  0.34235446  1.0
  Ni  Ni1995  1  0.78142950  0.10380767  0.34235446  1.0
  Ni  Ni1996  1  0.78142950  0.43714100  0.34235446  1.0
  Ni  Ni1997  1  0.78142950  0.77047433  0.34235446  1.0
  Ni  Ni1998  1  0.28142950  0.02191033  0.34112361  1.0
  Ni  Ni1999  1  0.28142950  0.35524367  0.34112361  1.0
  Ni  Ni2000  1  0.28142950  0.68857700  0.34112361  1.0
  Ni  Ni2001  1  0.61476283  0.02191033  0.34112361  1.0
  Ni  Ni2002  1  0.61476283  0.35524367  0.34112361  1.0
  Ni  Ni2003  1  0.61476283  0.68857700  0.34112361  1.0
  Ni  Ni2004  1  0.94809617  0.02191033  0.34112361  1.0
  Ni  Ni2005  1  0.94809617  0.35524367  0.34112361  1.0
  Ni  Ni2006  1  0.94809617  0.68857700  0.34112361  1.0
  Ni  Ni2007  1  0.11476283  0.02191033  0.41255218  1.0
  Ni  Ni2008  1  0.11476283  0.35524367  0.41255218  1.0
  Ni  Ni2009  1  0.11476283  0.68857700  0.41255218  1.0
  Ni  Ni2010  1  0.44809617  0.02191033  0.41255218  1.0
  Ni  Ni2011  1  0.44809617  0.35524367  0.41255218  1.0
  Ni  Ni2012  1  0.44809617  0.68857700  0.41255218  1.0
  Ni  Ni2013  1  0.78142950  0.02191033  0.41255218  1.0
  Ni  Ni2014  1  0.78142950  0.35524367  0.41255218  1.0
  Ni  Ni2015  1  0.78142950  0.68857700  0.41255218  1.0
  Ni  Ni2016  1  0.32237817  0.10380767  0.28847532  1.0
  Ni  Ni2017  1  0.32237817  0.43714100  0.28847532  1.0
  Ni  Ni2018  1  0.32237817  0.77047433  0.28847532  1.0
  Ni  Ni2019  1  0.65571150  0.10380767  0.28847532  1.0
  Ni  Ni2020  1  0.65571150  0.43714100  0.28847532  1.0
  Ni  Ni2021  1  0.65571150  0.77047433  0.28847532  1.0
  Ni  Ni2022  1  0.98904483  0.10380767  0.28847532  1.0
  Ni  Ni2023  1  0.98904483  0.43714100  0.28847532  1.0
  Ni  Ni2024  1  0.98904483  0.77047433  0.28847532  1.0
  Ni  Ni2025  1  0.15571150  0.10380767  0.35990389  1.0
  Ni  Ni2026  1  0.15571150  0.43714100  0.35990389  1.0
  Ni  Ni2027  1  0.15571150  0.77047433  0.35990389  1.0
  Ni  Ni2028  1  0.48904483  0.10380767  0.35990389  1.0
  Ni  Ni2029  1  0.48904483  0.43714100  0.35990389  1.0
  Ni  Ni2030  1  0.48904483  0.77047433  0.35990389  1.0
  Ni  Ni2031  1  0.82237817  0.10380767  0.35990389  1.0
  Ni  Ni2032  1  0.82237817  0.43714100  0.35990389  1.0
  Ni  Ni2033  1  0.82237817  0.77047433  0.35990389  1.0
  Ni  Ni2034  1  0.19809900  0.27046867  0.34173782  1.0
  Ni  Ni2035  1  0.19809900  0.60380200  0.34173782  1.0
  Ni  Ni2036  1  0.19809900  0.93713533  0.34173782  1.0
  Ni  Ni2037  1  0.53143233  0.27046867  0.34173782  1.0
  Ni  Ni2038  1  0.53143233  0.60380200  0.34173782  1.0
  Ni  Ni2039  1  0.53143233  0.93713533  0.34173782  1.0
  Ni  Ni2040  1  0.86476567  0.27046867  0.34173782  1.0
  Ni  Ni2041  1  0.86476567  0.60380200  0.34173782  1.0
  Ni  Ni2042  1  0.86476567  0.93713533  0.34173782  1.0
  Ni  Ni2043  1  0.03143233  0.27046867  0.41316639  1.0
  Ni  Ni2044  1  0.03143233  0.60380200  0.41316639  1.0
  Ni  Ni2045  1  0.03143233  0.93713533  0.41316639  1.0
  Ni  Ni2046  1  0.36476567  0.27046867  0.41316639  1.0
  Ni  Ni2047  1  0.36476567  0.60380200  0.41316639  1.0
  Ni  Ni2048  1  0.36476567  0.93713533  0.41316639  1.0
  Ni  Ni2049  1  0.69809900  0.27046867  0.41316639  1.0
  Ni  Ni2050  1  0.69809900  0.60380200  0.41316639  1.0
  Ni  Ni2051  1  0.69809900  0.93713533  0.41316639  1.0
  Ni  Ni2052  1  0.19809900  0.27046867  0.30664868  1.0
  Ni  Ni2053  1  0.19809900  0.60380200  0.30664868  1.0
  Ni  Ni2054  1  0.19809900  0.93713533  0.30664868  1.0
  Ni  Ni2055  1  0.53143233  0.27046867  0.30664868  1.0
  Ni  Ni2056  1  0.53143233  0.60380200  0.30664868  1.0
  Ni  Ni2057  1  0.53143233  0.93713533  0.30664868  1.0
  Ni  Ni2058  1  0.86476567  0.27046867  0.30664868  1.0
  Ni  Ni2059  1  0.86476567  0.60380200  0.30664868  1.0
  Ni  Ni2060  1  0.86476567  0.93713533  0.30664868  1.0
  Ni  Ni2061  1  0.03143233  0.27046867  0.37807725  1.0
  Ni  Ni2062  1  0.03143233  0.60380200  0.37807725  1.0
  Ni  Ni2063  1  0.03143233  0.93713533  0.37807725  1.0
  Ni  Ni2064  1  0.36476567  0.27046867  0.37807725  1.0
  Ni  Ni2065  1  0.36476567  0.60380200  0.37807725  1.0
  Ni  Ni2066  1  0.36476567  0.93713533  0.37807725  1.0
  Ni  Ni2067  1  0.69809900  0.27046867  0.37807725  1.0
  Ni  Ni2068  1  0.69809900  0.60380200  0.37807725  1.0
  Ni  Ni2069  1  0.69809900  0.93713533  0.37807725  1.0
  Ni  Ni2070  1  0.19809900  0.18859400  0.37682696  1.0
  Ni  Ni2071  1  0.19809900  0.52192733  0.37682696  1.0
  Ni  Ni2072  1  0.19809900  0.85526067  0.37682696  1.0
  Ni  Ni2073  1  0.53143233  0.18859400  0.37682696  1.0
  Ni  Ni2074  1  0.53143233  0.52192733  0.37682696  1.0
  Ni  Ni2075  1  0.53143233  0.85526067  0.37682696  1.0
  Ni  Ni2076  1  0.86476567  0.18859400  0.37682696  1.0
  Ni  Ni2077  1  0.86476567  0.52192733  0.37682696  1.0
  Ni  Ni2078  1  0.86476567  0.85526067  0.37682696  1.0
  Ni  Ni2079  1  0.03143233  0.18859400  0.30539839  1.0
  Ni  Ni2080  1  0.03143233  0.52192733  0.30539839  1.0
  Ni  Ni2081  1  0.03143233  0.85526067  0.30539839  1.0
  Ni  Ni2082  1  0.36476567  0.18859400  0.30539839  1.0
  Ni  Ni2083  1  0.36476567  0.52192733  0.30539839  1.0
  Ni  Ni2084  1  0.36476567  0.85526067  0.30539839  1.0
  Ni  Ni2085  1  0.69809900  0.18859400  0.30539839  1.0
  Ni  Ni2086  1  0.69809900  0.52192733  0.30539839  1.0
  Ni  Ni2087  1  0.69809900  0.85526067  0.30539839  1.0
  Ni  Ni2088  1  0.23903633  0.27046867  0.32419325  1.0
  Ni  Ni2089  1  0.23903633  0.60380200  0.32419325  1.0
  Ni  Ni2090  1  0.23903633  0.93713533  0.32419325  1.0
  Ni  Ni2091  1  0.57236967  0.27046867  0.32419325  1.0
  Ni  Ni2092  1  0.57236967  0.60380200  0.32419325  1.0
  Ni  Ni2093  1  0.57236967  0.93713533  0.32419325  1.0
  Ni  Ni2094  1  0.90570300  0.27046867  0.32419325  1.0
  Ni  Ni2095  1  0.90570300  0.60380200  0.32419325  1.0
  Ni  Ni2096  1  0.90570300  0.93713533  0.32419325  1.0
  Ni  Ni2097  1  0.07236967  0.27046867  0.39562182  1.0
  Ni  Ni2098  1  0.07236967  0.60380200  0.39562182  1.0
  Ni  Ni2099  1  0.07236967  0.93713533  0.39562182  1.0
  Ni  Ni2100  1  0.40570300  0.27046867  0.39562182  1.0
  Ni  Ni2101  1  0.40570300  0.60380200  0.39562182  1.0
  Ni  Ni2102  1  0.40570300  0.93713533  0.39562182  1.0
  Ni  Ni2103  1  0.73903633  0.27046867  0.39562182  1.0
  Ni  Ni2104  1  0.73903633  0.60380200  0.39562182  1.0
  Ni  Ni2105  1  0.73903633  0.93713533  0.39562182  1.0
  Ni  Ni2106  1  0.19883992  0.26898683  0.41575936  1.0
  Ni  Ni2107  1  0.19883992  0.60232017  0.41575936  1.0
  Ni  Ni2108  1  0.19883992  0.93565350  0.41575936  1.0
  Ni  Ni2109  1  0.53217325  0.26898683  0.41575936  1.0
  Ni  Ni2110  1  0.53217325  0.60232017  0.41575936  1.0
  Ni  Ni2111  1  0.53217325  0.93565350  0.41575936  1.0
  Ni  Ni2112  1  0.86550658  0.26898683  0.41575936  1.0
  Ni  Ni2113  1  0.86550658  0.60232017  0.41575936  1.0
  Ni  Ni2114  1  0.86550658  0.93565350  0.41575936  1.0
  Ni  Ni2115  1  0.03217325  0.26898683  0.34433079  1.0
  Ni  Ni2116  1  0.03217325  0.60232017  0.34433079  1.0
  Ni  Ni2117  1  0.03217325  0.93565350  0.34433079  1.0
  Ni  Ni2118  1  0.36550658  0.26898683  0.34433079  1.0
  Ni  Ni2119  1  0.36550658  0.60232017  0.34433079  1.0
  Ni  Ni2120  1  0.36550658  0.93565350  0.34433079  1.0
  Ni  Ni2121  1  0.69883992  0.26898683  0.34433079  1.0
  Ni  Ni2122  1  0.69883992  0.60232017  0.34433079  1.0
  Ni  Ni2123  1  0.69883992  0.93565350  0.34433079  1.0
  Ni  Ni2124  1  0.27877767  0.26898683  0.30716125  1.0
  Ni  Ni2125  1  0.27877767  0.60232017  0.30716125  1.0
  Ni  Ni2126  1  0.27877767  0.93565350  0.30716125  1.0
  Ni  Ni2127  1  0.61211100  0.26898683  0.30716125  1.0
  Ni  Ni2128  1  0.61211100  0.60232017  0.30716125  1.0
  Ni  Ni2129  1  0.61211100  0.93565350  0.30716125  1.0
  Ni  Ni2130  1  0.94544433  0.26898683  0.30716125  1.0
  Ni  Ni2131  1  0.94544433  0.60232017  0.30716125  1.0
  Ni  Ni2132  1  0.94544433  0.93565350  0.30716125  1.0
  Ni  Ni2133  1  0.11211100  0.26898683  0.37858982  1.0
  Ni  Ni2134  1  0.11211100  0.60232017  0.37858982  1.0
  Ni  Ni2135  1  0.11211100  0.93565350  0.37858982  1.0
  Ni  Ni2136  1  0.44544433  0.26898683  0.37858982  1.0
  Ni  Ni2137  1  0.44544433  0.60232017  0.37858982  1.0
  Ni  Ni2138  1  0.44544433  0.93565350  0.37858982  1.0
  Ni  Ni2139  1  0.77877767  0.26898683  0.37858982  1.0
  Ni  Ni2140  1  0.77877767  0.60232017  0.37858982  1.0
  Ni  Ni2141  1  0.77877767  0.93565350  0.37858982  1.0
  Ni  Ni2142  1  0.19883992  0.10911133  0.40993836  1.0
  Ni  Ni2143  1  0.19883992  0.44244467  0.40993836  1.0
  Ni  Ni2144  1  0.19883992  0.77577800  0.40993836  1.0
  Ni  Ni2145  1  0.53217325  0.10911133  0.40993836  1.0
  Ni  Ni2146  1  0.53217325  0.44244467  0.40993836  1.0
  Ni  Ni2147  1  0.53217325  0.77577800  0.40993836  1.0
  Ni  Ni2148  1  0.86550658  0.10911133  0.40993836  1.0
  Ni  Ni2149  1  0.86550658  0.44244467  0.40993836  1.0
  Ni  Ni2150  1  0.86550658  0.77577800  0.40993836  1.0
  Ni  Ni2151  1  0.03217325  0.10911133  0.33850979  1.0
  Ni  Ni2152  1  0.03217325  0.44244467  0.33850979  1.0
  Ni  Ni2153  1  0.03217325  0.77577800  0.33850979  1.0
  Ni  Ni2154  1  0.36550658  0.10911133  0.33850979  1.0
  Ni  Ni2155  1  0.36550658  0.44244467  0.33850979  1.0
  Ni  Ni2156  1  0.36550658  0.77577800  0.33850979  1.0
  Ni  Ni2157  1  0.69883992  0.10911133  0.33850979  1.0
  Ni  Ni2158  1  0.69883992  0.44244467  0.33850979  1.0
  Ni  Ni2159  1  0.69883992  0.77577800  0.33850979  1.0
  Ni  Ni2160  1  0.19883992  0.26898683  0.37738950  1.0
  Ni  Ni2161  1  0.19883992  0.60232017  0.37738950  1.0
  Ni  Ni2162  1  0.19883992  0.93565350  0.37738950  1.0
  Ni  Ni2163  1  0.53217325  0.26898683  0.37738950  1.0
  Ni  Ni2164  1  0.53217325  0.60232017  0.37738950  1.0
  Ni  Ni2165  1  0.53217325  0.93565350  0.37738950  1.0
  Ni  Ni2166  1  0.86550658  0.26898683  0.37738950  1.0
  Ni  Ni2167  1  0.86550658  0.60232017  0.37738950  1.0
  Ni  Ni2168  1  0.86550658  0.93565350  0.37738950  1.0
  Ni  Ni2169  1  0.03217325  0.26898683  0.30596093  1.0
  Ni  Ni2170  1  0.03217325  0.60232017  0.30596093  1.0
  Ni  Ni2171  1  0.03217325  0.93565350  0.30596093  1.0
  Ni  Ni2172  1  0.36550658  0.26898683  0.30596093  1.0
  Ni  Ni2173  1  0.36550658  0.60232017  0.30596093  1.0
  Ni  Ni2174  1  0.36550658  0.93565350  0.30596093  1.0
  Ni  Ni2175  1  0.69883992  0.26898683  0.30596093  1.0
  Ni  Ni2176  1  0.69883992  0.60232017  0.30596093  1.0
  Ni  Ni2177  1  0.69883992  0.93565350  0.30596093  1.0
  Ni  Ni2178  1  0.19883992  0.10911133  0.30305043  1.0
  Ni  Ni2179  1  0.19883992  0.44244467  0.30305043  1.0
  Ni  Ni2180  1  0.19883992  0.77577800  0.30305043  1.0
  Ni  Ni2181  1  0.53217325  0.10911133  0.30305043  1.0
  Ni  Ni2182  1  0.53217325  0.44244467  0.30305043  1.0
  Ni  Ni2183  1  0.53217325  0.77577800  0.30305043  1.0
  Ni  Ni2184  1  0.86550658  0.10911133  0.30305043  1.0
  Ni  Ni2185  1  0.86550658  0.44244467  0.30305043  1.0
  Ni  Ni2186  1  0.86550658  0.77577800  0.30305043  1.0
  Ni  Ni2187  1  0.03217325  0.10911133  0.37447900  1.0
  Ni  Ni2188  1  0.03217325  0.44244467  0.37447900  1.0
  Ni  Ni2189  1  0.03217325  0.77577800  0.37447900  1.0
  Ni  Ni2190  1  0.36550658  0.10911133  0.37447900  1.0
  Ni  Ni2191  1  0.36550658  0.44244467  0.37447900  1.0
  Ni  Ni2192  1  0.36550658  0.77577800  0.37447900  1.0
  Ni  Ni2193  1  0.69883992  0.10911133  0.37447900  1.0
  Ni  Ni2194  1  0.69883992  0.44244467  0.37447900  1.0
  Ni  Ni2195  1  0.69883992  0.77577800  0.37447900  1.0
  Ni  Ni2196  1  0.27877767  0.26898683  0.34313046  1.0
  Ni  Ni2197  1  0.27877767  0.60232017  0.34313046  1.0
  Ni  Ni2198  1  0.27877767  0.93565350  0.34313046  1.0
  Ni  Ni2199  1  0.61211100  0.26898683  0.34313046  1.0
  Ni  Ni2200  1  0.61211100  0.60232017  0.34313046  1.0
  Ni  Ni2201  1  0.61211100  0.93565350  0.34313046  1.0
  Ni  Ni2202  1  0.94544433  0.26898683  0.34313046  1.0
  Ni  Ni2203  1  0.94544433  0.60232017  0.34313046  1.0
  Ni  Ni2204  1  0.94544433  0.93565350  0.34313046  1.0
  Ni  Ni2205  1  0.11211100  0.26898683  0.41455904  1.0
  Ni  Ni2206  1  0.11211100  0.60232017  0.41455904  1.0
  Ni  Ni2207  1  0.11211100  0.93565350  0.41455904  1.0
  Ni  Ni2208  1  0.44544433  0.26898683  0.41455904  1.0
  Ni  Ni2209  1  0.44544433  0.60232017  0.41455904  1.0
  Ni  Ni2210  1  0.44544433  0.93565350  0.41455904  1.0
  Ni  Ni2211  1  0.77877767  0.26898683  0.41455904  1.0
  Ni  Ni2212  1  0.77877767  0.60232017  0.41455904  1.0
  Ni  Ni2213  1  0.77877767  0.93565350  0.41455904  1.0
  Ni  Ni2214  1  0.27877767  0.01958167  0.41404918  1.0
  Ni  Ni2215  1  0.27877767  0.35291500  0.41404918  1.0
  Ni  Ni2216  1  0.27877767  0.68624833  0.41404918  1.0
  Ni  Ni2217  1  0.61211100  0.01958167  0.41404918  1.0
  Ni  Ni2218  1  0.61211100  0.35291500  0.41404918  1.0
  Ni  Ni2219  1  0.61211100  0.68624833  0.41404918  1.0
  Ni  Ni2220  1  0.94544433  0.01958167  0.41404918  1.0
  Ni  Ni2221  1  0.94544433  0.35291500  0.41404918  1.0
  Ni  Ni2222  1  0.94544433  0.68624833  0.41404918  1.0
  Ni  Ni2223  1  0.11211100  0.01958167  0.34262061  1.0
  Ni  Ni2224  1  0.11211100  0.35291500  0.34262061  1.0
  Ni  Ni2225  1  0.11211100  0.68624833  0.34262061  1.0
  Ni  Ni2226  1  0.44544433  0.01958167  0.34262061  1.0
  Ni  Ni2227  1  0.44544433  0.35291500  0.34262061  1.0
  Ni  Ni2228  1  0.44544433  0.68624833  0.34262061  1.0
  Ni  Ni2229  1  0.77877767  0.01958167  0.34262061  1.0
  Ni  Ni2230  1  0.77877767  0.35291500  0.34262061  1.0
  Ni  Ni2231  1  0.77877767  0.68624833  0.34262061  1.0
  Ni  Ni2232  1  0.19883992  0.01958167  0.37979014  1.0
  Ni  Ni2233  1  0.19883992  0.35291500  0.37979014  1.0
  Ni  Ni2234  1  0.19883992  0.68624833  0.37979014  1.0
  Ni  Ni2235  1  0.53217325  0.01958167  0.37979014  1.0
  Ni  Ni2236  1  0.53217325  0.35291500  0.37979014  1.0
  Ni  Ni2237  1  0.53217325  0.68624833  0.37979014  1.0
  Ni  Ni2238  1  0.86550658  0.01958167  0.37979014  1.0
  Ni  Ni2239  1  0.86550658  0.35291500  0.37979014  1.0
  Ni  Ni2240  1  0.86550658  0.68624833  0.37979014  1.0
  Ni  Ni2241  1  0.03217325  0.01958167  0.30836157  1.0
  Ni  Ni2242  1  0.03217325  0.35291500  0.30836157  1.0
  Ni  Ni2243  1  0.03217325  0.68624833  0.30836157  1.0
  Ni  Ni2244  1  0.36550658  0.01958167  0.30836157  1.0
  Ni  Ni2245  1  0.36550658  0.35291500  0.30836157  1.0
  Ni  Ni2246  1  0.36550658  0.68624833  0.30836157  1.0
  Ni  Ni2247  1  0.69883992  0.01958167  0.30836157  1.0
  Ni  Ni2248  1  0.69883992  0.35291500  0.30836157  1.0
  Ni  Ni2249  1  0.69883992  0.68624833  0.30836157  1.0
  Ni  Ni2250  1  0.19883992  0.01958167  0.30545107  1.0
  Ni  Ni2251  1  0.19883992  0.35291500  0.30545107  1.0
  Ni  Ni2252  1  0.19883992  0.68624833  0.30545107  1.0
  Ni  Ni2253  1  0.53217325  0.01958167  0.30545107  1.0
  Ni  Ni2254  1  0.53217325  0.35291500  0.30545107  1.0
  Ni  Ni2255  1  0.53217325  0.68624833  0.30545107  1.0
  Ni  Ni2256  1  0.86550658  0.01958167  0.30545107  1.0
  Ni  Ni2257  1  0.86550658  0.35291500  0.30545107  1.0
  Ni  Ni2258  1  0.86550658  0.68624833  0.30545107  1.0
  Ni  Ni2259  1  0.03217325  0.01958167  0.37687964  1.0
  Ni  Ni2260  1  0.03217325  0.35291500  0.37687964  1.0
  Ni  Ni2261  1  0.03217325  0.68624833  0.37687964  1.0
  Ni  Ni2262  1  0.36550658  0.01958167  0.37687964  1.0
  Ni  Ni2263  1  0.36550658  0.35291500  0.37687964  1.0
  Ni  Ni2264  1  0.36550658  0.68624833  0.37687964  1.0
  Ni  Ni2265  1  0.69883992  0.01958167  0.37687964  1.0
  Ni  Ni2266  1  0.69883992  0.35291500  0.37687964  1.0
  Ni  Ni2267  1  0.69883992  0.68624833  0.37687964  1.0
  Ni  Ni2268  1  0.32354250  0.10911133  0.35649439  1.0
  Ni  Ni2269  1  0.32354250  0.44244467  0.35649439  1.0
  Ni  Ni2270  1  0.32354250  0.77577800  0.35649439  1.0
  Ni  Ni2271  1  0.65687583  0.10911133  0.35649439  1.0
  Ni  Ni2272  1  0.65687583  0.44244467  0.35649439  1.0
  Ni  Ni2273  1  0.65687583  0.77577800  0.35649439  1.0
  Ni  Ni2274  1  0.99020917  0.10911133  0.35649439  1.0
  Ni  Ni2275  1  0.99020917  0.44244467  0.35649439  1.0
  Ni  Ni2276  1  0.99020917  0.77577800  0.35649439  1.0
  Ni  Ni2277  1  0.15687583  0.10911133  0.42792296  1.0
  Ni  Ni2278  1  0.15687583  0.44244467  0.42792296  1.0
  Ni  Ni2279  1  0.15687583  0.77577800  0.42792296  1.0
  Ni  Ni2280  1  0.49020917  0.10911133  0.42792296  1.0
  Ni  Ni2281  1  0.49020917  0.44244467  0.42792296  1.0
  Ni  Ni2282  1  0.49020917  0.77577800  0.42792296  1.0
  Ni  Ni2283  1  0.82354250  0.10911133  0.42792296  1.0
  Ni  Ni2284  1  0.82354250  0.44244467  0.42792296  1.0
  Ni  Ni2285  1  0.82354250  0.77577800  0.42792296  1.0
  Ni  Ni2286  1  0.32354250  0.26898683  0.28797632  1.0
  Ni  Ni2287  1  0.32354250  0.60232017  0.28797632  1.0
  Ni  Ni2288  1  0.32354250  0.93565350  0.28797632  1.0
  Ni  Ni2289  1  0.65687583  0.26898683  0.28797632  1.0
  Ni  Ni2290  1  0.65687583  0.60232017  0.28797632  1.0
  Ni  Ni2291  1  0.65687583  0.93565350  0.28797632  1.0
  Ni  Ni2292  1  0.99020917  0.26898683  0.28797632  1.0
  Ni  Ni2293  1  0.99020917  0.60232017  0.28797632  1.0
  Ni  Ni2294  1  0.99020917  0.93565350  0.28797632  1.0
  Ni  Ni2295  1  0.15687583  0.26898683  0.35940489  1.0
  Ni  Ni2296  1  0.15687583  0.60232017  0.35940489  1.0
  Ni  Ni2297  1  0.15687583  0.93565350  0.35940489  1.0
  Ni  Ni2298  1  0.49020917  0.26898683  0.35940489  1.0
  Ni  Ni2299  1  0.49020917  0.60232017  0.35940489  1.0
  Ni  Ni2300  1  0.49020917  0.93565350  0.35940489  1.0
  Ni  Ni2301  1  0.82354250  0.26898683  0.35940489  1.0
  Ni  Ni2302  1  0.82354250  0.60232017  0.35940489  1.0
  Ni  Ni2303  1  0.82354250  0.93565350  0.35940489  1.0
  Ni  Ni2304  1  0.32354250  0.26898683  0.36231539  1.0
  Ni  Ni2305  1  0.32354250  0.60232017  0.36231539  1.0
  Ni  Ni2306  1  0.32354250  0.93565350  0.36231539  1.0
  Ni  Ni2307  1  0.65687583  0.26898683  0.36231539  1.0
  Ni  Ni2308  1  0.65687583  0.60232017  0.36231539  1.0
  Ni  Ni2309  1  0.65687583  0.93565350  0.36231539  1.0
  Ni  Ni2310  1  0.99020917  0.26898683  0.36231539  1.0
  Ni  Ni2311  1  0.99020917  0.60232017  0.36231539  1.0
  Ni  Ni2312  1  0.99020917  0.93565350  0.36231539  1.0
  Ni  Ni2313  1  0.15687583  0.26898683  0.29088682  1.0
  Ni  Ni2314  1  0.15687583  0.60232017  0.29088682  1.0
  Ni  Ni2315  1  0.15687583  0.93565350  0.29088682  1.0
  Ni  Ni2316  1  0.49020917  0.26898683  0.29088682  1.0
  Ni  Ni2317  1  0.49020917  0.60232017  0.29088682  1.0
  Ni  Ni2318  1  0.49020917  0.93565350  0.29088682  1.0
  Ni  Ni2319  1  0.82354250  0.26898683  0.29088682  1.0
  Ni  Ni2320  1  0.82354250  0.60232017  0.29088682  1.0
  Ni  Ni2321  1  0.82354250  0.93565350  0.29088682  1.0
  Ni  Ni2322  1  0.28130667  0.10405333  0.37757025  1.0
  Ni  Ni2323  1  0.28130667  0.43738667  0.37757025  1.0
  Ni  Ni2324  1  0.28130667  0.77072000  0.37757025  1.0
  Ni  Ni2325  1  0.61464000  0.10405333  0.37757025  1.0
  Ni  Ni2326  1  0.61464000  0.43738667  0.37757025  1.0
  Ni  Ni2327  1  0.61464000  0.77072000  0.37757025  1.0
  Ni  Ni2328  1  0.94797333  0.10405333  0.37757025  1.0
  Ni  Ni2329  1  0.94797333  0.43738667  0.37757025  1.0
  Ni  Ni2330  1  0.94797333  0.77072000  0.37757025  1.0
  Ni  Ni2331  1  0.11464000  0.10405333  0.30614168  1.0
  Ni  Ni2332  1  0.11464000  0.43738667  0.30614168  1.0
  Ni  Ni2333  1  0.11464000  0.77072000  0.30614168  1.0
  Ni  Ni2334  1  0.44797333  0.10405333  0.30614168  1.0
  Ni  Ni2335  1  0.44797333  0.43738667  0.30614168  1.0
  Ni  Ni2336  1  0.44797333  0.77072000  0.30614168  1.0
  Ni  Ni2337  1  0.78130667  0.10405333  0.30614168  1.0
  Ni  Ni2338  1  0.78130667  0.43738667  0.30614168  1.0
  Ni  Ni2339  1  0.78130667  0.77072000  0.30614168  1.0
  Ni  Ni2340  1  0.19789833  0.10405333  0.34182382  1.0
  Ni  Ni2341  1  0.19789833  0.43738667  0.34182382  1.0
  Ni  Ni2342  1  0.19789833  0.77072000  0.34182382  1.0
  Ni  Ni2343  1  0.53123167  0.10405333  0.34182382  1.0
  Ni  Ni2344  1  0.53123167  0.43738667  0.34182382  1.0
  Ni  Ni2345  1  0.53123167  0.77072000  0.34182382  1.0
  Ni  Ni2346  1  0.86456500  0.10405333  0.34182382  1.0
  Ni  Ni2347  1  0.86456500  0.43738667  0.34182382  1.0
  Ni  Ni2348  1  0.86456500  0.77072000  0.34182382  1.0
  Ni  Ni2349  1  0.03123167  0.10405333  0.41325239  1.0
  Ni  Ni2350  1  0.03123167  0.43738667  0.41325239  1.0
  Ni  Ni2351  1  0.03123167  0.77072000  0.41325239  1.0
  Ni  Ni2352  1  0.36456500  0.10405333  0.41325239  1.0
  Ni  Ni2353  1  0.36456500  0.43738667  0.41325239  1.0
  Ni  Ni2354  1  0.36456500  0.77072000  0.41325239  1.0
  Ni  Ni2355  1  0.69789833  0.10405333  0.41325239  1.0
  Ni  Ni2356  1  0.69789833  0.43738667  0.41325239  1.0
  Ni  Ni2357  1  0.69789833  0.77072000  0.41325239  1.0
  Ni  Ni2358  1  0.28130667  0.27087000  0.37744168  1.0
  Ni  Ni2359  1  0.28130667  0.60420333  0.37744168  1.0
  Ni  Ni2360  1  0.28130667  0.93753667  0.37744168  1.0
  Ni  Ni2361  1  0.61464000  0.27087000  0.37744168  1.0
  Ni  Ni2362  1  0.61464000  0.60420333  0.37744168  1.0
  Ni  Ni2363  1  0.61464000  0.93753667  0.37744168  1.0
  Ni  Ni2364  1  0.94797333  0.27087000  0.37744168  1.0
  Ni  Ni2365  1  0.94797333  0.60420333  0.37744168  1.0
  Ni  Ni2366  1  0.94797333  0.93753667  0.37744168  1.0
  Ni  Ni2367  1  0.11464000  0.27087000  0.30601311  1.0
  Ni  Ni2368  1  0.11464000  0.60420333  0.30601311  1.0
  Ni  Ni2369  1  0.11464000  0.93753667  0.30601311  1.0
  Ni  Ni2370  1  0.44797333  0.27087000  0.30601311  1.0
  Ni  Ni2371  1  0.44797333  0.60420333  0.30601311  1.0
  Ni  Ni2372  1  0.44797333  0.93753667  0.30601311  1.0
  Ni  Ni2373  1  0.78130667  0.27087000  0.30601311  1.0
  Ni  Ni2374  1  0.78130667  0.60420333  0.30601311  1.0
  Ni  Ni2375  1  0.78130667  0.93753667  0.30601311  1.0
  Ni  Ni2376  1  0.28130667  0.10405333  0.34192168  1.0
  Ni  Ni2377  1  0.28130667  0.43738667  0.34192168  1.0
  Ni  Ni2378  1  0.28130667  0.77072000  0.34192168  1.0
  Ni  Ni2379  1  0.61464000  0.10405333  0.34192168  1.0
  Ni  Ni2380  1  0.61464000  0.43738667  0.34192168  1.0
  Ni  Ni2381  1  0.61464000  0.77072000  0.34192168  1.0
  Ni  Ni2382  1  0.94797333  0.10405333  0.34192168  1.0
  Ni  Ni2383  1  0.94797333  0.43738667  0.34192168  1.0
  Ni  Ni2384  1  0.94797333  0.77072000  0.34192168  1.0
  Ni  Ni2385  1  0.11464000  0.10405333  0.41335025  1.0
  Ni  Ni2386  1  0.11464000  0.43738667  0.41335025  1.0
  Ni  Ni2387  1  0.11464000  0.77072000  0.41335025  1.0
  Ni  Ni2388  1  0.44797333  0.10405333  0.41335025  1.0
  Ni  Ni2389  1  0.44797333  0.43738667  0.41335025  1.0
  Ni  Ni2390  1  0.44797333  0.77072000  0.41335025  1.0
  Ni  Ni2391  1  0.78130667  0.10405333  0.41335025  1.0
  Ni  Ni2392  1  0.78130667  0.43738667  0.41335025  1.0
  Ni  Ni2393  1  0.78130667  0.77072000  0.41335025  1.0
  Ni  Ni2394  1  0.28130667  0.27087000  0.41328596  1.0
  Ni  Ni2395  1  0.28130667  0.60420333  0.41328596  1.0
  Ni  Ni2396  1  0.28130667  0.93753667  0.41328596  1.0
  Ni  Ni2397  1  0.61464000  0.27087000  0.41328596  1.0
  Ni  Ni2398  1  0.61464000  0.60420333  0.41328596  1.0
  Ni  Ni2399  1  0.61464000  0.93753667  0.41328596  1.0
  Ni  Ni2400  1  0.94797333  0.27087000  0.41328596  1.0
  Ni  Ni2401  1  0.94797333  0.60420333  0.41328596  1.0
  Ni  Ni2402  1  0.94797333  0.93753667  0.41328596  1.0
  Ni  Ni2403  1  0.11464000  0.27087000  0.34185739  1.0
  Ni  Ni2404  1  0.11464000  0.60420333  0.34185739  1.0
  Ni  Ni2405  1  0.11464000  0.93753667  0.34185739  1.0
  Ni  Ni2406  1  0.44797333  0.27087000  0.34185739  1.0
  Ni  Ni2407  1  0.44797333  0.60420333  0.34185739  1.0
  Ni  Ni2408  1  0.44797333  0.93753667  0.34185739  1.0
  Ni  Ni2409  1  0.78130667  0.27087000  0.34185739  1.0
  Ni  Ni2410  1  0.78130667  0.60420333  0.34185739  1.0
  Ni  Ni2411  1  0.78130667  0.93753667  0.34185739  1.0
  Ni  Ni2412  1  0.19789833  0.10405333  0.37766811  1.0
  Ni  Ni2413  1  0.19789833  0.43738667  0.37766811  1.0
  Ni  Ni2414  1  0.19789833  0.77072000  0.37766811  1.0
  Ni  Ni2415  1  0.53123167  0.10405333  0.37766811  1.0
  Ni  Ni2416  1  0.53123167  0.43738667  0.37766811  1.0
  Ni  Ni2417  1  0.53123167  0.77072000  0.37766811  1.0
  Ni  Ni2418  1  0.86456500  0.10405333  0.37766811  1.0
  Ni  Ni2419  1  0.86456500  0.43738667  0.37766811  1.0
  Ni  Ni2420  1  0.86456500  0.77072000  0.37766811  1.0
  Ni  Ni2421  1  0.03123167  0.10405333  0.30623954  1.0
  Ni  Ni2422  1  0.03123167  0.43738667  0.30623954  1.0
  Ni  Ni2423  1  0.03123167  0.77072000  0.30623954  1.0
  Ni  Ni2424  1  0.36456500  0.10405333  0.30623954  1.0
  Ni  Ni2425  1  0.36456500  0.43738667  0.30623954  1.0
  Ni  Ni2426  1  0.36456500  0.77072000  0.30623954  1.0
  Ni  Ni2427  1  0.69789833  0.10405333  0.30623954  1.0
  Ni  Ni2428  1  0.69789833  0.43738667  0.30623954  1.0
  Ni  Ni2429  1  0.69789833  0.77072000  0.30623954  1.0
  Ni  Ni2430  1  0.19789833  0.18769000  0.30597954  1.0
  Ni  Ni2431  1  0.19789833  0.52102333  0.30597954  1.0
  Ni  Ni2432  1  0.19789833  0.85435667  0.30597954  1.0
  Ni  Ni2433  1  0.53123167  0.18769000  0.30597954  1.0
  Ni  Ni2434  1  0.53123167  0.52102333  0.30597954  1.0
  Ni  Ni2435  1  0.53123167  0.85435667  0.30597954  1.0
  Ni  Ni2436  1  0.86456500  0.18769000  0.30597954  1.0
  Ni  Ni2437  1  0.86456500  0.52102333  0.30597954  1.0
  Ni  Ni2438  1  0.86456500  0.85435667  0.30597954  1.0
  Ni  Ni2439  1  0.03123167  0.18769000  0.37740811  1.0
  Ni  Ni2440  1  0.03123167  0.52102333  0.37740811  1.0
  Ni  Ni2441  1  0.03123167  0.85435667  0.37740811  1.0
  Ni  Ni2442  1  0.36456500  0.18769000  0.37740811  1.0
  Ni  Ni2443  1  0.36456500  0.52102333  0.37740811  1.0
  Ni  Ni2444  1  0.36456500  0.85435667  0.37740811  1.0
  Ni  Ni2445  1  0.69789833  0.18769000  0.37740811  1.0
  Ni  Ni2446  1  0.69789833  0.52102333  0.37740811  1.0
  Ni  Ni2447  1  0.69789833  0.85435667  0.37740811  1.0
  Ni  Ni2448  1  0.28130667  0.18769000  0.34172596  1.0
  Ni  Ni2449  1  0.28130667  0.52102333  0.34172596  1.0
  Ni  Ni2450  1  0.28130667  0.85435667  0.34172596  1.0
  Ni  Ni2451  1  0.61464000  0.18769000  0.34172596  1.0
  Ni  Ni2452  1  0.61464000  0.52102333  0.34172596  1.0
  Ni  Ni2453  1  0.61464000  0.85435667  0.34172596  1.0
  Ni  Ni2454  1  0.94797333  0.18769000  0.34172596  1.0
  Ni  Ni2455  1  0.94797333  0.52102333  0.34172596  1.0
  Ni  Ni2456  1  0.94797333  0.85435667  0.34172596  1.0
  Ni  Ni2457  1  0.11464000  0.18769000  0.41315454  1.0
  Ni  Ni2458  1  0.11464000  0.52102333  0.41315454  1.0
  Ni  Ni2459  1  0.11464000  0.85435667  0.41315454  1.0
  Ni  Ni2460  1  0.44797333  0.18769000  0.41315454  1.0
  Ni  Ni2461  1  0.44797333  0.52102333  0.41315454  1.0
  Ni  Ni2462  1  0.44797333  0.85435667  0.41315454  1.0
  Ni  Ni2463  1  0.78130667  0.18769000  0.41315454  1.0
  Ni  Ni2464  1  0.78130667  0.52102333  0.41315454  1.0
  Ni  Ni2465  1  0.78130667  0.85435667  0.41315454  1.0
  Ni  Ni2466  1  0.28130667  0.18769000  0.41309025  1.0
  Ni  Ni2467  1  0.28130667  0.52102333  0.41309025  1.0
  Ni  Ni2468  1  0.28130667  0.85435667  0.41309025  1.0
  Ni  Ni2469  1  0.61464000  0.18769000  0.41309025  1.0
  Ni  Ni2470  1  0.61464000  0.52102333  0.41309025  1.0
  Ni  Ni2471  1  0.61464000  0.85435667  0.41309025  1.0
  Ni  Ni2472  1  0.94797333  0.18769000  0.41309025  1.0
  Ni  Ni2473  1  0.94797333  0.52102333  0.41309025  1.0
  Ni  Ni2474  1  0.94797333  0.85435667  0.41309025  1.0
  Ni  Ni2475  1  0.11464000  0.18769000  0.34166168  1.0
  Ni  Ni2476  1  0.11464000  0.52102333  0.34166168  1.0
  Ni  Ni2477  1  0.11464000  0.85435667  0.34166168  1.0
  Ni  Ni2478  1  0.44797333  0.18769000  0.34166168  1.0
  Ni  Ni2479  1  0.44797333  0.52102333  0.34166168  1.0
  Ni  Ni2480  1  0.44797333  0.85435667  0.34166168  1.0
  Ni  Ni2481  1  0.78130667  0.18769000  0.34166168  1.0
  Ni  Ni2482  1  0.78130667  0.52102333  0.34166168  1.0
  Ni  Ni2483  1  0.78130667  0.85435667  0.34166168  1.0
  Ni  Ni2484  1  0.23948833  0.27087000  0.39536382  1.0
  Ni  Ni2485  1  0.23948833  0.60420333  0.39536382  1.0
  Ni  Ni2486  1  0.23948833  0.93753667  0.39536382  1.0
  Ni  Ni2487  1  0.57282167  0.27087000  0.39536382  1.0
  Ni  Ni2488  1  0.57282167  0.60420333  0.39536382  1.0
  Ni  Ni2489  1  0.57282167  0.93753667  0.39536382  1.0
  Ni  Ni2490  1  0.90615500  0.27087000  0.39536382  1.0
  Ni  Ni2491  1  0.90615500  0.60420333  0.39536382  1.0
  Ni  Ni2492  1  0.90615500  0.93753667  0.39536382  1.0
  Ni  Ni2493  1  0.07282167  0.27087000  0.32393525  1.0
  Ni  Ni2494  1  0.07282167  0.60420333  0.32393525  1.0
  Ni  Ni2495  1  0.07282167  0.93753667  0.32393525  1.0
  Ni  Ni2496  1  0.40615500  0.27087000  0.32393525  1.0
  Ni  Ni2497  1  0.40615500  0.60420333  0.32393525  1.0
  Ni  Ni2498  1  0.40615500  0.93753667  0.32393525  1.0
  Ni  Ni2499  1  0.73948833  0.27087000  0.32393525  1.0
  Ni  Ni2500  1  0.73948833  0.60420333  0.32393525  1.0
  Ni  Ni2501  1  0.73948833  0.93753667  0.32393525  1.0
  Ni  Ni2502  1  0.23948833  0.10405333  0.32399954  1.0
  Ni  Ni2503  1  0.23948833  0.43738667  0.32399954  1.0
  Ni  Ni2504  1  0.23948833  0.77072000  0.32399954  1.0
  Ni  Ni2505  1  0.57282167  0.10405333  0.32399954  1.0
  Ni  Ni2506  1  0.57282167  0.43738667  0.32399954  1.0
  Ni  Ni2507  1  0.57282167  0.77072000  0.32399954  1.0
  Ni  Ni2508  1  0.90615500  0.10405333  0.32399954  1.0
  Ni  Ni2509  1  0.90615500  0.43738667  0.32399954  1.0
  Ni  Ni2510  1  0.90615500  0.77072000  0.32399954  1.0
  Ni  Ni2511  1  0.07282167  0.10405333  0.39542811  1.0
  Ni  Ni2512  1  0.07282167  0.43738667  0.39542811  1.0
  Ni  Ni2513  1  0.07282167  0.77072000  0.39542811  1.0
  Ni  Ni2514  1  0.40615500  0.10405333  0.39542811  1.0
  Ni  Ni2515  1  0.40615500  0.43738667  0.39542811  1.0
  Ni  Ni2516  1  0.40615500  0.77072000  0.39542811  1.0
  Ni  Ni2517  1  0.73948833  0.10405333  0.39542811  1.0
  Ni  Ni2518  1  0.73948833  0.43738667  0.39542811  1.0
  Ni  Ni2519  1  0.73948833  0.77072000  0.39542811  1.0
  Ni  Ni2520  1  0.23948833  0.10405333  0.39549239  1.0
  Ni  Ni2521  1  0.23948833  0.43738667  0.39549239  1.0
  Ni  Ni2522  1  0.23948833  0.77072000  0.39549239  1.0
  Ni  Ni2523  1  0.57282167  0.10405333  0.39549239  1.0
  Ni  Ni2524  1  0.57282167  0.43738667  0.39549239  1.0
  Ni  Ni2525  1  0.57282167  0.77072000  0.39549239  1.0
  Ni  Ni2526  1  0.90615500  0.10405333  0.39549239  1.0
  Ni  Ni2527  1  0.90615500  0.43738667  0.39549239  1.0
  Ni  Ni2528  1  0.90615500  0.77072000  0.39549239  1.0
  Ni  Ni2529  1  0.07282167  0.10405333  0.32406382  1.0
  Ni  Ni2530  1  0.07282167  0.43738667  0.32406382  1.0
  Ni  Ni2531  1  0.07282167  0.77072000  0.32406382  1.0
  Ni  Ni2532  1  0.40615500  0.10405333  0.32406382  1.0
  Ni  Ni2533  1  0.40615500  0.43738667  0.32406382  1.0
  Ni  Ni2534  1  0.40615500  0.77072000  0.32406382  1.0
  Ni  Ni2535  1  0.73948833  0.10405333  0.32406382  1.0
  Ni  Ni2536  1  0.73948833  0.43738667  0.32406382  1.0
  Ni  Ni2537  1  0.73948833  0.77072000  0.32406382  1.0
