# generated using pymatgen
data_Y15Ni32
_symmetry_space_group_name_H-M   'P 1'
_cell_length_a   30.51924912
_cell_length_b   43.16073602
_cell_length_c   30.51924912
_cell_angle_alpha   90.00000000
_cell_angle_beta   90.00000000
_cell_angle_gamma   90.00000000
_symmetry_Int_Tables_number   1
_chemical_formula_structural   Y15Ni32
_chemical_formula_sum   'Y270 Ni576'
_cell_volume   40200.96985132
_cell_formula_units_Z   18
loop_
 _symmetry_equiv_pos_site_id
 _symmetry_equiv_pos_as_xyz
  1  'x, y, z'
loop_
 _atom_site_type_symbol
 _atom_site_label
 _atom_site_symmetry_multiplicity
 _atom_site_fract_x
 _atom_site_fract_y
 _atom_site_fract_z
 _atom_site_occupancy
  Ni  Ni0  1  0.33333333  0.22952567  0.89507700  1.0
  Ni  Ni1  1  0.33333333  0.56285900  0.89507700  1.0
  Ni  Ni2  1  0.33333333  0.89619233  0.89507700  1.0
  Ni  Ni3  1  0.66666667  0.22952567  0.89507700  1.0
  Ni  Ni4  1  0.66666667  0.56285900  0.89507700  1.0
  Ni  Ni5  1  0.66666667  0.89619233  0.89507700  1.0
  Ni  Ni6  1  1.00000000  0.22952567  0.89507700  1.0
  Ni  Ni7  1  1.00000000  0.56285900  0.89507700  1.0
  Ni  Ni8  1  0.00000000  0.89619233  0.89507700  1.0
  Ni  Ni9  1  0.16666667  0.06285900  0.72841033  1.0
  Ni  Ni10  1  0.16666667  0.39619233  0.72841033  1.0
  Ni  Ni11  1  0.16666667  0.72952567  0.72841033  1.0
  Ni  Ni12  1  0.50000000  0.06285900  0.72841033  1.0
  Ni  Ni13  1  0.50000000  0.39619233  0.72841033  1.0
  Ni  Ni14  1  0.50000000  0.72952567  0.72841033  1.0
  Ni  Ni15  1  0.83333333  0.06285900  0.72841033  1.0
  Ni  Ni16  1  0.83333333  0.39619233  0.72841033  1.0
  Ni  Ni17  1  0.83333333  0.72952567  0.72841033  1.0
  Ni  Ni18  1  0.33333333  0.22952567  0.81317967  1.0
  Ni  Ni19  1  0.33333333  0.56285900  0.81317967  1.0
  Ni  Ni20  1  0.33333333  0.89619233  0.81317967  1.0
  Ni  Ni21  1  0.66666667  0.22952567  0.81317967  1.0
  Ni  Ni22  1  0.66666667  0.56285900  0.81317967  1.0
  Ni  Ni23  1  0.66666667  0.89619233  0.81317967  1.0
  Ni  Ni24  1  1.00000000  0.22952567  0.81317967  1.0
  Ni  Ni25  1  1.00000000  0.56285900  0.81317967  1.0
  Ni  Ni26  1  0.00000000  0.89619233  0.81317967  1.0
  Ni  Ni27  1  0.16666667  0.06285900  0.97984633  1.0
  Ni  Ni28  1  0.16666667  0.39619233  0.97984633  1.0
  Ni  Ni29  1  0.16666667  0.72952567  0.97984633  1.0
  Ni  Ni30  1  0.50000000  0.06285900  0.97984633  1.0
  Ni  Ni31  1  0.50000000  0.39619233  0.97984633  1.0
  Ni  Ni32  1  0.50000000  0.72952567  0.97984633  1.0
  Ni  Ni33  1  0.83333333  0.06285900  0.97984633  1.0
  Ni  Ni34  1  0.83333333  0.39619233  0.97984633  1.0
  Ni  Ni35  1  0.83333333  0.72952567  0.97984633  1.0
  Ni  Ni36  1  0.04094867  0.27047433  0.85412833  1.0
  Ni  Ni37  1  0.04094867  0.60380767  0.85412833  1.0
  Ni  Ni38  1  0.04094867  0.93714100  0.85412833  1.0
  Ni  Ni39  1  0.37428200  0.27047433  0.85412833  1.0
  Ni  Ni40  1  0.37428200  0.60380767  0.85412833  1.0
  Ni  Ni41  1  0.37428200  0.93714100  0.85412833  1.0
  Ni  Ni42  1  0.70761533  0.27047433  0.85412833  1.0
  Ni  Ni43  1  0.70761533  0.60380767  0.85412833  1.0
  Ni  Ni44  1  0.70761533  0.93714100  0.85412833  1.0
  Ni  Ni45  1  0.20761533  0.10380767  0.68746167  1.0
  Ni  Ni46  1  0.20761533  0.43714100  0.68746167  1.0
  Ni  Ni47  1  0.20761533  0.77047433  0.68746167  1.0
  Ni  Ni48  1  0.54094867  0.10380767  0.68746167  1.0
  Ni  Ni49  1  0.54094867  0.43714100  0.68746167  1.0
  Ni  Ni50  1  0.54094867  0.77047433  0.68746167  1.0
  Ni  Ni51  1  0.87428200  0.10380767  0.68746167  1.0
  Ni  Ni52  1  0.87428200  0.43714100  0.68746167  1.0
  Ni  Ni53  1  0.87428200  0.77047433  0.68746167  1.0
  Ni  Ni54  1  0.29238467  0.27047433  0.85412833  1.0
  Ni  Ni55  1  0.29238467  0.60380767  0.85412833  1.0
  Ni  Ni56  1  0.29238467  0.93714100  0.85412833  1.0
  Ni  Ni57  1  0.62571800  0.27047433  0.85412833  1.0
  Ni  Ni58  1  0.62571800  0.60380767  0.85412833  1.0
  Ni  Ni59  1  0.62571800  0.93714100  0.85412833  1.0
  Ni  Ni60  1  0.95905133  0.27047433  0.85412833  1.0
  Ni  Ni61  1  0.95905133  0.60380767  0.85412833  1.0
  Ni  Ni62  1  0.95905133  0.93714100  0.85412833  1.0
  Ni  Ni63  1  0.12571800  0.10380767  0.68746167  1.0
  Ni  Ni64  1  0.12571800  0.43714100  0.68746167  1.0
  Ni  Ni65  1  0.12571800  0.77047433  0.68746167  1.0
  Ni  Ni66  1  0.45905133  0.10380767  0.68746167  1.0
  Ni  Ni67  1  0.45905133  0.43714100  0.68746167  1.0
  Ni  Ni68  1  0.45905133  0.77047433  0.68746167  1.0
  Ni  Ni69  1  0.79238467  0.10380767  0.68746167  1.0
  Ni  Ni70  1  0.79238467  0.43714100  0.68746167  1.0
  Ni  Ni71  1  0.79238467  0.77047433  0.68746167  1.0
  Ni  Ni72  1  0.33333333  0.06286467  0.89506567  1.0
  Ni  Ni73  1  0.33333333  0.39619800  0.89506567  1.0
  Ni  Ni74  1  0.33333333  0.72953133  0.89506567  1.0
  Ni  Ni75  1  0.66666667  0.06286467  0.89506567  1.0
  Ni  Ni76  1  0.66666667  0.39619800  0.89506567  1.0
  Ni  Ni77  1  0.66666667  0.72953133  0.89506567  1.0
  Ni  Ni78  1  1.00000000  0.06286467  0.89506567  1.0
  Ni  Ni79  1  1.00000000  0.39619800  0.89506567  1.0
  Ni  Ni80  1  0.00000000  0.72953133  0.89506567  1.0
  Ni  Ni81  1  0.16666667  0.22953133  0.72839900  1.0
  Ni  Ni82  1  0.16666667  0.56286467  0.72839900  1.0
  Ni  Ni83  1  0.16666667  0.89619800  0.72839900  1.0
  Ni  Ni84  1  0.50000000  0.22953133  0.72839900  1.0
  Ni  Ni85  1  0.50000000  0.56286467  0.72839900  1.0
  Ni  Ni86  1  0.50000000  0.89619800  0.72839900  1.0
  Ni  Ni87  1  0.83333333  0.22953133  0.72839900  1.0
  Ni  Ni88  1  0.83333333  0.56286467  0.72839900  1.0
  Ni  Ni89  1  0.83333333  0.89619800  0.72839900  1.0
  Ni  Ni90  1  0.33333333  0.06286467  0.81319100  1.0
  Ni  Ni91  1  0.33333333  0.39619800  0.81319100  1.0
  Ni  Ni92  1  0.33333333  0.72953133  0.81319100  1.0
  Ni  Ni93  1  0.66666667  0.06286467  0.81319100  1.0
  Ni  Ni94  1  0.66666667  0.39619800  0.81319100  1.0
  Ni  Ni95  1  0.66666667  0.72953133  0.81319100  1.0
  Ni  Ni96  1  1.00000000  0.06286467  0.81319100  1.0
  Ni  Ni97  1  1.00000000  0.39619800  0.81319100  1.0
  Ni  Ni98  1  0.00000000  0.72953133  0.81319100  1.0
  Ni  Ni99  1  0.16666667  0.22953133  0.97985767  1.0
  Ni  Ni100  1  0.16666667  0.56286467  0.97985767  1.0
  Ni  Ni101  1  0.16666667  0.89619800  0.97985767  1.0
  Ni  Ni102  1  0.50000000  0.22953133  0.97985767  1.0
  Ni  Ni103  1  0.50000000  0.56286467  0.97985767  1.0
  Ni  Ni104  1  0.50000000  0.89619800  0.97985767  1.0
  Ni  Ni105  1  0.83333333  0.22953133  0.97985767  1.0
  Ni  Ni106  1  0.83333333  0.56286467  0.97985767  1.0
  Ni  Ni107  1  0.83333333  0.89619800  0.97985767  1.0
  Ni  Ni108  1  0.04093733  0.10380200  0.85412833  1.0
  Ni  Ni109  1  0.04093733  0.43713533  0.85412833  1.0
  Ni  Ni110  1  0.04093733  0.77046867  0.85412833  1.0
  Ni  Ni111  1  0.37427067  0.10380200  0.85412833  1.0
  Ni  Ni112  1  0.37427067  0.43713533  0.85412833  1.0
  Ni  Ni113  1  0.37427067  0.77046867  0.85412833  1.0
  Ni  Ni114  1  0.70760400  0.10380200  0.85412833  1.0
  Ni  Ni115  1  0.70760400  0.43713533  0.85412833  1.0
  Ni  Ni116  1  0.70760400  0.77046867  0.85412833  1.0
  Ni  Ni117  1  0.20760400  0.27046867  0.68746167  1.0
  Ni  Ni118  1  0.20760400  0.60380200  0.68746167  1.0
  Ni  Ni119  1  0.20760400  0.93713533  0.68746167  1.0
  Ni  Ni120  1  0.54093733  0.27046867  0.68746167  1.0
  Ni  Ni121  1  0.54093733  0.60380200  0.68746167  1.0
  Ni  Ni122  1  0.54093733  0.93713533  0.68746167  1.0
  Ni  Ni123  1  0.87427067  0.27046867  0.68746167  1.0
  Ni  Ni124  1  0.87427067  0.60380200  0.68746167  1.0
  Ni  Ni125  1  0.87427067  0.93713533  0.68746167  1.0
  Ni  Ni126  1  0.29239600  0.10380200  0.85412833  1.0
  Ni  Ni127  1  0.29239600  0.43713533  0.85412833  1.0
  Ni  Ni128  1  0.29239600  0.77046867  0.85412833  1.0
  Ni  Ni129  1  0.62572933  0.10380200  0.85412833  1.0
  Ni  Ni130  1  0.62572933  0.43713533  0.85412833  1.0
  Ni  Ni131  1  0.62572933  0.77046867  0.85412833  1.0
  Ni  Ni132  1  0.95906267  0.10380200  0.85412833  1.0
  Ni  Ni133  1  0.95906267  0.43713533  0.85412833  1.0
  Ni  Ni134  1  0.95906267  0.77046867  0.85412833  1.0
  Ni  Ni135  1  0.12572933  0.27046867  0.68746167  1.0
  Ni  Ni136  1  0.12572933  0.60380200  0.68746167  1.0
  Ni  Ni137  1  0.12572933  0.93713533  0.68746167  1.0
  Ni  Ni138  1  0.45906267  0.27046867  0.68746167  1.0
  Ni  Ni139  1  0.45906267  0.60380200  0.68746167  1.0
  Ni  Ni140  1  0.45906267  0.93713533  0.68746167  1.0
  Ni  Ni141  1  0.79239600  0.27046867  0.68746167  1.0
  Ni  Ni142  1  0.79239600  0.60380200  0.68746167  1.0
  Ni  Ni143  1  0.79239600  0.93713533  0.68746167  1.0
  Ni  Ni144  1  0.33333333  0.06434650  0.73222650  1.0
  Ni  Ni145  1  0.33333333  0.39767983  0.73222650  1.0
  Ni  Ni146  1  0.33333333  0.73101317  0.73222650  1.0
  Ni  Ni147  1  0.66666667  0.06434650  0.73222650  1.0
  Ni  Ni148  1  0.66666667  0.39767983  0.73222650  1.0
  Ni  Ni149  1  0.66666667  0.73101317  0.73222650  1.0
  Ni  Ni150  1  1.00000000  0.06434650  0.73222650  1.0
  Ni  Ni151  1  1.00000000  0.39767983  0.73222650  1.0
  Ni  Ni152  1  1.00000000  0.73101317  0.73222650  1.0
  Ni  Ni153  1  0.16666667  0.23101317  0.89889317  1.0
  Ni  Ni154  1  0.16666667  0.56434650  0.89889317  1.0
  Ni  Ni155  1  0.16666667  0.89767983  0.89889317  1.0
  Ni  Ni156  1  0.50000000  0.23101317  0.89889317  1.0
  Ni  Ni157  1  0.50000000  0.56434650  0.89889317  1.0
  Ni  Ni158  1  0.50000000  0.89767983  0.89889317  1.0
  Ni  Ni159  1  0.83333333  0.23101317  0.89889317  1.0
  Ni  Ni160  1  0.83333333  0.56434650  0.89889317  1.0
  Ni  Ni161  1  0.83333333  0.89767983  0.89889317  1.0
  Ni  Ni162  1  0.25339558  0.14428425  0.81216425  1.0
  Ni  Ni163  1  0.25339558  0.47761758  0.81216425  1.0
  Ni  Ni164  1  0.25339558  0.81095092  0.81216425  1.0
  Ni  Ni165  1  0.58672892  0.14428425  0.81216425  1.0
  Ni  Ni166  1  0.58672892  0.47761758  0.81216425  1.0
  Ni  Ni167  1  0.58672892  0.81095092  0.81216425  1.0
  Ni  Ni168  1  0.92006225  0.14428425  0.81216425  1.0
  Ni  Ni169  1  0.92006225  0.47761758  0.81216425  1.0
  Ni  Ni170  1  0.92006225  0.81095092  0.81216425  1.0
  Ni  Ni171  1  0.08672892  0.31095092  0.97883092  1.0
  Ni  Ni172  1  0.08672892  0.64428425  0.97883092  1.0
  Ni  Ni173  1  0.08672892  0.97761758  0.97883092  1.0
  Ni  Ni174  1  0.42006225  0.31095092  0.97883092  1.0
  Ni  Ni175  1  0.42006225  0.64428425  0.97883092  1.0
  Ni  Ni176  1  0.42006225  0.97761758  0.97883092  1.0
  Ni  Ni177  1  0.75339558  0.31095092  0.97883092  1.0
  Ni  Ni178  1  0.75339558  0.64428425  0.97883092  1.0
  Ni  Ni179  1  0.75339558  0.97761758  0.97883092  1.0
  Ni  Ni180  1  0.07993775  0.14428425  0.81216425  1.0
  Ni  Ni181  1  0.07993775  0.47761758  0.81216425  1.0
  Ni  Ni182  1  0.07993775  0.81095092  0.81216425  1.0
  Ni  Ni183  1  0.41327108  0.14428425  0.81216425  1.0
  Ni  Ni184  1  0.41327108  0.47761758  0.81216425  1.0
  Ni  Ni185  1  0.41327108  0.81095092  0.81216425  1.0
  Ni  Ni186  1  0.74660442  0.14428425  0.81216425  1.0
  Ni  Ni187  1  0.74660442  0.47761758  0.81216425  1.0
  Ni  Ni188  1  0.74660442  0.81095092  0.81216425  1.0
  Ni  Ni189  1  0.24660442  0.31095092  0.97883092  1.0
  Ni  Ni190  1  0.24660442  0.64428425  0.97883092  1.0
  Ni  Ni191  1  0.24660442  0.97761758  0.97883092  1.0
  Ni  Ni192  1  0.57993775  0.31095092  0.97883092  1.0
  Ni  Ni193  1  0.57993775  0.64428425  0.97883092  1.0
  Ni  Ni194  1  0.57993775  0.97761758  0.97883092  1.0
  Ni  Ni195  1  0.91327108  0.31095092  0.97883092  1.0
  Ni  Ni196  1  0.91327108  0.64428425  0.97883092  1.0
  Ni  Ni197  1  0.91327108  0.97761758  0.97883092  1.0
  Ni  Ni198  1  0.00000000  0.06434650  0.97603017  1.0
  Ni  Ni199  1  0.00000000  0.39767983  0.97603017  1.0
  Ni  Ni200  1  0.00000000  0.73101317  0.97603017  1.0
  Ni  Ni201  1  0.33333333  0.06434650  0.97603017  1.0
  Ni  Ni202  1  0.33333333  0.39767983  0.97603017  1.0
  Ni  Ni203  1  0.33333333  0.73101317  0.97603017  1.0
  Ni  Ni204  1  0.66666667  0.06434650  0.97603017  1.0
  Ni  Ni205  1  0.66666667  0.39767983  0.97603017  1.0
  Ni  Ni206  1  0.66666667  0.73101317  0.97603017  1.0
  Ni  Ni207  1  0.16666667  0.23101317  0.80936350  1.0
  Ni  Ni208  1  0.16666667  0.56434650  0.80936350  1.0
  Ni  Ni209  1  0.16666667  0.89767983  0.80936350  1.0
  Ni  Ni210  1  0.50000000  0.23101317  0.80936350  1.0
  Ni  Ni211  1  0.50000000  0.56434650  0.80936350  1.0
  Ni  Ni212  1  0.50000000  0.89767983  0.80936350  1.0
  Ni  Ni213  1  0.83333333  0.23101317  0.80936350  1.0
  Ni  Ni214  1  0.83333333  0.56434650  0.80936350  1.0
  Ni  Ni215  1  0.83333333  0.89767983  0.80936350  1.0
  Ni  Ni216  1  0.07993775  0.14428425  0.89609242  1.0
  Ni  Ni217  1  0.07993775  0.47761758  0.89609242  1.0
  Ni  Ni218  1  0.07993775  0.81095092  0.89609242  1.0
  Ni  Ni219  1  0.41327108  0.14428425  0.89609242  1.0
  Ni  Ni220  1  0.41327108  0.47761758  0.89609242  1.0
  Ni  Ni221  1  0.41327108  0.81095092  0.89609242  1.0
  Ni  Ni222  1  0.74660442  0.14428425  0.89609242  1.0
  Ni  Ni223  1  0.74660442  0.47761758  0.89609242  1.0
  Ni  Ni224  1  0.74660442  0.81095092  0.89609242  1.0
  Ni  Ni225  1  0.24660442  0.31095092  0.72942575  1.0
  Ni  Ni226  1  0.24660442  0.64428425  0.72942575  1.0
  Ni  Ni227  1  0.24660442  0.97761758  0.72942575  1.0
  Ni  Ni228  1  0.57993775  0.31095092  0.72942575  1.0
  Ni  Ni229  1  0.57993775  0.64428425  0.72942575  1.0
  Ni  Ni230  1  0.57993775  0.97761758  0.72942575  1.0
  Ni  Ni231  1  0.91327108  0.31095092  0.72942575  1.0
  Ni  Ni232  1  0.91327108  0.64428425  0.72942575  1.0
  Ni  Ni233  1  0.91327108  0.97761758  0.72942575  1.0
  Ni  Ni234  1  0.25339558  0.14428425  0.89609242  1.0
  Ni  Ni235  1  0.25339558  0.47761758  0.89609242  1.0
  Ni  Ni236  1  0.25339558  0.81095092  0.89609242  1.0
  Ni  Ni237  1  0.58672892  0.14428425  0.89609242  1.0
  Ni  Ni238  1  0.58672892  0.47761758  0.89609242  1.0
  Ni  Ni239  1  0.58672892  0.81095092  0.89609242  1.0
  Ni  Ni240  1  0.92006225  0.14428425  0.89609242  1.0
  Ni  Ni241  1  0.92006225  0.47761758  0.89609242  1.0
  Ni  Ni242  1  0.92006225  0.81095092  0.89609242  1.0
  Ni  Ni243  1  0.08672892  0.31095092  0.72942575  1.0
  Ni  Ni244  1  0.08672892  0.64428425  0.72942575  1.0
  Ni  Ni245  1  0.08672892  0.97761758  0.72942575  1.0
  Ni  Ni246  1  0.42006225  0.31095092  0.72942575  1.0
  Ni  Ni247  1  0.42006225  0.64428425  0.72942575  1.0
  Ni  Ni248  1  0.42006225  0.97761758  0.72942575  1.0
  Ni  Ni249  1  0.75339558  0.31095092  0.72942575  1.0
  Ni  Ni250  1  0.75339558  0.64428425  0.72942575  1.0
  Ni  Ni251  1  0.75339558  0.97761758  0.72942575  1.0
  Ni  Ni252  1  0.04476483  0.26898683  0.68746167  1.0
  Ni  Ni253  1  0.04476483  0.60232017  0.68746167  1.0
  Ni  Ni254  1  0.04476483  0.93565350  0.68746167  1.0
  Ni  Ni255  1  0.37809817  0.26898683  0.68746167  1.0
  Ni  Ni256  1  0.37809817  0.60232017  0.68746167  1.0
  Ni  Ni257  1  0.37809817  0.93565350  0.68746167  1.0
  Ni  Ni258  1  0.71143150  0.26898683  0.68746167  1.0
  Ni  Ni259  1  0.71143150  0.60232017  0.68746167  1.0
  Ni  Ni260  1  0.71143150  0.93565350  0.68746167  1.0
  Ni  Ni261  1  0.21143150  0.10232017  0.85412833  1.0
  Ni  Ni262  1  0.21143150  0.43565350  0.85412833  1.0
  Ni  Ni263  1  0.21143150  0.76898683  0.85412833  1.0
  Ni  Ni264  1  0.54476483  0.10232017  0.85412833  1.0
  Ni  Ni265  1  0.54476483  0.43565350  0.85412833  1.0
  Ni  Ni266  1  0.54476483  0.76898683  0.85412833  1.0
  Ni  Ni267  1  0.87809817  0.10232017  0.85412833  1.0
  Ni  Ni268  1  0.87809817  0.43565350  0.85412833  1.0
  Ni  Ni269  1  0.87809817  0.76898683  0.85412833  1.0
  Ni  Ni270  1  0.12470258  0.18904908  0.94085725  1.0
  Ni  Ni271  1  0.12470258  0.52238242  0.94085725  1.0
  Ni  Ni272  1  0.12470258  0.85571575  0.94085725  1.0
  Ni  Ni273  1  0.45803592  0.18904908  0.94085725  1.0
  Ni  Ni274  1  0.45803592  0.52238242  0.94085725  1.0
  Ni  Ni275  1  0.45803592  0.85571575  0.94085725  1.0
  Ni  Ni276  1  0.79136925  0.18904908  0.94085725  1.0
  Ni  Ni277  1  0.79136925  0.52238242  0.94085725  1.0
  Ni  Ni278  1  0.79136925  0.85571575  0.94085725  1.0
  Ni  Ni279  1  0.29136925  0.02238242  0.77419058  1.0
  Ni  Ni280  1  0.29136925  0.35571575  0.77419058  1.0
  Ni  Ni281  1  0.29136925  0.68904908  0.77419058  1.0
  Ni  Ni282  1  0.62470258  0.02238242  0.77419058  1.0
  Ni  Ni283  1  0.62470258  0.35571575  0.77419058  1.0
  Ni  Ni284  1  0.62470258  0.68904908  0.77419058  1.0
  Ni  Ni285  1  0.95803592  0.02238242  0.77419058  1.0
  Ni  Ni286  1  0.95803592  0.35571575  0.77419058  1.0
  Ni  Ni287  1  0.95803592  0.68904908  0.77419058  1.0
  Ni  Ni288  1  0.12470258  0.18904908  0.76739942  1.0
  Ni  Ni289  1  0.12470258  0.52238242  0.76739942  1.0
  Ni  Ni290  1  0.12470258  0.85571575  0.76739942  1.0
  Ni  Ni291  1  0.45803592  0.18904908  0.76739942  1.0
  Ni  Ni292  1  0.45803592  0.52238242  0.76739942  1.0
  Ni  Ni293  1  0.45803592  0.85571575  0.76739942  1.0
  Ni  Ni294  1  0.79136925  0.18904908  0.76739942  1.0
  Ni  Ni295  1  0.79136925  0.52238242  0.76739942  1.0
  Ni  Ni296  1  0.79136925  0.85571575  0.76739942  1.0
  Ni  Ni297  1  0.29136925  0.02238242  0.93406608  1.0
  Ni  Ni298  1  0.29136925  0.35571575  0.93406608  1.0
  Ni  Ni299  1  0.29136925  0.68904908  0.93406608  1.0
  Ni  Ni300  1  0.62470258  0.02238242  0.93406608  1.0
  Ni  Ni301  1  0.62470258  0.35571575  0.93406608  1.0
  Ni  Ni302  1  0.62470258  0.68904908  0.93406608  1.0
  Ni  Ni303  1  0.95803592  0.02238242  0.93406608  1.0
  Ni  Ni304  1  0.95803592  0.35571575  0.93406608  1.0
  Ni  Ni305  1  0.95803592  0.68904908  0.93406608  1.0
  Ni  Ni306  1  0.28856850  0.26898683  0.68746167  1.0
  Ni  Ni307  1  0.28856850  0.60232017  0.68746167  1.0
  Ni  Ni308  1  0.28856850  0.93565350  0.68746167  1.0
  Ni  Ni309  1  0.62190183  0.26898683  0.68746167  1.0
  Ni  Ni310  1  0.62190183  0.60232017  0.68746167  1.0
  Ni  Ni311  1  0.62190183  0.93565350  0.68746167  1.0
  Ni  Ni312  1  0.95523517  0.26898683  0.68746167  1.0
  Ni  Ni313  1  0.95523517  0.60232017  0.68746167  1.0
  Ni  Ni314  1  0.95523517  0.93565350  0.68746167  1.0
  Ni  Ni315  1  0.12190183  0.10232017  0.85412833  1.0
  Ni  Ni316  1  0.12190183  0.43565350  0.85412833  1.0
  Ni  Ni317  1  0.12190183  0.76898683  0.85412833  1.0
  Ni  Ni318  1  0.45523517  0.10232017  0.85412833  1.0
  Ni  Ni319  1  0.45523517  0.43565350  0.85412833  1.0
  Ni  Ni320  1  0.45523517  0.76898683  0.85412833  1.0
  Ni  Ni321  1  0.78856850  0.10232017  0.85412833  1.0
  Ni  Ni322  1  0.78856850  0.43565350  0.85412833  1.0
  Ni  Ni323  1  0.78856850  0.76898683  0.85412833  1.0
  Ni  Ni324  1  0.20863075  0.18904908  0.76739942  1.0
  Ni  Ni325  1  0.20863075  0.52238242  0.76739942  1.0
  Ni  Ni326  1  0.20863075  0.85571575  0.76739942  1.0
  Ni  Ni327  1  0.54196408  0.18904908  0.76739942  1.0
  Ni  Ni328  1  0.54196408  0.52238242  0.76739942  1.0
  Ni  Ni329  1  0.54196408  0.85571575  0.76739942  1.0
  Ni  Ni330  1  0.87529742  0.18904908  0.76739942  1.0
  Ni  Ni331  1  0.87529742  0.52238242  0.76739942  1.0
  Ni  Ni332  1  0.87529742  0.85571575  0.76739942  1.0
  Ni  Ni333  1  0.04196408  0.02238242  0.93406608  1.0
  Ni  Ni334  1  0.04196408  0.35571575  0.93406608  1.0
  Ni  Ni335  1  0.04196408  0.68904908  0.93406608  1.0
  Ni  Ni336  1  0.37529742  0.02238242  0.93406608  1.0
  Ni  Ni337  1  0.37529742  0.35571575  0.93406608  1.0
  Ni  Ni338  1  0.37529742  0.68904908  0.93406608  1.0
  Ni  Ni339  1  0.70863075  0.02238242  0.93406608  1.0
  Ni  Ni340  1  0.70863075  0.35571575  0.93406608  1.0
  Ni  Ni341  1  0.70863075  0.68904908  0.93406608  1.0
  Ni  Ni342  1  0.20863075  0.18904908  0.94085725  1.0
  Ni  Ni343  1  0.20863075  0.52238242  0.94085725  1.0
  Ni  Ni344  1  0.20863075  0.85571575  0.94085725  1.0
  Ni  Ni345  1  0.54196408  0.18904908  0.94085725  1.0
  Ni  Ni346  1  0.54196408  0.52238242  0.94085725  1.0
  Ni  Ni347  1  0.54196408  0.85571575  0.94085725  1.0
  Ni  Ni348  1  0.87529742  0.18904908  0.94085725  1.0
  Ni  Ni349  1  0.87529742  0.52238242  0.94085725  1.0
  Ni  Ni350  1  0.87529742  0.85571575  0.94085725  1.0
  Ni  Ni351  1  0.04196408  0.02238242  0.77419058  1.0
  Ni  Ni352  1  0.04196408  0.35571575  0.77419058  1.0
  Ni  Ni353  1  0.04196408  0.68904908  0.77419058  1.0
  Ni  Ni354  1  0.37529742  0.02238242  0.77419058  1.0
  Ni  Ni355  1  0.37529742  0.35571575  0.77419058  1.0
  Ni  Ni356  1  0.37529742  0.68904908  0.77419058  1.0
  Ni  Ni357  1  0.70863075  0.02238242  0.77419058  1.0
  Ni  Ni358  1  0.70863075  0.35571575  0.77419058  1.0
  Ni  Ni359  1  0.70863075  0.68904908  0.77419058  1.0
  Ni  Ni360  1  0.33333333  0.22928000  0.72905167  1.0
  Ni  Ni361  1  0.33333333  0.56261333  0.72905167  1.0
  Ni  Ni362  1  0.33333333  0.89594667  0.72905167  1.0
  Ni  Ni363  1  0.66666667  0.22928000  0.72905167  1.0
  Ni  Ni364  1  0.66666667  0.56261333  0.72905167  1.0
  Ni  Ni365  1  0.66666667  0.89594667  0.72905167  1.0
  Ni  Ni366  1  1.00000000  0.22928000  0.72905167  1.0
  Ni  Ni367  1  1.00000000  0.56261333  0.72905167  1.0
  Ni  Ni368  1  1.00000000  0.89594667  0.72905167  1.0
  Ni  Ni369  1  0.16666667  0.06261333  0.89571833  1.0
  Ni  Ni370  1  0.16666667  0.39594667  0.89571833  1.0
  Ni  Ni371  1  0.16666667  0.72928000  0.89571833  1.0
  Ni  Ni372  1  0.50000000  0.06261333  0.89571833  1.0
  Ni  Ni373  1  0.50000000  0.39594667  0.89571833  1.0
  Ni  Ni374  1  0.50000000  0.72928000  0.89571833  1.0
  Ni  Ni375  1  0.83333333  0.06261333  0.89571833  1.0
  Ni  Ni376  1  0.83333333  0.39594667  0.89571833  1.0
  Ni  Ni377  1  0.83333333  0.72928000  0.89571833  1.0
  Ni  Ni378  1  0.08340833  0.14587167  0.97897667  1.0
  Ni  Ni379  1  0.08340833  0.47920500  0.97897667  1.0
  Ni  Ni380  1  0.08340833  0.81253833  0.97897667  1.0
  Ni  Ni381  1  0.41674167  0.14587167  0.97897667  1.0
  Ni  Ni382  1  0.41674167  0.47920500  0.97897667  1.0
  Ni  Ni383  1  0.41674167  0.81253833  0.97897667  1.0
  Ni  Ni384  1  0.75007500  0.14587167  0.97897667  1.0
  Ni  Ni385  1  0.75007500  0.47920500  0.97897667  1.0
  Ni  Ni386  1  0.75007500  0.81253833  0.97897667  1.0
  Ni  Ni387  1  0.25007500  0.31253833  0.81231000  1.0
  Ni  Ni388  1  0.25007500  0.64587167  0.81231000  1.0
  Ni  Ni389  1  0.25007500  0.97920500  0.81231000  1.0
  Ni  Ni390  1  0.58340833  0.31253833  0.81231000  1.0
  Ni  Ni391  1  0.58340833  0.64587167  0.81231000  1.0
  Ni  Ni392  1  0.58340833  0.97920500  0.81231000  1.0
  Ni  Ni393  1  0.91674167  0.31253833  0.81231000  1.0
  Ni  Ni394  1  0.91674167  0.64587167  0.81231000  1.0
  Ni  Ni395  1  0.91674167  0.97920500  0.81231000  1.0
  Ni  Ni396  1  0.24992500  0.14587167  0.97897667  1.0
  Ni  Ni397  1  0.24992500  0.47920500  0.97897667  1.0
  Ni  Ni398  1  0.24992500  0.81253833  0.97897667  1.0
  Ni  Ni399  1  0.58325833  0.14587167  0.97897667  1.0
  Ni  Ni400  1  0.58325833  0.47920500  0.97897667  1.0
  Ni  Ni401  1  0.58325833  0.81253833  0.97897667  1.0
  Ni  Ni402  1  0.91659167  0.14587167  0.97897667  1.0
  Ni  Ni403  1  0.91659167  0.47920500  0.97897667  1.0
  Ni  Ni404  1  0.91659167  0.81253833  0.97897667  1.0
  Ni  Ni405  1  0.08325833  0.31253833  0.81231000  1.0
  Ni  Ni406  1  0.08325833  0.64587167  0.81231000  1.0
  Ni  Ni407  1  0.08325833  0.97920500  0.81231000  1.0
  Ni  Ni408  1  0.41659167  0.31253833  0.81231000  1.0
  Ni  Ni409  1  0.41659167  0.64587167  0.81231000  1.0
  Ni  Ni410  1  0.41659167  0.97920500  0.81231000  1.0
  Ni  Ni411  1  0.74992500  0.31253833  0.81231000  1.0
  Ni  Ni412  1  0.74992500  0.64587167  0.81231000  1.0
  Ni  Ni413  1  0.74992500  0.97920500  0.81231000  1.0
  Ni  Ni414  1  0.33333333  0.22928000  0.97920500  1.0
  Ni  Ni415  1  0.33333333  0.56261333  0.97920500  1.0
  Ni  Ni416  1  0.33333333  0.89594667  0.97920500  1.0
  Ni  Ni417  1  0.66666667  0.22928000  0.97920500  1.0
  Ni  Ni418  1  0.66666667  0.56261333  0.97920500  1.0
  Ni  Ni419  1  0.66666667  0.89594667  0.97920500  1.0
  Ni  Ni420  1  1.00000000  0.22928000  0.97920500  1.0
  Ni  Ni421  1  1.00000000  0.56261333  0.97920500  1.0
  Ni  Ni422  1  0.00000000  0.89594667  0.97920500  1.0
  Ni  Ni423  1  0.16666667  0.06261333  0.81253833  1.0
  Ni  Ni424  1  0.16666667  0.39594667  0.81253833  1.0
  Ni  Ni425  1  0.16666667  0.72928000  0.81253833  1.0
  Ni  Ni426  1  0.50000000  0.06261333  0.81253833  1.0
  Ni  Ni427  1  0.50000000  0.39594667  0.81253833  1.0
  Ni  Ni428  1  0.50000000  0.72928000  0.81253833  1.0
  Ni  Ni429  1  0.83333333  0.06261333  0.81253833  1.0
  Ni  Ni430  1  0.83333333  0.39594667  0.81253833  1.0
  Ni  Ni431  1  0.83333333  0.72928000  0.81253833  1.0
  Ni  Ni432  1  0.24992500  0.14587167  0.72928000  1.0
  Ni  Ni433  1  0.24992500  0.47920500  0.72928000  1.0
  Ni  Ni434  1  0.24992500  0.81253833  0.72928000  1.0
  Ni  Ni435  1  0.58325833  0.14587167  0.72928000  1.0
  Ni  Ni436  1  0.58325833  0.47920500  0.72928000  1.0
  Ni  Ni437  1  0.58325833  0.81253833  0.72928000  1.0
  Ni  Ni438  1  0.91659167  0.14587167  0.72928000  1.0
  Ni  Ni439  1  0.91659167  0.47920500  0.72928000  1.0
  Ni  Ni440  1  0.91659167  0.81253833  0.72928000  1.0
  Ni  Ni441  1  0.08325833  0.31253833  0.89594667  1.0
  Ni  Ni442  1  0.08325833  0.64587167  0.89594667  1.0
  Ni  Ni443  1  0.08325833  0.97920500  0.89594667  1.0
  Ni  Ni444  1  0.41659167  0.31253833  0.89594667  1.0
  Ni  Ni445  1  0.41659167  0.64587167  0.89594667  1.0
  Ni  Ni446  1  0.41659167  0.97920500  0.89594667  1.0
  Ni  Ni447  1  0.74992500  0.31253833  0.89594667  1.0
  Ni  Ni448  1  0.74992500  0.64587167  0.89594667  1.0
  Ni  Ni449  1  0.74992500  0.97920500  0.89594667  1.0
  Ni  Ni450  1  0.08340833  0.14587167  0.72928000  1.0
  Ni  Ni451  1  0.08340833  0.47920500  0.72928000  1.0
  Ni  Ni452  1  0.08340833  0.81253833  0.72928000  1.0
  Ni  Ni453  1  0.41674167  0.14587167  0.72928000  1.0
  Ni  Ni454  1  0.41674167  0.47920500  0.72928000  1.0
  Ni  Ni455  1  0.41674167  0.81253833  0.72928000  1.0
  Ni  Ni456  1  0.75007500  0.14587167  0.72928000  1.0
  Ni  Ni457  1  0.75007500  0.47920500  0.72928000  1.0
  Ni  Ni458  1  0.75007500  0.81253833  0.72928000  1.0
  Ni  Ni459  1  0.25007500  0.31253833  0.89594667  1.0
  Ni  Ni460  1  0.25007500  0.64587167  0.89594667  1.0
  Ni  Ni461  1  0.25007500  0.97920500  0.89594667  1.0
  Ni  Ni462  1  0.58340833  0.31253833  0.89594667  1.0
  Ni  Ni463  1  0.58340833  0.64587167  0.89594667  1.0
  Ni  Ni464  1  0.58340833  0.97920500  0.89594667  1.0
  Ni  Ni465  1  0.91674167  0.31253833  0.89594667  1.0
  Ni  Ni466  1  0.91674167  0.64587167  0.89594667  1.0
  Ni  Ni467  1  0.91674167  0.97920500  0.89594667  1.0
  Ni  Ni468  1  0.04159000  0.10405333  0.68746167  1.0
  Ni  Ni469  1  0.04159000  0.43738667  0.68746167  1.0
  Ni  Ni470  1  0.04159000  0.77072000  0.68746167  1.0
  Ni  Ni471  1  0.37492333  0.10405333  0.68746167  1.0
  Ni  Ni472  1  0.37492333  0.43738667  0.68746167  1.0
  Ni  Ni473  1  0.37492333  0.77072000  0.68746167  1.0
  Ni  Ni474  1  0.70825667  0.10405333  0.68746167  1.0
  Ni  Ni475  1  0.70825667  0.43738667  0.68746167  1.0
  Ni  Ni476  1  0.70825667  0.77072000  0.68746167  1.0
  Ni  Ni477  1  0.20825667  0.27072000  0.85412833  1.0
  Ni  Ni478  1  0.20825667  0.60405333  0.85412833  1.0
  Ni  Ni479  1  0.20825667  0.93738667  0.85412833  1.0
  Ni  Ni480  1  0.54159000  0.27072000  0.85412833  1.0
  Ni  Ni481  1  0.54159000  0.60405333  0.85412833  1.0
  Ni  Ni482  1  0.54159000  0.93738667  0.85412833  1.0
  Ni  Ni483  1  0.87492333  0.27072000  0.85412833  1.0
  Ni  Ni484  1  0.87492333  0.60405333  0.85412833  1.0
  Ni  Ni485  1  0.87492333  0.93738667  0.85412833  1.0
  Ni  Ni486  1  0.29151500  0.18746167  0.77087000  1.0
  Ni  Ni487  1  0.29151500  0.52079500  0.77087000  1.0
  Ni  Ni488  1  0.29151500  0.85412833  0.77087000  1.0
  Ni  Ni489  1  0.62484833  0.18746167  0.77087000  1.0
  Ni  Ni490  1  0.62484833  0.52079500  0.77087000  1.0
  Ni  Ni491  1  0.62484833  0.85412833  0.77087000  1.0
  Ni  Ni492  1  0.95818167  0.18746167  0.77087000  1.0
  Ni  Ni493  1  0.95818167  0.52079500  0.77087000  1.0
  Ni  Ni494  1  0.95818167  0.85412833  0.77087000  1.0
  Ni  Ni495  1  0.12484833  0.02079500  0.93753667  1.0
  Ni  Ni496  1  0.12484833  0.35412833  0.93753667  1.0
  Ni  Ni497  1  0.12484833  0.68746167  0.93753667  1.0
  Ni  Ni498  1  0.45818167  0.02079500  0.93753667  1.0
  Ni  Ni499  1  0.45818167  0.35412833  0.93753667  1.0
  Ni  Ni500  1  0.45818167  0.68746167  0.93753667  1.0
  Ni  Ni501  1  0.79151500  0.02079500  0.93753667  1.0
  Ni  Ni502  1  0.79151500  0.35412833  0.93753667  1.0
  Ni  Ni503  1  0.79151500  0.68746167  0.93753667  1.0
  Ni  Ni504  1  0.29151500  0.18746167  0.93738667  1.0
  Ni  Ni505  1  0.29151500  0.52079500  0.93738667  1.0
  Ni  Ni506  1  0.29151500  0.85412833  0.93738667  1.0
  Ni  Ni507  1  0.62484833  0.18746167  0.93738667  1.0
  Ni  Ni508  1  0.62484833  0.52079500  0.93738667  1.0
  Ni  Ni509  1  0.62484833  0.85412833  0.93738667  1.0
  Ni  Ni510  1  0.95818167  0.18746167  0.93738667  1.0
  Ni  Ni511  1  0.95818167  0.52079500  0.93738667  1.0
  Ni  Ni512  1  0.95818167  0.85412833  0.93738667  1.0
  Ni  Ni513  1  0.12484833  0.02079500  0.77072000  1.0
  Ni  Ni514  1  0.12484833  0.35412833  0.77072000  1.0
  Ni  Ni515  1  0.12484833  0.68746167  0.77072000  1.0
  Ni  Ni516  1  0.45818167  0.02079500  0.77072000  1.0
  Ni  Ni517  1  0.45818167  0.35412833  0.77072000  1.0
  Ni  Ni518  1  0.45818167  0.68746167  0.77072000  1.0
  Ni  Ni519  1  0.79151500  0.02079500  0.77072000  1.0
  Ni  Ni520  1  0.79151500  0.35412833  0.77072000  1.0
  Ni  Ni521  1  0.79151500  0.68746167  0.77072000  1.0
  Ni  Ni522  1  0.29174333  0.10405333  0.68746167  1.0
  Ni  Ni523  1  0.29174333  0.43738667  0.68746167  1.0
  Ni  Ni524  1  0.29174333  0.77072000  0.68746167  1.0
  Ni  Ni525  1  0.62507667  0.10405333  0.68746167  1.0
  Ni  Ni526  1  0.62507667  0.43738667  0.68746167  1.0
  Ni  Ni527  1  0.62507667  0.77072000  0.68746167  1.0
  Ni  Ni528  1  0.95841000  0.10405333  0.68746167  1.0
  Ni  Ni529  1  0.95841000  0.43738667  0.68746167  1.0
  Ni  Ni530  1  0.95841000  0.77072000  0.68746167  1.0
  Ni  Ni531  1  0.12507667  0.27072000  0.85412833  1.0
  Ni  Ni532  1  0.12507667  0.60405333  0.85412833  1.0
  Ni  Ni533  1  0.12507667  0.93738667  0.85412833  1.0
  Ni  Ni534  1  0.45841000  0.27072000  0.85412833  1.0
  Ni  Ni535  1  0.45841000  0.60405333  0.85412833  1.0
  Ni  Ni536  1  0.45841000  0.93738667  0.85412833  1.0
  Ni  Ni537  1  0.79174333  0.27072000  0.85412833  1.0
  Ni  Ni538  1  0.79174333  0.60405333  0.85412833  1.0
  Ni  Ni539  1  0.79174333  0.93738667  0.85412833  1.0
  Ni  Ni540  1  0.04181833  0.18746167  0.93738667  1.0
  Ni  Ni541  1  0.04181833  0.52079500  0.93738667  1.0
  Ni  Ni542  1  0.04181833  0.85412833  0.93738667  1.0
  Ni  Ni543  1  0.37515167  0.18746167  0.93738667  1.0
  Ni  Ni544  1  0.37515167  0.52079500  0.93738667  1.0
  Ni  Ni545  1  0.37515167  0.85412833  0.93738667  1.0
  Ni  Ni546  1  0.70848500  0.18746167  0.93738667  1.0
  Ni  Ni547  1  0.70848500  0.52079500  0.93738667  1.0
  Ni  Ni548  1  0.70848500  0.85412833  0.93738667  1.0
  Ni  Ni549  1  0.20848500  0.02079500  0.77072000  1.0
  Ni  Ni550  1  0.20848500  0.35412833  0.77072000  1.0
  Ni  Ni551  1  0.20848500  0.68746167  0.77072000  1.0
  Ni  Ni552  1  0.54181833  0.02079500  0.77072000  1.0
  Ni  Ni553  1  0.54181833  0.35412833  0.77072000  1.0
  Ni  Ni554  1  0.54181833  0.68746167  0.77072000  1.0
  Ni  Ni555  1  0.87515167  0.02079500  0.77072000  1.0
  Ni  Ni556  1  0.87515167  0.35412833  0.77072000  1.0
  Ni  Ni557  1  0.87515167  0.68746167  0.77072000  1.0
  Ni  Ni558  1  0.04181833  0.18746167  0.77087000  1.0
  Ni  Ni559  1  0.04181833  0.52079500  0.77087000  1.0
  Ni  Ni560  1  0.04181833  0.85412833  0.77087000  1.0
  Ni  Ni561  1  0.37515167  0.18746167  0.77087000  1.0
  Ni  Ni562  1  0.37515167  0.52079500  0.77087000  1.0
  Ni  Ni563  1  0.37515167  0.85412833  0.77087000  1.0
  Ni  Ni564  1  0.70848500  0.18746167  0.77087000  1.0
  Ni  Ni565  1  0.70848500  0.52079500  0.77087000  1.0
  Ni  Ni566  1  0.70848500  0.85412833  0.77087000  1.0
  Ni  Ni567  1  0.20848500  0.02079500  0.93753667  1.0
  Ni  Ni568  1  0.20848500  0.35412833  0.93753667  1.0
  Ni  Ni569  1  0.20848500  0.68746167  0.93753667  1.0
  Ni  Ni570  1  0.54181833  0.02079500  0.93753667  1.0
  Ni  Ni571  1  0.54181833  0.35412833  0.93753667  1.0
  Ni  Ni572  1  0.54181833  0.68746167  0.93753667  1.0
  Ni  Ni573  1  0.87515167  0.02079500  0.93753667  1.0
  Ni  Ni574  1  0.87515167  0.35412833  0.93753667  1.0
  Ni  Ni575  1  0.87515167  0.68746167  0.93753667  1.0
  Y  Y576  1  0.00000000  0.16666667  0.68746167  1.0
  Y  Y577  1  0.00000000  0.50000000  0.68746167  1.0
  Y  Y578  1  0.00000000  0.83333333  0.68746167  1.0
  Y  Y579  1  0.33333333  0.16666667  0.68746167  1.0
  Y  Y580  1  0.33333333  0.50000000  0.68746167  1.0
  Y  Y581  1  0.33333333  0.83333333  0.68746167  1.0
  Y  Y582  1  0.66666667  0.16666667  0.68746167  1.0
  Y  Y583  1  0.66666667  0.50000000  0.68746167  1.0
  Y  Y584  1  0.66666667  0.83333333  0.68746167  1.0
  Y  Y585  1  0.16666667  0.00000000  0.85412833  1.0
  Y  Y586  1  0.16666667  0.33333333  0.85412833  1.0
  Y  Y587  1  0.16666667  0.66666667  0.85412833  1.0
  Y  Y588  1  0.50000000  0.00000000  0.85412833  1.0
  Y  Y589  1  0.50000000  0.33333333  0.85412833  1.0
  Y  Y590  1  0.50000000  0.66666667  0.85412833  1.0
  Y  Y591  1  0.83333333  0.00000000  0.85412833  1.0
  Y  Y592  1  0.83333333  0.33333333  0.85412833  1.0
  Y  Y593  1  0.83333333  0.66666667  0.85412833  1.0
  Y  Y594  1  0.33333333  0.30127367  0.75158100  1.0
  Y  Y595  1  0.33333333  0.63460700  0.75158100  1.0
  Y  Y596  1  0.33333333  0.96794033  0.75158100  1.0
  Y  Y597  1  0.66666667  0.30127367  0.75158100  1.0
  Y  Y598  1  0.66666667  0.63460700  0.75158100  1.0
  Y  Y599  1  0.66666667  0.96794033  0.75158100  1.0
  Y  Y600  1  1.00000000  0.30127367  0.75158100  1.0
  Y  Y601  1  1.00000000  0.63460700  0.75158100  1.0
  Y  Y602  1  1.00000000  0.96794033  0.75158100  1.0
  Y  Y603  1  0.16666667  0.13460700  0.91824767  1.0
  Y  Y604  1  0.16666667  0.46794033  0.91824767  1.0
  Y  Y605  1  0.16666667  0.80127367  0.91824767  1.0
  Y  Y606  1  0.50000000  0.13460700  0.91824767  1.0
  Y  Y607  1  0.50000000  0.46794033  0.91824767  1.0
  Y  Y608  1  0.50000000  0.80127367  0.91824767  1.0
  Y  Y609  1  0.83333333  0.13460700  0.91824767  1.0
  Y  Y610  1  0.83333333  0.46794033  0.91824767  1.0
  Y  Y611  1  0.83333333  0.80127367  0.91824767  1.0
  Y  Y612  1  0.33333333  0.30127367  0.95667567  1.0
  Y  Y613  1  0.33333333  0.63460700  0.95667567  1.0
  Y  Y614  1  0.33333333  0.96794033  0.95667567  1.0
  Y  Y615  1  0.66666667  0.30127367  0.95667567  1.0
  Y  Y616  1  0.66666667  0.63460700  0.95667567  1.0
  Y  Y617  1  0.66666667  0.96794033  0.95667567  1.0
  Y  Y618  1  1.00000000  0.30127367  0.95667567  1.0
  Y  Y619  1  1.00000000  0.63460700  0.95667567  1.0
  Y  Y620  1  1.00000000  0.96794033  0.95667567  1.0
  Y  Y621  1  0.16666667  0.13460700  0.79000900  1.0
  Y  Y622  1  0.16666667  0.46794033  0.79000900  1.0
  Y  Y623  1  0.16666667  0.80127367  0.79000900  1.0
  Y  Y624  1  0.50000000  0.13460700  0.79000900  1.0
  Y  Y625  1  0.50000000  0.46794033  0.79000900  1.0
  Y  Y626  1  0.50000000  0.80127367  0.79000900  1.0
  Y  Y627  1  0.83333333  0.13460700  0.79000900  1.0
  Y  Y628  1  0.83333333  0.46794033  0.79000900  1.0
  Y  Y629  1  0.83333333  0.80127367  0.79000900  1.0
  Y  Y630  1  0.23078600  0.19872633  0.85412833  1.0
  Y  Y631  1  0.23078600  0.53205967  0.85412833  1.0
  Y  Y632  1  0.23078600  0.86539300  0.85412833  1.0
  Y  Y633  1  0.56411933  0.19872633  0.85412833  1.0
  Y  Y634  1  0.56411933  0.53205967  0.85412833  1.0
  Y  Y635  1  0.56411933  0.86539300  0.85412833  1.0
  Y  Y636  1  0.89745267  0.19872633  0.85412833  1.0
  Y  Y637  1  0.89745267  0.53205967  0.85412833  1.0
  Y  Y638  1  0.89745267  0.86539300  0.85412833  1.0
  Y  Y639  1  0.06411933  0.03205967  0.68746167  1.0
  Y  Y640  1  0.06411933  0.36539300  0.68746167  1.0
  Y  Y641  1  0.06411933  0.69872633  0.68746167  1.0
  Y  Y642  1  0.39745267  0.03205967  0.68746167  1.0
  Y  Y643  1  0.39745267  0.36539300  0.68746167  1.0
  Y  Y644  1  0.39745267  0.69872633  0.68746167  1.0
  Y  Y645  1  0.73078600  0.03205967  0.68746167  1.0
  Y  Y646  1  0.73078600  0.36539300  0.68746167  1.0
  Y  Y647  1  0.73078600  0.69872633  0.68746167  1.0
  Y  Y648  1  0.10254733  0.19872633  0.85412833  1.0
  Y  Y649  1  0.10254733  0.53205967  0.85412833  1.0
  Y  Y650  1  0.10254733  0.86539300  0.85412833  1.0
  Y  Y651  1  0.43588067  0.19872633  0.85412833  1.0
  Y  Y652  1  0.43588067  0.53205967  0.85412833  1.0
  Y  Y653  1  0.43588067  0.86539300  0.85412833  1.0
  Y  Y654  1  0.76921400  0.19872633  0.85412833  1.0
  Y  Y655  1  0.76921400  0.53205967  0.85412833  1.0
  Y  Y656  1  0.76921400  0.86539300  0.85412833  1.0
  Y  Y657  1  0.26921400  0.03205967  0.68746167  1.0
  Y  Y658  1  0.26921400  0.36539300  0.68746167  1.0
  Y  Y659  1  0.26921400  0.69872633  0.68746167  1.0
  Y  Y660  1  0.60254733  0.03205967  0.68746167  1.0
  Y  Y661  1  0.60254733  0.36539300  0.68746167  1.0
  Y  Y662  1  0.60254733  0.69872633  0.68746167  1.0
  Y  Y663  1  0.93588067  0.03205967  0.68746167  1.0
  Y  Y664  1  0.93588067  0.36539300  0.68746167  1.0
  Y  Y665  1  0.93588067  0.69872633  0.68746167  1.0
  Y  Y666  1  0.00000000  0.12438700  0.77202100  1.0
  Y  Y667  1  0.00000000  0.45772033  0.77202100  1.0
  Y  Y668  1  0.00000000  0.79105367  0.77202100  1.0
  Y  Y669  1  0.33333333  0.12438700  0.77202100  1.0
  Y  Y670  1  0.33333333  0.45772033  0.77202100  1.0
  Y  Y671  1  0.33333333  0.79105367  0.77202100  1.0
  Y  Y672  1  0.66666667  0.12438700  0.77202100  1.0
  Y  Y673  1  0.66666667  0.45772033  0.77202100  1.0
  Y  Y674  1  0.66666667  0.79105367  0.77202100  1.0
  Y  Y675  1  0.16666667  0.29105367  0.93868767  1.0
  Y  Y676  1  0.16666667  0.62438700  0.93868767  1.0
  Y  Y677  1  0.16666667  0.95772033  0.93868767  1.0
  Y  Y678  1  0.50000000  0.29105367  0.93868767  1.0
  Y  Y679  1  0.50000000  0.62438700  0.93868767  1.0
  Y  Y680  1  0.50000000  0.95772033  0.93868767  1.0
  Y  Y681  1  0.83333333  0.29105367  0.93868767  1.0
  Y  Y682  1  0.83333333  0.62438700  0.93868767  1.0
  Y  Y683  1  0.83333333  0.95772033  0.93868767  1.0
  Y  Y684  1  0.00000000  0.12438700  0.93623567  1.0
  Y  Y685  1  0.00000000  0.45772033  0.93623567  1.0
  Y  Y686  1  0.00000000  0.79105367  0.93623567  1.0
  Y  Y687  1  0.33333333  0.12438700  0.93623567  1.0
  Y  Y688  1  0.33333333  0.45772033  0.93623567  1.0
  Y  Y689  1  0.33333333  0.79105367  0.93623567  1.0
  Y  Y690  1  0.66666667  0.12438700  0.93623567  1.0
  Y  Y691  1  0.66666667  0.45772033  0.93623567  1.0
  Y  Y692  1  0.66666667  0.79105367  0.93623567  1.0
  Y  Y693  1  0.16666667  0.29105367  0.76956900  1.0
  Y  Y694  1  0.16666667  0.62438700  0.76956900  1.0
  Y  Y695  1  0.16666667  0.95772033  0.76956900  1.0
  Y  Y696  1  0.50000000  0.29105367  0.76956900  1.0
  Y  Y697  1  0.50000000  0.62438700  0.76956900  1.0
  Y  Y698  1  0.50000000  0.95772033  0.76956900  1.0
  Y  Y699  1  0.83333333  0.29105367  0.76956900  1.0
  Y  Y700  1  0.83333333  0.62438700  0.76956900  1.0
  Y  Y701  1  0.83333333  0.95772033  0.76956900  1.0
  Y  Y702  1  0.08455933  0.20894633  0.68746167  1.0
  Y  Y703  1  0.08455933  0.54227967  0.68746167  1.0
  Y  Y704  1  0.08455933  0.87561300  0.68746167  1.0
  Y  Y705  1  0.41789267  0.20894633  0.68746167  1.0
  Y  Y706  1  0.41789267  0.54227967  0.68746167  1.0
  Y  Y707  1  0.41789267  0.87561300  0.68746167  1.0
  Y  Y708  1  0.75122600  0.20894633  0.68746167  1.0
  Y  Y709  1  0.75122600  0.54227967  0.68746167  1.0
  Y  Y710  1  0.75122600  0.87561300  0.68746167  1.0
  Y  Y711  1  0.25122600  0.04227967  0.85412833  1.0
  Y  Y712  1  0.25122600  0.37561300  0.85412833  1.0
  Y  Y713  1  0.25122600  0.70894633  0.85412833  1.0
  Y  Y714  1  0.58455933  0.04227967  0.85412833  1.0
  Y  Y715  1  0.58455933  0.37561300  0.85412833  1.0
  Y  Y716  1  0.58455933  0.70894633  0.85412833  1.0
  Y  Y717  1  0.91789267  0.04227967  0.85412833  1.0
  Y  Y718  1  0.91789267  0.37561300  0.85412833  1.0
  Y  Y719  1  0.91789267  0.70894633  0.85412833  1.0
  Y  Y720  1  0.24877400  0.20894633  0.68746167  1.0
  Y  Y721  1  0.24877400  0.54227967  0.68746167  1.0
  Y  Y722  1  0.24877400  0.87561300  0.68746167  1.0
  Y  Y723  1  0.58210733  0.20894633  0.68746167  1.0
  Y  Y724  1  0.58210733  0.54227967  0.68746167  1.0
  Y  Y725  1  0.58210733  0.87561300  0.68746167  1.0
  Y  Y726  1  0.91544067  0.20894633  0.68746167  1.0
  Y  Y727  1  0.91544067  0.54227967  0.68746167  1.0
  Y  Y728  1  0.91544067  0.87561300  0.68746167  1.0
  Y  Y729  1  0.08210733  0.04227967  0.85412833  1.0
  Y  Y730  1  0.08210733  0.37561300  0.85412833  1.0
  Y  Y731  1  0.08210733  0.70894633  0.85412833  1.0
  Y  Y732  1  0.41544067  0.04227967  0.85412833  1.0
  Y  Y733  1  0.41544067  0.37561300  0.85412833  1.0
  Y  Y734  1  0.41544067  0.70894633  0.85412833  1.0
  Y  Y735  1  0.74877400  0.04227967  0.85412833  1.0
  Y  Y736  1  0.74877400  0.37561300  0.85412833  1.0
  Y  Y737  1  0.74877400  0.70894633  0.85412833  1.0
  Y  Y738  1  0.07829567  0.25000000  0.77583267  1.0
  Y  Y739  1  0.07829567  0.58333333  0.77583267  1.0
  Y  Y740  1  0.07829567  0.91666667  0.77583267  1.0
  Y  Y741  1  0.41162900  0.25000000  0.77583267  1.0
  Y  Y742  1  0.41162900  0.58333333  0.77583267  1.0
  Y  Y743  1  0.41162900  0.91666667  0.77583267  1.0
  Y  Y744  1  0.74496233  0.25000000  0.77583267  1.0
  Y  Y745  1  0.74496233  0.58333333  0.77583267  1.0
  Y  Y746  1  0.74496233  0.91666667  0.77583267  1.0
  Y  Y747  1  0.24496233  0.08333333  0.94249933  1.0
  Y  Y748  1  0.24496233  0.41666667  0.94249933  1.0
  Y  Y749  1  0.24496233  0.75000000  0.94249933  1.0
  Y  Y750  1  0.57829567  0.08333333  0.94249933  1.0
  Y  Y751  1  0.57829567  0.41666667  0.94249933  1.0
  Y  Y752  1  0.57829567  0.75000000  0.94249933  1.0
  Y  Y753  1  0.91162900  0.08333333  0.94249933  1.0
  Y  Y754  1  0.91162900  0.41666667  0.94249933  1.0
  Y  Y755  1  0.91162900  0.75000000  0.94249933  1.0
  Y  Y756  1  0.25503767  0.25000000  0.77583267  1.0
  Y  Y757  1  0.25503767  0.58333333  0.77583267  1.0
  Y  Y758  1  0.25503767  0.91666667  0.77583267  1.0
  Y  Y759  1  0.58837100  0.25000000  0.77583267  1.0
  Y  Y760  1  0.58837100  0.58333333  0.77583267  1.0
  Y  Y761  1  0.58837100  0.91666667  0.77583267  1.0
  Y  Y762  1  0.92170433  0.25000000  0.77583267  1.0
  Y  Y763  1  0.92170433  0.58333333  0.77583267  1.0
  Y  Y764  1  0.92170433  0.91666667  0.77583267  1.0
  Y  Y765  1  0.08837100  0.08333333  0.94249933  1.0
  Y  Y766  1  0.08837100  0.41666667  0.94249933  1.0
  Y  Y767  1  0.08837100  0.75000000  0.94249933  1.0
  Y  Y768  1  0.42170433  0.08333333  0.94249933  1.0
  Y  Y769  1  0.42170433  0.41666667  0.94249933  1.0
  Y  Y770  1  0.42170433  0.75000000  0.94249933  1.0
  Y  Y771  1  0.75503767  0.08333333  0.94249933  1.0
  Y  Y772  1  0.75503767  0.41666667  0.94249933  1.0
  Y  Y773  1  0.75503767  0.75000000  0.94249933  1.0
  Y  Y774  1  0.33333333  0.32829567  0.85412833  1.0
  Y  Y775  1  0.33333333  0.66162900  0.85412833  1.0
  Y  Y776  1  0.33333333  0.99496233  0.85412833  1.0
  Y  Y777  1  0.66666667  0.32829567  0.85412833  1.0
  Y  Y778  1  0.66666667  0.66162900  0.85412833  1.0
  Y  Y779  1  0.66666667  0.99496233  0.85412833  1.0
  Y  Y780  1  1.00000000  0.32829567  0.85412833  1.0
  Y  Y781  1  1.00000000  0.66162900  0.85412833  1.0
  Y  Y782  1  1.00000000  0.99496233  0.85412833  1.0
  Y  Y783  1  0.16666667  0.16162900  0.68746167  1.0
  Y  Y784  1  0.16666667  0.49496233  0.68746167  1.0
  Y  Y785  1  0.16666667  0.82829567  0.68746167  1.0
  Y  Y786  1  0.50000000  0.16162900  0.68746167  1.0
  Y  Y787  1  0.50000000  0.49496233  0.68746167  1.0
  Y  Y788  1  0.50000000  0.82829567  0.68746167  1.0
  Y  Y789  1  0.83333333  0.16162900  0.68746167  1.0
  Y  Y790  1  0.83333333  0.49496233  0.68746167  1.0
  Y  Y791  1  0.83333333  0.82829567  0.68746167  1.0
  Y  Y792  1  0.25503767  0.25000000  0.93242400  1.0
  Y  Y793  1  0.25503767  0.58333333  0.93242400  1.0
  Y  Y794  1  0.25503767  0.91666667  0.93242400  1.0
  Y  Y795  1  0.58837100  0.25000000  0.93242400  1.0
  Y  Y796  1  0.58837100  0.58333333  0.93242400  1.0
  Y  Y797  1  0.58837100  0.91666667  0.93242400  1.0
  Y  Y798  1  0.92170433  0.25000000  0.93242400  1.0
  Y  Y799  1  0.92170433  0.58333333  0.93242400  1.0
  Y  Y800  1  0.92170433  0.91666667  0.93242400  1.0
  Y  Y801  1  0.08837100  0.08333333  0.76575733  1.0
  Y  Y802  1  0.08837100  0.41666667  0.76575733  1.0
  Y  Y803  1  0.08837100  0.75000000  0.76575733  1.0
  Y  Y804  1  0.42170433  0.08333333  0.76575733  1.0
  Y  Y805  1  0.42170433  0.41666667  0.76575733  1.0
  Y  Y806  1  0.42170433  0.75000000  0.76575733  1.0
  Y  Y807  1  0.75503767  0.08333333  0.76575733  1.0
  Y  Y808  1  0.75503767  0.41666667  0.76575733  1.0
  Y  Y809  1  0.75503767  0.75000000  0.76575733  1.0
  Y  Y810  1  0.07829567  0.25000000  0.93242400  1.0
  Y  Y811  1  0.07829567  0.58333333  0.93242400  1.0
  Y  Y812  1  0.07829567  0.91666667  0.93242400  1.0
  Y  Y813  1  0.41162900  0.25000000  0.93242400  1.0
  Y  Y814  1  0.41162900  0.58333333  0.93242400  1.0
  Y  Y815  1  0.41162900  0.91666667  0.93242400  1.0
  Y  Y816  1  0.74496233  0.25000000  0.93242400  1.0
  Y  Y817  1  0.74496233  0.58333333  0.93242400  1.0
  Y  Y818  1  0.74496233  0.91666667  0.93242400  1.0
  Y  Y819  1  0.24496233  0.08333333  0.76575733  1.0
  Y  Y820  1  0.24496233  0.41666667  0.76575733  1.0
  Y  Y821  1  0.24496233  0.75000000  0.76575733  1.0
  Y  Y822  1  0.57829567  0.08333333  0.76575733  1.0
  Y  Y823  1  0.57829567  0.41666667  0.76575733  1.0
  Y  Y824  1  0.57829567  0.75000000  0.76575733  1.0
  Y  Y825  1  0.91162900  0.08333333  0.76575733  1.0
  Y  Y826  1  0.91162900  0.41666667  0.76575733  1.0
  Y  Y827  1  0.91162900  0.75000000  0.76575733  1.0
  Y  Y828  1  0.00000000  0.17170433  0.85412833  1.0
  Y  Y829  1  0.00000000  0.50503767  0.85412833  1.0
  Y  Y830  1  0.00000000  0.83837100  0.85412833  1.0
  Y  Y831  1  0.33333333  0.17170433  0.85412833  1.0
  Y  Y832  1  0.33333333  0.50503767  0.85412833  1.0
  Y  Y833  1  0.33333333  0.83837100  0.85412833  1.0
  Y  Y834  1  0.66666667  0.17170433  0.85412833  1.0
  Y  Y835  1  0.66666667  0.50503767  0.85412833  1.0
  Y  Y836  1  0.66666667  0.83837100  0.85412833  1.0
  Y  Y837  1  0.16666667  0.00503767  0.68746167  1.0
  Y  Y838  1  0.16666667  0.33837100  0.68746167  1.0
  Y  Y839  1  0.16666667  0.67170433  0.68746167  1.0
  Y  Y840  1  0.50000000  0.00503767  0.68746167  1.0
  Y  Y841  1  0.50000000  0.33837100  0.68746167  1.0
  Y  Y842  1  0.50000000  0.67170433  0.68746167  1.0
  Y  Y843  1  0.83333333  0.00503767  0.68746167  1.0
  Y  Y844  1  0.83333333  0.33837100  0.68746167  1.0
  Y  Y845  1  0.83333333  0.67170433  0.68746167  1.0
