# generated using pymatgen
data_Y15Ni32
_symmetry_space_group_name_H-M   'P 1'
_cell_length_a   43.16073602
_cell_length_b   52.86089008
_cell_length_c   32.17011323
_cell_angle_alpha   90.00000000
_cell_angle_beta   90.00000000
_cell_angle_gamma   114.09484255
_symmetry_Int_Tables_number   1
_chemical_formula_structural   Y15Ni32
_chemical_formula_sum   'Y540 Ni1152'
_cell_volume   67001.61641886
_cell_formula_units_Z   36
loop_
 _symmetry_equiv_pos_site_id
 _symmetry_equiv_pos_as_xyz
  1  'x, y, z'
loop_
 _atom_site_type_symbol
 _atom_site_label
 _atom_site_symmetry_multiplicity
 _atom_site_fract_x
 _atom_site_fract_y
 _atom_site_fract_z
 _atom_site_occupancy
  Ni  Ni0  1  0.25827397  0.32196310  0.15446630  1.0
  Ni  Ni1  1  0.25827397  0.65529643  0.15446630  1.0
  Ni  Ni2  1  0.25827397  0.98862977  0.15446630  1.0
  Ni  Ni3  1  0.59160730  0.32196310  0.15446630  1.0
  Ni  Ni4  1  0.59160730  0.65529643  0.15446630  1.0
  Ni  Ni5  1  0.59160730  0.98862977  0.15446630  1.0
  Ni  Ni6  1  0.92494063  0.32196310  0.15446630  1.0
  Ni  Ni7  1  0.92494063  0.65529643  0.15446630  1.0
  Ni  Ni8  1  0.92494063  0.98862977  0.15446630  1.0
  Ni  Ni9  1  0.15827397  0.12196310  0.05446630  1.0
  Ni  Ni10  1  0.15827397  0.45529643  0.05446630  1.0
  Ni  Ni11  1  0.15827397  0.78862977  0.05446630  1.0
  Ni  Ni12  1  0.49160730  0.12196310  0.05446630  1.0
  Ni  Ni13  1  0.49160730  0.45529643  0.05446630  1.0
  Ni  Ni14  1  0.49160730  0.78862977  0.05446630  1.0
  Ni  Ni15  1  0.82494063  0.12196310  0.05446630  1.0
  Ni  Ni16  1  0.82494063  0.45529643  0.05446630  1.0
  Ni  Ni17  1  0.82494063  0.78862977  0.05446630  1.0
  Ni  Ni18  1  0.20913557  0.30558363  0.10532790  1.0
  Ni  Ni19  1  0.20913557  0.63891697  0.10532790  1.0
  Ni  Ni20  1  0.20913557  0.97225030  0.10532790  1.0
  Ni  Ni21  1  0.54246890  0.30558363  0.10532790  1.0
  Ni  Ni22  1  0.54246890  0.63891697  0.10532790  1.0
  Ni  Ni23  1  0.54246890  0.97225030  0.10532790  1.0
  Ni  Ni24  1  0.87580223  0.30558363  0.10532790  1.0
  Ni  Ni25  1  0.87580223  0.63891697  0.10532790  1.0
  Ni  Ni26  1  0.87580223  0.97225030  0.10532790  1.0
  Ni  Ni27  1  0.10913557  0.10558363  0.00532790  1.0
  Ni  Ni28  1  0.10913557  0.43891697  0.00532790  1.0
  Ni  Ni29  1  0.10913557  0.77225030  0.00532790  1.0
  Ni  Ni30  1  0.44246890  0.10558363  0.00532790  1.0
  Ni  Ni31  1  0.44246890  0.43891697  0.00532790  1.0
  Ni  Ni32  1  0.44246890  0.77225030  0.00532790  1.0
  Ni  Ni33  1  0.77580223  0.10558363  0.00532790  1.0
  Ni  Ni34  1  0.77580223  0.43891697  0.00532790  1.0
  Ni  Ni35  1  0.77580223  0.77225030  0.00532790  1.0
  Ni  Ni36  1  0.20094583  0.28920417  0.17903550  1.0
  Ni  Ni37  1  0.20094583  0.62253750  0.17903550  1.0
  Ni  Ni38  1  0.20094583  0.95587083  0.17903550  1.0
  Ni  Ni39  1  0.53427917  0.28920417  0.17903550  1.0
  Ni  Ni40  1  0.53427917  0.62253750  0.17903550  1.0
  Ni  Ni41  1  0.53427917  0.95587083  0.17903550  1.0
  Ni  Ni42  1  0.86761250  0.28920417  0.17903550  1.0
  Ni  Ni43  1  0.86761250  0.62253750  0.17903550  1.0
  Ni  Ni44  1  0.86761250  0.95587083  0.17903550  1.0
  Ni  Ni45  1  0.10094583  0.08920417  0.07903550  1.0
  Ni  Ni46  1  0.10094583  0.42253750  0.07903550  1.0
  Ni  Ni47  1  0.10094583  0.75587083  0.07903550  1.0
  Ni  Ni48  1  0.43427917  0.08920417  0.07903550  1.0
  Ni  Ni49  1  0.43427917  0.42253750  0.07903550  1.0
  Ni  Ni50  1  0.43427917  0.75587083  0.07903550  1.0
  Ni  Ni51  1  0.76761250  0.08920417  0.07903550  1.0
  Ni  Ni52  1  0.76761250  0.42253750  0.07903550  1.0
  Ni  Ni53  1  0.76761250  0.75587083  0.07903550  1.0
  Ni  Ni54  1  0.23370477  0.27282470  0.12989710  1.0
  Ni  Ni55  1  0.23370477  0.60615803  0.12989710  1.0
  Ni  Ni56  1  0.23370477  0.93949137  0.12989710  1.0
  Ni  Ni57  1  0.56703810  0.27282470  0.12989710  1.0
  Ni  Ni58  1  0.56703810  0.60615803  0.12989710  1.0
  Ni  Ni59  1  0.56703810  0.93949137  0.12989710  1.0
  Ni  Ni60  1  0.90037143  0.27282470  0.12989710  1.0
  Ni  Ni61  1  0.90037143  0.60615803  0.12989710  1.0
  Ni  Ni62  1  0.90037143  0.93949137  0.12989710  1.0
  Ni  Ni63  1  0.13370477  0.07282470  0.02989710  1.0
  Ni  Ni64  1  0.13370477  0.40615803  0.02989710  1.0
  Ni  Ni65  1  0.13370477  0.73949137  0.02989710  1.0
  Ni  Ni66  1  0.46703810  0.07282470  0.02989710  1.0
  Ni  Ni67  1  0.46703810  0.40615803  0.02989710  1.0
  Ni  Ni68  1  0.46703810  0.73949137  0.02989710  1.0
  Ni  Ni69  1  0.80037143  0.07282470  0.02989710  1.0
  Ni  Ni70  1  0.80037143  0.40615803  0.02989710  1.0
  Ni  Ni71  1  0.80037143  0.73949137  0.02989710  1.0
  Ni  Ni72  1  0.32493157  0.12195630  0.05446290  1.0
  Ni  Ni73  1  0.32493157  0.45528963  0.05446290  1.0
  Ni  Ni74  1  0.32493157  0.78862297  0.05446290  1.0
  Ni  Ni75  1  0.65826490  0.12195630  0.05446290  1.0
  Ni  Ni76  1  0.65826490  0.45528963  0.05446290  1.0
  Ni  Ni77  1  0.65826490  0.78862297  0.05446290  1.0
  Ni  Ni78  1  0.99159823  0.12195630  0.05446290  1.0
  Ni  Ni79  1  0.99159823  0.45528963  0.05446290  1.0
  Ni  Ni80  1  0.99159823  0.78862297  0.05446290  1.0
  Ni  Ni81  1  0.09159823  0.32195630  0.15446290  1.0
  Ni  Ni82  1  0.09159823  0.65528963  0.15446290  1.0
  Ni  Ni83  1  0.09159823  0.98862297  0.15446290  1.0
  Ni  Ni84  1  0.42493157  0.32195630  0.15446290  1.0
  Ni  Ni85  1  0.42493157  0.65528963  0.15446290  1.0
  Ni  Ni86  1  0.42493157  0.98862297  0.15446290  1.0
  Ni  Ni87  1  0.75826490  0.32195630  0.15446290  1.0
  Ni  Ni88  1  0.75826490  0.65528963  0.15446290  1.0
  Ni  Ni89  1  0.75826490  0.98862297  0.15446290  1.0
  Ni  Ni90  1  0.27580677  0.10558137  0.00533810  1.0
  Ni  Ni91  1  0.27580677  0.43891470  0.00533810  1.0
  Ni  Ni92  1  0.27580677  0.77224803  0.00533810  1.0
  Ni  Ni93  1  0.60914010  0.10558137  0.00533810  1.0
  Ni  Ni94  1  0.60914010  0.43891470  0.00533810  1.0
  Ni  Ni95  1  0.60914010  0.77224803  0.00533810  1.0
  Ni  Ni96  1  0.94247343  0.10558137  0.00533810  1.0
  Ni  Ni97  1  0.94247343  0.43891470  0.00533810  1.0
  Ni  Ni98  1  0.94247343  0.77224803  0.00533810  1.0
  Ni  Ni99  1  0.04247343  0.30558137  0.10533810  1.0
  Ni  Ni100  1  0.04247343  0.63891470  0.10533810  1.0
  Ni  Ni101  1  0.04247343  0.97224803  0.10533810  1.0
  Ni  Ni102  1  0.37580677  0.30558137  0.10533810  1.0
  Ni  Ni103  1  0.37580677  0.63891470  0.10533810  1.0
  Ni  Ni104  1  0.37580677  0.97224803  0.10533810  1.0
  Ni  Ni105  1  0.70914010  0.30558137  0.10533810  1.0
  Ni  Ni106  1  0.70914010  0.63891470  0.10533810  1.0
  Ni  Ni107  1  0.70914010  0.97224803  0.10533810  1.0
  Ni  Ni108  1  0.26761930  0.08920643  0.07902530  1.0
  Ni  Ni109  1  0.26761930  0.42253977  0.07902530  1.0
  Ni  Ni110  1  0.26761930  0.75587310  0.07902530  1.0
  Ni  Ni111  1  0.60095263  0.08920643  0.07902530  1.0
  Ni  Ni112  1  0.60095263  0.42253977  0.07902530  1.0
  Ni  Ni113  1  0.60095263  0.75587310  0.07902530  1.0
  Ni  Ni114  1  0.93428597  0.08920643  0.07902530  1.0
  Ni  Ni115  1  0.93428597  0.42253977  0.07902530  1.0
  Ni  Ni116  1  0.93428597  0.75587310  0.07902530  1.0
  Ni  Ni117  1  0.03428597  0.28920643  0.17902530  1.0
  Ni  Ni118  1  0.03428597  0.62253977  0.17902530  1.0
  Ni  Ni119  1  0.03428597  0.95587310  0.17902530  1.0
  Ni  Ni120  1  0.36761930  0.28920643  0.17902530  1.0
  Ni  Ni121  1  0.36761930  0.62253977  0.17902530  1.0
  Ni  Ni122  1  0.36761930  0.95587310  0.17902530  1.0
  Ni  Ni123  1  0.70095263  0.28920643  0.17902530  1.0
  Ni  Ni124  1  0.70095263  0.62253977  0.17902530  1.0
  Ni  Ni125  1  0.70095263  0.95587310  0.17902530  1.0
  Ni  Ni126  1  0.30036917  0.07283150  0.02990050  1.0
  Ni  Ni127  1  0.30036917  0.40616483  0.02990050  1.0
  Ni  Ni128  1  0.30036917  0.73949817  0.02990050  1.0
  Ni  Ni129  1  0.63370250  0.07283150  0.02990050  1.0
  Ni  Ni130  1  0.63370250  0.40616483  0.02990050  1.0
  Ni  Ni131  1  0.63370250  0.73949817  0.02990050  1.0
  Ni  Ni132  1  0.96703583  0.07283150  0.02990050  1.0
  Ni  Ni133  1  0.96703583  0.40616483  0.02990050  1.0
  Ni  Ni134  1  0.96703583  0.73949817  0.02990050  1.0
  Ni  Ni135  1  0.06703583  0.27283150  0.12990050  1.0
  Ni  Ni136  1  0.06703583  0.60616483  0.12990050  1.0
  Ni  Ni137  1  0.06703583  0.93949817  0.12990050  1.0
  Ni  Ni138  1  0.40036917  0.27283150  0.12990050  1.0
  Ni  Ni139  1  0.40036917  0.60616483  0.12990050  1.0
  Ni  Ni140  1  0.40036917  0.93949817  0.12990050  1.0
  Ni  Ni141  1  0.73370250  0.27283150  0.12990050  1.0
  Ni  Ni142  1  0.73370250  0.60616483  0.12990050  1.0
  Ni  Ni143  1  0.73370250  0.93949817  0.12990050  1.0
  Ni  Ni144  1  0.09330200  0.15486967  0.15764850  1.0
  Ni  Ni145  1  0.09330200  0.48820300  0.15764850  1.0
  Ni  Ni146  1  0.09330200  0.82153633  0.15764850  1.0
  Ni  Ni147  1  0.42663533  0.15486967  0.15764850  1.0
  Ni  Ni148  1  0.42663533  0.48820300  0.15764850  1.0
  Ni  Ni149  1  0.42663533  0.82153633  0.15764850  1.0
  Ni  Ni150  1  0.75996867  0.15486967  0.15764850  1.0
  Ni  Ni151  1  0.75996867  0.48820300  0.15764850  1.0
  Ni  Ni152  1  0.75996867  0.82153633  0.15764850  1.0
  Ni  Ni153  1  0.32663533  0.28820300  0.05764850  1.0
  Ni  Ni154  1  0.32663533  0.62153633  0.05764850  1.0
  Ni  Ni155  1  0.32663533  0.95486967  0.05764850  1.0
  Ni  Ni156  1  0.65996867  0.28820300  0.05764850  1.0
  Ni  Ni157  1  0.65996867  0.62153633  0.05764850  1.0
  Ni  Ni158  1  0.65996867  0.95486967  0.05764850  1.0
  Ni  Ni159  1  0.99330200  0.28820300  0.05764850  1.0
  Ni  Ni160  1  0.99330200  0.62153633  0.05764850  1.0
  Ni  Ni161  1  0.99330200  0.95486967  0.05764850  1.0
  Ni  Ni162  1  0.27459798  0.02425280  0.00561115  1.0
  Ni  Ni163  1  0.27459798  0.35758613  0.00561115  1.0
  Ni  Ni164  1  0.27459798  0.69091947  0.00561115  1.0
  Ni  Ni165  1  0.60793132  0.02425280  0.00561115  1.0
  Ni  Ni166  1  0.60793132  0.35758613  0.00561115  1.0
  Ni  Ni167  1  0.60793132  0.69091947  0.00561115  1.0
  Ni  Ni168  1  0.94126465  0.02425280  0.00561115  1.0
  Ni  Ni169  1  0.94126465  0.35758613  0.00561115  1.0
  Ni  Ni170  1  0.94126465  0.69091947  0.00561115  1.0
  Ni  Ni171  1  0.04126465  0.22425280  0.10561115  1.0
  Ni  Ni172  1  0.04126465  0.55758613  0.10561115  1.0
  Ni  Ni173  1  0.04126465  0.89091947  0.10561115  1.0
  Ni  Ni174  1  0.37459798  0.22425280  0.10561115  1.0
  Ni  Ni175  1  0.37459798  0.55758613  0.10561115  1.0
  Ni  Ni176  1  0.37459798  0.89091947  0.10561115  1.0
  Ni  Ni177  1  0.70793132  0.22425280  0.10561115  1.0
  Ni  Ni178  1  0.70793132  0.55758613  0.10561115  1.0
  Ni  Ni179  1  0.70793132  0.89091947  0.10561115  1.0
  Ni  Ni180  1  0.21064778  0.05622790  0.10153645  1.0
  Ni  Ni181  1  0.21064778  0.38956123  0.10153645  1.0
  Ni  Ni182  1  0.21064778  0.72289457  0.10153645  1.0
  Ni  Ni183  1  0.54398112  0.05622790  0.10153645  1.0
  Ni  Ni184  1  0.54398112  0.38956123  0.10153645  1.0
  Ni  Ni185  1  0.54398112  0.72289457  0.10153645  1.0
  Ni  Ni186  1  0.87731445  0.05622790  0.10153645  1.0
  Ni  Ni187  1  0.87731445  0.38956123  0.10153645  1.0
  Ni  Ni188  1  0.87731445  0.72289457  0.10153645  1.0
  Ni  Ni189  1  0.11064778  0.18956123  0.00153645  1.0
  Ni  Ni190  1  0.11064778  0.52289457  0.00153645  1.0
  Ni  Ni191  1  0.11064778  0.85622790  0.00153645  1.0
  Ni  Ni192  1  0.44398112  0.18956123  0.00153645  1.0
  Ni  Ni193  1  0.44398112  0.52289457  0.00153645  1.0
  Ni  Ni194  1  0.44398112  0.85622790  0.00153645  1.0
  Ni  Ni195  1  0.77731445  0.18956123  0.00153645  1.0
  Ni  Ni196  1  0.77731445  0.52289457  0.00153645  1.0
  Ni  Ni197  1  0.77731445  0.85622790  0.00153645  1.0
  Ni  Ni198  1  0.03958420  0.13696373  0.10393070  1.0
  Ni  Ni199  1  0.03958420  0.47029707  0.10393070  1.0
  Ni  Ni200  1  0.03958420  0.80363040  0.10393070  1.0
  Ni  Ni201  1  0.37291753  0.13696373  0.10393070  1.0
  Ni  Ni202  1  0.37291753  0.47029707  0.10393070  1.0
  Ni  Ni203  1  0.37291753  0.80363040  0.10393070  1.0
  Ni  Ni204  1  0.70625087  0.13696373  0.10393070  1.0
  Ni  Ni205  1  0.70625087  0.47029707  0.10393070  1.0
  Ni  Ni206  1  0.70625087  0.80363040  0.10393070  1.0
  Ni  Ni207  1  0.27291753  0.27029707  0.00393070  1.0
  Ni  Ni208  1  0.27291753  0.60363040  0.00393070  1.0
  Ni  Ni209  1  0.27291753  0.93696373  0.00393070  1.0
  Ni  Ni210  1  0.60625087  0.27029707  0.00393070  1.0
  Ni  Ni211  1  0.60625087  0.60363040  0.00393070  1.0
  Ni  Ni212  1  0.60625087  0.93696373  0.00393070  1.0
  Ni  Ni213  1  0.93958420  0.27029707  0.00393070  1.0
  Ni  Ni214  1  0.93958420  0.60363040  0.00393070  1.0
  Ni  Ni215  1  0.93958420  0.93696373  0.00393070  1.0
  Ni  Ni216  1  0.26100468  0.07301353  0.15189335  1.0
  Ni  Ni217  1  0.26100468  0.40634687  0.15189335  1.0
  Ni  Ni218  1  0.26100468  0.73968020  0.15189335  1.0
  Ni  Ni219  1  0.59433802  0.07301353  0.15189335  1.0
  Ni  Ni220  1  0.59433802  0.40634687  0.15189335  1.0
  Ni  Ni221  1  0.59433802  0.73968020  0.15189335  1.0
  Ni  Ni222  1  0.92767135  0.07301353  0.15189335  1.0
  Ni  Ni223  1  0.92767135  0.40634687  0.15189335  1.0
  Ni  Ni224  1  0.92767135  0.73968020  0.15189335  1.0
  Ni  Ni225  1  0.16100468  0.20634687  0.05189335  1.0
  Ni  Ni226  1  0.16100468  0.53968020  0.05189335  1.0
  Ni  Ni227  1  0.16100468  0.87301353  0.05189335  1.0
  Ni  Ni228  1  0.49433802  0.20634687  0.05189335  1.0
  Ni  Ni229  1  0.49433802  0.53968020  0.05189335  1.0
  Ni  Ni230  1  0.49433802  0.87301353  0.05189335  1.0
  Ni  Ni231  1  0.82767135  0.20634687  0.05189335  1.0
  Ni  Ni232  1  0.82767135  0.53968020  0.05189335  1.0
  Ni  Ni233  1  0.82767135  0.87301353  0.05189335  1.0
  Ni  Ni234  1  0.32495488  0.04103843  0.05596805  1.0
  Ni  Ni235  1  0.32495488  0.37437177  0.05596805  1.0
  Ni  Ni236  1  0.32495488  0.70770510  0.05596805  1.0
  Ni  Ni237  1  0.65828822  0.04103843  0.05596805  1.0
  Ni  Ni238  1  0.65828822  0.37437177  0.05596805  1.0
  Ni  Ni239  1  0.65828822  0.70770510  0.05596805  1.0
  Ni  Ni240  1  0.99162155  0.04103843  0.05596805  1.0
  Ni  Ni241  1  0.99162155  0.37437177  0.05596805  1.0
  Ni  Ni242  1  0.99162155  0.70770510  0.05596805  1.0
  Ni  Ni243  1  0.09162155  0.24103843  0.15596805  1.0
  Ni  Ni244  1  0.09162155  0.57437177  0.15596805  1.0
  Ni  Ni245  1  0.09162155  0.90770510  0.15596805  1.0
  Ni  Ni246  1  0.42495488  0.24103843  0.15596805  1.0
  Ni  Ni247  1  0.42495488  0.57437177  0.15596805  1.0
  Ni  Ni248  1  0.42495488  0.90770510  0.15596805  1.0
  Ni  Ni249  1  0.75828822  0.24103843  0.15596805  1.0
  Ni  Ni250  1  0.75828822  0.57437177  0.15596805  1.0
  Ni  Ni251  1  0.75828822  0.90770510  0.15596805  1.0
  Ni  Ni252  1  0.10001437  0.25782407  0.08043270  1.0
  Ni  Ni253  1  0.10001437  0.59115740  0.08043270  1.0
  Ni  Ni254  1  0.10001437  0.92449073  0.08043270  1.0
  Ni  Ni255  1  0.43334770  0.25782407  0.08043270  1.0
  Ni  Ni256  1  0.43334770  0.59115740  0.08043270  1.0
  Ni  Ni257  1  0.43334770  0.92449073  0.08043270  1.0
  Ni  Ni258  1  0.76668103  0.25782407  0.08043270  1.0
  Ni  Ni259  1  0.76668103  0.59115740  0.08043270  1.0
  Ni  Ni260  1  0.76668103  0.92449073  0.08043270  1.0
  Ni  Ni261  1  0.20001437  0.12449073  0.18043270  1.0
  Ni  Ni262  1  0.20001437  0.45782407  0.18043270  1.0
  Ni  Ni263  1  0.20001437  0.79115740  0.18043270  1.0
  Ni  Ni264  1  0.53334770  0.12449073  0.18043270  1.0
  Ni  Ni265  1  0.53334770  0.45782407  0.18043270  1.0
  Ni  Ni266  1  0.53334770  0.79115740  0.18043270  1.0
  Ni  Ni267  1  0.86668103  0.12449073  0.18043270  1.0
  Ni  Ni268  1  0.86668103  0.45782407  0.18043270  1.0
  Ni  Ni269  1  0.86668103  0.79115740  0.18043270  1.0
  Ni  Ni270  1  0.05205172  0.32177427  0.03247005  1.0
  Ni  Ni271  1  0.05205172  0.65510760  0.03247005  1.0
  Ni  Ni272  1  0.05205172  0.98844093  0.03247005  1.0
  Ni  Ni273  1  0.38538505  0.32177427  0.03247005  1.0
  Ni  Ni274  1  0.38538505  0.65510760  0.03247005  1.0
  Ni  Ni275  1  0.38538505  0.98844093  0.03247005  1.0
  Ni  Ni276  1  0.71871838  0.32177427  0.03247005  1.0
  Ni  Ni277  1  0.71871838  0.65510760  0.03247005  1.0
  Ni  Ni278  1  0.71871838  0.98844093  0.03247005  1.0
  Ni  Ni279  1  0.15205172  0.18844093  0.13247005  1.0
  Ni  Ni280  1  0.15205172  0.52177427  0.13247005  1.0
  Ni  Ni281  1  0.15205172  0.85510760  0.13247005  1.0
  Ni  Ni282  1  0.48538505  0.18844093  0.13247005  1.0
  Ni  Ni283  1  0.48538505  0.52177427  0.13247005  1.0
  Ni  Ni284  1  0.48538505  0.85510760  0.13247005  1.0
  Ni  Ni285  1  0.81871838  0.18844093  0.13247005  1.0
  Ni  Ni286  1  0.81871838  0.52177427  0.13247005  1.0
  Ni  Ni287  1  0.81871838  0.85510760  0.13247005  1.0
  Ni  Ni288  1  0.14797702  0.02041603  0.12839535  1.0
  Ni  Ni289  1  0.14797702  0.35374937  0.12839535  1.0
  Ni  Ni290  1  0.14797702  0.68708270  0.12839535  1.0
  Ni  Ni291  1  0.48131035  0.02041603  0.12839535  1.0
  Ni  Ni292  1  0.48131035  0.35374937  0.12839535  1.0
  Ni  Ni293  1  0.48131035  0.68708270  0.12839535  1.0
  Ni  Ni294  1  0.81464368  0.02041603  0.12839535  1.0
  Ni  Ni295  1  0.81464368  0.35374937  0.12839535  1.0
  Ni  Ni296  1  0.81464368  0.68708270  0.12839535  1.0
  Ni  Ni297  1  0.04797702  0.15374937  0.02839535  1.0
  Ni  Ni298  1  0.04797702  0.48708270  0.02839535  1.0
  Ni  Ni299  1  0.04797702  0.82041603  0.02839535  1.0
  Ni  Ni300  1  0.38131035  0.15374937  0.02839535  1.0
  Ni  Ni301  1  0.38131035  0.48708270  0.02839535  1.0
  Ni  Ni302  1  0.38131035  0.82041603  0.02839535  1.0
  Ni  Ni303  1  0.71464368  0.15374937  0.02839535  1.0
  Ni  Ni304  1  0.71464368  0.48708270  0.02839535  1.0
  Ni  Ni305  1  0.71464368  0.82041603  0.02839535  1.0
  Ni  Ni306  1  0.13582623  0.23991813  0.02671490  1.0
  Ni  Ni307  1  0.13582623  0.57325147  0.02671490  1.0
  Ni  Ni308  1  0.13582623  0.90658480  0.02671490  1.0
  Ni  Ni309  1  0.46915957  0.23991813  0.02671490  1.0
  Ni  Ni310  1  0.46915957  0.57325147  0.02671490  1.0
  Ni  Ni311  1  0.46915957  0.90658480  0.02671490  1.0
  Ni  Ni312  1  0.80249290  0.23991813  0.02671490  1.0
  Ni  Ni313  1  0.80249290  0.57325147  0.02671490  1.0
  Ni  Ni314  1  0.80249290  0.90658480  0.02671490  1.0
  Ni  Ni315  1  0.23582623  0.10658480  0.12671490  1.0
  Ni  Ni316  1  0.23582623  0.43991813  0.12671490  1.0
  Ni  Ni317  1  0.23582623  0.77325147  0.12671490  1.0
  Ni  Ni318  1  0.56915957  0.10658480  0.12671490  1.0
  Ni  Ni319  1  0.56915957  0.43991813  0.12671490  1.0
  Ni  Ni320  1  0.56915957  0.77325147  0.12671490  1.0
  Ni  Ni321  1  0.90249290  0.10658480  0.12671490  1.0
  Ni  Ni322  1  0.90249290  0.43991813  0.12671490  1.0
  Ni  Ni323  1  0.90249290  0.77325147  0.12671490  1.0
  Ni  Ni324  1  0.11440575  0.03720167  0.17875225  1.0
  Ni  Ni325  1  0.11440575  0.37053500  0.17875225  1.0
  Ni  Ni326  1  0.11440575  0.70386833  0.17875225  1.0
  Ni  Ni327  1  0.44773908  0.03720167  0.17875225  1.0
  Ni  Ni328  1  0.44773908  0.37053500  0.17875225  1.0
  Ni  Ni329  1  0.44773908  0.70386833  0.17875225  1.0
  Ni  Ni330  1  0.78107242  0.03720167  0.17875225  1.0
  Ni  Ni331  1  0.78107242  0.37053500  0.17875225  1.0
  Ni  Ni332  1  0.78107242  0.70386833  0.17875225  1.0
  Ni  Ni333  1  0.01440575  0.17053500  0.07875225  1.0
  Ni  Ni334  1  0.01440575  0.50386833  0.07875225  1.0
  Ni  Ni335  1  0.01440575  0.83720167  0.07875225  1.0
  Ni  Ni336  1  0.34773908  0.17053500  0.07875225  1.0
  Ni  Ni337  1  0.34773908  0.50386833  0.07875225  1.0
  Ni  Ni338  1  0.34773908  0.83720167  0.07875225  1.0
  Ni  Ni339  1  0.68107242  0.17053500  0.07875225  1.0
  Ni  Ni340  1  0.68107242  0.50386833  0.07875225  1.0
  Ni  Ni341  1  0.68107242  0.83720167  0.07875225  1.0
  Ni  Ni342  1  0.01848045  0.00522657  0.08282695  1.0
  Ni  Ni343  1  0.01848045  0.33855990  0.08282695  1.0
  Ni  Ni344  1  0.01848045  0.67189323  0.08282695  1.0
  Ni  Ni345  1  0.35181378  0.00522657  0.08282695  1.0
  Ni  Ni346  1  0.35181378  0.33855990  0.08282695  1.0
  Ni  Ni347  1  0.35181378  0.67189323  0.08282695  1.0
  Ni  Ni348  1  0.68514712  0.00522657  0.08282695  1.0
  Ni  Ni349  1  0.68514712  0.33855990  0.08282695  1.0
  Ni  Ni350  1  0.68514712  0.67189323  0.08282695  1.0
  Ni  Ni351  1  0.11848045  0.20522657  0.18282695  1.0
  Ni  Ni352  1  0.11848045  0.53855990  0.18282695  1.0
  Ni  Ni353  1  0.11848045  0.87189323  0.18282695  1.0
  Ni  Ni354  1  0.45181378  0.20522657  0.18282695  1.0
  Ni  Ni355  1  0.45181378  0.53855990  0.18282695  1.0
  Ni  Ni356  1  0.45181378  0.87189323  0.18282695  1.0
  Ni  Ni357  1  0.78514712  0.20522657  0.18282695  1.0
  Ni  Ni358  1  0.78514712  0.53855990  0.18282695  1.0
  Ni  Ni359  1  0.78514712  0.87189323  0.18282695  1.0
  Ni  Ni360  1  0.15875703  0.28895457  0.05470370  1.0
  Ni  Ni361  1  0.15875703  0.62228790  0.05470370  1.0
  Ni  Ni362  1  0.15875703  0.95562123  0.05470370  1.0
  Ni  Ni363  1  0.49209037  0.28895457  0.05470370  1.0
  Ni  Ni364  1  0.49209037  0.62228790  0.05470370  1.0
  Ni  Ni365  1  0.49209037  0.95562123  0.05470370  1.0
  Ni  Ni366  1  0.82542370  0.28895457  0.05470370  1.0
  Ni  Ni367  1  0.82542370  0.62228790  0.05470370  1.0
  Ni  Ni368  1  0.82542370  0.95562123  0.05470370  1.0
  Ni  Ni369  1  0.25875703  0.15562123  0.15470370  1.0
  Ni  Ni370  1  0.25875703  0.48895457  0.15470370  1.0
  Ni  Ni371  1  0.25875703  0.82228790  0.15470370  1.0
  Ni  Ni372  1  0.59209037  0.15562123  0.15470370  1.0
  Ni  Ni373  1  0.59209037  0.48895457  0.15470370  1.0
  Ni  Ni374  1  0.59209037  0.82228790  0.15470370  1.0
  Ni  Ni375  1  0.92542370  0.15562123  0.15470370  1.0
  Ni  Ni376  1  0.92542370  0.48895457  0.15470370  1.0
  Ni  Ni377  1  0.92542370  0.82228790  0.15470370  1.0
  Ni  Ni378  1  0.10871203  0.02234790  0.00465870  1.0
  Ni  Ni379  1  0.10871203  0.35568123  0.00465870  1.0
  Ni  Ni380  1  0.10871203  0.68901457  0.00465870  1.0
  Ni  Ni381  1  0.44204537  0.02234790  0.00465870  1.0
  Ni  Ni382  1  0.44204537  0.35568123  0.00465870  1.0
  Ni  Ni383  1  0.44204537  0.68901457  0.00465870  1.0
  Ni  Ni384  1  0.77537870  0.02234790  0.00465870  1.0
  Ni  Ni385  1  0.77537870  0.35568123  0.00465870  1.0
  Ni  Ni386  1  0.77537870  0.68901457  0.00465870  1.0
  Ni  Ni387  1  0.20871203  0.22234790  0.10465870  1.0
  Ni  Ni388  1  0.20871203  0.55568123  0.10465870  1.0
  Ni  Ni389  1  0.20871203  0.88901457  0.10465870  1.0
  Ni  Ni390  1  0.54204537  0.22234790  0.10465870  1.0
  Ni  Ni391  1  0.54204537  0.55568123  0.10465870  1.0
  Ni  Ni392  1  0.54204537  0.88901457  0.10465870  1.0
  Ni  Ni393  1  0.87537870  0.22234790  0.10465870  1.0
  Ni  Ni394  1  0.87537870  0.55568123  0.10465870  1.0
  Ni  Ni395  1  0.87537870  0.88901457  0.10465870  1.0
  Ni  Ni396  1  0.04210537  0.05565123  0.10456870  1.0
  Ni  Ni397  1  0.04210537  0.38898457  0.10456870  1.0
  Ni  Ni398  1  0.04210537  0.72231790  0.10456870  1.0
  Ni  Ni399  1  0.37543870  0.05565123  0.10456870  1.0
  Ni  Ni400  1  0.37543870  0.38898457  0.10456870  1.0
  Ni  Ni401  1  0.37543870  0.72231790  0.10456870  1.0
  Ni  Ni402  1  0.70877203  0.05565123  0.10456870  1.0
  Ni  Ni403  1  0.70877203  0.38898457  0.10456870  1.0
  Ni  Ni404  1  0.70877203  0.72231790  0.10456870  1.0
  Ni  Ni405  1  0.27543870  0.18898457  0.00456870  1.0
  Ni  Ni406  1  0.27543870  0.52231790  0.00456870  1.0
  Ni  Ni407  1  0.27543870  0.85565123  0.00456870  1.0
  Ni  Ni408  1  0.60877203  0.18898457  0.00456870  1.0
  Ni  Ni409  1  0.60877203  0.52231790  0.00456870  1.0
  Ni  Ni410  1  0.60877203  0.85565123  0.00456870  1.0
  Ni  Ni411  1  0.94210537  0.18898457  0.00456870  1.0
  Ni  Ni412  1  0.94210537  0.52231790  0.00456870  1.0
  Ni  Ni413  1  0.94210537  0.85565123  0.00456870  1.0
  Ni  Ni414  1  0.10884903  0.27231857  0.00479570  1.0
  Ni  Ni415  1  0.10884903  0.60565190  0.00479570  1.0
  Ni  Ni416  1  0.10884903  0.93898523  0.00479570  1.0
  Ni  Ni417  1  0.44218237  0.27231857  0.00479570  1.0
  Ni  Ni418  1  0.44218237  0.60565190  0.00479570  1.0
  Ni  Ni419  1  0.44218237  0.93898523  0.00479570  1.0
  Ni  Ni420  1  0.77551570  0.27231857  0.00479570  1.0
  Ni  Ni421  1  0.77551570  0.60565190  0.00479570  1.0
  Ni  Ni422  1  0.77551570  0.93898523  0.00479570  1.0
  Ni  Ni423  1  0.20884903  0.13898523  0.10479570  1.0
  Ni  Ni424  1  0.20884903  0.47231857  0.10479570  1.0
  Ni  Ni425  1  0.20884903  0.80565190  0.10479570  1.0
  Ni  Ni426  1  0.54218237  0.13898523  0.10479570  1.0
  Ni  Ni427  1  0.54218237  0.47231857  0.10479570  1.0
  Ni  Ni428  1  0.54218237  0.80565190  0.10479570  1.0
  Ni  Ni429  1  0.87551570  0.13898523  0.10479570  1.0
  Ni  Ni430  1  0.87551570  0.47231857  0.10479570  1.0
  Ni  Ni431  1  0.87551570  0.80565190  0.10479570  1.0
  Ni  Ni432  1  0.09228737  0.07237857  0.15475070  1.0
  Ni  Ni433  1  0.09228737  0.40571190  0.15475070  1.0
  Ni  Ni434  1  0.09228737  0.73904523  0.15475070  1.0
  Ni  Ni435  1  0.42562070  0.07237857  0.15475070  1.0
  Ni  Ni436  1  0.42562070  0.40571190  0.15475070  1.0
  Ni  Ni437  1  0.42562070  0.73904523  0.15475070  1.0
  Ni  Ni438  1  0.75895403  0.07237857  0.15475070  1.0
  Ni  Ni439  1  0.75895403  0.40571190  0.15475070  1.0
  Ni  Ni440  1  0.75895403  0.73904523  0.15475070  1.0
  Ni  Ni441  1  0.32562070  0.20571190  0.05475070  1.0
  Ni  Ni442  1  0.32562070  0.53904523  0.05475070  1.0
  Ni  Ni443  1  0.32562070  0.87237857  0.05475070  1.0
  Ni  Ni444  1  0.65895403  0.20571190  0.05475070  1.0
  Ni  Ni445  1  0.65895403  0.53904523  0.05475070  1.0
  Ni  Ni446  1  0.65895403  0.87237857  0.05475070  1.0
  Ni  Ni447  1  0.99228737  0.20571190  0.05475070  1.0
  Ni  Ni448  1  0.99228737  0.53904523  0.05475070  1.0
  Ni  Ni449  1  0.99228737  0.87237857  0.05475070  1.0
  Ni  Ni450  1  0.15889403  0.03907523  0.05484070  1.0
  Ni  Ni451  1  0.15889403  0.37240857  0.05484070  1.0
  Ni  Ni452  1  0.15889403  0.70574190  0.05484070  1.0
  Ni  Ni453  1  0.49222737  0.03907523  0.05484070  1.0
  Ni  Ni454  1  0.49222737  0.37240857  0.05484070  1.0
  Ni  Ni455  1  0.49222737  0.70574190  0.05484070  1.0
  Ni  Ni456  1  0.82556070  0.03907523  0.05484070  1.0
  Ni  Ni457  1  0.82556070  0.37240857  0.05484070  1.0
  Ni  Ni458  1  0.82556070  0.70574190  0.05484070  1.0
  Ni  Ni459  1  0.25889403  0.23907523  0.15484070  1.0
  Ni  Ni460  1  0.25889403  0.57240857  0.15484070  1.0
  Ni  Ni461  1  0.25889403  0.90574190  0.15484070  1.0
  Ni  Ni462  1  0.59222737  0.23907523  0.15484070  1.0
  Ni  Ni463  1  0.59222737  0.57240857  0.15484070  1.0
  Ni  Ni464  1  0.59222737  0.90574190  0.15484070  1.0
  Ni  Ni465  1  0.92556070  0.23907523  0.15484070  1.0
  Ni  Ni466  1  0.92556070  0.57240857  0.15484070  1.0
  Ni  Ni467  1  0.92556070  0.90574190  0.15484070  1.0
  Ni  Ni468  1  0.03392437  0.12246923  0.17956770  1.0
  Ni  Ni469  1  0.03392437  0.45580257  0.17956770  1.0
  Ni  Ni470  1  0.03392437  0.78913590  0.17956770  1.0
  Ni  Ni471  1  0.36725770  0.12246923  0.17956770  1.0
  Ni  Ni472  1  0.36725770  0.45580257  0.17956770  1.0
  Ni  Ni473  1  0.36725770  0.78913590  0.17956770  1.0
  Ni  Ni474  1  0.70059103  0.12246923  0.17956770  1.0
  Ni  Ni475  1  0.70059103  0.45580257  0.17956770  1.0
  Ni  Ni476  1  0.70059103  0.78913590  0.17956770  1.0
  Ni  Ni477  1  0.26725770  0.25580257  0.07956770  1.0
  Ni  Ni478  1  0.26725770  0.58913590  0.07956770  1.0
  Ni  Ni479  1  0.26725770  0.92246923  0.07956770  1.0
  Ni  Ni480  1  0.60059103  0.25580257  0.07956770  1.0
  Ni  Ni481  1  0.60059103  0.58913590  0.07956770  1.0
  Ni  Ni482  1  0.60059103  0.92246923  0.07956770  1.0
  Ni  Ni483  1  0.93392437  0.25580257  0.07956770  1.0
  Ni  Ni484  1  0.93392437  0.58913590  0.07956770  1.0
  Ni  Ni485  1  0.93392437  0.92246923  0.07956770  1.0
  Ni  Ni486  1  0.21730270  0.32240923  0.02961270  1.0
  Ni  Ni487  1  0.21730270  0.65574257  0.02961270  1.0
  Ni  Ni488  1  0.21730270  0.98907590  0.02961270  1.0
  Ni  Ni489  1  0.55063603  0.32240923  0.02961270  1.0
  Ni  Ni490  1  0.55063603  0.65574257  0.02961270  1.0
  Ni  Ni491  1  0.55063603  0.98907590  0.02961270  1.0
  Ni  Ni492  1  0.88396937  0.32240923  0.02961270  1.0
  Ni  Ni493  1  0.88396937  0.65574257  0.02961270  1.0
  Ni  Ni494  1  0.88396937  0.98907590  0.02961270  1.0
  Ni  Ni495  1  0.31730270  0.18907590  0.12961270  1.0
  Ni  Ni496  1  0.31730270  0.52240923  0.12961270  1.0
  Ni  Ni497  1  0.31730270  0.85574257  0.12961270  1.0
  Ni  Ni498  1  0.65063603  0.18907590  0.12961270  1.0
  Ni  Ni499  1  0.65063603  0.52240923  0.12961270  1.0
  Ni  Ni500  1  0.65063603  0.85574257  0.12961270  1.0
  Ni  Ni501  1  0.98396937  0.18907590  0.12961270  1.0
  Ni  Ni502  1  0.98396937  0.52240923  0.12961270  1.0
  Ni  Ni503  1  0.98396937  0.85574257  0.12961270  1.0
  Ni  Ni504  1  0.31721270  0.02237923  0.12952270  1.0
  Ni  Ni505  1  0.31721270  0.35571257  0.12952270  1.0
  Ni  Ni506  1  0.31721270  0.68904590  0.12952270  1.0
  Ni  Ni507  1  0.65054603  0.02237923  0.12952270  1.0
  Ni  Ni508  1  0.65054603  0.35571257  0.12952270  1.0
  Ni  Ni509  1  0.65054603  0.68904590  0.12952270  1.0
  Ni  Ni510  1  0.98387937  0.02237923  0.12952270  1.0
  Ni  Ni511  1  0.98387937  0.35571257  0.12952270  1.0
  Ni  Ni512  1  0.98387937  0.68904590  0.12952270  1.0
  Ni  Ni513  1  0.21721270  0.15571257  0.02952270  1.0
  Ni  Ni514  1  0.21721270  0.48904590  0.02952270  1.0
  Ni  Ni515  1  0.21721270  0.82237923  0.02952270  1.0
  Ni  Ni516  1  0.55054603  0.15571257  0.02952270  1.0
  Ni  Ni517  1  0.55054603  0.48904590  0.02952270  1.0
  Ni  Ni518  1  0.55054603  0.82237923  0.02952270  1.0
  Ni  Ni519  1  0.88387937  0.15571257  0.02952270  1.0
  Ni  Ni520  1  0.88387937  0.48904590  0.02952270  1.0
  Ni  Ni521  1  0.88387937  0.82237923  0.02952270  1.0
  Ni  Ni522  1  0.06719637  0.10583323  0.12965970  1.0
  Ni  Ni523  1  0.06719637  0.43916657  0.12965970  1.0
  Ni  Ni524  1  0.06719637  0.77249990  0.12965970  1.0
  Ni  Ni525  1  0.40052970  0.10583323  0.12965970  1.0
  Ni  Ni526  1  0.40052970  0.43916657  0.12965970  1.0
  Ni  Ni527  1  0.40052970  0.77249990  0.12965970  1.0
  Ni  Ni528  1  0.73386303  0.10583323  0.12965970  1.0
  Ni  Ni529  1  0.73386303  0.43916657  0.12965970  1.0
  Ni  Ni530  1  0.73386303  0.77249990  0.12965970  1.0
  Ni  Ni531  1  0.30052970  0.23916657  0.02965970  1.0
  Ni  Ni532  1  0.30052970  0.57249990  0.02965970  1.0
  Ni  Ni533  1  0.30052970  0.90583323  0.02965970  1.0
  Ni  Ni534  1  0.63386303  0.23916657  0.02965970  1.0
  Ni  Ni535  1  0.63386303  0.57249990  0.02965970  1.0
  Ni  Ni536  1  0.63386303  0.90583323  0.02965970  1.0
  Ni  Ni537  1  0.96719637  0.23916657  0.02965970  1.0
  Ni  Ni538  1  0.96719637  0.57249990  0.02965970  1.0
  Ni  Ni539  1  0.96719637  0.90583323  0.02965970  1.0
  Ni  Ni540  1  0.28375803  0.03910657  0.17970470  1.0
  Ni  Ni541  1  0.28375803  0.37243990  0.17970470  1.0
  Ni  Ni542  1  0.28375803  0.70577323  0.17970470  1.0
  Ni  Ni543  1  0.61709137  0.03910657  0.17970470  1.0
  Ni  Ni544  1  0.61709137  0.37243990  0.17970470  1.0
  Ni  Ni545  1  0.61709137  0.70577323  0.17970470  1.0
  Ni  Ni546  1  0.95042470  0.03910657  0.17970470  1.0
  Ni  Ni547  1  0.95042470  0.37243990  0.17970470  1.0
  Ni  Ni548  1  0.95042470  0.70577323  0.17970470  1.0
  Ni  Ni549  1  0.18375803  0.17243990  0.07970470  1.0
  Ni  Ni550  1  0.18375803  0.50577323  0.07970470  1.0
  Ni  Ni551  1  0.18375803  0.83910657  0.07970470  1.0
  Ni  Ni552  1  0.51709137  0.17243990  0.07970470  1.0
  Ni  Ni553  1  0.51709137  0.50577323  0.07970470  1.0
  Ni  Ni554  1  0.51709137  0.83910657  0.07970470  1.0
  Ni  Ni555  1  0.85042470  0.17243990  0.07970470  1.0
  Ni  Ni556  1  0.85042470  0.50577323  0.07970470  1.0
  Ni  Ni557  1  0.85042470  0.83910657  0.07970470  1.0
  Ni  Ni558  1  0.18384803  0.00580323  0.07979470  1.0
  Ni  Ni559  1  0.18384803  0.33913657  0.07979470  1.0
  Ni  Ni560  1  0.18384803  0.67246990  0.07979470  1.0
  Ni  Ni561  1  0.51718137  0.00580323  0.07979470  1.0
  Ni  Ni562  1  0.51718137  0.33913657  0.07979470  1.0
  Ni  Ni563  1  0.51718137  0.67246990  0.07979470  1.0
  Ni  Ni564  1  0.85051470  0.00580323  0.07979470  1.0
  Ni  Ni565  1  0.85051470  0.33913657  0.07979470  1.0
  Ni  Ni566  1  0.85051470  0.67246990  0.07979470  1.0
  Ni  Ni567  1  0.28384803  0.20580323  0.17979470  1.0
  Ni  Ni568  1  0.28384803  0.53913657  0.17979470  1.0
  Ni  Ni569  1  0.28384803  0.87246990  0.17979470  1.0
  Ni  Ni570  1  0.61718137  0.20580323  0.17979470  1.0
  Ni  Ni571  1  0.61718137  0.53913657  0.17979470  1.0
  Ni  Ni572  1  0.61718137  0.87246990  0.17979470  1.0
  Ni  Ni573  1  0.95051470  0.20580323  0.17979470  1.0
  Ni  Ni574  1  0.95051470  0.53913657  0.17979470  1.0
  Ni  Ni575  1  0.95051470  0.87246990  0.17979470  1.0
  Ni  Ni576  1  0.12494063  0.05529643  0.35446630  1.0
  Ni  Ni577  1  0.12494063  0.38862977  0.35446630  1.0
  Ni  Ni578  1  0.12494063  0.72196310  0.35446630  1.0
  Ni  Ni579  1  0.45827397  0.05529643  0.35446630  1.0
  Ni  Ni580  1  0.45827397  0.38862977  0.35446630  1.0
  Ni  Ni581  1  0.45827397  0.72196310  0.35446630  1.0
  Ni  Ni582  1  0.79160730  0.05529643  0.35446630  1.0
  Ni  Ni583  1  0.79160730  0.38862977  0.35446630  1.0
  Ni  Ni584  1  0.79160730  0.72196310  0.35446630  1.0
  Ni  Ni585  1  0.02494063  0.18862977  0.25446630  1.0
  Ni  Ni586  1  0.02494063  0.52196310  0.25446630  1.0
  Ni  Ni587  1  0.02494063  0.85529643  0.25446630  1.0
  Ni  Ni588  1  0.35827397  0.18862977  0.25446630  1.0
  Ni  Ni589  1  0.35827397  0.52196310  0.25446630  1.0
  Ni  Ni590  1  0.35827397  0.85529643  0.25446630  1.0
  Ni  Ni591  1  0.69160730  0.18862977  0.25446630  1.0
  Ni  Ni592  1  0.69160730  0.52196310  0.25446630  1.0
  Ni  Ni593  1  0.69160730  0.85529643  0.25446630  1.0
  Ni  Ni594  1  0.07580223  0.03891697  0.30532790  1.0
  Ni  Ni595  1  0.07580223  0.37225030  0.30532790  1.0
  Ni  Ni596  1  0.07580223  0.70558363  0.30532790  1.0
  Ni  Ni597  1  0.40913557  0.03891697  0.30532790  1.0
  Ni  Ni598  1  0.40913557  0.37225030  0.30532790  1.0
  Ni  Ni599  1  0.40913557  0.70558363  0.30532790  1.0
  Ni  Ni600  1  0.74246890  0.03891697  0.30532790  1.0
  Ni  Ni601  1  0.74246890  0.37225030  0.30532790  1.0
  Ni  Ni602  1  0.74246890  0.70558363  0.30532790  1.0
  Ni  Ni603  1  0.30913557  0.17225030  0.20532790  1.0
  Ni  Ni604  1  0.30913557  0.50558363  0.20532790  1.0
  Ni  Ni605  1  0.30913557  0.83891697  0.20532790  1.0
  Ni  Ni606  1  0.64246890  0.17225030  0.20532790  1.0
  Ni  Ni607  1  0.64246890  0.50558363  0.20532790  1.0
  Ni  Ni608  1  0.64246890  0.83891697  0.20532790  1.0
  Ni  Ni609  1  0.97580223  0.17225030  0.20532790  1.0
  Ni  Ni610  1  0.97580223  0.50558363  0.20532790  1.0
  Ni  Ni611  1  0.97580223  0.83891697  0.20532790  1.0
  Ni  Ni612  1  0.06761250  0.02253750  0.37903550  1.0
  Ni  Ni613  1  0.06761250  0.35587083  0.37903550  1.0
  Ni  Ni614  1  0.06761250  0.68920417  0.37903550  1.0
  Ni  Ni615  1  0.40094583  0.02253750  0.37903550  1.0
  Ni  Ni616  1  0.40094583  0.35587083  0.37903550  1.0
  Ni  Ni617  1  0.40094583  0.68920417  0.37903550  1.0
  Ni  Ni618  1  0.73427917  0.02253750  0.37903550  1.0
  Ni  Ni619  1  0.73427917  0.35587083  0.37903550  1.0
  Ni  Ni620  1  0.73427917  0.68920417  0.37903550  1.0
  Ni  Ni621  1  0.30094583  0.15587083  0.27903550  1.0
  Ni  Ni622  1  0.30094583  0.48920417  0.27903550  1.0
  Ni  Ni623  1  0.30094583  0.82253750  0.27903550  1.0
  Ni  Ni624  1  0.63427917  0.15587083  0.27903550  1.0
  Ni  Ni625  1  0.63427917  0.48920417  0.27903550  1.0
  Ni  Ni626  1  0.63427917  0.82253750  0.27903550  1.0
  Ni  Ni627  1  0.96761250  0.15587083  0.27903550  1.0
  Ni  Ni628  1  0.96761250  0.48920417  0.27903550  1.0
  Ni  Ni629  1  0.96761250  0.82253750  0.27903550  1.0
  Ni  Ni630  1  0.10037143  0.00615803  0.32989710  1.0
  Ni  Ni631  1  0.10037143  0.33949137  0.32989710  1.0
  Ni  Ni632  1  0.10037143  0.67282470  0.32989710  1.0
  Ni  Ni633  1  0.43370477  0.00615803  0.32989710  1.0
  Ni  Ni634  1  0.43370477  0.33949137  0.32989710  1.0
  Ni  Ni635  1  0.43370477  0.67282470  0.32989710  1.0
  Ni  Ni636  1  0.76703810  0.00615803  0.32989710  1.0
  Ni  Ni637  1  0.76703810  0.33949137  0.32989710  1.0
  Ni  Ni638  1  0.76703810  0.67282470  0.32989710  1.0
  Ni  Ni639  1  0.00037143  0.13949137  0.22989710  1.0
  Ni  Ni640  1  0.00037143  0.47282470  0.22989710  1.0
  Ni  Ni641  1  0.00037143  0.80615803  0.22989710  1.0
  Ni  Ni642  1  0.33370477  0.13949137  0.22989710  1.0
  Ni  Ni643  1  0.33370477  0.47282470  0.22989710  1.0
  Ni  Ni644  1  0.33370477  0.80615803  0.22989710  1.0
  Ni  Ni645  1  0.66703810  0.13949137  0.22989710  1.0
  Ni  Ni646  1  0.66703810  0.47282470  0.22989710  1.0
  Ni  Ni647  1  0.66703810  0.80615803  0.22989710  1.0
  Ni  Ni648  1  0.19159823  0.18862297  0.25446290  1.0
  Ni  Ni649  1  0.19159823  0.52195630  0.25446290  1.0
  Ni  Ni650  1  0.19159823  0.85528963  0.25446290  1.0
  Ni  Ni651  1  0.52493157  0.18862297  0.25446290  1.0
  Ni  Ni652  1  0.52493157  0.52195630  0.25446290  1.0
  Ni  Ni653  1  0.52493157  0.85528963  0.25446290  1.0
  Ni  Ni654  1  0.85826490  0.18862297  0.25446290  1.0
  Ni  Ni655  1  0.85826490  0.52195630  0.25446290  1.0
  Ni  Ni656  1  0.85826490  0.85528963  0.25446290  1.0
  Ni  Ni657  1  0.29159823  0.05528963  0.35446290  1.0
  Ni  Ni658  1  0.29159823  0.38862297  0.35446290  1.0
  Ni  Ni659  1  0.29159823  0.72195630  0.35446290  1.0
  Ni  Ni660  1  0.62493157  0.05528963  0.35446290  1.0
  Ni  Ni661  1  0.62493157  0.38862297  0.35446290  1.0
  Ni  Ni662  1  0.62493157  0.72195630  0.35446290  1.0
  Ni  Ni663  1  0.95826490  0.05528963  0.35446290  1.0
  Ni  Ni664  1  0.95826490  0.38862297  0.35446290  1.0
  Ni  Ni665  1  0.95826490  0.72195630  0.35446290  1.0
  Ni  Ni666  1  0.14247343  0.17224803  0.20533810  1.0
  Ni  Ni667  1  0.14247343  0.50558137  0.20533810  1.0
  Ni  Ni668  1  0.14247343  0.83891470  0.20533810  1.0
  Ni  Ni669  1  0.47580677  0.17224803  0.20533810  1.0
  Ni  Ni670  1  0.47580677  0.50558137  0.20533810  1.0
  Ni  Ni671  1  0.47580677  0.83891470  0.20533810  1.0
  Ni  Ni672  1  0.80914010  0.17224803  0.20533810  1.0
  Ni  Ni673  1  0.80914010  0.50558137  0.20533810  1.0
  Ni  Ni674  1  0.80914010  0.83891470  0.20533810  1.0
  Ni  Ni675  1  0.24247343  0.03891470  0.30533810  1.0
  Ni  Ni676  1  0.24247343  0.37224803  0.30533810  1.0
  Ni  Ni677  1  0.24247343  0.70558137  0.30533810  1.0
  Ni  Ni678  1  0.57580677  0.03891470  0.30533810  1.0
  Ni  Ni679  1  0.57580677  0.37224803  0.30533810  1.0
  Ni  Ni680  1  0.57580677  0.70558137  0.30533810  1.0
  Ni  Ni681  1  0.90914010  0.03891470  0.30533810  1.0
  Ni  Ni682  1  0.90914010  0.37224803  0.30533810  1.0
  Ni  Ni683  1  0.90914010  0.70558137  0.30533810  1.0
  Ni  Ni684  1  0.13428597  0.15587310  0.27902530  1.0
  Ni  Ni685  1  0.13428597  0.48920643  0.27902530  1.0
  Ni  Ni686  1  0.13428597  0.82253977  0.27902530  1.0
  Ni  Ni687  1  0.46761930  0.15587310  0.27902530  1.0
  Ni  Ni688  1  0.46761930  0.48920643  0.27902530  1.0
  Ni  Ni689  1  0.46761930  0.82253977  0.27902530  1.0
  Ni  Ni690  1  0.80095263  0.15587310  0.27902530  1.0
  Ni  Ni691  1  0.80095263  0.48920643  0.27902530  1.0
  Ni  Ni692  1  0.80095263  0.82253977  0.27902530  1.0
  Ni  Ni693  1  0.23428597  0.02253977  0.37902530  1.0
  Ni  Ni694  1  0.23428597  0.35587310  0.37902530  1.0
  Ni  Ni695  1  0.23428597  0.68920643  0.37902530  1.0
  Ni  Ni696  1  0.56761930  0.02253977  0.37902530  1.0
  Ni  Ni697  1  0.56761930  0.35587310  0.37902530  1.0
  Ni  Ni698  1  0.56761930  0.68920643  0.37902530  1.0
  Ni  Ni699  1  0.90095263  0.02253977  0.37902530  1.0
  Ni  Ni700  1  0.90095263  0.35587310  0.37902530  1.0
  Ni  Ni701  1  0.90095263  0.68920643  0.37902530  1.0
  Ni  Ni702  1  0.16703583  0.13949817  0.22990050  1.0
  Ni  Ni703  1  0.16703583  0.47283150  0.22990050  1.0
  Ni  Ni704  1  0.16703583  0.80616483  0.22990050  1.0
  Ni  Ni705  1  0.50036917  0.13949817  0.22990050  1.0
  Ni  Ni706  1  0.50036917  0.47283150  0.22990050  1.0
  Ni  Ni707  1  0.50036917  0.80616483  0.22990050  1.0
  Ni  Ni708  1  0.83370250  0.13949817  0.22990050  1.0
  Ni  Ni709  1  0.83370250  0.47283150  0.22990050  1.0
  Ni  Ni710  1  0.83370250  0.80616483  0.22990050  1.0
  Ni  Ni711  1  0.26703583  0.00616483  0.32990050  1.0
  Ni  Ni712  1  0.26703583  0.33949817  0.32990050  1.0
  Ni  Ni713  1  0.26703583  0.67283150  0.32990050  1.0
  Ni  Ni714  1  0.60036917  0.00616483  0.32990050  1.0
  Ni  Ni715  1  0.60036917  0.33949817  0.32990050  1.0
  Ni  Ni716  1  0.60036917  0.67283150  0.32990050  1.0
  Ni  Ni717  1  0.93370250  0.00616483  0.32990050  1.0
  Ni  Ni718  1  0.93370250  0.33949817  0.32990050  1.0
  Ni  Ni719  1  0.93370250  0.67283150  0.32990050  1.0
  Ni  Ni720  1  0.29330200  0.22153633  0.35764850  1.0
  Ni  Ni721  1  0.29330200  0.55486967  0.35764850  1.0
  Ni  Ni722  1  0.29330200  0.88820300  0.35764850  1.0
  Ni  Ni723  1  0.62663533  0.22153633  0.35764850  1.0
  Ni  Ni724  1  0.62663533  0.55486967  0.35764850  1.0
  Ni  Ni725  1  0.62663533  0.88820300  0.35764850  1.0
  Ni  Ni726  1  0.95996867  0.22153633  0.35764850  1.0
  Ni  Ni727  1  0.95996867  0.55486967  0.35764850  1.0
  Ni  Ni728  1  0.95996867  0.88820300  0.35764850  1.0
  Ni  Ni729  1  0.19330200  0.02153633  0.25764850  1.0
  Ni  Ni730  1  0.19330200  0.35486967  0.25764850  1.0
  Ni  Ni731  1  0.19330200  0.68820300  0.25764850  1.0
  Ni  Ni732  1  0.52663533  0.02153633  0.25764850  1.0
  Ni  Ni733  1  0.52663533  0.35486967  0.25764850  1.0
  Ni  Ni734  1  0.52663533  0.68820300  0.25764850  1.0
  Ni  Ni735  1  0.85996867  0.02153633  0.25764850  1.0
  Ni  Ni736  1  0.85996867  0.35486967  0.25764850  1.0
  Ni  Ni737  1  0.85996867  0.68820300  0.25764850  1.0
  Ni  Ni738  1  0.14126465  0.09091947  0.20561115  1.0
  Ni  Ni739  1  0.14126465  0.42425280  0.20561115  1.0
  Ni  Ni740  1  0.14126465  0.75758613  0.20561115  1.0
  Ni  Ni741  1  0.47459798  0.09091947  0.20561115  1.0
  Ni  Ni742  1  0.47459798  0.42425280  0.20561115  1.0
  Ni  Ni743  1  0.47459798  0.75758613  0.20561115  1.0
  Ni  Ni744  1  0.80793132  0.09091947  0.20561115  1.0
  Ni  Ni745  1  0.80793132  0.42425280  0.20561115  1.0
  Ni  Ni746  1  0.80793132  0.75758613  0.20561115  1.0
  Ni  Ni747  1  0.24126465  0.29091947  0.30561115  1.0
  Ni  Ni748  1  0.24126465  0.62425280  0.30561115  1.0
  Ni  Ni749  1  0.24126465  0.95758613  0.30561115  1.0
  Ni  Ni750  1  0.57459798  0.29091947  0.30561115  1.0
  Ni  Ni751  1  0.57459798  0.62425280  0.30561115  1.0
  Ni  Ni752  1  0.57459798  0.95758613  0.30561115  1.0
  Ni  Ni753  1  0.90793132  0.29091947  0.30561115  1.0
  Ni  Ni754  1  0.90793132  0.62425280  0.30561115  1.0
  Ni  Ni755  1  0.90793132  0.95758613  0.30561115  1.0
  Ni  Ni756  1  0.07731445  0.12289457  0.30153645  1.0
  Ni  Ni757  1  0.07731445  0.45622790  0.30153645  1.0
  Ni  Ni758  1  0.07731445  0.78956123  0.30153645  1.0
  Ni  Ni759  1  0.41064778  0.12289457  0.30153645  1.0
  Ni  Ni760  1  0.41064778  0.45622790  0.30153645  1.0
  Ni  Ni761  1  0.41064778  0.78956123  0.30153645  1.0
  Ni  Ni762  1  0.74398112  0.12289457  0.30153645  1.0
  Ni  Ni763  1  0.74398112  0.45622790  0.30153645  1.0
  Ni  Ni764  1  0.74398112  0.78956123  0.30153645  1.0
  Ni  Ni765  1  0.31064778  0.25622790  0.20153645  1.0
  Ni  Ni766  1  0.31064778  0.58956123  0.20153645  1.0
  Ni  Ni767  1  0.31064778  0.92289457  0.20153645  1.0
  Ni  Ni768  1  0.64398112  0.25622790  0.20153645  1.0
  Ni  Ni769  1  0.64398112  0.58956123  0.20153645  1.0
  Ni  Ni770  1  0.64398112  0.92289457  0.20153645  1.0
  Ni  Ni771  1  0.97731445  0.25622790  0.20153645  1.0
  Ni  Ni772  1  0.97731445  0.58956123  0.20153645  1.0
  Ni  Ni773  1  0.97731445  0.92289457  0.20153645  1.0
  Ni  Ni774  1  0.23958420  0.20363040  0.30393070  1.0
  Ni  Ni775  1  0.23958420  0.53696373  0.30393070  1.0
  Ni  Ni776  1  0.23958420  0.87029707  0.30393070  1.0
  Ni  Ni777  1  0.57291753  0.20363040  0.30393070  1.0
  Ni  Ni778  1  0.57291753  0.53696373  0.30393070  1.0
  Ni  Ni779  1  0.57291753  0.87029707  0.30393070  1.0
  Ni  Ni780  1  0.90625087  0.20363040  0.30393070  1.0
  Ni  Ni781  1  0.90625087  0.53696373  0.30393070  1.0
  Ni  Ni782  1  0.90625087  0.87029707  0.30393070  1.0
  Ni  Ni783  1  0.13958420  0.00363040  0.20393070  1.0
  Ni  Ni784  1  0.13958420  0.33696373  0.20393070  1.0
  Ni  Ni785  1  0.13958420  0.67029707  0.20393070  1.0
  Ni  Ni786  1  0.47291753  0.00363040  0.20393070  1.0
  Ni  Ni787  1  0.47291753  0.33696373  0.20393070  1.0
  Ni  Ni788  1  0.47291753  0.67029707  0.20393070  1.0
  Ni  Ni789  1  0.80625087  0.00363040  0.20393070  1.0
  Ni  Ni790  1  0.80625087  0.33696373  0.20393070  1.0
  Ni  Ni791  1  0.80625087  0.67029707  0.20393070  1.0
  Ni  Ni792  1  0.12767135  0.13968020  0.35189335  1.0
  Ni  Ni793  1  0.12767135  0.47301353  0.35189335  1.0
  Ni  Ni794  1  0.12767135  0.80634687  0.35189335  1.0
  Ni  Ni795  1  0.46100468  0.13968020  0.35189335  1.0
  Ni  Ni796  1  0.46100468  0.47301353  0.35189335  1.0
  Ni  Ni797  1  0.46100468  0.80634687  0.35189335  1.0
  Ni  Ni798  1  0.79433802  0.13968020  0.35189335  1.0
  Ni  Ni799  1  0.79433802  0.47301353  0.35189335  1.0
  Ni  Ni800  1  0.79433802  0.80634687  0.35189335  1.0
  Ni  Ni801  1  0.02767135  0.27301353  0.25189335  1.0
  Ni  Ni802  1  0.02767135  0.60634687  0.25189335  1.0
  Ni  Ni803  1  0.02767135  0.93968020  0.25189335  1.0
  Ni  Ni804  1  0.36100468  0.27301353  0.25189335  1.0
  Ni  Ni805  1  0.36100468  0.60634687  0.25189335  1.0
  Ni  Ni806  1  0.36100468  0.93968020  0.25189335  1.0
  Ni  Ni807  1  0.69433802  0.27301353  0.25189335  1.0
  Ni  Ni808  1  0.69433802  0.60634687  0.25189335  1.0
  Ni  Ni809  1  0.69433802  0.93968020  0.25189335  1.0
  Ni  Ni810  1  0.19162155  0.10770510  0.25596805  1.0
  Ni  Ni811  1  0.19162155  0.44103843  0.25596805  1.0
  Ni  Ni812  1  0.19162155  0.77437177  0.25596805  1.0
  Ni  Ni813  1  0.52495488  0.10770510  0.25596805  1.0
  Ni  Ni814  1  0.52495488  0.44103843  0.25596805  1.0
  Ni  Ni815  1  0.52495488  0.77437177  0.25596805  1.0
  Ni  Ni816  1  0.85828822  0.10770510  0.25596805  1.0
  Ni  Ni817  1  0.85828822  0.44103843  0.25596805  1.0
  Ni  Ni818  1  0.85828822  0.77437177  0.25596805  1.0
  Ni  Ni819  1  0.29162155  0.30770510  0.35596805  1.0
  Ni  Ni820  1  0.29162155  0.64103843  0.35596805  1.0
  Ni  Ni821  1  0.29162155  0.97437177  0.35596805  1.0
  Ni  Ni822  1  0.62495488  0.30770510  0.35596805  1.0
  Ni  Ni823  1  0.62495488  0.64103843  0.35596805  1.0
  Ni  Ni824  1  0.62495488  0.97437177  0.35596805  1.0
  Ni  Ni825  1  0.95828822  0.30770510  0.35596805  1.0
  Ni  Ni826  1  0.95828822  0.64103843  0.35596805  1.0
  Ni  Ni827  1  0.95828822  0.97437177  0.35596805  1.0
  Ni  Ni828  1  0.30001437  0.32449073  0.28043270  1.0
  Ni  Ni829  1  0.30001437  0.65782407  0.28043270  1.0
  Ni  Ni830  1  0.30001437  0.99115740  0.28043270  1.0
  Ni  Ni831  1  0.63334770  0.32449073  0.28043270  1.0
  Ni  Ni832  1  0.63334770  0.65782407  0.28043270  1.0
  Ni  Ni833  1  0.63334770  0.99115740  0.28043270  1.0
  Ni  Ni834  1  0.96668103  0.32449073  0.28043270  1.0
  Ni  Ni835  1  0.96668103  0.65782407  0.28043270  1.0
  Ni  Ni836  1  0.96668103  0.99115740  0.28043270  1.0
  Ni  Ni837  1  0.06668103  0.19115740  0.38043270  1.0
  Ni  Ni838  1  0.06668103  0.52449073  0.38043270  1.0
  Ni  Ni839  1  0.06668103  0.85782407  0.38043270  1.0
  Ni  Ni840  1  0.40001437  0.19115740  0.38043270  1.0
  Ni  Ni841  1  0.40001437  0.52449073  0.38043270  1.0
  Ni  Ni842  1  0.40001437  0.85782407  0.38043270  1.0
  Ni  Ni843  1  0.73334770  0.19115740  0.38043270  1.0
  Ni  Ni844  1  0.73334770  0.52449073  0.38043270  1.0
  Ni  Ni845  1  0.73334770  0.85782407  0.38043270  1.0
  Ni  Ni846  1  0.25205172  0.05510760  0.23247005  1.0
  Ni  Ni847  1  0.25205172  0.38844093  0.23247005  1.0
  Ni  Ni848  1  0.25205172  0.72177427  0.23247005  1.0
  Ni  Ni849  1  0.58538505  0.05510760  0.23247005  1.0
  Ni  Ni850  1  0.58538505  0.38844093  0.23247005  1.0
  Ni  Ni851  1  0.58538505  0.72177427  0.23247005  1.0
  Ni  Ni852  1  0.91871838  0.05510760  0.23247005  1.0
  Ni  Ni853  1  0.91871838  0.38844093  0.23247005  1.0
  Ni  Ni854  1  0.91871838  0.72177427  0.23247005  1.0
  Ni  Ni855  1  0.01871838  0.25510760  0.33247005  1.0
  Ni  Ni856  1  0.01871838  0.58844093  0.33247005  1.0
  Ni  Ni857  1  0.01871838  0.92177427  0.33247005  1.0
  Ni  Ni858  1  0.35205172  0.25510760  0.33247005  1.0
  Ni  Ni859  1  0.35205172  0.58844093  0.33247005  1.0
  Ni  Ni860  1  0.35205172  0.92177427  0.33247005  1.0
  Ni  Ni861  1  0.68538505  0.25510760  0.33247005  1.0
  Ni  Ni862  1  0.68538505  0.58844093  0.33247005  1.0
  Ni  Ni863  1  0.68538505  0.92177427  0.33247005  1.0
  Ni  Ni864  1  0.01464368  0.08708270  0.32839535  1.0
  Ni  Ni865  1  0.01464368  0.42041603  0.32839535  1.0
  Ni  Ni866  1  0.01464368  0.75374937  0.32839535  1.0
  Ni  Ni867  1  0.34797702  0.08708270  0.32839535  1.0
  Ni  Ni868  1  0.34797702  0.42041603  0.32839535  1.0
  Ni  Ni869  1  0.34797702  0.75374937  0.32839535  1.0
  Ni  Ni870  1  0.68131035  0.08708270  0.32839535  1.0
  Ni  Ni871  1  0.68131035  0.42041603  0.32839535  1.0
  Ni  Ni872  1  0.68131035  0.75374937  0.32839535  1.0
  Ni  Ni873  1  0.24797702  0.22041603  0.22839535  1.0
  Ni  Ni874  1  0.24797702  0.55374937  0.22839535  1.0
  Ni  Ni875  1  0.24797702  0.88708270  0.22839535  1.0
  Ni  Ni876  1  0.58131035  0.22041603  0.22839535  1.0
  Ni  Ni877  1  0.58131035  0.55374937  0.22839535  1.0
  Ni  Ni878  1  0.58131035  0.88708270  0.22839535  1.0
  Ni  Ni879  1  0.91464368  0.22041603  0.22839535  1.0
  Ni  Ni880  1  0.91464368  0.55374937  0.22839535  1.0
  Ni  Ni881  1  0.91464368  0.88708270  0.22839535  1.0
  Ni  Ni882  1  0.00249290  0.30658480  0.22671490  1.0
  Ni  Ni883  1  0.00249290  0.63991813  0.22671490  1.0
  Ni  Ni884  1  0.00249290  0.97325147  0.22671490  1.0
  Ni  Ni885  1  0.33582623  0.30658480  0.22671490  1.0
  Ni  Ni886  1  0.33582623  0.63991813  0.22671490  1.0
  Ni  Ni887  1  0.33582623  0.97325147  0.22671490  1.0
  Ni  Ni888  1  0.66915957  0.30658480  0.22671490  1.0
  Ni  Ni889  1  0.66915957  0.63991813  0.22671490  1.0
  Ni  Ni890  1  0.66915957  0.97325147  0.22671490  1.0
  Ni  Ni891  1  0.10249290  0.17325147  0.32671490  1.0
  Ni  Ni892  1  0.10249290  0.50658480  0.32671490  1.0
  Ni  Ni893  1  0.10249290  0.83991813  0.32671490  1.0
  Ni  Ni894  1  0.43582623  0.17325147  0.32671490  1.0
  Ni  Ni895  1  0.43582623  0.50658480  0.32671490  1.0
  Ni  Ni896  1  0.43582623  0.83991813  0.32671490  1.0
  Ni  Ni897  1  0.76915957  0.17325147  0.32671490  1.0
  Ni  Ni898  1  0.76915957  0.50658480  0.32671490  1.0
  Ni  Ni899  1  0.76915957  0.83991813  0.32671490  1.0
  Ni  Ni900  1  0.31440575  0.10386833  0.37875225  1.0
  Ni  Ni901  1  0.31440575  0.43720167  0.37875225  1.0
  Ni  Ni902  1  0.31440575  0.77053500  0.37875225  1.0
  Ni  Ni903  1  0.64773908  0.10386833  0.37875225  1.0
  Ni  Ni904  1  0.64773908  0.43720167  0.37875225  1.0
  Ni  Ni905  1  0.64773908  0.77053500  0.37875225  1.0
  Ni  Ni906  1  0.98107242  0.10386833  0.37875225  1.0
  Ni  Ni907  1  0.98107242  0.43720167  0.37875225  1.0
  Ni  Ni908  1  0.98107242  0.77053500  0.37875225  1.0
  Ni  Ni909  1  0.21440575  0.23720167  0.27875225  1.0
  Ni  Ni910  1  0.21440575  0.57053500  0.27875225  1.0
  Ni  Ni911  1  0.21440575  0.90386833  0.27875225  1.0
  Ni  Ni912  1  0.54773908  0.23720167  0.27875225  1.0
  Ni  Ni913  1  0.54773908  0.57053500  0.27875225  1.0
  Ni  Ni914  1  0.54773908  0.90386833  0.27875225  1.0
  Ni  Ni915  1  0.88107242  0.23720167  0.27875225  1.0
  Ni  Ni916  1  0.88107242  0.57053500  0.27875225  1.0
  Ni  Ni917  1  0.88107242  0.90386833  0.27875225  1.0
  Ni  Ni918  1  0.21848045  0.07189323  0.28282695  1.0
  Ni  Ni919  1  0.21848045  0.40522657  0.28282695  1.0
  Ni  Ni920  1  0.21848045  0.73855990  0.28282695  1.0
  Ni  Ni921  1  0.55181378  0.07189323  0.28282695  1.0
  Ni  Ni922  1  0.55181378  0.40522657  0.28282695  1.0
  Ni  Ni923  1  0.55181378  0.73855990  0.28282695  1.0
  Ni  Ni924  1  0.88514712  0.07189323  0.28282695  1.0
  Ni  Ni925  1  0.88514712  0.40522657  0.28282695  1.0
  Ni  Ni926  1  0.88514712  0.73855990  0.28282695  1.0
  Ni  Ni927  1  0.31848045  0.27189323  0.38282695  1.0
  Ni  Ni928  1  0.31848045  0.60522657  0.38282695  1.0
  Ni  Ni929  1  0.31848045  0.93855990  0.38282695  1.0
  Ni  Ni930  1  0.65181378  0.27189323  0.38282695  1.0
  Ni  Ni931  1  0.65181378  0.60522657  0.38282695  1.0
  Ni  Ni932  1  0.65181378  0.93855990  0.38282695  1.0
  Ni  Ni933  1  0.98514712  0.27189323  0.38282695  1.0
  Ni  Ni934  1  0.98514712  0.60522657  0.38282695  1.0
  Ni  Ni935  1  0.98514712  0.93855990  0.38282695  1.0
  Ni  Ni936  1  0.02542370  0.02228790  0.25470370  1.0
  Ni  Ni937  1  0.02542370  0.35562123  0.25470370  1.0
  Ni  Ni938  1  0.02542370  0.68895457  0.25470370  1.0
  Ni  Ni939  1  0.35875703  0.02228790  0.25470370  1.0
  Ni  Ni940  1  0.35875703  0.35562123  0.25470370  1.0
  Ni  Ni941  1  0.35875703  0.68895457  0.25470370  1.0
  Ni  Ni942  1  0.69209037  0.02228790  0.25470370  1.0
  Ni  Ni943  1  0.69209037  0.35562123  0.25470370  1.0
  Ni  Ni944  1  0.69209037  0.68895457  0.25470370  1.0
  Ni  Ni945  1  0.12542370  0.22228790  0.35470370  1.0
  Ni  Ni946  1  0.12542370  0.55562123  0.35470370  1.0
  Ni  Ni947  1  0.12542370  0.88895457  0.35470370  1.0
  Ni  Ni948  1  0.45875703  0.22228790  0.35470370  1.0
  Ni  Ni949  1  0.45875703  0.55562123  0.35470370  1.0
  Ni  Ni950  1  0.45875703  0.88895457  0.35470370  1.0
  Ni  Ni951  1  0.79209037  0.22228790  0.35470370  1.0
  Ni  Ni952  1  0.79209037  0.55562123  0.35470370  1.0
  Ni  Ni953  1  0.79209037  0.88895457  0.35470370  1.0
  Ni  Ni954  1  0.30871203  0.08901457  0.20465870  1.0
  Ni  Ni955  1  0.30871203  0.42234790  0.20465870  1.0
  Ni  Ni956  1  0.30871203  0.75568123  0.20465870  1.0
  Ni  Ni957  1  0.64204537  0.08901457  0.20465870  1.0
  Ni  Ni958  1  0.64204537  0.42234790  0.20465870  1.0
  Ni  Ni959  1  0.64204537  0.75568123  0.20465870  1.0
  Ni  Ni960  1  0.97537870  0.08901457  0.20465870  1.0
  Ni  Ni961  1  0.97537870  0.42234790  0.20465870  1.0
  Ni  Ni962  1  0.97537870  0.75568123  0.20465870  1.0
  Ni  Ni963  1  0.07537870  0.28901457  0.30465870  1.0
  Ni  Ni964  1  0.07537870  0.62234790  0.30465870  1.0
  Ni  Ni965  1  0.07537870  0.95568123  0.30465870  1.0
  Ni  Ni966  1  0.40871203  0.28901457  0.30465870  1.0
  Ni  Ni967  1  0.40871203  0.62234790  0.30465870  1.0
  Ni  Ni968  1  0.40871203  0.95568123  0.30465870  1.0
  Ni  Ni969  1  0.74204537  0.28901457  0.30465870  1.0
  Ni  Ni970  1  0.74204537  0.62234790  0.30465870  1.0
  Ni  Ni971  1  0.74204537  0.95568123  0.30465870  1.0
  Ni  Ni972  1  0.24210537  0.12231790  0.30456870  1.0
  Ni  Ni973  1  0.24210537  0.45565123  0.30456870  1.0
  Ni  Ni974  1  0.24210537  0.78898457  0.30456870  1.0
  Ni  Ni975  1  0.57543870  0.12231790  0.30456870  1.0
  Ni  Ni976  1  0.57543870  0.45565123  0.30456870  1.0
  Ni  Ni977  1  0.57543870  0.78898457  0.30456870  1.0
  Ni  Ni978  1  0.90877203  0.12231790  0.30456870  1.0
  Ni  Ni979  1  0.90877203  0.45565123  0.30456870  1.0
  Ni  Ni980  1  0.90877203  0.78898457  0.30456870  1.0
  Ni  Ni981  1  0.14210537  0.25565123  0.20456870  1.0
  Ni  Ni982  1  0.14210537  0.58898457  0.20456870  1.0
  Ni  Ni983  1  0.14210537  0.92231790  0.20456870  1.0
  Ni  Ni984  1  0.47543870  0.25565123  0.20456870  1.0
  Ni  Ni985  1  0.47543870  0.58898457  0.20456870  1.0
  Ni  Ni986  1  0.47543870  0.92231790  0.20456870  1.0
  Ni  Ni987  1  0.80877203  0.25565123  0.20456870  1.0
  Ni  Ni988  1  0.80877203  0.58898457  0.20456870  1.0
  Ni  Ni989  1  0.80877203  0.92231790  0.20456870  1.0
  Ni  Ni990  1  0.30884903  0.00565190  0.20479570  1.0
  Ni  Ni991  1  0.30884903  0.33898523  0.20479570  1.0
  Ni  Ni992  1  0.30884903  0.67231857  0.20479570  1.0
  Ni  Ni993  1  0.64218237  0.00565190  0.20479570  1.0
  Ni  Ni994  1  0.64218237  0.33898523  0.20479570  1.0
  Ni  Ni995  1  0.64218237  0.67231857  0.20479570  1.0
  Ni  Ni996  1  0.97551570  0.00565190  0.20479570  1.0
  Ni  Ni997  1  0.97551570  0.33898523  0.20479570  1.0
  Ni  Ni998  1  0.97551570  0.67231857  0.20479570  1.0
  Ni  Ni999  1  0.07551570  0.20565190  0.30479570  1.0
  Ni  Ni1000  1  0.07551570  0.53898523  0.30479570  1.0
  Ni  Ni1001  1  0.07551570  0.87231857  0.30479570  1.0
  Ni  Ni1002  1  0.40884903  0.20565190  0.30479570  1.0
  Ni  Ni1003  1  0.40884903  0.53898523  0.30479570  1.0
  Ni  Ni1004  1  0.40884903  0.87231857  0.30479570  1.0
  Ni  Ni1005  1  0.74218237  0.20565190  0.30479570  1.0
  Ni  Ni1006  1  0.74218237  0.53898523  0.30479570  1.0
  Ni  Ni1007  1  0.74218237  0.87231857  0.30479570  1.0
  Ni  Ni1008  1  0.29228737  0.13904523  0.35475070  1.0
  Ni  Ni1009  1  0.29228737  0.47237857  0.35475070  1.0
  Ni  Ni1010  1  0.29228737  0.80571190  0.35475070  1.0
  Ni  Ni1011  1  0.62562070  0.13904523  0.35475070  1.0
  Ni  Ni1012  1  0.62562070  0.47237857  0.35475070  1.0
  Ni  Ni1013  1  0.62562070  0.80571190  0.35475070  1.0
  Ni  Ni1014  1  0.95895403  0.13904523  0.35475070  1.0
  Ni  Ni1015  1  0.95895403  0.47237857  0.35475070  1.0
  Ni  Ni1016  1  0.95895403  0.80571190  0.35475070  1.0
  Ni  Ni1017  1  0.19228737  0.27237857  0.25475070  1.0
  Ni  Ni1018  1  0.19228737  0.60571190  0.25475070  1.0
  Ni  Ni1019  1  0.19228737  0.93904523  0.25475070  1.0
  Ni  Ni1020  1  0.52562070  0.27237857  0.25475070  1.0
  Ni  Ni1021  1  0.52562070  0.60571190  0.25475070  1.0
  Ni  Ni1022  1  0.52562070  0.93904523  0.25475070  1.0
  Ni  Ni1023  1  0.85895403  0.27237857  0.25475070  1.0
  Ni  Ni1024  1  0.85895403  0.60571190  0.25475070  1.0
  Ni  Ni1025  1  0.85895403  0.93904523  0.25475070  1.0
  Ni  Ni1026  1  0.02556070  0.10574190  0.25484070  1.0
  Ni  Ni1027  1  0.02556070  0.43907523  0.25484070  1.0
  Ni  Ni1028  1  0.02556070  0.77240857  0.25484070  1.0
  Ni  Ni1029  1  0.35889403  0.10574190  0.25484070  1.0
  Ni  Ni1030  1  0.35889403  0.43907523  0.25484070  1.0
  Ni  Ni1031  1  0.35889403  0.77240857  0.25484070  1.0
  Ni  Ni1032  1  0.69222737  0.10574190  0.25484070  1.0
  Ni  Ni1033  1  0.69222737  0.43907523  0.25484070  1.0
  Ni  Ni1034  1  0.69222737  0.77240857  0.25484070  1.0
  Ni  Ni1035  1  0.12556070  0.30574190  0.35484070  1.0
  Ni  Ni1036  1  0.12556070  0.63907523  0.35484070  1.0
  Ni  Ni1037  1  0.12556070  0.97240857  0.35484070  1.0
  Ni  Ni1038  1  0.45889403  0.30574190  0.35484070  1.0
  Ni  Ni1039  1  0.45889403  0.63907523  0.35484070  1.0
  Ni  Ni1040  1  0.45889403  0.97240857  0.35484070  1.0
  Ni  Ni1041  1  0.79222737  0.30574190  0.35484070  1.0
  Ni  Ni1042  1  0.79222737  0.63907523  0.35484070  1.0
  Ni  Ni1043  1  0.79222737  0.97240857  0.35484070  1.0
  Ni  Ni1044  1  0.23392437  0.18913590  0.37956770  1.0
  Ni  Ni1045  1  0.23392437  0.52246923  0.37956770  1.0
  Ni  Ni1046  1  0.23392437  0.85580257  0.37956770  1.0
  Ni  Ni1047  1  0.56725770  0.18913590  0.37956770  1.0
  Ni  Ni1048  1  0.56725770  0.52246923  0.37956770  1.0
  Ni  Ni1049  1  0.56725770  0.85580257  0.37956770  1.0
  Ni  Ni1050  1  0.90059103  0.18913590  0.37956770  1.0
  Ni  Ni1051  1  0.90059103  0.52246923  0.37956770  1.0
  Ni  Ni1052  1  0.90059103  0.85580257  0.37956770  1.0
  Ni  Ni1053  1  0.13392437  0.32246923  0.27956770  1.0
  Ni  Ni1054  1  0.13392437  0.65580257  0.27956770  1.0
  Ni  Ni1055  1  0.13392437  0.98913590  0.27956770  1.0
  Ni  Ni1056  1  0.46725770  0.32246923  0.27956770  1.0
  Ni  Ni1057  1  0.46725770  0.65580257  0.27956770  1.0
  Ni  Ni1058  1  0.46725770  0.98913590  0.27956770  1.0
  Ni  Ni1059  1  0.80059103  0.32246923  0.27956770  1.0
  Ni  Ni1060  1  0.80059103  0.65580257  0.27956770  1.0
  Ni  Ni1061  1  0.80059103  0.98913590  0.27956770  1.0
  Ni  Ni1062  1  0.08396937  0.05574257  0.22961270  1.0
  Ni  Ni1063  1  0.08396937  0.38907590  0.22961270  1.0
  Ni  Ni1064  1  0.08396937  0.72240923  0.22961270  1.0
  Ni  Ni1065  1  0.41730270  0.05574257  0.22961270  1.0
  Ni  Ni1066  1  0.41730270  0.38907590  0.22961270  1.0
  Ni  Ni1067  1  0.41730270  0.72240923  0.22961270  1.0
  Ni  Ni1068  1  0.75063603  0.05574257  0.22961270  1.0
  Ni  Ni1069  1  0.75063603  0.38907590  0.22961270  1.0
  Ni  Ni1070  1  0.75063603  0.72240923  0.22961270  1.0
  Ni  Ni1071  1  0.18396937  0.25574257  0.32961270  1.0
  Ni  Ni1072  1  0.18396937  0.58907590  0.32961270  1.0
  Ni  Ni1073  1  0.18396937  0.92240923  0.32961270  1.0
  Ni  Ni1074  1  0.51730270  0.25574257  0.32961270  1.0
  Ni  Ni1075  1  0.51730270  0.58907590  0.32961270  1.0
  Ni  Ni1076  1  0.51730270  0.92240923  0.32961270  1.0
  Ni  Ni1077  1  0.85063603  0.25574257  0.32961270  1.0
  Ni  Ni1078  1  0.85063603  0.58907590  0.32961270  1.0
  Ni  Ni1079  1  0.85063603  0.92240923  0.32961270  1.0
  Ni  Ni1080  1  0.18387937  0.08904590  0.32952270  1.0
  Ni  Ni1081  1  0.18387937  0.42237923  0.32952270  1.0
  Ni  Ni1082  1  0.18387937  0.75571257  0.32952270  1.0
  Ni  Ni1083  1  0.51721270  0.08904590  0.32952270  1.0
  Ni  Ni1084  1  0.51721270  0.42237923  0.32952270  1.0
  Ni  Ni1085  1  0.51721270  0.75571257  0.32952270  1.0
  Ni  Ni1086  1  0.85054603  0.08904590  0.32952270  1.0
  Ni  Ni1087  1  0.85054603  0.42237923  0.32952270  1.0
  Ni  Ni1088  1  0.85054603  0.75571257  0.32952270  1.0
  Ni  Ni1089  1  0.08387937  0.22237923  0.22952270  1.0
  Ni  Ni1090  1  0.08387937  0.55571257  0.22952270  1.0
  Ni  Ni1091  1  0.08387937  0.88904590  0.22952270  1.0
  Ni  Ni1092  1  0.41721270  0.22237923  0.22952270  1.0
  Ni  Ni1093  1  0.41721270  0.55571257  0.22952270  1.0
  Ni  Ni1094  1  0.41721270  0.88904590  0.22952270  1.0
  Ni  Ni1095  1  0.75054603  0.22237923  0.22952270  1.0
  Ni  Ni1096  1  0.75054603  0.55571257  0.22952270  1.0
  Ni  Ni1097  1  0.75054603  0.88904590  0.22952270  1.0
  Ni  Ni1098  1  0.26719637  0.17249990  0.32965970  1.0
  Ni  Ni1099  1  0.26719637  0.50583323  0.32965970  1.0
  Ni  Ni1100  1  0.26719637  0.83916657  0.32965970  1.0
  Ni  Ni1101  1  0.60052970  0.17249990  0.32965970  1.0
  Ni  Ni1102  1  0.60052970  0.50583323  0.32965970  1.0
  Ni  Ni1103  1  0.60052970  0.83916657  0.32965970  1.0
  Ni  Ni1104  1  0.93386303  0.17249990  0.32965970  1.0
  Ni  Ni1105  1  0.93386303  0.50583323  0.32965970  1.0
  Ni  Ni1106  1  0.93386303  0.83916657  0.32965970  1.0
  Ni  Ni1107  1  0.16719637  0.30583323  0.22965970  1.0
  Ni  Ni1108  1  0.16719637  0.63916657  0.22965970  1.0
  Ni  Ni1109  1  0.16719637  0.97249990  0.22965970  1.0
  Ni  Ni1110  1  0.50052970  0.30583323  0.22965970  1.0
  Ni  Ni1111  1  0.50052970  0.63916657  0.22965970  1.0
  Ni  Ni1112  1  0.50052970  0.97249990  0.22965970  1.0
  Ni  Ni1113  1  0.83386303  0.30583323  0.22965970  1.0
  Ni  Ni1114  1  0.83386303  0.63916657  0.22965970  1.0
  Ni  Ni1115  1  0.83386303  0.97249990  0.22965970  1.0
  Ni  Ni1116  1  0.15042470  0.10577323  0.37970470  1.0
  Ni  Ni1117  1  0.15042470  0.43910657  0.37970470  1.0
  Ni  Ni1118  1  0.15042470  0.77243990  0.37970470  1.0
  Ni  Ni1119  1  0.48375803  0.10577323  0.37970470  1.0
  Ni  Ni1120  1  0.48375803  0.43910657  0.37970470  1.0
  Ni  Ni1121  1  0.48375803  0.77243990  0.37970470  1.0
  Ni  Ni1122  1  0.81709137  0.10577323  0.37970470  1.0
  Ni  Ni1123  1  0.81709137  0.43910657  0.37970470  1.0
  Ni  Ni1124  1  0.81709137  0.77243990  0.37970470  1.0
  Ni  Ni1125  1  0.05042470  0.23910657  0.27970470  1.0
  Ni  Ni1126  1  0.05042470  0.57243990  0.27970470  1.0
  Ni  Ni1127  1  0.05042470  0.90577323  0.27970470  1.0
  Ni  Ni1128  1  0.38375803  0.23910657  0.27970470  1.0
  Ni  Ni1129  1  0.38375803  0.57243990  0.27970470  1.0
  Ni  Ni1130  1  0.38375803  0.90577323  0.27970470  1.0
  Ni  Ni1131  1  0.71709137  0.23910657  0.27970470  1.0
  Ni  Ni1132  1  0.71709137  0.57243990  0.27970470  1.0
  Ni  Ni1133  1  0.71709137  0.90577323  0.27970470  1.0
  Ni  Ni1134  1  0.05051470  0.07246990  0.27979470  1.0
  Ni  Ni1135  1  0.05051470  0.40580323  0.27979470  1.0
  Ni  Ni1136  1  0.05051470  0.73913657  0.27979470  1.0
  Ni  Ni1137  1  0.38384803  0.07246990  0.27979470  1.0
  Ni  Ni1138  1  0.38384803  0.40580323  0.27979470  1.0
  Ni  Ni1139  1  0.38384803  0.73913657  0.27979470  1.0
  Ni  Ni1140  1  0.71718137  0.07246990  0.27979470  1.0
  Ni  Ni1141  1  0.71718137  0.40580323  0.27979470  1.0
  Ni  Ni1142  1  0.71718137  0.73913657  0.27979470  1.0
  Ni  Ni1143  1  0.15051470  0.27246990  0.37979470  1.0
  Ni  Ni1144  1  0.15051470  0.60580323  0.37979470  1.0
  Ni  Ni1145  1  0.15051470  0.93913657  0.37979470  1.0
  Ni  Ni1146  1  0.48384803  0.27246990  0.37979470  1.0
  Ni  Ni1147  1  0.48384803  0.60580323  0.37979470  1.0
  Ni  Ni1148  1  0.48384803  0.93913657  0.37979470  1.0
  Ni  Ni1149  1  0.81718137  0.27246990  0.37979470  1.0
  Ni  Ni1150  1  0.81718137  0.60580323  0.37979470  1.0
  Ni  Ni1151  1  0.81718137  0.93913657  0.37979470  1.0
  Y  Y1152  1  0.02551503  0.06406057  0.19218170  1.0
  Y  Y1153  1  0.02551503  0.39739390  0.19218170  1.0
  Y  Y1154  1  0.02551503  0.73072723  0.19218170  1.0
  Y  Y1155  1  0.35884837  0.06406057  0.19218170  1.0
  Y  Y1156  1  0.35884837  0.39739390  0.19218170  1.0
  Y  Y1157  1  0.35884837  0.73072723  0.19218170  1.0
  Y  Y1158  1  0.69218170  0.06406057  0.19218170  1.0
  Y  Y1159  1  0.69218170  0.39739390  0.19218170  1.0
  Y  Y1160  1  0.69218170  0.73072723  0.19218170  1.0
  Y  Y1161  1  0.25884837  0.19739390  0.09218170  1.0
  Y  Y1162  1  0.25884837  0.53072723  0.09218170  1.0
  Y  Y1163  1  0.25884837  0.86406057  0.09218170  1.0
  Y  Y1164  1  0.59218170  0.19739390  0.09218170  1.0
  Y  Y1165  1  0.59218170  0.53072723  0.09218170  1.0
  Y  Y1166  1  0.59218170  0.86406057  0.09218170  1.0
  Y  Y1167  1  0.92551503  0.19739390  0.09218170  1.0
  Y  Y1168  1  0.92551503  0.53072723  0.09218170  1.0
  Y  Y1169  1  0.92551503  0.86406057  0.09218170  1.0
  Y  Y1170  1  0.14347717  0.23586550  0.11141750  1.0
  Y  Y1171  1  0.14347717  0.56919883  0.11141750  1.0
  Y  Y1172  1  0.14347717  0.90253217  0.11141750  1.0
  Y  Y1173  1  0.47681050  0.23586550  0.11141750  1.0
  Y  Y1174  1  0.47681050  0.56919883  0.11141750  1.0
  Y  Y1175  1  0.47681050  0.90253217  0.11141750  1.0
  Y  Y1176  1  0.81014383  0.23586550  0.11141750  1.0
  Y  Y1177  1  0.81014383  0.56919883  0.11141750  1.0
  Y  Y1178  1  0.81014383  0.90253217  0.11141750  1.0
  Y  Y1179  1  0.04347717  0.03586550  0.01141750  1.0
  Y  Y1180  1  0.04347717  0.36919883  0.01141750  1.0
  Y  Y1181  1  0.04347717  0.70253217  0.01141750  1.0
  Y  Y1182  1  0.37681050  0.03586550  0.01141750  1.0
  Y  Y1183  1  0.37681050  0.36919883  0.01141750  1.0
  Y  Y1184  1  0.37681050  0.70253217  0.01141750  1.0
  Y  Y1185  1  0.71014383  0.03586550  0.01141750  1.0
  Y  Y1186  1  0.71014383  0.36919883  0.01141750  1.0
  Y  Y1187  1  0.71014383  0.70253217  0.01141750  1.0
  Y  Y1188  1  0.06653397  0.21021777  0.03447430  1.0
  Y  Y1189  1  0.06653397  0.54355110  0.03447430  1.0
  Y  Y1190  1  0.06653397  0.87688443  0.03447430  1.0
  Y  Y1191  1  0.39986730  0.21021777  0.03447430  1.0
  Y  Y1192  1  0.39986730  0.54355110  0.03447430  1.0
  Y  Y1193  1  0.39986730  0.87688443  0.03447430  1.0
  Y  Y1194  1  0.73320063  0.21021777  0.03447430  1.0
  Y  Y1195  1  0.73320063  0.54355110  0.03447430  1.0
  Y  Y1196  1  0.73320063  0.87688443  0.03447430  1.0
  Y  Y1197  1  0.16653397  0.07688443  0.13447430  1.0
  Y  Y1198  1  0.16653397  0.41021777  0.13447430  1.0
  Y  Y1199  1  0.16653397  0.74355110  0.13447430  1.0
  Y  Y1200  1  0.49986730  0.07688443  0.13447430  1.0
  Y  Y1201  1  0.49986730  0.41021777  0.13447430  1.0
  Y  Y1202  1  0.49986730  0.74355110  0.13447430  1.0
  Y  Y1203  1  0.83320063  0.07688443  0.13447430  1.0
  Y  Y1204  1  0.83320063  0.41021777  0.13447430  1.0
  Y  Y1205  1  0.83320063  0.74355110  0.13447430  1.0
  Y  Y1206  1  0.28704343  0.31790337  0.04988910  1.0
  Y  Y1207  1  0.28704343  0.65123670  0.04988910  1.0
  Y  Y1208  1  0.28704343  0.98457003  0.04988910  1.0
  Y  Y1209  1  0.62037677  0.31790337  0.04988910  1.0
  Y  Y1210  1  0.62037677  0.65123670  0.04988910  1.0
  Y  Y1211  1  0.62037677  0.98457003  0.04988910  1.0
  Y  Y1212  1  0.95371010  0.31790337  0.04988910  1.0
  Y  Y1213  1  0.95371010  0.65123670  0.04988910  1.0
  Y  Y1214  1  0.95371010  0.98457003  0.04988910  1.0
  Y  Y1215  1  0.05371010  0.18457003  0.14988910  1.0
  Y  Y1216  1  0.05371010  0.51790337  0.14988910  1.0
  Y  Y1217  1  0.05371010  0.85123670  0.14988910  1.0
  Y  Y1218  1  0.38704343  0.18457003  0.14988910  1.0
  Y  Y1219  1  0.38704343  0.51790337  0.14988910  1.0
  Y  Y1220  1  0.38704343  0.85123670  0.14988910  1.0
  Y  Y1221  1  0.72037677  0.18457003  0.14988910  1.0
  Y  Y1222  1  0.72037677  0.51790337  0.14988910  1.0
  Y  Y1223  1  0.72037677  0.85123670  0.14988910  1.0
  Y  Y1224  1  0.20500557  0.02558897  0.17294590  1.0
  Y  Y1225  1  0.20500557  0.35892230  0.17294590  1.0
  Y  Y1226  1  0.20500557  0.69225563  0.17294590  1.0
  Y  Y1227  1  0.53833890  0.02558897  0.17294590  1.0
  Y  Y1228  1  0.53833890  0.35892230  0.17294590  1.0
  Y  Y1229  1  0.53833890  0.69225563  0.17294590  1.0
  Y  Y1230  1  0.87167223  0.02558897  0.17294590  1.0
  Y  Y1231  1  0.87167223  0.35892230  0.17294590  1.0
  Y  Y1232  1  0.87167223  0.69225563  0.17294590  1.0
  Y  Y1233  1  0.10500557  0.15892230  0.07294590  1.0
  Y  Y1234  1  0.10500557  0.49225563  0.07294590  1.0
  Y  Y1235  1  0.10500557  0.82558897  0.07294590  1.0
  Y  Y1236  1  0.43833890  0.15892230  0.07294590  1.0
  Y  Y1237  1  0.43833890  0.49225563  0.07294590  1.0
  Y  Y1238  1  0.43833890  0.82558897  0.07294590  1.0
  Y  Y1239  1  0.77167223  0.15892230  0.07294590  1.0
  Y  Y1240  1  0.77167223  0.49225563  0.07294590  1.0
  Y  Y1241  1  0.77167223  0.82558897  0.07294590  1.0
  Y  Y1242  1  0.22649583  0.04812950  0.01754950  1.0
  Y  Y1243  1  0.22649583  0.38146283  0.01754950  1.0
  Y  Y1244  1  0.22649583  0.71479617  0.01754950  1.0
  Y  Y1245  1  0.55982917  0.04812950  0.01754950  1.0
  Y  Y1246  1  0.55982917  0.38146283  0.01754950  1.0
  Y  Y1247  1  0.55982917  0.71479617  0.01754950  1.0
  Y  Y1248  1  0.89316250  0.04812950  0.01754950  1.0
  Y  Y1249  1  0.89316250  0.38146283  0.01754950  1.0
  Y  Y1250  1  0.89316250  0.71479617  0.01754950  1.0
  Y  Y1251  1  0.32649583  0.24812950  0.11754950  1.0
  Y  Y1252  1  0.32649583  0.58146283  0.11754950  1.0
  Y  Y1253  1  0.32649583  0.91479617  0.11754950  1.0
  Y  Y1254  1  0.65982917  0.24812950  0.11754950  1.0
  Y  Y1255  1  0.65982917  0.58146283  0.11754950  1.0
  Y  Y1256  1  0.65982917  0.91479617  0.11754950  1.0
  Y  Y1257  1  0.99316250  0.24812950  0.11754950  1.0
  Y  Y1258  1  0.99316250  0.58146283  0.11754950  1.0
  Y  Y1259  1  0.99316250  0.91479617  0.11754950  1.0
  Y  Y1260  1  0.32502463  0.08097243  0.11607830  1.0
  Y  Y1261  1  0.32502463  0.41430577  0.11607830  1.0
  Y  Y1262  1  0.32502463  0.74763910  0.11607830  1.0
  Y  Y1263  1  0.65835797  0.08097243  0.11607830  1.0
  Y  Y1264  1  0.65835797  0.41430577  0.11607830  1.0
  Y  Y1265  1  0.65835797  0.74763910  0.11607830  1.0
  Y  Y1266  1  0.99169130  0.08097243  0.11607830  1.0
  Y  Y1267  1  0.99169130  0.41430577  0.11607830  1.0
  Y  Y1268  1  0.99169130  0.74763910  0.11607830  1.0
  Y  Y1269  1  0.22502463  0.21430577  0.01607830  1.0
  Y  Y1270  1  0.22502463  0.54763910  0.01607830  1.0
  Y  Y1271  1  0.22502463  0.88097243  0.01607830  1.0
  Y  Y1272  1  0.55835797  0.21430577  0.01607830  1.0
  Y  Y1273  1  0.55835797  0.54763910  0.01607830  1.0
  Y  Y1274  1  0.55835797  0.88097243  0.01607830  1.0
  Y  Y1275  1  0.89169130  0.21430577  0.01607830  1.0
  Y  Y1276  1  0.89169130  0.54763910  0.01607830  1.0
  Y  Y1277  1  0.89169130  0.88097243  0.01607830  1.0
  Y  Y1278  1  0.10811277  0.31381537  0.06828510  1.0
  Y  Y1279  1  0.10811277  0.64714870  0.06828510  1.0
  Y  Y1280  1  0.10811277  0.98048203  0.06828510  1.0
  Y  Y1281  1  0.44144610  0.31381537  0.06828510  1.0
  Y  Y1282  1  0.44144610  0.64714870  0.06828510  1.0
  Y  Y1283  1  0.44144610  0.98048203  0.06828510  1.0
  Y  Y1284  1  0.77477943  0.31381537  0.06828510  1.0
  Y  Y1285  1  0.77477943  0.64714870  0.06828510  1.0
  Y  Y1286  1  0.77477943  0.98048203  0.06828510  1.0
  Y  Y1287  1  0.20811277  0.18048203  0.16828510  1.0
  Y  Y1288  1  0.20811277  0.51381537  0.16828510  1.0
  Y  Y1289  1  0.20811277  0.84714870  0.16828510  1.0
  Y  Y1290  1  0.54144610  0.18048203  0.16828510  1.0
  Y  Y1291  1  0.54144610  0.51381537  0.16828510  1.0
  Y  Y1292  1  0.54144610  0.84714870  0.16828510  1.0
  Y  Y1293  1  0.87477943  0.18048203  0.16828510  1.0
  Y  Y1294  1  0.87477943  0.51381537  0.16828510  1.0
  Y  Y1295  1  0.87477943  0.84714870  0.16828510  1.0
  Y  Y1296  1  0.04242690  0.01332497  0.16681390  1.0
  Y  Y1297  1  0.04242690  0.34665830  0.16681390  1.0
  Y  Y1298  1  0.04242690  0.67999163  0.16681390  1.0
  Y  Y1299  1  0.37576023  0.01332497  0.16681390  1.0
  Y  Y1300  1  0.37576023  0.34665830  0.16681390  1.0
  Y  Y1301  1  0.37576023  0.67999163  0.16681390  1.0
  Y  Y1302  1  0.70909357  0.01332497  0.16681390  1.0
  Y  Y1303  1  0.70909357  0.34665830  0.16681390  1.0
  Y  Y1304  1  0.70909357  0.67999163  0.16681390  1.0
  Y  Y1305  1  0.27576023  0.14665830  0.06681390  1.0
  Y  Y1306  1  0.27576023  0.47999163  0.06681390  1.0
  Y  Y1307  1  0.27576023  0.81332497  0.06681390  1.0
  Y  Y1308  1  0.60909357  0.14665830  0.06681390  1.0
  Y  Y1309  1  0.60909357  0.47999163  0.06681390  1.0
  Y  Y1310  1  0.60909357  0.81332497  0.06681390  1.0
  Y  Y1311  1  0.94242690  0.14665830  0.06681390  1.0
  Y  Y1312  1  0.94242690  0.47999163  0.06681390  1.0
  Y  Y1313  1  0.94242690  0.81332497  0.06681390  1.0
  Y  Y1314  1  0.14721937  0.29739390  0.14218170  1.0
  Y  Y1315  1  0.14721937  0.63072723  0.14218170  1.0
  Y  Y1316  1  0.14721937  0.96406057  0.14218170  1.0
  Y  Y1317  1  0.48055270  0.29739390  0.14218170  1.0
  Y  Y1318  1  0.48055270  0.63072723  0.14218170  1.0
  Y  Y1319  1  0.48055270  0.96406057  0.14218170  1.0
  Y  Y1320  1  0.81388603  0.29739390  0.14218170  1.0
  Y  Y1321  1  0.81388603  0.63072723  0.14218170  1.0
  Y  Y1322  1  0.81388603  0.96406057  0.14218170  1.0
  Y  Y1323  1  0.04721937  0.09739390  0.04218170  1.0
  Y  Y1324  1  0.04721937  0.43072723  0.04218170  1.0
  Y  Y1325  1  0.04721937  0.76406057  0.04218170  1.0
  Y  Y1326  1  0.38055270  0.09739390  0.04218170  1.0
  Y  Y1327  1  0.38055270  0.43072723  0.04218170  1.0
  Y  Y1328  1  0.38055270  0.76406057  0.04218170  1.0
  Y  Y1329  1  0.71388603  0.09739390  0.04218170  1.0
  Y  Y1330  1  0.71388603  0.43072723  0.04218170  1.0
  Y  Y1331  1  0.71388603  0.76406057  0.04218170  1.0
  Y  Y1332  1  0.20985590  0.26607563  0.04822690  1.0
  Y  Y1333  1  0.20985590  0.59940897  0.04822690  1.0
  Y  Y1334  1  0.20985590  0.93274230  0.04822690  1.0
  Y  Y1335  1  0.54318923  0.26607563  0.04822690  1.0
  Y  Y1336  1  0.54318923  0.59940897  0.04822690  1.0
  Y  Y1337  1  0.54318923  0.93274230  0.04822690  1.0
  Y  Y1338  1  0.87652257  0.26607563  0.04822690  1.0
  Y  Y1339  1  0.87652257  0.59940897  0.04822690  1.0
  Y  Y1340  1  0.87652257  0.93274230  0.04822690  1.0
  Y  Y1341  1  0.30985590  0.13274230  0.14822690  1.0
  Y  Y1342  1  0.30985590  0.46607563  0.14822690  1.0
  Y  Y1343  1  0.30985590  0.79940897  0.14822690  1.0
  Y  Y1344  1  0.64318923  0.13274230  0.14822690  1.0
  Y  Y1345  1  0.64318923  0.46607563  0.14822690  1.0
  Y  Y1346  1  0.64318923  0.79940897  0.14822690  1.0
  Y  Y1347  1  0.97652257  0.13274230  0.14822690  1.0
  Y  Y1348  1  0.97652257  0.46607563  0.14822690  1.0
  Y  Y1349  1  0.97652257  0.79940897  0.14822690  1.0
  Y  Y1350  1  0.19419677  0.23475737  0.18915910  1.0
  Y  Y1351  1  0.19419677  0.56809070  0.18915910  1.0
  Y  Y1352  1  0.19419677  0.90142403  0.18915910  1.0
  Y  Y1353  1  0.52753010  0.23475737  0.18915910  1.0
  Y  Y1354  1  0.52753010  0.56809070  0.18915910  1.0
  Y  Y1355  1  0.52753010  0.90142403  0.18915910  1.0
  Y  Y1356  1  0.86086343  0.23475737  0.18915910  1.0
  Y  Y1357  1  0.86086343  0.56809070  0.18915910  1.0
  Y  Y1358  1  0.86086343  0.90142403  0.18915910  1.0
  Y  Y1359  1  0.09419677  0.03475737  0.08915910  1.0
  Y  Y1360  1  0.09419677  0.36809070  0.08915910  1.0
  Y  Y1361  1  0.09419677  0.70142403  0.08915910  1.0
  Y  Y1362  1  0.42753010  0.03475737  0.08915910  1.0
  Y  Y1363  1  0.42753010  0.36809070  0.08915910  1.0
  Y  Y1364  1  0.42753010  0.70142403  0.08915910  1.0
  Y  Y1365  1  0.76086343  0.03475737  0.08915910  1.0
  Y  Y1366  1  0.76086343  0.36809070  0.08915910  1.0
  Y  Y1367  1  0.76086343  0.70142403  0.08915910  1.0
  Y  Y1368  1  0.30381070  0.29739390  0.14218170  1.0
  Y  Y1369  1  0.30381070  0.63072723  0.14218170  1.0
  Y  Y1370  1  0.30381070  0.96406057  0.14218170  1.0
  Y  Y1371  1  0.63714403  0.29739390  0.14218170  1.0
  Y  Y1372  1  0.63714403  0.63072723  0.14218170  1.0
  Y  Y1373  1  0.63714403  0.96406057  0.14218170  1.0
  Y  Y1374  1  0.97047737  0.29739390  0.14218170  1.0
  Y  Y1375  1  0.97047737  0.63072723  0.14218170  1.0
  Y  Y1376  1  0.97047737  0.96406057  0.14218170  1.0
  Y  Y1377  1  0.20381070  0.09739390  0.04218170  1.0
  Y  Y1378  1  0.20381070  0.43072723  0.04218170  1.0
  Y  Y1379  1  0.20381070  0.76406057  0.04218170  1.0
  Y  Y1380  1  0.53714403  0.09739390  0.04218170  1.0
  Y  Y1381  1  0.53714403  0.43072723  0.04218170  1.0
  Y  Y1382  1  0.53714403  0.76406057  0.04218170  1.0
  Y  Y1383  1  0.87047737  0.09739390  0.04218170  1.0
  Y  Y1384  1  0.87047737  0.43072723  0.04218170  1.0
  Y  Y1385  1  0.87047737  0.76406057  0.04218170  1.0
  Y  Y1386  1  0.04117417  0.26204550  0.03613650  1.0
  Y  Y1387  1  0.04117417  0.59537883  0.03613650  1.0
  Y  Y1388  1  0.04117417  0.92871217  0.03613650  1.0
  Y  Y1389  1  0.37450750  0.26204550  0.03613650  1.0
  Y  Y1390  1  0.37450750  0.59537883  0.03613650  1.0
  Y  Y1391  1  0.37450750  0.92871217  0.03613650  1.0
  Y  Y1392  1  0.70784083  0.26204550  0.03613650  1.0
  Y  Y1393  1  0.70784083  0.59537883  0.03613650  1.0
  Y  Y1394  1  0.70784083  0.92871217  0.03613650  1.0
  Y  Y1395  1  0.14117417  0.12871217  0.13613650  1.0
  Y  Y1396  1  0.14117417  0.46204550  0.13613650  1.0
  Y  Y1397  1  0.14117417  0.79537883  0.13613650  1.0
  Y  Y1398  1  0.47450750  0.12871217  0.13613650  1.0
  Y  Y1399  1  0.47450750  0.46204550  0.13613650  1.0
  Y  Y1400  1  0.47450750  0.79537883  0.13613650  1.0
  Y  Y1401  1  0.80784083  0.12871217  0.13613650  1.0
  Y  Y1402  1  0.80784083  0.46204550  0.13613650  1.0
  Y  Y1403  1  0.80784083  0.79537883  0.13613650  1.0
  Y  Y1404  1  0.25683330  0.02669710  0.09520430  1.0
  Y  Y1405  1  0.25683330  0.36003043  0.09520430  1.0
  Y  Y1406  1  0.25683330  0.69336377  0.09520430  1.0
  Y  Y1407  1  0.59016663  0.02669710  0.09520430  1.0
  Y  Y1408  1  0.59016663  0.36003043  0.09520430  1.0
  Y  Y1409  1  0.59016663  0.69336377  0.09520430  1.0
  Y  Y1410  1  0.92349997  0.02669710  0.09520430  1.0
  Y  Y1411  1  0.92349997  0.36003043  0.09520430  1.0
  Y  Y1412  1  0.92349997  0.69336377  0.09520430  1.0
  Y  Y1413  1  0.02349997  0.22669710  0.19520430  1.0
  Y  Y1414  1  0.02349997  0.56003043  0.19520430  1.0
  Y  Y1415  1  0.02349997  0.89336377  0.19520430  1.0
  Y  Y1416  1  0.35683330  0.22669710  0.19520430  1.0
  Y  Y1417  1  0.35683330  0.56003043  0.19520430  1.0
  Y  Y1418  1  0.35683330  0.89336377  0.19520430  1.0
  Y  Y1419  1  0.69016663  0.22669710  0.19520430  1.0
  Y  Y1420  1  0.69016663  0.56003043  0.19520430  1.0
  Y  Y1421  1  0.69016663  0.89336377  0.19520430  1.0
  Y  Y1422  1  0.22551503  0.13072723  0.39218170  1.0
  Y  Y1423  1  0.22551503  0.46406057  0.39218170  1.0
  Y  Y1424  1  0.22551503  0.79739390  0.39218170  1.0
  Y  Y1425  1  0.55884837  0.13072723  0.39218170  1.0
  Y  Y1426  1  0.55884837  0.46406057  0.39218170  1.0
  Y  Y1427  1  0.55884837  0.79739390  0.39218170  1.0
  Y  Y1428  1  0.89218170  0.13072723  0.39218170  1.0
  Y  Y1429  1  0.89218170  0.46406057  0.39218170  1.0
  Y  Y1430  1  0.89218170  0.79739390  0.39218170  1.0
  Y  Y1431  1  0.12551503  0.26406057  0.29218170  1.0
  Y  Y1432  1  0.12551503  0.59739390  0.29218170  1.0
  Y  Y1433  1  0.12551503  0.93072723  0.29218170  1.0
  Y  Y1434  1  0.45884837  0.26406057  0.29218170  1.0
  Y  Y1435  1  0.45884837  0.59739390  0.29218170  1.0
  Y  Y1436  1  0.45884837  0.93072723  0.29218170  1.0
  Y  Y1437  1  0.79218170  0.26406057  0.29218170  1.0
  Y  Y1438  1  0.79218170  0.59739390  0.29218170  1.0
  Y  Y1439  1  0.79218170  0.93072723  0.29218170  1.0
  Y  Y1440  1  0.01014383  0.30253217  0.31141750  1.0
  Y  Y1441  1  0.01014383  0.63586550  0.31141750  1.0
  Y  Y1442  1  0.01014383  0.96919883  0.31141750  1.0
  Y  Y1443  1  0.34347717  0.30253217  0.31141750  1.0
  Y  Y1444  1  0.34347717  0.63586550  0.31141750  1.0
  Y  Y1445  1  0.34347717  0.96919883  0.31141750  1.0
  Y  Y1446  1  0.67681050  0.30253217  0.31141750  1.0
  Y  Y1447  1  0.67681050  0.63586550  0.31141750  1.0
  Y  Y1448  1  0.67681050  0.96919883  0.31141750  1.0
  Y  Y1449  1  0.24347717  0.10253217  0.21141750  1.0
  Y  Y1450  1  0.24347717  0.43586550  0.21141750  1.0
  Y  Y1451  1  0.24347717  0.76919883  0.21141750  1.0
  Y  Y1452  1  0.57681050  0.10253217  0.21141750  1.0
  Y  Y1453  1  0.57681050  0.43586550  0.21141750  1.0
  Y  Y1454  1  0.57681050  0.76919883  0.21141750  1.0
  Y  Y1455  1  0.91014383  0.10253217  0.21141750  1.0
  Y  Y1456  1  0.91014383  0.43586550  0.21141750  1.0
  Y  Y1457  1  0.91014383  0.76919883  0.21141750  1.0
  Y  Y1458  1  0.26653397  0.27688443  0.23447430  1.0
  Y  Y1459  1  0.26653397  0.61021777  0.23447430  1.0
  Y  Y1460  1  0.26653397  0.94355110  0.23447430  1.0
  Y  Y1461  1  0.59986730  0.27688443  0.23447430  1.0
  Y  Y1462  1  0.59986730  0.61021777  0.23447430  1.0
  Y  Y1463  1  0.59986730  0.94355110  0.23447430  1.0
  Y  Y1464  1  0.93320063  0.27688443  0.23447430  1.0
  Y  Y1465  1  0.93320063  0.61021777  0.23447430  1.0
  Y  Y1466  1  0.93320063  0.94355110  0.23447430  1.0
  Y  Y1467  1  0.03320063  0.14355110  0.33447430  1.0
  Y  Y1468  1  0.03320063  0.47688443  0.33447430  1.0
  Y  Y1469  1  0.03320063  0.81021777  0.33447430  1.0
  Y  Y1470  1  0.36653397  0.14355110  0.33447430  1.0
  Y  Y1471  1  0.36653397  0.47688443  0.33447430  1.0
  Y  Y1472  1  0.36653397  0.81021777  0.33447430  1.0
  Y  Y1473  1  0.69986730  0.14355110  0.33447430  1.0
  Y  Y1474  1  0.69986730  0.47688443  0.33447430  1.0
  Y  Y1475  1  0.69986730  0.81021777  0.33447430  1.0
  Y  Y1476  1  0.15371010  0.05123670  0.24988910  1.0
  Y  Y1477  1  0.15371010  0.38457003  0.24988910  1.0
  Y  Y1478  1  0.15371010  0.71790337  0.24988910  1.0
  Y  Y1479  1  0.48704343  0.05123670  0.24988910  1.0
  Y  Y1480  1  0.48704343  0.38457003  0.24988910  1.0
  Y  Y1481  1  0.48704343  0.71790337  0.24988910  1.0
  Y  Y1482  1  0.82037677  0.05123670  0.24988910  1.0
  Y  Y1483  1  0.82037677  0.38457003  0.24988910  1.0
  Y  Y1484  1  0.82037677  0.71790337  0.24988910  1.0
  Y  Y1485  1  0.25371010  0.25123670  0.34988910  1.0
  Y  Y1486  1  0.25371010  0.58457003  0.34988910  1.0
  Y  Y1487  1  0.25371010  0.91790337  0.34988910  1.0
  Y  Y1488  1  0.58704343  0.25123670  0.34988910  1.0
  Y  Y1489  1  0.58704343  0.58457003  0.34988910  1.0
  Y  Y1490  1  0.58704343  0.91790337  0.34988910  1.0
  Y  Y1491  1  0.92037677  0.25123670  0.34988910  1.0
  Y  Y1492  1  0.92037677  0.58457003  0.34988910  1.0
  Y  Y1493  1  0.92037677  0.91790337  0.34988910  1.0
  Y  Y1494  1  0.07167223  0.09225563  0.37294590  1.0
  Y  Y1495  1  0.07167223  0.42558897  0.37294590  1.0
  Y  Y1496  1  0.07167223  0.75892230  0.37294590  1.0
  Y  Y1497  1  0.40500557  0.09225563  0.37294590  1.0
  Y  Y1498  1  0.40500557  0.42558897  0.37294590  1.0
  Y  Y1499  1  0.40500557  0.75892230  0.37294590  1.0
  Y  Y1500  1  0.73833890  0.09225563  0.37294590  1.0
  Y  Y1501  1  0.73833890  0.42558897  0.37294590  1.0
  Y  Y1502  1  0.73833890  0.75892230  0.37294590  1.0
  Y  Y1503  1  0.30500557  0.22558897  0.27294590  1.0
  Y  Y1504  1  0.30500557  0.55892230  0.27294590  1.0
  Y  Y1505  1  0.30500557  0.89225563  0.27294590  1.0
  Y  Y1506  1  0.63833890  0.22558897  0.27294590  1.0
  Y  Y1507  1  0.63833890  0.55892230  0.27294590  1.0
  Y  Y1508  1  0.63833890  0.89225563  0.27294590  1.0
  Y  Y1509  1  0.97167223  0.22558897  0.27294590  1.0
  Y  Y1510  1  0.97167223  0.55892230  0.27294590  1.0
  Y  Y1511  1  0.97167223  0.89225563  0.27294590  1.0
  Y  Y1512  1  0.09316250  0.11479617  0.21754950  1.0
  Y  Y1513  1  0.09316250  0.44812950  0.21754950  1.0
  Y  Y1514  1  0.09316250  0.78146283  0.21754950  1.0
  Y  Y1515  1  0.42649583  0.11479617  0.21754950  1.0
  Y  Y1516  1  0.42649583  0.44812950  0.21754950  1.0
  Y  Y1517  1  0.42649583  0.78146283  0.21754950  1.0
  Y  Y1518  1  0.75982917  0.11479617  0.21754950  1.0
  Y  Y1519  1  0.75982917  0.44812950  0.21754950  1.0
  Y  Y1520  1  0.75982917  0.78146283  0.21754950  1.0
  Y  Y1521  1  0.19316250  0.31479617  0.31754950  1.0
  Y  Y1522  1  0.19316250  0.64812950  0.31754950  1.0
  Y  Y1523  1  0.19316250  0.98146283  0.31754950  1.0
  Y  Y1524  1  0.52649583  0.31479617  0.31754950  1.0
  Y  Y1525  1  0.52649583  0.64812950  0.31754950  1.0
  Y  Y1526  1  0.52649583  0.98146283  0.31754950  1.0
  Y  Y1527  1  0.85982917  0.31479617  0.31754950  1.0
  Y  Y1528  1  0.85982917  0.64812950  0.31754950  1.0
  Y  Y1529  1  0.85982917  0.98146283  0.31754950  1.0
  Y  Y1530  1  0.19169130  0.14763910  0.31607830  1.0
  Y  Y1531  1  0.19169130  0.48097243  0.31607830  1.0
  Y  Y1532  1  0.19169130  0.81430577  0.31607830  1.0
  Y  Y1533  1  0.52502463  0.14763910  0.31607830  1.0
  Y  Y1534  1  0.52502463  0.48097243  0.31607830  1.0
  Y  Y1535  1  0.52502463  0.81430577  0.31607830  1.0
  Y  Y1536  1  0.85835797  0.14763910  0.31607830  1.0
  Y  Y1537  1  0.85835797  0.48097243  0.31607830  1.0
  Y  Y1538  1  0.85835797  0.81430577  0.31607830  1.0
  Y  Y1539  1  0.09169130  0.28097243  0.21607830  1.0
  Y  Y1540  1  0.09169130  0.61430577  0.21607830  1.0
  Y  Y1541  1  0.09169130  0.94763910  0.21607830  1.0
  Y  Y1542  1  0.42502463  0.28097243  0.21607830  1.0
  Y  Y1543  1  0.42502463  0.61430577  0.21607830  1.0
  Y  Y1544  1  0.42502463  0.94763910  0.21607830  1.0
  Y  Y1545  1  0.75835797  0.28097243  0.21607830  1.0
  Y  Y1546  1  0.75835797  0.61430577  0.21607830  1.0
  Y  Y1547  1  0.75835797  0.94763910  0.21607830  1.0
  Y  Y1548  1  0.30811277  0.04714870  0.26828510  1.0
  Y  Y1549  1  0.30811277  0.38048203  0.26828510  1.0
  Y  Y1550  1  0.30811277  0.71381537  0.26828510  1.0
  Y  Y1551  1  0.64144610  0.04714870  0.26828510  1.0
  Y  Y1552  1  0.64144610  0.38048203  0.26828510  1.0
  Y  Y1553  1  0.64144610  0.71381537  0.26828510  1.0
  Y  Y1554  1  0.97477943  0.04714870  0.26828510  1.0
  Y  Y1555  1  0.97477943  0.38048203  0.26828510  1.0
  Y  Y1556  1  0.97477943  0.71381537  0.26828510  1.0
  Y  Y1557  1  0.07477943  0.24714870  0.36828510  1.0
  Y  Y1558  1  0.07477943  0.58048203  0.36828510  1.0
  Y  Y1559  1  0.07477943  0.91381537  0.36828510  1.0
  Y  Y1560  1  0.40811277  0.24714870  0.36828510  1.0
  Y  Y1561  1  0.40811277  0.58048203  0.36828510  1.0
  Y  Y1562  1  0.40811277  0.91381537  0.36828510  1.0
  Y  Y1563  1  0.74144610  0.24714870  0.36828510  1.0
  Y  Y1564  1  0.74144610  0.58048203  0.36828510  1.0
  Y  Y1565  1  0.74144610  0.91381537  0.36828510  1.0
  Y  Y1566  1  0.24242690  0.07999163  0.36681390  1.0
  Y  Y1567  1  0.24242690  0.41332497  0.36681390  1.0
  Y  Y1568  1  0.24242690  0.74665830  0.36681390  1.0
  Y  Y1569  1  0.57576023  0.07999163  0.36681390  1.0
  Y  Y1570  1  0.57576023  0.41332497  0.36681390  1.0
  Y  Y1571  1  0.57576023  0.74665830  0.36681390  1.0
  Y  Y1572  1  0.90909357  0.07999163  0.36681390  1.0
  Y  Y1573  1  0.90909357  0.41332497  0.36681390  1.0
  Y  Y1574  1  0.90909357  0.74665830  0.36681390  1.0
  Y  Y1575  1  0.14242690  0.21332497  0.26681390  1.0
  Y  Y1576  1  0.14242690  0.54665830  0.26681390  1.0
  Y  Y1577  1  0.14242690  0.87999163  0.26681390  1.0
  Y  Y1578  1  0.47576023  0.21332497  0.26681390  1.0
  Y  Y1579  1  0.47576023  0.54665830  0.26681390  1.0
  Y  Y1580  1  0.47576023  0.87999163  0.26681390  1.0
  Y  Y1581  1  0.80909357  0.21332497  0.26681390  1.0
  Y  Y1582  1  0.80909357  0.54665830  0.26681390  1.0
  Y  Y1583  1  0.80909357  0.87999163  0.26681390  1.0
  Y  Y1584  1  0.01388603  0.03072723  0.34218170  1.0
  Y  Y1585  1  0.01388603  0.36406057  0.34218170  1.0
  Y  Y1586  1  0.01388603  0.69739390  0.34218170  1.0
  Y  Y1587  1  0.34721937  0.03072723  0.34218170  1.0
  Y  Y1588  1  0.34721937  0.36406057  0.34218170  1.0
  Y  Y1589  1  0.34721937  0.69739390  0.34218170  1.0
  Y  Y1590  1  0.68055270  0.03072723  0.34218170  1.0
  Y  Y1591  1  0.68055270  0.36406057  0.34218170  1.0
  Y  Y1592  1  0.68055270  0.69739390  0.34218170  1.0
  Y  Y1593  1  0.24721937  0.16406057  0.24218170  1.0
  Y  Y1594  1  0.24721937  0.49739390  0.24218170  1.0
  Y  Y1595  1  0.24721937  0.83072723  0.24218170  1.0
  Y  Y1596  1  0.58055270  0.16406057  0.24218170  1.0
  Y  Y1597  1  0.58055270  0.49739390  0.24218170  1.0
  Y  Y1598  1  0.58055270  0.83072723  0.24218170  1.0
  Y  Y1599  1  0.91388603  0.16406057  0.24218170  1.0
  Y  Y1600  1  0.91388603  0.49739390  0.24218170  1.0
  Y  Y1601  1  0.91388603  0.83072723  0.24218170  1.0
  Y  Y1602  1  0.07652257  0.33274230  0.24822690  1.0
  Y  Y1603  1  0.07652257  0.66607563  0.24822690  1.0
  Y  Y1604  1  0.07652257  0.99940897  0.24822690  1.0
  Y  Y1605  1  0.40985590  0.33274230  0.24822690  1.0
  Y  Y1606  1  0.40985590  0.66607563  0.24822690  1.0
  Y  Y1607  1  0.40985590  0.99940897  0.24822690  1.0
  Y  Y1608  1  0.74318923  0.33274230  0.24822690  1.0
  Y  Y1609  1  0.74318923  0.66607563  0.24822690  1.0
  Y  Y1610  1  0.74318923  0.99940897  0.24822690  1.0
  Y  Y1611  1  0.17652257  0.19940897  0.34822690  1.0
  Y  Y1612  1  0.17652257  0.53274230  0.34822690  1.0
  Y  Y1613  1  0.17652257  0.86607563  0.34822690  1.0
  Y  Y1614  1  0.50985590  0.19940897  0.34822690  1.0
  Y  Y1615  1  0.50985590  0.53274230  0.34822690  1.0
  Y  Y1616  1  0.50985590  0.86607563  0.34822690  1.0
  Y  Y1617  1  0.84318923  0.19940897  0.34822690  1.0
  Y  Y1618  1  0.84318923  0.53274230  0.34822690  1.0
  Y  Y1619  1  0.84318923  0.86607563  0.34822690  1.0
  Y  Y1620  1  0.06086343  0.30142403  0.38915910  1.0
  Y  Y1621  1  0.06086343  0.63475737  0.38915910  1.0
  Y  Y1622  1  0.06086343  0.96809070  0.38915910  1.0
  Y  Y1623  1  0.39419677  0.30142403  0.38915910  1.0
  Y  Y1624  1  0.39419677  0.63475737  0.38915910  1.0
  Y  Y1625  1  0.39419677  0.96809070  0.38915910  1.0
  Y  Y1626  1  0.72753010  0.30142403  0.38915910  1.0
  Y  Y1627  1  0.72753010  0.63475737  0.38915910  1.0
  Y  Y1628  1  0.72753010  0.96809070  0.38915910  1.0
  Y  Y1629  1  0.29419677  0.10142403  0.28915910  1.0
  Y  Y1630  1  0.29419677  0.43475737  0.28915910  1.0
  Y  Y1631  1  0.29419677  0.76809070  0.28915910  1.0
  Y  Y1632  1  0.62753010  0.10142403  0.28915910  1.0
  Y  Y1633  1  0.62753010  0.43475737  0.28915910  1.0
  Y  Y1634  1  0.62753010  0.76809070  0.28915910  1.0
  Y  Y1635  1  0.96086343  0.10142403  0.28915910  1.0
  Y  Y1636  1  0.96086343  0.43475737  0.28915910  1.0
  Y  Y1637  1  0.96086343  0.76809070  0.28915910  1.0
  Y  Y1638  1  0.17047737  0.03072723  0.34218170  1.0
  Y  Y1639  1  0.17047737  0.36406057  0.34218170  1.0
  Y  Y1640  1  0.17047737  0.69739390  0.34218170  1.0
  Y  Y1641  1  0.50381070  0.03072723  0.34218170  1.0
  Y  Y1642  1  0.50381070  0.36406057  0.34218170  1.0
  Y  Y1643  1  0.50381070  0.69739390  0.34218170  1.0
  Y  Y1644  1  0.83714403  0.03072723  0.34218170  1.0
  Y  Y1645  1  0.83714403  0.36406057  0.34218170  1.0
  Y  Y1646  1  0.83714403  0.69739390  0.34218170  1.0
  Y  Y1647  1  0.07047737  0.16406057  0.24218170  1.0
  Y  Y1648  1  0.07047737  0.49739390  0.24218170  1.0
  Y  Y1649  1  0.07047737  0.83072723  0.24218170  1.0
  Y  Y1650  1  0.40381070  0.16406057  0.24218170  1.0
  Y  Y1651  1  0.40381070  0.49739390  0.24218170  1.0
  Y  Y1652  1  0.40381070  0.83072723  0.24218170  1.0
  Y  Y1653  1  0.73714403  0.16406057  0.24218170  1.0
  Y  Y1654  1  0.73714403  0.49739390  0.24218170  1.0
  Y  Y1655  1  0.73714403  0.83072723  0.24218170  1.0
  Y  Y1656  1  0.24117417  0.32871217  0.23613650  1.0
  Y  Y1657  1  0.24117417  0.66204550  0.23613650  1.0
  Y  Y1658  1  0.24117417  0.99537883  0.23613650  1.0
  Y  Y1659  1  0.57450750  0.32871217  0.23613650  1.0
  Y  Y1660  1  0.57450750  0.66204550  0.23613650  1.0
  Y  Y1661  1  0.57450750  0.99537883  0.23613650  1.0
  Y  Y1662  1  0.90784083  0.32871217  0.23613650  1.0
  Y  Y1663  1  0.90784083  0.66204550  0.23613650  1.0
  Y  Y1664  1  0.90784083  0.99537883  0.23613650  1.0
  Y  Y1665  1  0.00784083  0.19537883  0.33613650  1.0
  Y  Y1666  1  0.00784083  0.52871217  0.33613650  1.0
  Y  Y1667  1  0.00784083  0.86204550  0.33613650  1.0
  Y  Y1668  1  0.34117417  0.19537883  0.33613650  1.0
  Y  Y1669  1  0.34117417  0.52871217  0.33613650  1.0
  Y  Y1670  1  0.34117417  0.86204550  0.33613650  1.0
  Y  Y1671  1  0.67450750  0.19537883  0.33613650  1.0
  Y  Y1672  1  0.67450750  0.52871217  0.33613650  1.0
  Y  Y1673  1  0.67450750  0.86204550  0.33613650  1.0
  Y  Y1674  1  0.12349997  0.09336377  0.29520430  1.0
  Y  Y1675  1  0.12349997  0.42669710  0.29520430  1.0
  Y  Y1676  1  0.12349997  0.76003043  0.29520430  1.0
  Y  Y1677  1  0.45683330  0.09336377  0.29520430  1.0
  Y  Y1678  1  0.45683330  0.42669710  0.29520430  1.0
  Y  Y1679  1  0.45683330  0.76003043  0.29520430  1.0
  Y  Y1680  1  0.79016663  0.09336377  0.29520430  1.0
  Y  Y1681  1  0.79016663  0.42669710  0.29520430  1.0
  Y  Y1682  1  0.79016663  0.76003043  0.29520430  1.0
  Y  Y1683  1  0.22349997  0.29336377  0.39520430  1.0
  Y  Y1684  1  0.22349997  0.62669710  0.39520430  1.0
  Y  Y1685  1  0.22349997  0.96003043  0.39520430  1.0
  Y  Y1686  1  0.55683330  0.29336377  0.39520430  1.0
  Y  Y1687  1  0.55683330  0.62669710  0.39520430  1.0
  Y  Y1688  1  0.55683330  0.96003043  0.39520430  1.0
  Y  Y1689  1  0.89016663  0.29336377  0.39520430  1.0
  Y  Y1690  1  0.89016663  0.62669710  0.39520430  1.0
  Y  Y1691  1  0.89016663  0.96003043  0.39520430  1.0
