# generated using pymatgen
data_Y15Ni32
_symmetry_space_group_name_H-M   'P 1'
_cell_length_a   30.51924912
_cell_length_b   30.51924912
_cell_length_c   50.86541520
_cell_angle_alpha   120.00000000
_cell_angle_beta   60.00000000
_cell_angle_gamma   90.00000000
_symmetry_Int_Tables_number   1
_chemical_formula_structural   Y15Ni32
_chemical_formula_sum   'Y270 Ni576'
_cell_volume   33500.80820943
_cell_formula_units_Z   18
loop_
 _symmetry_equiv_pos_site_id
 _symmetry_equiv_pos_as_xyz
  1  'x, y, z'
loop_
 _atom_site_type_symbol
 _atom_site_label
 _atom_site_symmetry_multiplicity
 _atom_site_fract_x
 _atom_site_fract_y
 _atom_site_fract_z
 _atom_site_occupancy
  Y  Y0  1  0.16666667  0.16666667  0.19697740  1.0
  Y  Y1  1  0.16666667  0.50000000  0.19697740  1.0
  Y  Y2  1  0.16666667  0.83333333  0.19697740  1.0
  Y  Y3  1  0.50000000  0.16666667  0.19697740  1.0
  Y  Y4  1  0.50000000  0.50000000  0.19697740  1.0
  Y  Y5  1  0.50000000  0.83333333  0.19697740  1.0
  Y  Y6  1  0.83333333  0.16666667  0.19697740  1.0
  Y  Y7  1  0.83333333  0.50000000  0.19697740  1.0
  Y  Y8  1  0.83333333  0.83333333  0.19697740  1.0
  Y  Y9  1  0.03205967  0.03205967  0.03544900  1.0
  Y  Y10  1  0.03205967  0.36539300  0.03544900  1.0
  Y  Y11  1  0.03205967  0.69872633  0.03544900  1.0
  Y  Y12  1  0.36539300  0.03205967  0.03544900  1.0
  Y  Y13  1  0.36539300  0.36539300  0.03544900  1.0
  Y  Y14  1  0.36539300  0.69872633  0.03544900  1.0
  Y  Y15  1  0.69872633  0.03205967  0.03544900  1.0
  Y  Y16  1  0.69872633  0.36539300  0.03544900  1.0
  Y  Y17  1  0.69872633  0.69872633  0.03544900  1.0
  Y  Y18  1  0.03205967  0.03205967  0.15850580  1.0
  Y  Y19  1  0.03205967  0.36539300  0.15850580  1.0
  Y  Y20  1  0.03205967  0.69872633  0.15850580  1.0
  Y  Y21  1  0.36539300  0.03205967  0.15850580  1.0
  Y  Y22  1  0.36539300  0.36539300  0.15850580  1.0
  Y  Y23  1  0.36539300  0.69872633  0.15850580  1.0
  Y  Y24  1  0.69872633  0.03205967  0.15850580  1.0
  Y  Y25  1  0.69872633  0.36539300  0.15850580  1.0
  Y  Y26  1  0.69872633  0.69872633  0.15850580  1.0
  Y  Y27  1  0.23715433  0.03205967  0.03544900  1.0
  Y  Y28  1  0.23715433  0.36539300  0.03544900  1.0
  Y  Y29  1  0.23715433  0.69872633  0.03544900  1.0
  Y  Y30  1  0.57048767  0.03205967  0.03544900  1.0
  Y  Y31  1  0.57048767  0.36539300  0.03544900  1.0
  Y  Y32  1  0.57048767  0.69872633  0.03544900  1.0
  Y  Y33  1  0.90382100  0.03205967  0.03544900  1.0
  Y  Y34  1  0.90382100  0.36539300  0.03544900  1.0
  Y  Y35  1  0.90382100  0.69872633  0.03544900  1.0
  Y  Y36  1  0.03205967  0.23715433  0.15850580  1.0
  Y  Y37  1  0.03205967  0.57048767  0.15850580  1.0
  Y  Y38  1  0.03205967  0.90382100  0.15850580  1.0
  Y  Y39  1  0.36539300  0.23715433  0.15850580  1.0
  Y  Y40  1  0.36539300  0.57048767  0.15850580  1.0
  Y  Y41  1  0.36539300  0.90382100  0.15850580  1.0
  Y  Y42  1  0.69872633  0.23715433  0.15850580  1.0
  Y  Y43  1  0.69872633  0.57048767  0.15850580  1.0
  Y  Y44  1  0.69872633  0.90382100  0.15850580  1.0
  Y  Y45  1  0.20894633  0.20894633  0.04771300  1.0
  Y  Y46  1  0.20894633  0.54227967  0.04771300  1.0
  Y  Y47  1  0.20894633  0.87561300  0.04771300  1.0
  Y  Y48  1  0.54227967  0.20894633  0.04771300  1.0
  Y  Y49  1  0.54227967  0.54227967  0.04771300  1.0
  Y  Y50  1  0.54227967  0.87561300  0.04771300  1.0
  Y  Y51  1  0.87561300  0.20894633  0.04771300  1.0
  Y  Y52  1  0.87561300  0.54227967  0.04771300  1.0
  Y  Y53  1  0.87561300  0.87561300  0.04771300  1.0
  Y  Y54  1  0.20894633  0.20894633  0.14624180  1.0
  Y  Y55  1  0.20894633  0.54227967  0.14624180  1.0
  Y  Y56  1  0.20894633  0.87561300  0.14624180  1.0
  Y  Y57  1  0.54227967  0.20894633  0.14624180  1.0
  Y  Y58  1  0.54227967  0.54227967  0.14624180  1.0
  Y  Y59  1  0.54227967  0.87561300  0.14624180  1.0
  Y  Y60  1  0.87561300  0.20894633  0.14624180  1.0
  Y  Y61  1  0.87561300  0.54227967  0.14624180  1.0
  Y  Y62  1  0.87561300  0.87561300  0.14624180  1.0
  Y  Y63  1  0.03982767  0.20894633  0.04771300  1.0
  Y  Y64  1  0.03982767  0.54227967  0.04771300  1.0
  Y  Y65  1  0.03982767  0.87561300  0.04771300  1.0
  Y  Y66  1  0.37316100  0.20894633  0.04771300  1.0
  Y  Y67  1  0.37316100  0.54227967  0.04771300  1.0
  Y  Y68  1  0.37316100  0.87561300  0.04771300  1.0
  Y  Y69  1  0.70649433  0.20894633  0.04771300  1.0
  Y  Y70  1  0.70649433  0.54227967  0.04771300  1.0
  Y  Y71  1  0.70649433  0.87561300  0.04771300  1.0
  Y  Y72  1  0.20894633  0.03982767  0.14624180  1.0
  Y  Y73  1  0.20894633  0.37316100  0.14624180  1.0
  Y  Y74  1  0.20894633  0.70649433  0.14624180  1.0
  Y  Y75  1  0.54227967  0.03982767  0.14624180  1.0
  Y  Y76  1  0.54227967  0.37316100  0.14624180  1.0
  Y  Y77  1  0.54227967  0.70649433  0.14624180  1.0
  Y  Y78  1  0.87561300  0.03982767  0.14624180  1.0
  Y  Y79  1  0.87561300  0.37316100  0.14624180  1.0
  Y  Y80  1  0.87561300  0.70649433  0.14624180  1.0
  Y  Y81  1  0.00503767  0.16162900  0.09697740  1.0
  Y  Y82  1  0.00503767  0.49496233  0.09697740  1.0
  Y  Y83  1  0.00503767  0.82829567  0.09697740  1.0
  Y  Y84  1  0.33837100  0.16162900  0.09697740  1.0
  Y  Y85  1  0.33837100  0.49496233  0.09697740  1.0
  Y  Y86  1  0.33837100  0.82829567  0.09697740  1.0
  Y  Y87  1  0.67170433  0.16162900  0.09697740  1.0
  Y  Y88  1  0.67170433  0.49496233  0.09697740  1.0
  Y  Y89  1  0.67170433  0.82829567  0.09697740  1.0
  Y  Y90  1  0.16162900  0.00503767  0.00302260  1.0
  Y  Y91  1  0.16162900  0.33837100  0.00302260  1.0
  Y  Y92  1  0.16162900  0.67170433  0.00302260  1.0
  Y  Y93  1  0.49496233  0.00503767  0.00302260  1.0
  Y  Y94  1  0.49496233  0.33837100  0.00302260  1.0
  Y  Y95  1  0.49496233  0.67170433  0.00302260  1.0
  Y  Y96  1  0.82829567  0.00503767  0.00302260  1.0
  Y  Y97  1  0.82829567  0.33837100  0.00302260  1.0
  Y  Y98  1  0.82829567  0.67170433  0.00302260  1.0
  Y  Y99  1  0.00503767  0.00503767  0.09697740  1.0
  Y  Y100  1  0.00503767  0.33837100  0.09697740  1.0
  Y  Y101  1  0.00503767  0.67170433  0.09697740  1.0
  Y  Y102  1  0.33837100  0.00503767  0.09697740  1.0
  Y  Y103  1  0.33837100  0.33837100  0.09697740  1.0
  Y  Y104  1  0.33837100  0.67170433  0.09697740  1.0
  Y  Y105  1  0.67170433  0.00503767  0.09697740  1.0
  Y  Y106  1  0.67170433  0.33837100  0.09697740  1.0
  Y  Y107  1  0.67170433  0.67170433  0.09697740  1.0
  Y  Y108  1  0.16162900  0.00503767  0.09697740  1.0
  Y  Y109  1  0.16162900  0.33837100  0.09697740  1.0
  Y  Y110  1  0.16162900  0.67170433  0.09697740  1.0
  Y  Y111  1  0.49496233  0.00503767  0.09697740  1.0
  Y  Y112  1  0.49496233  0.33837100  0.09697740  1.0
  Y  Y113  1  0.49496233  0.67170433  0.09697740  1.0
  Y  Y114  1  0.82829567  0.00503767  0.09697740  1.0
  Y  Y115  1  0.82829567  0.33837100  0.09697740  1.0
  Y  Y116  1  0.82829567  0.67170433  0.09697740  1.0
  Y  Y117  1  0.00503767  0.16162900  0.19093220  1.0
  Y  Y118  1  0.00503767  0.49496233  0.19093220  1.0
  Y  Y119  1  0.00503767  0.82829567  0.19093220  1.0
  Y  Y120  1  0.33837100  0.16162900  0.19093220  1.0
  Y  Y121  1  0.33837100  0.49496233  0.19093220  1.0
  Y  Y122  1  0.33837100  0.82829567  0.19093220  1.0
  Y  Y123  1  0.67170433  0.16162900  0.19093220  1.0
  Y  Y124  1  0.67170433  0.49496233  0.19093220  1.0
  Y  Y125  1  0.67170433  0.82829567  0.19093220  1.0
  Y  Y126  1  0.16162900  0.16162900  0.09697740  1.0
  Y  Y127  1  0.16162900  0.49496233  0.09697740  1.0
  Y  Y128  1  0.16162900  0.82829567  0.09697740  1.0
  Y  Y129  1  0.49496233  0.16162900  0.09697740  1.0
  Y  Y130  1  0.49496233  0.49496233  0.09697740  1.0
  Y  Y131  1  0.49496233  0.82829567  0.09697740  1.0
  Y  Y132  1  0.82829567  0.16162900  0.09697740  1.0
  Y  Y133  1  0.82829567  0.49496233  0.09697740  1.0
  Y  Y134  1  0.82829567  0.82829567  0.09697740  1.0
  Ni  Ni135  1  0.10380767  0.10380767  0.12154660  1.0
  Ni  Ni136  1  0.10380767  0.43714100  0.12154660  1.0
  Ni  Ni137  1  0.10380767  0.77047433  0.12154660  1.0
  Ni  Ni138  1  0.43714100  0.10380767  0.12154660  1.0
  Ni  Ni139  1  0.43714100  0.43714100  0.12154660  1.0
  Ni  Ni140  1  0.43714100  0.77047433  0.12154660  1.0
  Ni  Ni141  1  0.77047433  0.10380767  0.12154660  1.0
  Ni  Ni142  1  0.77047433  0.43714100  0.12154660  1.0
  Ni  Ni143  1  0.77047433  0.77047433  0.12154660  1.0
  Ni  Ni144  1  0.10380767  0.10380767  0.07240820  1.0
  Ni  Ni145  1  0.10380767  0.43714100  0.07240820  1.0
  Ni  Ni146  1  0.10380767  0.77047433  0.07240820  1.0
  Ni  Ni147  1  0.43714100  0.10380767  0.07240820  1.0
  Ni  Ni148  1  0.43714100  0.43714100  0.07240820  1.0
  Ni  Ni149  1  0.43714100  0.77047433  0.07240820  1.0
  Ni  Ni150  1  0.77047433  0.10380767  0.07240820  1.0
  Ni  Ni151  1  0.77047433  0.43714100  0.07240820  1.0
  Ni  Ni152  1  0.77047433  0.77047433  0.07240820  1.0
  Ni  Ni153  1  0.02191033  0.10380767  0.12154660  1.0
  Ni  Ni154  1  0.02191033  0.43714100  0.12154660  1.0
  Ni  Ni155  1  0.02191033  0.77047433  0.12154660  1.0
  Ni  Ni156  1  0.35524367  0.10380767  0.12154660  1.0
  Ni  Ni157  1  0.35524367  0.43714100  0.12154660  1.0
  Ni  Ni158  1  0.35524367  0.77047433  0.12154660  1.0
  Ni  Ni159  1  0.68857700  0.10380767  0.12154660  1.0
  Ni  Ni160  1  0.68857700  0.43714100  0.12154660  1.0
  Ni  Ni161  1  0.68857700  0.77047433  0.12154660  1.0
  Ni  Ni162  1  0.10380767  0.02191033  0.07240820  1.0
  Ni  Ni163  1  0.10380767  0.35524367  0.07240820  1.0
  Ni  Ni164  1  0.10380767  0.68857700  0.07240820  1.0
  Ni  Ni165  1  0.43714100  0.02191033  0.07240820  1.0
  Ni  Ni166  1  0.43714100  0.35524367  0.07240820  1.0
  Ni  Ni167  1  0.43714100  0.68857700  0.07240820  1.0
  Ni  Ni168  1  0.77047433  0.02191033  0.07240820  1.0
  Ni  Ni169  1  0.77047433  0.35524367  0.07240820  1.0
  Ni  Ni170  1  0.77047433  0.68857700  0.07240820  1.0
  Ni  Ni171  1  0.27046867  0.27046867  0.12153980  1.0
  Ni  Ni172  1  0.27046867  0.60380200  0.12153980  1.0
  Ni  Ni173  1  0.27046867  0.93713533  0.12153980  1.0
  Ni  Ni174  1  0.60380200  0.27046867  0.12153980  1.0
  Ni  Ni175  1  0.60380200  0.60380200  0.12153980  1.0
  Ni  Ni176  1  0.60380200  0.93713533  0.12153980  1.0
  Ni  Ni177  1  0.93713533  0.27046867  0.12153980  1.0
  Ni  Ni178  1  0.93713533  0.60380200  0.12153980  1.0
  Ni  Ni179  1  0.93713533  0.93713533  0.12153980  1.0
  Ni  Ni180  1  0.27046867  0.27046867  0.07241500  1.0
  Ni  Ni181  1  0.27046867  0.60380200  0.07241500  1.0
  Ni  Ni182  1  0.27046867  0.93713533  0.07241500  1.0
  Ni  Ni183  1  0.60380200  0.27046867  0.07241500  1.0
  Ni  Ni184  1  0.60380200  0.60380200  0.07241500  1.0
  Ni  Ni185  1  0.60380200  0.93713533  0.07241500  1.0
  Ni  Ni186  1  0.93713533  0.27046867  0.07241500  1.0
  Ni  Ni187  1  0.93713533  0.60380200  0.07241500  1.0
  Ni  Ni188  1  0.93713533  0.93713533  0.07241500  1.0
  Ni  Ni189  1  0.18859400  0.27046867  0.12153980  1.0
  Ni  Ni190  1  0.18859400  0.60380200  0.12153980  1.0
  Ni  Ni191  1  0.18859400  0.93713533  0.12153980  1.0
  Ni  Ni192  1  0.52192733  0.27046867  0.12153980  1.0
  Ni  Ni193  1  0.52192733  0.60380200  0.12153980  1.0
  Ni  Ni194  1  0.52192733  0.93713533  0.12153980  1.0
  Ni  Ni195  1  0.85526067  0.27046867  0.12153980  1.0
  Ni  Ni196  1  0.85526067  0.60380200  0.12153980  1.0
  Ni  Ni197  1  0.85526067  0.93713533  0.12153980  1.0
  Ni  Ni198  1  0.27046867  0.18859400  0.07241500  1.0
  Ni  Ni199  1  0.27046867  0.52192733  0.07241500  1.0
  Ni  Ni200  1  0.27046867  0.85526067  0.07241500  1.0
  Ni  Ni201  1  0.60380200  0.18859400  0.07241500  1.0
  Ni  Ni202  1  0.60380200  0.52192733  0.07241500  1.0
  Ni  Ni203  1  0.60380200  0.85526067  0.07241500  1.0
  Ni  Ni204  1  0.93713533  0.18859400  0.07241500  1.0
  Ni  Ni205  1  0.93713533  0.52192733  0.07241500  1.0
  Ni  Ni206  1  0.93713533  0.85526067  0.07241500  1.0
  Ni  Ni207  1  0.26898683  0.26898683  0.02383630  1.0
  Ni  Ni208  1  0.26898683  0.60232017  0.02383630  1.0
  Ni  Ni209  1  0.26898683  0.93565350  0.02383630  1.0
  Ni  Ni210  1  0.60232017  0.26898683  0.02383630  1.0
  Ni  Ni211  1  0.60232017  0.60232017  0.02383630  1.0
  Ni  Ni212  1  0.60232017  0.93565350  0.02383630  1.0
  Ni  Ni213  1  0.93565350  0.26898683  0.02383630  1.0
  Ni  Ni214  1  0.93565350  0.60232017  0.02383630  1.0
  Ni  Ni215  1  0.93565350  0.93565350  0.02383630  1.0
  Ni  Ni216  1  0.26898683  0.10911133  0.02383630  1.0
  Ni  Ni217  1  0.26898683  0.44244467  0.02383630  1.0
  Ni  Ni218  1  0.26898683  0.77577800  0.02383630  1.0
  Ni  Ni219  1  0.60232017  0.10911133  0.02383630  1.0
  Ni  Ni220  1  0.60232017  0.44244467  0.02383630  1.0
  Ni  Ni221  1  0.60232017  0.77577800  0.02383630  1.0
  Ni  Ni222  1  0.93565350  0.10911133  0.02383630  1.0
  Ni  Ni223  1  0.93565350  0.44244467  0.02383630  1.0
  Ni  Ni224  1  0.93565350  0.77577800  0.02383630  1.0
  Ni  Ni225  1  0.10911133  0.26898683  0.11976160  1.0
  Ni  Ni226  1  0.10911133  0.60232017  0.11976160  1.0
  Ni  Ni227  1  0.10911133  0.93565350  0.11976160  1.0
  Ni  Ni228  1  0.44244467  0.26898683  0.11976160  1.0
  Ni  Ni229  1  0.44244467  0.60232017  0.11976160  1.0
  Ni  Ni230  1  0.44244467  0.93565350  0.11976160  1.0
  Ni  Ni231  1  0.77577800  0.26898683  0.11976160  1.0
  Ni  Ni232  1  0.77577800  0.60232017  0.11976160  1.0
  Ni  Ni233  1  0.77577800  0.93565350  0.11976160  1.0
  Ni  Ni234  1  0.26898683  0.26898683  0.17011850  1.0
  Ni  Ni235  1  0.26898683  0.60232017  0.17011850  1.0
  Ni  Ni236  1  0.26898683  0.93565350  0.17011850  1.0
  Ni  Ni237  1  0.60232017  0.26898683  0.17011850  1.0
  Ni  Ni238  1  0.60232017  0.60232017  0.17011850  1.0
  Ni  Ni239  1  0.60232017  0.93565350  0.17011850  1.0
  Ni  Ni240  1  0.93565350  0.26898683  0.17011850  1.0
  Ni  Ni241  1  0.93565350  0.60232017  0.17011850  1.0
  Ni  Ni242  1  0.93565350  0.93565350  0.17011850  1.0
  Ni  Ni243  1  0.10911133  0.26898683  0.17011850  1.0
  Ni  Ni244  1  0.10911133  0.60232017  0.17011850  1.0
  Ni  Ni245  1  0.10911133  0.93565350  0.17011850  1.0
  Ni  Ni246  1  0.44244467  0.26898683  0.17011850  1.0
  Ni  Ni247  1  0.44244467  0.60232017  0.17011850  1.0
  Ni  Ni248  1  0.44244467  0.93565350  0.17011850  1.0
  Ni  Ni249  1  0.77577800  0.26898683  0.17011850  1.0
  Ni  Ni250  1  0.77577800  0.60232017  0.17011850  1.0
  Ni  Ni251  1  0.77577800  0.93565350  0.17011850  1.0
  Ni  Ni252  1  0.26898683  0.10911133  0.07419320  1.0
  Ni  Ni253  1  0.26898683  0.44244467  0.07419320  1.0
  Ni  Ni254  1  0.26898683  0.77577800  0.07419320  1.0
  Ni  Ni255  1  0.60232017  0.10911133  0.07419320  1.0
  Ni  Ni256  1  0.60232017  0.44244467  0.07419320  1.0
  Ni  Ni257  1  0.60232017  0.77577800  0.07419320  1.0
  Ni  Ni258  1  0.93565350  0.10911133  0.07419320  1.0
  Ni  Ni259  1  0.93565350  0.44244467  0.07419320  1.0
  Ni  Ni260  1  0.93565350  0.77577800  0.07419320  1.0
  Ni  Ni261  1  0.01958167  0.10911133  0.02383630  1.0
  Ni  Ni262  1  0.01958167  0.44244467  0.02383630  1.0
  Ni  Ni263  1  0.01958167  0.77577800  0.02383630  1.0
  Ni  Ni264  1  0.35291500  0.10911133  0.02383630  1.0
  Ni  Ni265  1  0.35291500  0.44244467  0.02383630  1.0
  Ni  Ni266  1  0.35291500  0.77577800  0.02383630  1.0
  Ni  Ni267  1  0.68624833  0.10911133  0.02383630  1.0
  Ni  Ni268  1  0.68624833  0.44244467  0.02383630  1.0
  Ni  Ni269  1  0.68624833  0.77577800  0.02383630  1.0
  Ni  Ni270  1  0.01958167  0.26898683  0.02383630  1.0
  Ni  Ni271  1  0.01958167  0.60232017  0.02383630  1.0
  Ni  Ni272  1  0.01958167  0.93565350  0.02383630  1.0
  Ni  Ni273  1  0.35291500  0.26898683  0.02383630  1.0
  Ni  Ni274  1  0.35291500  0.60232017  0.02383630  1.0
  Ni  Ni275  1  0.35291500  0.93565350  0.02383630  1.0
  Ni  Ni276  1  0.68624833  0.26898683  0.02383630  1.0
  Ni  Ni277  1  0.68624833  0.60232017  0.02383630  1.0
  Ni  Ni278  1  0.68624833  0.93565350  0.02383630  1.0
  Ni  Ni279  1  0.01958167  0.26898683  0.11976160  1.0
  Ni  Ni280  1  0.01958167  0.60232017  0.11976160  1.0
  Ni  Ni281  1  0.01958167  0.93565350  0.11976160  1.0
  Ni  Ni282  1  0.35291500  0.26898683  0.11976160  1.0
  Ni  Ni283  1  0.35291500  0.60232017  0.11976160  1.0
  Ni  Ni284  1  0.35291500  0.93565350  0.11976160  1.0
  Ni  Ni285  1  0.68624833  0.26898683  0.11976160  1.0
  Ni  Ni286  1  0.68624833  0.60232017  0.11976160  1.0
  Ni  Ni287  1  0.68624833  0.93565350  0.11976160  1.0
  Ni  Ni288  1  0.10911133  0.01958167  0.17011850  1.0
  Ni  Ni289  1  0.10911133  0.35291500  0.17011850  1.0
  Ni  Ni290  1  0.10911133  0.68624833  0.17011850  1.0
  Ni  Ni291  1  0.44244467  0.01958167  0.17011850  1.0
  Ni  Ni292  1  0.44244467  0.35291500  0.17011850  1.0
  Ni  Ni293  1  0.44244467  0.68624833  0.17011850  1.0
  Ni  Ni294  1  0.77577800  0.01958167  0.17011850  1.0
  Ni  Ni295  1  0.77577800  0.35291500  0.17011850  1.0
  Ni  Ni296  1  0.77577800  0.68624833  0.17011850  1.0
  Ni  Ni297  1  0.26898683  0.01958167  0.17011850  1.0
  Ni  Ni298  1  0.26898683  0.35291500  0.17011850  1.0
  Ni  Ni299  1  0.26898683  0.68624833  0.17011850  1.0
  Ni  Ni300  1  0.60232017  0.01958167  0.17011850  1.0
  Ni  Ni301  1  0.60232017  0.35291500  0.17011850  1.0
  Ni  Ni302  1  0.60232017  0.68624833  0.17011850  1.0
  Ni  Ni303  1  0.93565350  0.01958167  0.17011850  1.0
  Ni  Ni304  1  0.93565350  0.35291500  0.17011850  1.0
  Ni  Ni305  1  0.93565350  0.68624833  0.17011850  1.0
  Ni  Ni306  1  0.26898683  0.01958167  0.07419320  1.0
  Ni  Ni307  1  0.26898683  0.35291500  0.07419320  1.0
  Ni  Ni308  1  0.26898683  0.68624833  0.07419320  1.0
  Ni  Ni309  1  0.60232017  0.01958167  0.07419320  1.0
  Ni  Ni310  1  0.60232017  0.35291500  0.07419320  1.0
  Ni  Ni311  1  0.60232017  0.68624833  0.07419320  1.0
  Ni  Ni312  1  0.93565350  0.01958167  0.07419320  1.0
  Ni  Ni313  1  0.93565350  0.35291500  0.07419320  1.0
  Ni  Ni314  1  0.93565350  0.68624833  0.07419320  1.0
  Ni  Ni315  1  0.10405333  0.10405333  0.02193140  1.0
  Ni  Ni316  1  0.10405333  0.43738667  0.02193140  1.0
  Ni  Ni317  1  0.10405333  0.77072000  0.02193140  1.0
  Ni  Ni318  1  0.43738667  0.10405333  0.02193140  1.0
  Ni  Ni319  1  0.43738667  0.43738667  0.02193140  1.0
  Ni  Ni320  1  0.43738667  0.77072000  0.02193140  1.0
  Ni  Ni321  1  0.77072000  0.10405333  0.02193140  1.0
  Ni  Ni322  1  0.77072000  0.43738667  0.02193140  1.0
  Ni  Ni323  1  0.77072000  0.77072000  0.02193140  1.0
  Ni  Ni324  1  0.10405333  0.27087000  0.02193140  1.0
  Ni  Ni325  1  0.10405333  0.60420333  0.02193140  1.0
  Ni  Ni326  1  0.10405333  0.93753667  0.02193140  1.0
  Ni  Ni327  1  0.43738667  0.27087000  0.02193140  1.0
  Ni  Ni328  1  0.43738667  0.60420333  0.02193140  1.0
  Ni  Ni329  1  0.43738667  0.93753667  0.02193140  1.0
  Ni  Ni330  1  0.77072000  0.27087000  0.02193140  1.0
  Ni  Ni331  1  0.77072000  0.60420333  0.02193140  1.0
  Ni  Ni332  1  0.77072000  0.93753667  0.02193140  1.0
  Ni  Ni333  1  0.27087000  0.10405333  0.12184140  1.0
  Ni  Ni334  1  0.27087000  0.43738667  0.12184140  1.0
  Ni  Ni335  1  0.27087000  0.77072000  0.12184140  1.0
  Ni  Ni336  1  0.60420333  0.10405333  0.12184140  1.0
  Ni  Ni337  1  0.60420333  0.43738667  0.12184140  1.0
  Ni  Ni338  1  0.60420333  0.77072000  0.12184140  1.0
  Ni  Ni339  1  0.93753667  0.10405333  0.12184140  1.0
  Ni  Ni340  1  0.93753667  0.43738667  0.12184140  1.0
  Ni  Ni341  1  0.93753667  0.77072000  0.12184140  1.0
  Ni  Ni342  1  0.10405333  0.10405333  0.17202340  1.0
  Ni  Ni343  1  0.10405333  0.43738667  0.17202340  1.0
  Ni  Ni344  1  0.10405333  0.77072000  0.17202340  1.0
  Ni  Ni345  1  0.43738667  0.10405333  0.17202340  1.0
  Ni  Ni346  1  0.43738667  0.43738667  0.17202340  1.0
  Ni  Ni347  1  0.43738667  0.77072000  0.17202340  1.0
  Ni  Ni348  1  0.77072000  0.10405333  0.17202340  1.0
  Ni  Ni349  1  0.77072000  0.43738667  0.17202340  1.0
  Ni  Ni350  1  0.77072000  0.77072000  0.17202340  1.0
  Ni  Ni351  1  0.27087000  0.10405333  0.17202340  1.0
  Ni  Ni352  1  0.27087000  0.43738667  0.17202340  1.0
  Ni  Ni353  1  0.27087000  0.77072000  0.17202340  1.0
  Ni  Ni354  1  0.60420333  0.10405333  0.17202340  1.0
  Ni  Ni355  1  0.60420333  0.43738667  0.17202340  1.0
  Ni  Ni356  1  0.60420333  0.77072000  0.17202340  1.0
  Ni  Ni357  1  0.93753667  0.10405333  0.17202340  1.0
  Ni  Ni358  1  0.93753667  0.43738667  0.17202340  1.0
  Ni  Ni359  1  0.93753667  0.77072000  0.17202340  1.0
  Ni  Ni360  1  0.10405333  0.27087000  0.07211340  1.0
  Ni  Ni361  1  0.10405333  0.60420333  0.07211340  1.0
  Ni  Ni362  1  0.10405333  0.93753667  0.07211340  1.0
  Ni  Ni363  1  0.43738667  0.27087000  0.07211340  1.0
  Ni  Ni364  1  0.43738667  0.60420333  0.07211340  1.0
  Ni  Ni365  1  0.43738667  0.93753667  0.07211340  1.0
  Ni  Ni366  1  0.77072000  0.27087000  0.07211340  1.0
  Ni  Ni367  1  0.77072000  0.60420333  0.07211340  1.0
  Ni  Ni368  1  0.77072000  0.93753667  0.07211340  1.0
  Ni  Ni369  1  0.18769000  0.27087000  0.02193140  1.0
  Ni  Ni370  1  0.18769000  0.60420333  0.02193140  1.0
  Ni  Ni371  1  0.18769000  0.93753667  0.02193140  1.0
  Ni  Ni372  1  0.52102333  0.27087000  0.02193140  1.0
  Ni  Ni373  1  0.52102333  0.60420333  0.02193140  1.0
  Ni  Ni374  1  0.52102333  0.93753667  0.02193140  1.0
  Ni  Ni375  1  0.85435667  0.27087000  0.02193140  1.0
  Ni  Ni376  1  0.85435667  0.60420333  0.02193140  1.0
  Ni  Ni377  1  0.85435667  0.93753667  0.02193140  1.0
  Ni  Ni378  1  0.18769000  0.10405333  0.02193140  1.0
  Ni  Ni379  1  0.18769000  0.43738667  0.02193140  1.0
  Ni  Ni380  1  0.18769000  0.77072000  0.02193140  1.0
  Ni  Ni381  1  0.52102333  0.10405333  0.02193140  1.0
  Ni  Ni382  1  0.52102333  0.43738667  0.02193140  1.0
  Ni  Ni383  1  0.52102333  0.77072000  0.02193140  1.0
  Ni  Ni384  1  0.85435667  0.10405333  0.02193140  1.0
  Ni  Ni385  1  0.85435667  0.43738667  0.02193140  1.0
  Ni  Ni386  1  0.85435667  0.77072000  0.02193140  1.0
  Ni  Ni387  1  0.18769000  0.10405333  0.12184140  1.0
  Ni  Ni388  1  0.18769000  0.43738667  0.12184140  1.0
  Ni  Ni389  1  0.18769000  0.77072000  0.12184140  1.0
  Ni  Ni390  1  0.52102333  0.10405333  0.12184140  1.0
  Ni  Ni391  1  0.52102333  0.43738667  0.12184140  1.0
  Ni  Ni392  1  0.52102333  0.77072000  0.12184140  1.0
  Ni  Ni393  1  0.85435667  0.10405333  0.12184140  1.0
  Ni  Ni394  1  0.85435667  0.43738667  0.12184140  1.0
  Ni  Ni395  1  0.85435667  0.77072000  0.12184140  1.0
  Ni  Ni396  1  0.27087000  0.18769000  0.17202340  1.0
  Ni  Ni397  1  0.27087000  0.52102333  0.17202340  1.0
  Ni  Ni398  1  0.27087000  0.85435667  0.17202340  1.0
  Ni  Ni399  1  0.60420333  0.18769000  0.17202340  1.0
  Ni  Ni400  1  0.60420333  0.52102333  0.17202340  1.0
  Ni  Ni401  1  0.60420333  0.85435667  0.17202340  1.0
  Ni  Ni402  1  0.93753667  0.18769000  0.17202340  1.0
  Ni  Ni403  1  0.93753667  0.52102333  0.17202340  1.0
  Ni  Ni404  1  0.93753667  0.85435667  0.17202340  1.0
  Ni  Ni405  1  0.10405333  0.18769000  0.17202340  1.0
  Ni  Ni406  1  0.10405333  0.52102333  0.17202340  1.0
  Ni  Ni407  1  0.10405333  0.85435667  0.17202340  1.0
  Ni  Ni408  1  0.43738667  0.18769000  0.17202340  1.0
  Ni  Ni409  1  0.43738667  0.52102333  0.17202340  1.0
  Ni  Ni410  1  0.43738667  0.85435667  0.17202340  1.0
  Ni  Ni411  1  0.77072000  0.18769000  0.17202340  1.0
  Ni  Ni412  1  0.77072000  0.52102333  0.17202340  1.0
  Ni  Ni413  1  0.77072000  0.85435667  0.17202340  1.0
  Ni  Ni414  1  0.10405333  0.18769000  0.07211340  1.0
  Ni  Ni415  1  0.10405333  0.52102333  0.07211340  1.0
  Ni  Ni416  1  0.10405333  0.85435667  0.07211340  1.0
  Ni  Ni417  1  0.43738667  0.18769000  0.07211340  1.0
  Ni  Ni418  1  0.43738667  0.52102333  0.07211340  1.0
  Ni  Ni419  1  0.43738667  0.85435667  0.07211340  1.0
  Ni  Ni420  1  0.77072000  0.18769000  0.07211340  1.0
  Ni  Ni421  1  0.77072000  0.52102333  0.07211340  1.0
  Ni  Ni422  1  0.77072000  0.85435667  0.07211340  1.0
  Y  Y423  1  0.16666667  0.16666667  0.39697740  1.0
  Y  Y424  1  0.16666667  0.50000000  0.39697740  1.0
  Y  Y425  1  0.16666667  0.83333333  0.39697740  1.0
  Y  Y426  1  0.50000000  0.16666667  0.39697740  1.0
  Y  Y427  1  0.50000000  0.50000000  0.39697740  1.0
  Y  Y428  1  0.50000000  0.83333333  0.39697740  1.0
  Y  Y429  1  0.83333333  0.16666667  0.39697740  1.0
  Y  Y430  1  0.83333333  0.50000000  0.39697740  1.0
  Y  Y431  1  0.83333333  0.83333333  0.39697740  1.0
  Y  Y432  1  0.03205967  0.03205967  0.23544900  1.0
  Y  Y433  1  0.03205967  0.36539300  0.23544900  1.0
  Y  Y434  1  0.03205967  0.69872633  0.23544900  1.0
  Y  Y435  1  0.36539300  0.03205967  0.23544900  1.0
  Y  Y436  1  0.36539300  0.36539300  0.23544900  1.0
  Y  Y437  1  0.36539300  0.69872633  0.23544900  1.0
  Y  Y438  1  0.69872633  0.03205967  0.23544900  1.0
  Y  Y439  1  0.69872633  0.36539300  0.23544900  1.0
  Y  Y440  1  0.69872633  0.69872633  0.23544900  1.0
  Y  Y441  1  0.03205967  0.03205967  0.35850580  1.0
  Y  Y442  1  0.03205967  0.36539300  0.35850580  1.0
  Y  Y443  1  0.03205967  0.69872633  0.35850580  1.0
  Y  Y444  1  0.36539300  0.03205967  0.35850580  1.0
  Y  Y445  1  0.36539300  0.36539300  0.35850580  1.0
  Y  Y446  1  0.36539300  0.69872633  0.35850580  1.0
  Y  Y447  1  0.69872633  0.03205967  0.35850580  1.0
  Y  Y448  1  0.69872633  0.36539300  0.35850580  1.0
  Y  Y449  1  0.69872633  0.69872633  0.35850580  1.0
  Y  Y450  1  0.23715433  0.03205967  0.23544900  1.0
  Y  Y451  1  0.23715433  0.36539300  0.23544900  1.0
  Y  Y452  1  0.23715433  0.69872633  0.23544900  1.0
  Y  Y453  1  0.57048767  0.03205967  0.23544900  1.0
  Y  Y454  1  0.57048767  0.36539300  0.23544900  1.0
  Y  Y455  1  0.57048767  0.69872633  0.23544900  1.0
  Y  Y456  1  0.90382100  0.03205967  0.23544900  1.0
  Y  Y457  1  0.90382100  0.36539300  0.23544900  1.0
  Y  Y458  1  0.90382100  0.69872633  0.23544900  1.0
  Y  Y459  1  0.03205967  0.23715433  0.35850580  1.0
  Y  Y460  1  0.03205967  0.57048767  0.35850580  1.0
  Y  Y461  1  0.03205967  0.90382100  0.35850580  1.0
  Y  Y462  1  0.36539300  0.23715433  0.35850580  1.0
  Y  Y463  1  0.36539300  0.57048767  0.35850580  1.0
  Y  Y464  1  0.36539300  0.90382100  0.35850580  1.0
  Y  Y465  1  0.69872633  0.23715433  0.35850580  1.0
  Y  Y466  1  0.69872633  0.57048767  0.35850580  1.0
  Y  Y467  1  0.69872633  0.90382100  0.35850580  1.0
  Y  Y468  1  0.20894633  0.20894633  0.24771300  1.0
  Y  Y469  1  0.20894633  0.54227967  0.24771300  1.0
  Y  Y470  1  0.20894633  0.87561300  0.24771300  1.0
  Y  Y471  1  0.54227967  0.20894633  0.24771300  1.0
  Y  Y472  1  0.54227967  0.54227967  0.24771300  1.0
  Y  Y473  1  0.54227967  0.87561300  0.24771300  1.0
  Y  Y474  1  0.87561300  0.20894633  0.24771300  1.0
  Y  Y475  1  0.87561300  0.54227967  0.24771300  1.0
  Y  Y476  1  0.87561300  0.87561300  0.24771300  1.0
  Y  Y477  1  0.20894633  0.20894633  0.34624180  1.0
  Y  Y478  1  0.20894633  0.54227967  0.34624180  1.0
  Y  Y479  1  0.20894633  0.87561300  0.34624180  1.0
  Y  Y480  1  0.54227967  0.20894633  0.34624180  1.0
  Y  Y481  1  0.54227967  0.54227967  0.34624180  1.0
  Y  Y482  1  0.54227967  0.87561300  0.34624180  1.0
  Y  Y483  1  0.87561300  0.20894633  0.34624180  1.0
  Y  Y484  1  0.87561300  0.54227967  0.34624180  1.0
  Y  Y485  1  0.87561300  0.87561300  0.34624180  1.0
  Y  Y486  1  0.03982767  0.20894633  0.24771300  1.0
  Y  Y487  1  0.03982767  0.54227967  0.24771300  1.0
  Y  Y488  1  0.03982767  0.87561300  0.24771300  1.0
  Y  Y489  1  0.37316100  0.20894633  0.24771300  1.0
  Y  Y490  1  0.37316100  0.54227967  0.24771300  1.0
  Y  Y491  1  0.37316100  0.87561300  0.24771300  1.0
  Y  Y492  1  0.70649433  0.20894633  0.24771300  1.0
  Y  Y493  1  0.70649433  0.54227967  0.24771300  1.0
  Y  Y494  1  0.70649433  0.87561300  0.24771300  1.0
  Y  Y495  1  0.20894633  0.03982767  0.34624180  1.0
  Y  Y496  1  0.20894633  0.37316100  0.34624180  1.0
  Y  Y497  1  0.20894633  0.70649433  0.34624180  1.0
  Y  Y498  1  0.54227967  0.03982767  0.34624180  1.0
  Y  Y499  1  0.54227967  0.37316100  0.34624180  1.0
  Y  Y500  1  0.54227967  0.70649433  0.34624180  1.0
  Y  Y501  1  0.87561300  0.03982767  0.34624180  1.0
  Y  Y502  1  0.87561300  0.37316100  0.34624180  1.0
  Y  Y503  1  0.87561300  0.70649433  0.34624180  1.0
  Y  Y504  1  0.00503767  0.16162900  0.29697740  1.0
  Y  Y505  1  0.00503767  0.49496233  0.29697740  1.0
  Y  Y506  1  0.00503767  0.82829567  0.29697740  1.0
  Y  Y507  1  0.33837100  0.16162900  0.29697740  1.0
  Y  Y508  1  0.33837100  0.49496233  0.29697740  1.0
  Y  Y509  1  0.33837100  0.82829567  0.29697740  1.0
  Y  Y510  1  0.67170433  0.16162900  0.29697740  1.0
  Y  Y511  1  0.67170433  0.49496233  0.29697740  1.0
  Y  Y512  1  0.67170433  0.82829567  0.29697740  1.0
  Y  Y513  1  0.16162900  0.00503767  0.20302260  1.0
  Y  Y514  1  0.16162900  0.33837100  0.20302260  1.0
  Y  Y515  1  0.16162900  0.67170433  0.20302260  1.0
  Y  Y516  1  0.49496233  0.00503767  0.20302260  1.0
  Y  Y517  1  0.49496233  0.33837100  0.20302260  1.0
  Y  Y518  1  0.49496233  0.67170433  0.20302260  1.0
  Y  Y519  1  0.82829567  0.00503767  0.20302260  1.0
  Y  Y520  1  0.82829567  0.33837100  0.20302260  1.0
  Y  Y521  1  0.82829567  0.67170433  0.20302260  1.0
  Y  Y522  1  0.00503767  0.00503767  0.29697740  1.0
  Y  Y523  1  0.00503767  0.33837100  0.29697740  1.0
  Y  Y524  1  0.00503767  0.67170433  0.29697740  1.0
  Y  Y525  1  0.33837100  0.00503767  0.29697740  1.0
  Y  Y526  1  0.33837100  0.33837100  0.29697740  1.0
  Y  Y527  1  0.33837100  0.67170433  0.29697740  1.0
  Y  Y528  1  0.67170433  0.00503767  0.29697740  1.0
  Y  Y529  1  0.67170433  0.33837100  0.29697740  1.0
  Y  Y530  1  0.67170433  0.67170433  0.29697740  1.0
  Y  Y531  1  0.16162900  0.00503767  0.29697740  1.0
  Y  Y532  1  0.16162900  0.33837100  0.29697740  1.0
  Y  Y533  1  0.16162900  0.67170433  0.29697740  1.0
  Y  Y534  1  0.49496233  0.00503767  0.29697740  1.0
  Y  Y535  1  0.49496233  0.33837100  0.29697740  1.0
  Y  Y536  1  0.49496233  0.67170433  0.29697740  1.0
  Y  Y537  1  0.82829567  0.00503767  0.29697740  1.0
  Y  Y538  1  0.82829567  0.33837100  0.29697740  1.0
  Y  Y539  1  0.82829567  0.67170433  0.29697740  1.0
  Y  Y540  1  0.00503767  0.16162900  0.39093220  1.0
  Y  Y541  1  0.00503767  0.49496233  0.39093220  1.0
  Y  Y542  1  0.00503767  0.82829567  0.39093220  1.0
  Y  Y543  1  0.33837100  0.16162900  0.39093220  1.0
  Y  Y544  1  0.33837100  0.49496233  0.39093220  1.0
  Y  Y545  1  0.33837100  0.82829567  0.39093220  1.0
  Y  Y546  1  0.67170433  0.16162900  0.39093220  1.0
  Y  Y547  1  0.67170433  0.49496233  0.39093220  1.0
  Y  Y548  1  0.67170433  0.82829567  0.39093220  1.0
  Y  Y549  1  0.16162900  0.16162900  0.29697740  1.0
  Y  Y550  1  0.16162900  0.49496233  0.29697740  1.0
  Y  Y551  1  0.16162900  0.82829567  0.29697740  1.0
  Y  Y552  1  0.49496233  0.16162900  0.29697740  1.0
  Y  Y553  1  0.49496233  0.49496233  0.29697740  1.0
  Y  Y554  1  0.49496233  0.82829567  0.29697740  1.0
  Y  Y555  1  0.82829567  0.16162900  0.29697740  1.0
  Y  Y556  1  0.82829567  0.49496233  0.29697740  1.0
  Y  Y557  1  0.82829567  0.82829567  0.29697740  1.0
  Ni  Ni558  1  0.10380767  0.10380767  0.32154660  1.0
  Ni  Ni559  1  0.10380767  0.43714100  0.32154660  1.0
  Ni  Ni560  1  0.10380767  0.77047433  0.32154660  1.0
  Ni  Ni561  1  0.43714100  0.10380767  0.32154660  1.0
  Ni  Ni562  1  0.43714100  0.43714100  0.32154660  1.0
  Ni  Ni563  1  0.43714100  0.77047433  0.32154660  1.0
  Ni  Ni564  1  0.77047433  0.10380767  0.32154660  1.0
  Ni  Ni565  1  0.77047433  0.43714100  0.32154660  1.0
  Ni  Ni566  1  0.77047433  0.77047433  0.32154660  1.0
  Ni  Ni567  1  0.10380767  0.10380767  0.27240820  1.0
  Ni  Ni568  1  0.10380767  0.43714100  0.27240820  1.0
  Ni  Ni569  1  0.10380767  0.77047433  0.27240820  1.0
  Ni  Ni570  1  0.43714100  0.10380767  0.27240820  1.0
  Ni  Ni571  1  0.43714100  0.43714100  0.27240820  1.0
  Ni  Ni572  1  0.43714100  0.77047433  0.27240820  1.0
  Ni  Ni573  1  0.77047433  0.10380767  0.27240820  1.0
  Ni  Ni574  1  0.77047433  0.43714100  0.27240820  1.0
  Ni  Ni575  1  0.77047433  0.77047433  0.27240820  1.0
  Ni  Ni576  1  0.02191033  0.10380767  0.32154660  1.0
  Ni  Ni577  1  0.02191033  0.43714100  0.32154660  1.0
  Ni  Ni578  1  0.02191033  0.77047433  0.32154660  1.0
  Ni  Ni579  1  0.35524367  0.10380767  0.32154660  1.0
  Ni  Ni580  1  0.35524367  0.43714100  0.32154660  1.0
  Ni  Ni581  1  0.35524367  0.77047433  0.32154660  1.0
  Ni  Ni582  1  0.68857700  0.10380767  0.32154660  1.0
  Ni  Ni583  1  0.68857700  0.43714100  0.32154660  1.0
  Ni  Ni584  1  0.68857700  0.77047433  0.32154660  1.0
  Ni  Ni585  1  0.10380767  0.02191033  0.27240820  1.0
  Ni  Ni586  1  0.10380767  0.35524367  0.27240820  1.0
  Ni  Ni587  1  0.10380767  0.68857700  0.27240820  1.0
  Ni  Ni588  1  0.43714100  0.02191033  0.27240820  1.0
  Ni  Ni589  1  0.43714100  0.35524367  0.27240820  1.0
  Ni  Ni590  1  0.43714100  0.68857700  0.27240820  1.0
  Ni  Ni591  1  0.77047433  0.02191033  0.27240820  1.0
  Ni  Ni592  1  0.77047433  0.35524367  0.27240820  1.0
  Ni  Ni593  1  0.77047433  0.68857700  0.27240820  1.0
  Ni  Ni594  1  0.27046867  0.27046867  0.32153980  1.0
  Ni  Ni595  1  0.27046867  0.60380200  0.32153980  1.0
  Ni  Ni596  1  0.27046867  0.93713533  0.32153980  1.0
  Ni  Ni597  1  0.60380200  0.27046867  0.32153980  1.0
  Ni  Ni598  1  0.60380200  0.60380200  0.32153980  1.0
  Ni  Ni599  1  0.60380200  0.93713533  0.32153980  1.0
  Ni  Ni600  1  0.93713533  0.27046867  0.32153980  1.0
  Ni  Ni601  1  0.93713533  0.60380200  0.32153980  1.0
  Ni  Ni602  1  0.93713533  0.93713533  0.32153980  1.0
  Ni  Ni603  1  0.27046867  0.27046867  0.27241500  1.0
  Ni  Ni604  1  0.27046867  0.60380200  0.27241500  1.0
  Ni  Ni605  1  0.27046867  0.93713533  0.27241500  1.0
  Ni  Ni606  1  0.60380200  0.27046867  0.27241500  1.0
  Ni  Ni607  1  0.60380200  0.60380200  0.27241500  1.0
  Ni  Ni608  1  0.60380200  0.93713533  0.27241500  1.0
  Ni  Ni609  1  0.93713533  0.27046867  0.27241500  1.0
  Ni  Ni610  1  0.93713533  0.60380200  0.27241500  1.0
  Ni  Ni611  1  0.93713533  0.93713533  0.27241500  1.0
  Ni  Ni612  1  0.18859400  0.27046867  0.32153980  1.0
  Ni  Ni613  1  0.18859400  0.60380200  0.32153980  1.0
  Ni  Ni614  1  0.18859400  0.93713533  0.32153980  1.0
  Ni  Ni615  1  0.52192733  0.27046867  0.32153980  1.0
  Ni  Ni616  1  0.52192733  0.60380200  0.32153980  1.0
  Ni  Ni617  1  0.52192733  0.93713533  0.32153980  1.0
  Ni  Ni618  1  0.85526067  0.27046867  0.32153980  1.0
  Ni  Ni619  1  0.85526067  0.60380200  0.32153980  1.0
  Ni  Ni620  1  0.85526067  0.93713533  0.32153980  1.0
  Ni  Ni621  1  0.27046867  0.18859400  0.27241500  1.0
  Ni  Ni622  1  0.27046867  0.52192733  0.27241500  1.0
  Ni  Ni623  1  0.27046867  0.85526067  0.27241500  1.0
  Ni  Ni624  1  0.60380200  0.18859400  0.27241500  1.0
  Ni  Ni625  1  0.60380200  0.52192733  0.27241500  1.0
  Ni  Ni626  1  0.60380200  0.85526067  0.27241500  1.0
  Ni  Ni627  1  0.93713533  0.18859400  0.27241500  1.0
  Ni  Ni628  1  0.93713533  0.52192733  0.27241500  1.0
  Ni  Ni629  1  0.93713533  0.85526067  0.27241500  1.0
  Ni  Ni630  1  0.26898683  0.26898683  0.22383630  1.0
  Ni  Ni631  1  0.26898683  0.60232017  0.22383630  1.0
  Ni  Ni632  1  0.26898683  0.93565350  0.22383630  1.0
  Ni  Ni633  1  0.60232017  0.26898683  0.22383630  1.0
  Ni  Ni634  1  0.60232017  0.60232017  0.22383630  1.0
  Ni  Ni635  1  0.60232017  0.93565350  0.22383630  1.0
  Ni  Ni636  1  0.93565350  0.26898683  0.22383630  1.0
  Ni  Ni637  1  0.93565350  0.60232017  0.22383630  1.0
  Ni  Ni638  1  0.93565350  0.93565350  0.22383630  1.0
  Ni  Ni639  1  0.26898683  0.10911133  0.22383630  1.0
  Ni  Ni640  1  0.26898683  0.44244467  0.22383630  1.0
  Ni  Ni641  1  0.26898683  0.77577800  0.22383630  1.0
  Ni  Ni642  1  0.60232017  0.10911133  0.22383630  1.0
  Ni  Ni643  1  0.60232017  0.44244467  0.22383630  1.0
  Ni  Ni644  1  0.60232017  0.77577800  0.22383630  1.0
  Ni  Ni645  1  0.93565350  0.10911133  0.22383630  1.0
  Ni  Ni646  1  0.93565350  0.44244467  0.22383630  1.0
  Ni  Ni647  1  0.93565350  0.77577800  0.22383630  1.0
  Ni  Ni648  1  0.10911133  0.26898683  0.31976160  1.0
  Ni  Ni649  1  0.10911133  0.60232017  0.31976160  1.0
  Ni  Ni650  1  0.10911133  0.93565350  0.31976160  1.0
  Ni  Ni651  1  0.44244467  0.26898683  0.31976160  1.0
  Ni  Ni652  1  0.44244467  0.60232017  0.31976160  1.0
  Ni  Ni653  1  0.44244467  0.93565350  0.31976160  1.0
  Ni  Ni654  1  0.77577800  0.26898683  0.31976160  1.0
  Ni  Ni655  1  0.77577800  0.60232017  0.31976160  1.0
  Ni  Ni656  1  0.77577800  0.93565350  0.31976160  1.0
  Ni  Ni657  1  0.26898683  0.26898683  0.37011850  1.0
  Ni  Ni658  1  0.26898683  0.60232017  0.37011850  1.0
  Ni  Ni659  1  0.26898683  0.93565350  0.37011850  1.0
  Ni  Ni660  1  0.60232017  0.26898683  0.37011850  1.0
  Ni  Ni661  1  0.60232017  0.60232017  0.37011850  1.0
  Ni  Ni662  1  0.60232017  0.93565350  0.37011850  1.0
  Ni  Ni663  1  0.93565350  0.26898683  0.37011850  1.0
  Ni  Ni664  1  0.93565350  0.60232017  0.37011850  1.0
  Ni  Ni665  1  0.93565350  0.93565350  0.37011850  1.0
  Ni  Ni666  1  0.10911133  0.26898683  0.37011850  1.0
  Ni  Ni667  1  0.10911133  0.60232017  0.37011850  1.0
  Ni  Ni668  1  0.10911133  0.93565350  0.37011850  1.0
  Ni  Ni669  1  0.44244467  0.26898683  0.37011850  1.0
  Ni  Ni670  1  0.44244467  0.60232017  0.37011850  1.0
  Ni  Ni671  1  0.44244467  0.93565350  0.37011850  1.0
  Ni  Ni672  1  0.77577800  0.26898683  0.37011850  1.0
  Ni  Ni673  1  0.77577800  0.60232017  0.37011850  1.0
  Ni  Ni674  1  0.77577800  0.93565350  0.37011850  1.0
  Ni  Ni675  1  0.26898683  0.10911133  0.27419320  1.0
  Ni  Ni676  1  0.26898683  0.44244467  0.27419320  1.0
  Ni  Ni677  1  0.26898683  0.77577800  0.27419320  1.0
  Ni  Ni678  1  0.60232017  0.10911133  0.27419320  1.0
  Ni  Ni679  1  0.60232017  0.44244467  0.27419320  1.0
  Ni  Ni680  1  0.60232017  0.77577800  0.27419320  1.0
  Ni  Ni681  1  0.93565350  0.10911133  0.27419320  1.0
  Ni  Ni682  1  0.93565350  0.44244467  0.27419320  1.0
  Ni  Ni683  1  0.93565350  0.77577800  0.27419320  1.0
  Ni  Ni684  1  0.01958167  0.10911133  0.22383630  1.0
  Ni  Ni685  1  0.01958167  0.44244467  0.22383630  1.0
  Ni  Ni686  1  0.01958167  0.77577800  0.22383630  1.0
  Ni  Ni687  1  0.35291500  0.10911133  0.22383630  1.0
  Ni  Ni688  1  0.35291500  0.44244467  0.22383630  1.0
  Ni  Ni689  1  0.35291500  0.77577800  0.22383630  1.0
  Ni  Ni690  1  0.68624833  0.10911133  0.22383630  1.0
  Ni  Ni691  1  0.68624833  0.44244467  0.22383630  1.0
  Ni  Ni692  1  0.68624833  0.77577800  0.22383630  1.0
  Ni  Ni693  1  0.01958167  0.26898683  0.22383630  1.0
  Ni  Ni694  1  0.01958167  0.60232017  0.22383630  1.0
  Ni  Ni695  1  0.01958167  0.93565350  0.22383630  1.0
  Ni  Ni696  1  0.35291500  0.26898683  0.22383630  1.0
  Ni  Ni697  1  0.35291500  0.60232017  0.22383630  1.0
  Ni  Ni698  1  0.35291500  0.93565350  0.22383630  1.0
  Ni  Ni699  1  0.68624833  0.26898683  0.22383630  1.0
  Ni  Ni700  1  0.68624833  0.60232017  0.22383630  1.0
  Ni  Ni701  1  0.68624833  0.93565350  0.22383630  1.0
  Ni  Ni702  1  0.01958167  0.26898683  0.31976160  1.0
  Ni  Ni703  1  0.01958167  0.60232017  0.31976160  1.0
  Ni  Ni704  1  0.01958167  0.93565350  0.31976160  1.0
  Ni  Ni705  1  0.35291500  0.26898683  0.31976160  1.0
  Ni  Ni706  1  0.35291500  0.60232017  0.31976160  1.0
  Ni  Ni707  1  0.35291500  0.93565350  0.31976160  1.0
  Ni  Ni708  1  0.68624833  0.26898683  0.31976160  1.0
  Ni  Ni709  1  0.68624833  0.60232017  0.31976160  1.0
  Ni  Ni710  1  0.68624833  0.93565350  0.31976160  1.0
  Ni  Ni711  1  0.10911133  0.01958167  0.37011850  1.0
  Ni  Ni712  1  0.10911133  0.35291500  0.37011850  1.0
  Ni  Ni713  1  0.10911133  0.68624833  0.37011850  1.0
  Ni  Ni714  1  0.44244467  0.01958167  0.37011850  1.0
  Ni  Ni715  1  0.44244467  0.35291500  0.37011850  1.0
  Ni  Ni716  1  0.44244467  0.68624833  0.37011850  1.0
  Ni  Ni717  1  0.77577800  0.01958167  0.37011850  1.0
  Ni  Ni718  1  0.77577800  0.35291500  0.37011850  1.0
  Ni  Ni719  1  0.77577800  0.68624833  0.37011850  1.0
  Ni  Ni720  1  0.26898683  0.01958167  0.37011850  1.0
  Ni  Ni721  1  0.26898683  0.35291500  0.37011850  1.0
  Ni  Ni722  1  0.26898683  0.68624833  0.37011850  1.0
  Ni  Ni723  1  0.60232017  0.01958167  0.37011850  1.0
  Ni  Ni724  1  0.60232017  0.35291500  0.37011850  1.0
  Ni  Ni725  1  0.60232017  0.68624833  0.37011850  1.0
  Ni  Ni726  1  0.93565350  0.01958167  0.37011850  1.0
  Ni  Ni727  1  0.93565350  0.35291500  0.37011850  1.0
  Ni  Ni728  1  0.93565350  0.68624833  0.37011850  1.0
  Ni  Ni729  1  0.26898683  0.01958167  0.27419320  1.0
  Ni  Ni730  1  0.26898683  0.35291500  0.27419320  1.0
  Ni  Ni731  1  0.26898683  0.68624833  0.27419320  1.0
  Ni  Ni732  1  0.60232017  0.01958167  0.27419320  1.0
  Ni  Ni733  1  0.60232017  0.35291500  0.27419320  1.0
  Ni  Ni734  1  0.60232017  0.68624833  0.27419320  1.0
  Ni  Ni735  1  0.93565350  0.01958167  0.27419320  1.0
  Ni  Ni736  1  0.93565350  0.35291500  0.27419320  1.0
  Ni  Ni737  1  0.93565350  0.68624833  0.27419320  1.0
  Ni  Ni738  1  0.10405333  0.10405333  0.22193140  1.0
  Ni  Ni739  1  0.10405333  0.43738667  0.22193140  1.0
  Ni  Ni740  1  0.10405333  0.77072000  0.22193140  1.0
  Ni  Ni741  1  0.43738667  0.10405333  0.22193140  1.0
  Ni  Ni742  1  0.43738667  0.43738667  0.22193140  1.0
  Ni  Ni743  1  0.43738667  0.77072000  0.22193140  1.0
  Ni  Ni744  1  0.77072000  0.10405333  0.22193140  1.0
  Ni  Ni745  1  0.77072000  0.43738667  0.22193140  1.0
  Ni  Ni746  1  0.77072000  0.77072000  0.22193140  1.0
  Ni  Ni747  1  0.10405333  0.27087000  0.22193140  1.0
  Ni  Ni748  1  0.10405333  0.60420333  0.22193140  1.0
  Ni  Ni749  1  0.10405333  0.93753667  0.22193140  1.0
  Ni  Ni750  1  0.43738667  0.27087000  0.22193140  1.0
  Ni  Ni751  1  0.43738667  0.60420333  0.22193140  1.0
  Ni  Ni752  1  0.43738667  0.93753667  0.22193140  1.0
  Ni  Ni753  1  0.77072000  0.27087000  0.22193140  1.0
  Ni  Ni754  1  0.77072000  0.60420333  0.22193140  1.0
  Ni  Ni755  1  0.77072000  0.93753667  0.22193140  1.0
  Ni  Ni756  1  0.27087000  0.10405333  0.32184140  1.0
  Ni  Ni757  1  0.27087000  0.43738667  0.32184140  1.0
  Ni  Ni758  1  0.27087000  0.77072000  0.32184140  1.0
  Ni  Ni759  1  0.60420333  0.10405333  0.32184140  1.0
  Ni  Ni760  1  0.60420333  0.43738667  0.32184140  1.0
  Ni  Ni761  1  0.60420333  0.77072000  0.32184140  1.0
  Ni  Ni762  1  0.93753667  0.10405333  0.32184140  1.0
  Ni  Ni763  1  0.93753667  0.43738667  0.32184140  1.0
  Ni  Ni764  1  0.93753667  0.77072000  0.32184140  1.0
  Ni  Ni765  1  0.10405333  0.10405333  0.37202340  1.0
  Ni  Ni766  1  0.10405333  0.43738667  0.37202340  1.0
  Ni  Ni767  1  0.10405333  0.77072000  0.37202340  1.0
  Ni  Ni768  1  0.43738667  0.10405333  0.37202340  1.0
  Ni  Ni769  1  0.43738667  0.43738667  0.37202340  1.0
  Ni  Ni770  1  0.43738667  0.77072000  0.37202340  1.0
  Ni  Ni771  1  0.77072000  0.10405333  0.37202340  1.0
  Ni  Ni772  1  0.77072000  0.43738667  0.37202340  1.0
  Ni  Ni773  1  0.77072000  0.77072000  0.37202340  1.0
  Ni  Ni774  1  0.27087000  0.10405333  0.37202340  1.0
  Ni  Ni775  1  0.27087000  0.43738667  0.37202340  1.0
  Ni  Ni776  1  0.27087000  0.77072000  0.37202340  1.0
  Ni  Ni777  1  0.60420333  0.10405333  0.37202340  1.0
  Ni  Ni778  1  0.60420333  0.43738667  0.37202340  1.0
  Ni  Ni779  1  0.60420333  0.77072000  0.37202340  1.0
  Ni  Ni780  1  0.93753667  0.10405333  0.37202340  1.0
  Ni  Ni781  1  0.93753667  0.43738667  0.37202340  1.0
  Ni  Ni782  1  0.93753667  0.77072000  0.37202340  1.0
  Ni  Ni783  1  0.10405333  0.27087000  0.27211340  1.0
  Ni  Ni784  1  0.10405333  0.60420333  0.27211340  1.0
  Ni  Ni785  1  0.10405333  0.93753667  0.27211340  1.0
  Ni  Ni786  1  0.43738667  0.27087000  0.27211340  1.0
  Ni  Ni787  1  0.43738667  0.60420333  0.27211340  1.0
  Ni  Ni788  1  0.43738667  0.93753667  0.27211340  1.0
  Ni  Ni789  1  0.77072000  0.27087000  0.27211340  1.0
  Ni  Ni790  1  0.77072000  0.60420333  0.27211340  1.0
  Ni  Ni791  1  0.77072000  0.93753667  0.27211340  1.0
  Ni  Ni792  1  0.18769000  0.27087000  0.22193140  1.0
  Ni  Ni793  1  0.18769000  0.60420333  0.22193140  1.0
  Ni  Ni794  1  0.18769000  0.93753667  0.22193140  1.0
  Ni  Ni795  1  0.52102333  0.27087000  0.22193140  1.0
  Ni  Ni796  1  0.52102333  0.60420333  0.22193140  1.0
  Ni  Ni797  1  0.52102333  0.93753667  0.22193140  1.0
  Ni  Ni798  1  0.85435667  0.27087000  0.22193140  1.0
  Ni  Ni799  1  0.85435667  0.60420333  0.22193140  1.0
  Ni  Ni800  1  0.85435667  0.93753667  0.22193140  1.0
  Ni  Ni801  1  0.18769000  0.10405333  0.22193140  1.0
  Ni  Ni802  1  0.18769000  0.43738667  0.22193140  1.0
  Ni  Ni803  1  0.18769000  0.77072000  0.22193140  1.0
  Ni  Ni804  1  0.52102333  0.10405333  0.22193140  1.0
  Ni  Ni805  1  0.52102333  0.43738667  0.22193140  1.0
  Ni  Ni806  1  0.52102333  0.77072000  0.22193140  1.0
  Ni  Ni807  1  0.85435667  0.10405333  0.22193140  1.0
  Ni  Ni808  1  0.85435667  0.43738667  0.22193140  1.0
  Ni  Ni809  1  0.85435667  0.77072000  0.22193140  1.0
  Ni  Ni810  1  0.18769000  0.10405333  0.32184140  1.0
  Ni  Ni811  1  0.18769000  0.43738667  0.32184140  1.0
  Ni  Ni812  1  0.18769000  0.77072000  0.32184140  1.0
  Ni  Ni813  1  0.52102333  0.10405333  0.32184140  1.0
  Ni  Ni814  1  0.52102333  0.43738667  0.32184140  1.0
  Ni  Ni815  1  0.52102333  0.77072000  0.32184140  1.0
  Ni  Ni816  1  0.85435667  0.10405333  0.32184140  1.0
  Ni  Ni817  1  0.85435667  0.43738667  0.32184140  1.0
  Ni  Ni818  1  0.85435667  0.77072000  0.32184140  1.0
  Ni  Ni819  1  0.27087000  0.18769000  0.37202340  1.0
  Ni  Ni820  1  0.27087000  0.52102333  0.37202340  1.0
  Ni  Ni821  1  0.27087000  0.85435667  0.37202340  1.0
  Ni  Ni822  1  0.60420333  0.18769000  0.37202340  1.0
  Ni  Ni823  1  0.60420333  0.52102333  0.37202340  1.0
  Ni  Ni824  1  0.60420333  0.85435667  0.37202340  1.0
  Ni  Ni825  1  0.93753667  0.18769000  0.37202340  1.0
  Ni  Ni826  1  0.93753667  0.52102333  0.37202340  1.0
  Ni  Ni827  1  0.93753667  0.85435667  0.37202340  1.0
  Ni  Ni828  1  0.10405333  0.18769000  0.37202340  1.0
  Ni  Ni829  1  0.10405333  0.52102333  0.37202340  1.0
  Ni  Ni830  1  0.10405333  0.85435667  0.37202340  1.0
  Ni  Ni831  1  0.43738667  0.18769000  0.37202340  1.0
  Ni  Ni832  1  0.43738667  0.52102333  0.37202340  1.0
  Ni  Ni833  1  0.43738667  0.85435667  0.37202340  1.0
  Ni  Ni834  1  0.77072000  0.18769000  0.37202340  1.0
  Ni  Ni835  1  0.77072000  0.52102333  0.37202340  1.0
  Ni  Ni836  1  0.77072000  0.85435667  0.37202340  1.0
  Ni  Ni837  1  0.10405333  0.18769000  0.27211340  1.0
  Ni  Ni838  1  0.10405333  0.52102333  0.27211340  1.0
  Ni  Ni839  1  0.10405333  0.85435667  0.27211340  1.0
  Ni  Ni840  1  0.43738667  0.18769000  0.27211340  1.0
  Ni  Ni841  1  0.43738667  0.52102333  0.27211340  1.0
  Ni  Ni842  1  0.43738667  0.85435667  0.27211340  1.0
  Ni  Ni843  1  0.77072000  0.18769000  0.27211340  1.0
  Ni  Ni844  1  0.77072000  0.52102333  0.27211340  1.0
  Ni  Ni845  1  0.77072000  0.85435667  0.27211340  1.0
