# generated using pymatgen
data_Y15Ni32
_symmetry_space_group_name_H-M   'P 1'
_cell_length_a   30.51924912
_cell_length_b   74.75658768
_cell_length_c   30.51924912
_cell_angle_alpha   105.79316905
_cell_angle_beta   90.00000000
_cell_angle_gamma   90.00000000
_symmetry_Int_Tables_number   1
_chemical_formula_structural   Y15Ni32
_chemical_formula_sum   'Y540 Ni1152'
_cell_volume   67001.61641886
_cell_formula_units_Z   36
loop_
 _symmetry_equiv_pos_site_id
 _symmetry_equiv_pos_as_xyz
  1  'x, y, z'
loop_
 _atom_site_type_symbol
 _atom_site_label
 _atom_site_symmetry_multiplicity
 _atom_site_fract_x
 _atom_site_fract_y
 _atom_site_fract_z
 _atom_site_occupancy
  Ni  Ni0  1  0.00000000  0.02755627  0.19704590  1.0
  Ni  Ni1  1  0.00000000  0.36088960  0.19704590  1.0
  Ni  Ni2  1  0.00000000  0.69422293  0.19704590  1.0
  Ni  Ni3  1  0.33333333  0.02755627  0.19704590  1.0
  Ni  Ni4  1  0.33333333  0.36088960  0.19704590  1.0
  Ni  Ni5  1  0.33333333  0.69422293  0.19704590  1.0
  Ni  Ni6  1  0.66666667  0.02755627  0.19704590  1.0
  Ni  Ni7  1  0.66666667  0.36088960  0.19704590  1.0
  Ni  Ni8  1  0.66666667  0.69422293  0.19704590  1.0
  Ni  Ni9  1  0.16666667  0.12755627  0.09704590  1.0
  Ni  Ni10  1  0.16666667  0.46088960  0.09704590  1.0
  Ni  Ni11  1  0.16666667  0.79422293  0.09704590  1.0
  Ni  Ni12  1  0.50000000  0.12755627  0.09704590  1.0
  Ni  Ni13  1  0.50000000  0.46088960  0.09704590  1.0
  Ni  Ni14  1  0.50000000  0.79422293  0.09704590  1.0
  Ni  Ni15  1  0.83333333  0.12755627  0.09704590  1.0
  Ni  Ni16  1  0.83333333  0.46088960  0.09704590  1.0
  Ni  Ni17  1  0.83333333  0.79422293  0.09704590  1.0
  Ni  Ni18  1  0.33333333  0.26031520  0.04618430  1.0
  Ni  Ni19  1  0.33333333  0.59364853  0.04618430  1.0
  Ni  Ni20  1  0.33333333  0.92698187  0.04618430  1.0
  Ni  Ni21  1  0.66666667  0.26031520  0.04618430  1.0
  Ni  Ni22  1  0.66666667  0.59364853  0.04618430  1.0
  Ni  Ni23  1  0.66666667  0.92698187  0.04618430  1.0
  Ni  Ni24  1  1.00000000  0.26031520  0.04618430  1.0
  Ni  Ni25  1  1.00000000  0.59364853  0.04618430  1.0
  Ni  Ni26  1  1.00000000  0.92698187  0.04618430  1.0
  Ni  Ni27  1  0.16666667  0.16031520  0.14618430  1.0
  Ni  Ni28  1  0.16666667  0.49364853  0.14618430  1.0
  Ni  Ni29  1  0.16666667  0.82698187  0.14618430  1.0
  Ni  Ni30  1  0.50000000  0.16031520  0.14618430  1.0
  Ni  Ni31  1  0.50000000  0.49364853  0.14618430  1.0
  Ni  Ni32  1  0.50000000  0.82698187  0.14618430  1.0
  Ni  Ni33  1  0.83333333  0.16031520  0.14618430  1.0
  Ni  Ni34  1  0.83333333  0.49364853  0.14618430  1.0
  Ni  Ni35  1  0.83333333  0.82698187  0.14618430  1.0
  Ni  Ni36  1  0.29238467  0.05212547  0.17247670  1.0
  Ni  Ni37  1  0.29238467  0.38545880  0.17247670  1.0
  Ni  Ni38  1  0.29238467  0.71879213  0.17247670  1.0
  Ni  Ni39  1  0.62571800  0.05212547  0.17247670  1.0
  Ni  Ni40  1  0.62571800  0.38545880  0.17247670  1.0
  Ni  Ni41  1  0.62571800  0.71879213  0.17247670  1.0
  Ni  Ni42  1  0.95905133  0.05212547  0.17247670  1.0
  Ni  Ni43  1  0.95905133  0.38545880  0.17247670  1.0
  Ni  Ni44  1  0.95905133  0.71879213  0.17247670  1.0
  Ni  Ni45  1  0.12571800  0.15212547  0.07247670  1.0
  Ni  Ni46  1  0.12571800  0.48545880  0.07247670  1.0
  Ni  Ni47  1  0.12571800  0.81879213  0.07247670  1.0
  Ni  Ni48  1  0.45905133  0.15212547  0.07247670  1.0
  Ni  Ni49  1  0.45905133  0.48545880  0.07247670  1.0
  Ni  Ni50  1  0.45905133  0.81879213  0.07247670  1.0
  Ni  Ni51  1  0.79238467  0.15212547  0.07247670  1.0
  Ni  Ni52  1  0.79238467  0.48545880  0.07247670  1.0
  Ni  Ni53  1  0.79238467  0.81879213  0.07247670  1.0
  Ni  Ni54  1  0.04094867  0.05212547  0.17247670  1.0
  Ni  Ni55  1  0.04094867  0.38545880  0.17247670  1.0
  Ni  Ni56  1  0.04094867  0.71879213  0.17247670  1.0
  Ni  Ni57  1  0.37428200  0.05212547  0.17247670  1.0
  Ni  Ni58  1  0.37428200  0.38545880  0.17247670  1.0
  Ni  Ni59  1  0.37428200  0.71879213  0.17247670  1.0
  Ni  Ni60  1  0.70761533  0.05212547  0.17247670  1.0
  Ni  Ni61  1  0.70761533  0.38545880  0.17247670  1.0
  Ni  Ni62  1  0.70761533  0.71879213  0.17247670  1.0
  Ni  Ni63  1  0.20761533  0.15212547  0.07247670  1.0
  Ni  Ni64  1  0.20761533  0.48545880  0.07247670  1.0
  Ni  Ni65  1  0.20761533  0.81879213  0.07247670  1.0
  Ni  Ni66  1  0.54094867  0.15212547  0.07247670  1.0
  Ni  Ni67  1  0.54094867  0.48545880  0.07247670  1.0
  Ni  Ni68  1  0.54094867  0.81879213  0.07247670  1.0
  Ni  Ni69  1  0.87428200  0.15212547  0.07247670  1.0
  Ni  Ni70  1  0.87428200  0.48545880  0.07247670  1.0
  Ni  Ni71  1  0.87428200  0.81879213  0.07247670  1.0
  Ni  Ni72  1  0.00000000  0.19422860  0.19704590  1.0
  Ni  Ni73  1  0.00000000  0.52756193  0.19704590  1.0
  Ni  Ni74  1  0.00000000  0.86089527  0.19704590  1.0
  Ni  Ni75  1  0.33333333  0.19422860  0.19704590  1.0
  Ni  Ni76  1  0.33333333  0.52756193  0.19704590  1.0
  Ni  Ni77  1  0.33333333  0.86089527  0.19704590  1.0
  Ni  Ni78  1  0.66666667  0.19422860  0.19704590  1.0
  Ni  Ni79  1  0.66666667  0.52756193  0.19704590  1.0
  Ni  Ni80  1  0.66666667  0.86089527  0.19704590  1.0
  Ni  Ni81  1  0.16666667  0.29422860  0.09704590  1.0
  Ni  Ni82  1  0.16666667  0.62756193  0.09704590  1.0
  Ni  Ni83  1  0.16666667  0.96089527  0.09704590  1.0
  Ni  Ni84  1  0.50000000  0.29422860  0.09704590  1.0
  Ni  Ni85  1  0.50000000  0.62756193  0.09704590  1.0
  Ni  Ni86  1  0.50000000  0.96089527  0.09704590  1.0
  Ni  Ni87  1  0.83333333  0.29422860  0.09704590  1.0
  Ni  Ni88  1  0.83333333  0.62756193  0.09704590  1.0
  Ni  Ni89  1  0.83333333  0.96089527  0.09704590  1.0
  Ni  Ni90  1  0.00000000  0.09364513  0.04617070  1.0
  Ni  Ni91  1  0.00000000  0.42697847  0.04617070  1.0
  Ni  Ni92  1  0.00000000  0.76031180  0.04617070  1.0
  Ni  Ni93  1  0.33333333  0.09364513  0.04617070  1.0
  Ni  Ni94  1  0.33333333  0.42697847  0.04617070  1.0
  Ni  Ni95  1  0.33333333  0.76031180  0.04617070  1.0
  Ni  Ni96  1  0.66666667  0.09364513  0.04617070  1.0
  Ni  Ni97  1  0.66666667  0.42697847  0.04617070  1.0
  Ni  Ni98  1  0.66666667  0.76031180  0.04617070  1.0
  Ni  Ni99  1  0.16666667  0.32697847  0.14617070  1.0
  Ni  Ni100  1  0.16666667  0.66031180  0.14617070  1.0
  Ni  Ni101  1  0.16666667  0.99364513  0.14617070  1.0
  Ni  Ni102  1  0.50000000  0.32697847  0.14617070  1.0
  Ni  Ni103  1  0.50000000  0.66031180  0.14617070  1.0
  Ni  Ni104  1  0.50000000  0.99364513  0.14617070  1.0
  Ni  Ni105  1  0.83333333  0.32697847  0.14617070  1.0
  Ni  Ni106  1  0.83333333  0.66031180  0.14617070  1.0
  Ni  Ni107  1  0.83333333  0.99364513  0.14617070  1.0
  Ni  Ni108  1  0.29239600  0.21879100  0.17248350  1.0
  Ni  Ni109  1  0.29239600  0.55212433  0.17248350  1.0
  Ni  Ni110  1  0.29239600  0.88545767  0.17248350  1.0
  Ni  Ni111  1  0.62572933  0.21879100  0.17248350  1.0
  Ni  Ni112  1  0.62572933  0.55212433  0.17248350  1.0
  Ni  Ni113  1  0.62572933  0.88545767  0.17248350  1.0
  Ni  Ni114  1  0.95906267  0.21879100  0.17248350  1.0
  Ni  Ni115  1  0.95906267  0.55212433  0.17248350  1.0
  Ni  Ni116  1  0.95906267  0.88545767  0.17248350  1.0
  Ni  Ni117  1  0.12572933  0.31879100  0.07248350  1.0
  Ni  Ni118  1  0.12572933  0.65212433  0.07248350  1.0
  Ni  Ni119  1  0.12572933  0.98545767  0.07248350  1.0
  Ni  Ni120  1  0.45906267  0.31879100  0.07248350  1.0
  Ni  Ni121  1  0.45906267  0.65212433  0.07248350  1.0
  Ni  Ni122  1  0.45906267  0.98545767  0.07248350  1.0
  Ni  Ni123  1  0.79239600  0.31879100  0.07248350  1.0
  Ni  Ni124  1  0.79239600  0.65212433  0.07248350  1.0
  Ni  Ni125  1  0.79239600  0.98545767  0.07248350  1.0
  Ni  Ni126  1  0.04093733  0.21879100  0.17248350  1.0
  Ni  Ni127  1  0.04093733  0.55212433  0.17248350  1.0
  Ni  Ni128  1  0.04093733  0.88545767  0.17248350  1.0
  Ni  Ni129  1  0.37427067  0.21879100  0.17248350  1.0
  Ni  Ni130  1  0.37427067  0.55212433  0.17248350  1.0
  Ni  Ni131  1  0.37427067  0.88545767  0.17248350  1.0
  Ni  Ni132  1  0.70760400  0.21879100  0.17248350  1.0
  Ni  Ni133  1  0.70760400  0.55212433  0.17248350  1.0
  Ni  Ni134  1  0.70760400  0.88545767  0.17248350  1.0
  Ni  Ni135  1  0.20760400  0.31879100  0.07248350  1.0
  Ni  Ni136  1  0.20760400  0.65212433  0.07248350  1.0
  Ni  Ni137  1  0.20760400  0.98545767  0.07248350  1.0
  Ni  Ni138  1  0.54093733  0.31879100  0.07248350  1.0
  Ni  Ni139  1  0.54093733  0.65212433  0.07248350  1.0
  Ni  Ni140  1  0.54093733  0.98545767  0.07248350  1.0
  Ni  Ni141  1  0.87427067  0.31879100  0.07248350  1.0
  Ni  Ni142  1  0.87427067  0.65212433  0.07248350  1.0
  Ni  Ni143  1  0.87427067  0.98545767  0.07248350  1.0
  Ni  Ni144  1  0.00000000  0.12632730  0.09297120  1.0
  Ni  Ni145  1  0.00000000  0.45966063  0.09297120  1.0
  Ni  Ni146  1  0.00000000  0.79299397  0.09297120  1.0
  Ni  Ni147  1  0.33333333  0.12632730  0.09297120  1.0
  Ni  Ni148  1  0.33333333  0.45966063  0.09297120  1.0
  Ni  Ni149  1  0.33333333  0.79299397  0.09297120  1.0
  Ni  Ni150  1  0.66666667  0.12632730  0.09297120  1.0
  Ni  Ni151  1  0.66666667  0.45966063  0.09297120  1.0
  Ni  Ni152  1  0.66666667  0.79299397  0.09297120  1.0
  Ni  Ni153  1  0.16666667  0.02632730  0.19297120  1.0
  Ni  Ni154  1  0.16666667  0.35966063  0.19297120  1.0
  Ni  Ni155  1  0.16666667  0.69299397  0.19297120  1.0
  Ni  Ni156  1  0.50000000  0.02632730  0.19297120  1.0
  Ni  Ni157  1  0.50000000  0.35966063  0.19297120  1.0
  Ni  Ni158  1  0.50000000  0.69299397  0.19297120  1.0
  Ni  Ni159  1  0.83333333  0.02632730  0.19297120  1.0
  Ni  Ni160  1  0.83333333  0.35966063  0.19297120  1.0
  Ni  Ni161  1  0.83333333  0.69299397  0.19297120  1.0
  Ni  Ni162  1  0.07993775  0.24367308  0.14908325  1.0
  Ni  Ni163  1  0.07993775  0.57700642  0.14908325  1.0
  Ni  Ni164  1  0.07993775  0.91033975  0.14908325  1.0
  Ni  Ni165  1  0.41327108  0.24367308  0.14908325  1.0
  Ni  Ni166  1  0.41327108  0.57700642  0.14908325  1.0
  Ni  Ni167  1  0.41327108  0.91033975  0.14908325  1.0
  Ni  Ni168  1  0.74660442  0.24367308  0.14908325  1.0
  Ni  Ni169  1  0.74660442  0.57700642  0.14908325  1.0
  Ni  Ni170  1  0.74660442  0.91033975  0.14908325  1.0
  Ni  Ni171  1  0.24660442  0.01033975  0.04908325  1.0
  Ni  Ni172  1  0.24660442  0.34367308  0.04908325  1.0
  Ni  Ni173  1  0.24660442  0.67700642  0.04908325  1.0
  Ni  Ni174  1  0.57993775  0.01033975  0.04908325  1.0
  Ni  Ni175  1  0.57993775  0.34367308  0.04908325  1.0
  Ni  Ni176  1  0.57993775  0.67700642  0.04908325  1.0
  Ni  Ni177  1  0.91327108  0.01033975  0.04908325  1.0
  Ni  Ni178  1  0.91327108  0.34367308  0.04908325  1.0
  Ni  Ni179  1  0.91327108  0.67700642  0.04908325  1.0
  Ni  Ni180  1  0.25339558  0.24367308  0.14908325  1.0
  Ni  Ni181  1  0.25339558  0.57700642  0.14908325  1.0
  Ni  Ni182  1  0.25339558  0.91033975  0.14908325  1.0
  Ni  Ni183  1  0.58672892  0.24367308  0.14908325  1.0
  Ni  Ni184  1  0.58672892  0.57700642  0.14908325  1.0
  Ni  Ni185  1  0.58672892  0.91033975  0.14908325  1.0
  Ni  Ni186  1  0.92006225  0.24367308  0.14908325  1.0
  Ni  Ni187  1  0.92006225  0.57700642  0.14908325  1.0
  Ni  Ni188  1  0.92006225  0.91033975  0.14908325  1.0
  Ni  Ni189  1  0.08672892  0.01033975  0.04908325  1.0
  Ni  Ni190  1  0.08672892  0.34367308  0.04908325  1.0
  Ni  Ni191  1  0.08672892  0.67700642  0.04908325  1.0
  Ni  Ni192  1  0.42006225  0.01033975  0.04908325  1.0
  Ni  Ni193  1  0.42006225  0.34367308  0.04908325  1.0
  Ni  Ni194  1  0.42006225  0.67700642  0.04908325  1.0
  Ni  Ni195  1  0.75339558  0.01033975  0.04908325  1.0
  Ni  Ni196  1  0.75339558  0.34367308  0.04908325  1.0
  Ni  Ni197  1  0.75339558  0.67700642  0.04908325  1.0
  Ni  Ni198  1  0.00000000  0.16213917  0.14668900  1.0
  Ni  Ni199  1  0.00000000  0.49547250  0.14668900  1.0
  Ni  Ni200  1  0.00000000  0.82880583  0.14668900  1.0
  Ni  Ni201  1  0.33333333  0.16213917  0.14668900  1.0
  Ni  Ni202  1  0.33333333  0.49547250  0.14668900  1.0
  Ni  Ni203  1  0.33333333  0.82880583  0.14668900  1.0
  Ni  Ni204  1  0.66666667  0.16213917  0.14668900  1.0
  Ni  Ni205  1  0.66666667  0.49547250  0.14668900  1.0
  Ni  Ni206  1  0.66666667  0.82880583  0.14668900  1.0
  Ni  Ni207  1  0.16666667  0.26213917  0.04668900  1.0
  Ni  Ni208  1  0.16666667  0.59547250  0.04668900  1.0
  Ni  Ni209  1  0.16666667  0.92880583  0.04668900  1.0
  Ni  Ni210  1  0.50000000  0.26213917  0.04668900  1.0
  Ni  Ni211  1  0.50000000  0.59547250  0.04668900  1.0
  Ni  Ni212  1  0.50000000  0.92880583  0.04668900  1.0
  Ni  Ni213  1  0.83333333  0.26213917  0.04668900  1.0
  Ni  Ni214  1  0.83333333  0.59547250  0.04668900  1.0
  Ni  Ni215  1  0.83333333  0.92880583  0.04668900  1.0
  Ni  Ni216  1  0.25339558  0.21010182  0.09872635  1.0
  Ni  Ni217  1  0.25339558  0.54343515  0.09872635  1.0
  Ni  Ni218  1  0.25339558  0.87676848  0.09872635  1.0
  Ni  Ni219  1  0.58672892  0.21010182  0.09872635  1.0
  Ni  Ni220  1  0.58672892  0.54343515  0.09872635  1.0
  Ni  Ni221  1  0.58672892  0.87676848  0.09872635  1.0
  Ni  Ni222  1  0.92006225  0.21010182  0.09872635  1.0
  Ni  Ni223  1  0.92006225  0.54343515  0.09872635  1.0
  Ni  Ni224  1  0.92006225  0.87676848  0.09872635  1.0
  Ni  Ni225  1  0.08672892  0.11010182  0.19872635  1.0
  Ni  Ni226  1  0.08672892  0.44343515  0.19872635  1.0
  Ni  Ni227  1  0.08672892  0.77676848  0.19872635  1.0
  Ni  Ni228  1  0.42006225  0.11010182  0.19872635  1.0
  Ni  Ni229  1  0.42006225  0.44343515  0.19872635  1.0
  Ni  Ni230  1  0.42006225  0.77676848  0.19872635  1.0
  Ni  Ni231  1  0.75339558  0.11010182  0.19872635  1.0
  Ni  Ni232  1  0.75339558  0.44343515  0.19872635  1.0
  Ni  Ni233  1  0.75339558  0.77676848  0.19872635  1.0
  Ni  Ni234  1  0.07993775  0.21010182  0.09872635  1.0
  Ni  Ni235  1  0.07993775  0.54343515  0.09872635  1.0
  Ni  Ni236  1  0.07993775  0.87676848  0.09872635  1.0
  Ni  Ni237  1  0.41327108  0.21010182  0.09872635  1.0
  Ni  Ni238  1  0.41327108  0.54343515  0.09872635  1.0
  Ni  Ni239  1  0.41327108  0.87676848  0.09872635  1.0
  Ni  Ni240  1  0.74660442  0.21010182  0.09872635  1.0
  Ni  Ni241  1  0.74660442  0.54343515  0.09872635  1.0
  Ni  Ni242  1  0.74660442  0.87676848  0.09872635  1.0
  Ni  Ni243  1  0.24660442  0.11010182  0.19872635  1.0
  Ni  Ni244  1  0.24660442  0.44343515  0.19872635  1.0
  Ni  Ni245  1  0.24660442  0.77676848  0.19872635  1.0
  Ni  Ni246  1  0.57993775  0.11010182  0.19872635  1.0
  Ni  Ni247  1  0.57993775  0.44343515  0.19872635  1.0
  Ni  Ni248  1  0.57993775  0.77676848  0.19872635  1.0
  Ni  Ni249  1  0.91327108  0.11010182  0.19872635  1.0
  Ni  Ni250  1  0.91327108  0.44343515  0.19872635  1.0
  Ni  Ni251  1  0.91327108  0.77676848  0.19872635  1.0
  Ni  Ni252  1  0.28856850  0.31849463  0.07426170  1.0
  Ni  Ni253  1  0.28856850  0.65182797  0.07426170  1.0
  Ni  Ni254  1  0.28856850  0.98516130  0.07426170  1.0
  Ni  Ni255  1  0.62190183  0.31849463  0.07426170  1.0
  Ni  Ni256  1  0.62190183  0.65182797  0.07426170  1.0
  Ni  Ni257  1  0.62190183  0.98516130  0.07426170  1.0
  Ni  Ni258  1  0.95523517  0.31849463  0.07426170  1.0
  Ni  Ni259  1  0.95523517  0.65182797  0.07426170  1.0
  Ni  Ni260  1  0.95523517  0.98516130  0.07426170  1.0
  Ni  Ni261  1  0.12190183  0.21849463  0.17426170  1.0
  Ni  Ni262  1  0.12190183  0.55182797  0.17426170  1.0
  Ni  Ni263  1  0.12190183  0.88516130  0.17426170  1.0
  Ni  Ni264  1  0.45523517  0.21849463  0.17426170  1.0
  Ni  Ni265  1  0.45523517  0.55182797  0.17426170  1.0
  Ni  Ni266  1  0.45523517  0.88516130  0.17426170  1.0
  Ni  Ni267  1  0.78856850  0.21849463  0.17426170  1.0
  Ni  Ni268  1  0.78856850  0.55182797  0.17426170  1.0
  Ni  Ni269  1  0.78856850  0.88516130  0.17426170  1.0
  Ni  Ni270  1  0.20863075  0.20114885  0.01814965  1.0
  Ni  Ni271  1  0.20863075  0.53448218  0.01814965  1.0
  Ni  Ni272  1  0.20863075  0.86781552  0.01814965  1.0
  Ni  Ni273  1  0.54196408  0.20114885  0.01814965  1.0
  Ni  Ni274  1  0.54196408  0.53448218  0.01814965  1.0
  Ni  Ni275  1  0.54196408  0.86781552  0.01814965  1.0
  Ni  Ni276  1  0.87529742  0.20114885  0.01814965  1.0
  Ni  Ni277  1  0.87529742  0.53448218  0.01814965  1.0
  Ni  Ni278  1  0.87529742  0.86781552  0.01814965  1.0
  Ni  Ni279  1  0.04196408  0.10114885  0.11814965  1.0
  Ni  Ni280  1  0.04196408  0.43448218  0.11814965  1.0
  Ni  Ni281  1  0.04196408  0.76781552  0.11814965  1.0
  Ni  Ni282  1  0.37529742  0.10114885  0.11814965  1.0
  Ni  Ni283  1  0.37529742  0.43448218  0.11814965  1.0
  Ni  Ni284  1  0.37529742  0.76781552  0.11814965  1.0
  Ni  Ni285  1  0.70863075  0.10114885  0.11814965  1.0
  Ni  Ni286  1  0.70863075  0.43448218  0.11814965  1.0
  Ni  Ni287  1  0.70863075  0.76781552  0.11814965  1.0
  Ni  Ni288  1  0.20863075  0.27053198  0.12222435  1.0
  Ni  Ni289  1  0.20863075  0.60386532  0.12222435  1.0
  Ni  Ni290  1  0.20863075  0.93719865  0.12222435  1.0
  Ni  Ni291  1  0.54196408  0.27053198  0.12222435  1.0
  Ni  Ni292  1  0.54196408  0.60386532  0.12222435  1.0
  Ni  Ni293  1  0.54196408  0.93719865  0.12222435  1.0
  Ni  Ni294  1  0.87529742  0.27053198  0.12222435  1.0
  Ni  Ni295  1  0.87529742  0.60386532  0.12222435  1.0
  Ni  Ni296  1  0.87529742  0.93719865  0.12222435  1.0
  Ni  Ni297  1  0.04196408  0.03719865  0.02222435  1.0
  Ni  Ni298  1  0.04196408  0.37053198  0.02222435  1.0
  Ni  Ni299  1  0.04196408  0.70386532  0.02222435  1.0
  Ni  Ni300  1  0.37529742  0.03719865  0.02222435  1.0
  Ni  Ni301  1  0.37529742  0.37053198  0.02222435  1.0
  Ni  Ni302  1  0.37529742  0.70386532  0.02222435  1.0
  Ni  Ni303  1  0.70863075  0.03719865  0.02222435  1.0
  Ni  Ni304  1  0.70863075  0.37053198  0.02222435  1.0
  Ni  Ni305  1  0.70863075  0.70386532  0.02222435  1.0
  Ni  Ni306  1  0.04476483  0.31849463  0.07426170  1.0
  Ni  Ni307  1  0.04476483  0.65182797  0.07426170  1.0
  Ni  Ni308  1  0.04476483  0.98516130  0.07426170  1.0
  Ni  Ni309  1  0.37809817  0.31849463  0.07426170  1.0
  Ni  Ni310  1  0.37809817  0.65182797  0.07426170  1.0
  Ni  Ni311  1  0.37809817  0.98516130  0.07426170  1.0
  Ni  Ni312  1  0.71143150  0.31849463  0.07426170  1.0
  Ni  Ni313  1  0.71143150  0.65182797  0.07426170  1.0
  Ni  Ni314  1  0.71143150  0.98516130  0.07426170  1.0
  Ni  Ni315  1  0.21143150  0.21849463  0.17426170  1.0
  Ni  Ni316  1  0.21143150  0.55182797  0.17426170  1.0
  Ni  Ni317  1  0.21143150  0.88516130  0.17426170  1.0
  Ni  Ni318  1  0.54476483  0.21849463  0.17426170  1.0
  Ni  Ni319  1  0.54476483  0.55182797  0.17426170  1.0
  Ni  Ni320  1  0.54476483  0.88516130  0.17426170  1.0
  Ni  Ni321  1  0.87809817  0.21849463  0.17426170  1.0
  Ni  Ni322  1  0.87809817  0.55182797  0.17426170  1.0
  Ni  Ni323  1  0.87809817  0.88516130  0.17426170  1.0
  Ni  Ni324  1  0.12470258  0.27053198  0.12222435  1.0
  Ni  Ni325  1  0.12470258  0.60386532  0.12222435  1.0
  Ni  Ni326  1  0.12470258  0.93719865  0.12222435  1.0
  Ni  Ni327  1  0.45803592  0.27053198  0.12222435  1.0
  Ni  Ni328  1  0.45803592  0.60386532  0.12222435  1.0
  Ni  Ni329  1  0.45803592  0.93719865  0.12222435  1.0
  Ni  Ni330  1  0.79136925  0.27053198  0.12222435  1.0
  Ni  Ni331  1  0.79136925  0.60386532  0.12222435  1.0
  Ni  Ni332  1  0.79136925  0.93719865  0.12222435  1.0
  Ni  Ni333  1  0.29136925  0.03719865  0.02222435  1.0
  Ni  Ni334  1  0.29136925  0.37053198  0.02222435  1.0
  Ni  Ni335  1  0.29136925  0.70386532  0.02222435  1.0
  Ni  Ni336  1  0.62470258  0.03719865  0.02222435  1.0
  Ni  Ni337  1  0.62470258  0.37053198  0.02222435  1.0
  Ni  Ni338  1  0.62470258  0.70386532  0.02222435  1.0
  Ni  Ni339  1  0.95803592  0.03719865  0.02222435  1.0
  Ni  Ni340  1  0.95803592  0.37053198  0.02222435  1.0
  Ni  Ni341  1  0.95803592  0.70386532  0.02222435  1.0
  Ni  Ni342  1  0.12470258  0.20114885  0.01814965  1.0
  Ni  Ni343  1  0.12470258  0.53448218  0.01814965  1.0
  Ni  Ni344  1  0.12470258  0.86781552  0.01814965  1.0
  Ni  Ni345  1  0.45803592  0.20114885  0.01814965  1.0
  Ni  Ni346  1  0.45803592  0.53448218  0.01814965  1.0
  Ni  Ni347  1  0.45803592  0.86781552  0.01814965  1.0
  Ni  Ni348  1  0.79136925  0.20114885  0.01814965  1.0
  Ni  Ni349  1  0.79136925  0.53448218  0.01814965  1.0
  Ni  Ni350  1  0.79136925  0.86781552  0.01814965  1.0
  Ni  Ni351  1  0.29136925  0.10114885  0.11814965  1.0
  Ni  Ni352  1  0.29136925  0.43448218  0.11814965  1.0
  Ni  Ni353  1  0.29136925  0.76781552  0.11814965  1.0
  Ni  Ni354  1  0.62470258  0.10114885  0.11814965  1.0
  Ni  Ni355  1  0.62470258  0.43448218  0.11814965  1.0
  Ni  Ni356  1  0.62470258  0.76781552  0.11814965  1.0
  Ni  Ni357  1  0.95803592  0.10114885  0.11814965  1.0
  Ni  Ni358  1  0.95803592  0.43448218  0.11814965  1.0
  Ni  Ni359  1  0.95803592  0.76781552  0.11814965  1.0
  Ni  Ni360  1  0.00000000  0.29391727  0.09695590  1.0
  Ni  Ni361  1  0.00000000  0.62725060  0.09695590  1.0
  Ni  Ni362  1  0.00000000  0.96058393  0.09695590  1.0
  Ni  Ni363  1  0.33333333  0.29391727  0.09695590  1.0
  Ni  Ni364  1  0.33333333  0.62725060  0.09695590  1.0
  Ni  Ni365  1  0.33333333  0.96058393  0.09695590  1.0
  Ni  Ni366  1  0.66666667  0.29391727  0.09695590  1.0
  Ni  Ni367  1  0.66666667  0.62725060  0.09695590  1.0
  Ni  Ni368  1  0.66666667  0.96058393  0.09695590  1.0
  Ni  Ni369  1  0.16666667  0.19391727  0.19695590  1.0
  Ni  Ni370  1  0.16666667  0.52725060  0.19695590  1.0
  Ni  Ni371  1  0.16666667  0.86058393  0.19695590  1.0
  Ni  Ni372  1  0.50000000  0.19391727  0.19695590  1.0
  Ni  Ni373  1  0.50000000  0.52725060  0.19695590  1.0
  Ni  Ni374  1  0.50000000  0.86058393  0.19695590  1.0
  Ni  Ni375  1  0.83333333  0.19391727  0.19695590  1.0
  Ni  Ni376  1  0.83333333  0.52725060  0.19695590  1.0
  Ni  Ni377  1  0.83333333  0.86058393  0.19695590  1.0
  Ni  Ni378  1  0.24992500  0.17726560  0.04709090  1.0
  Ni  Ni379  1  0.24992500  0.51059893  0.04709090  1.0
  Ni  Ni380  1  0.24992500  0.84393227  0.04709090  1.0
  Ni  Ni381  1  0.58325833  0.17726560  0.04709090  1.0
  Ni  Ni382  1  0.58325833  0.51059893  0.04709090  1.0
  Ni  Ni383  1  0.58325833  0.84393227  0.04709090  1.0
  Ni  Ni384  1  0.91659167  0.17726560  0.04709090  1.0
  Ni  Ni385  1  0.91659167  0.51059893  0.04709090  1.0
  Ni  Ni386  1  0.91659167  0.84393227  0.04709090  1.0
  Ni  Ni387  1  0.08325833  0.07726560  0.14709090  1.0
  Ni  Ni388  1  0.08325833  0.41059893  0.14709090  1.0
  Ni  Ni389  1  0.08325833  0.74393227  0.14709090  1.0
  Ni  Ni390  1  0.41659167  0.07726560  0.14709090  1.0
  Ni  Ni391  1  0.41659167  0.41059893  0.14709090  1.0
  Ni  Ni392  1  0.41659167  0.74393227  0.14709090  1.0
  Ni  Ni393  1  0.74992500  0.07726560  0.14709090  1.0
  Ni  Ni394  1  0.74992500  0.41059893  0.14709090  1.0
  Ni  Ni395  1  0.74992500  0.74393227  0.14709090  1.0
  Ni  Ni396  1  0.08340833  0.17726560  0.04709090  1.0
  Ni  Ni397  1  0.08340833  0.51059893  0.04709090  1.0
  Ni  Ni398  1  0.08340833  0.84393227  0.04709090  1.0
  Ni  Ni399  1  0.41674167  0.17726560  0.04709090  1.0
  Ni  Ni400  1  0.41674167  0.51059893  0.04709090  1.0
  Ni  Ni401  1  0.41674167  0.84393227  0.04709090  1.0
  Ni  Ni402  1  0.75007500  0.17726560  0.04709090  1.0
  Ni  Ni403  1  0.75007500  0.51059893  0.04709090  1.0
  Ni  Ni404  1  0.75007500  0.84393227  0.04709090  1.0
  Ni  Ni405  1  0.25007500  0.07726560  0.14709090  1.0
  Ni  Ni406  1  0.25007500  0.41059893  0.14709090  1.0
  Ni  Ni407  1  0.25007500  0.74393227  0.14709090  1.0
  Ni  Ni408  1  0.58340833  0.07726560  0.14709090  1.0
  Ni  Ni409  1  0.58340833  0.41059893  0.14709090  1.0
  Ni  Ni410  1  0.58340833  0.74393227  0.14709090  1.0
  Ni  Ni411  1  0.91674167  0.07726560  0.14709090  1.0
  Ni  Ni412  1  0.91674167  0.41059893  0.14709090  1.0
  Ni  Ni413  1  0.91674167  0.74393227  0.14709090  1.0
  Ni  Ni414  1  0.00000000  0.32718927  0.14686390  1.0
  Ni  Ni415  1  0.00000000  0.66052260  0.14686390  1.0
  Ni  Ni416  1  0.00000000  0.99385593  0.14686390  1.0
  Ni  Ni417  1  0.33333333  0.32718927  0.14686390  1.0
  Ni  Ni418  1  0.33333333  0.66052260  0.14686390  1.0
  Ni  Ni419  1  0.33333333  0.99385593  0.14686390  1.0
  Ni  Ni420  1  0.66666667  0.32718927  0.14686390  1.0
  Ni  Ni421  1  0.66666667  0.66052260  0.14686390  1.0
  Ni  Ni422  1  0.66666667  0.99385593  0.14686390  1.0
  Ni  Ni423  1  0.16666667  0.09385593  0.04686390  1.0
  Ni  Ni424  1  0.16666667  0.42718927  0.04686390  1.0
  Ni  Ni425  1  0.16666667  0.76052260  0.04686390  1.0
  Ni  Ni426  1  0.50000000  0.09385593  0.04686390  1.0
  Ni  Ni427  1  0.50000000  0.42718927  0.04686390  1.0
  Ni  Ni428  1  0.50000000  0.76052260  0.04686390  1.0
  Ni  Ni429  1  0.83333333  0.09385593  0.04686390  1.0
  Ni  Ni430  1  0.83333333  0.42718927  0.04686390  1.0
  Ni  Ni431  1  0.83333333  0.76052260  0.04686390  1.0
  Ni  Ni432  1  0.08340833  0.27714427  0.19690890  1.0
  Ni  Ni433  1  0.08340833  0.61047760  0.19690890  1.0
  Ni  Ni434  1  0.08340833  0.94381093  0.19690890  1.0
  Ni  Ni435  1  0.41674167  0.27714427  0.19690890  1.0
  Ni  Ni436  1  0.41674167  0.61047760  0.19690890  1.0
  Ni  Ni437  1  0.41674167  0.94381093  0.19690890  1.0
  Ni  Ni438  1  0.75007500  0.27714427  0.19690890  1.0
  Ni  Ni439  1  0.75007500  0.61047760  0.19690890  1.0
  Ni  Ni440  1  0.75007500  0.94381093  0.19690890  1.0
  Ni  Ni441  1  0.25007500  0.04381093  0.09690890  1.0
  Ni  Ni442  1  0.25007500  0.37714427  0.09690890  1.0
  Ni  Ni443  1  0.25007500  0.71047760  0.09690890  1.0
  Ni  Ni444  1  0.58340833  0.04381093  0.09690890  1.0
  Ni  Ni445  1  0.58340833  0.37714427  0.09690890  1.0
  Ni  Ni446  1  0.58340833  0.71047760  0.09690890  1.0
  Ni  Ni447  1  0.91674167  0.04381093  0.09690890  1.0
  Ni  Ni448  1  0.91674167  0.37714427  0.09690890  1.0
  Ni  Ni449  1  0.91674167  0.71047760  0.09690890  1.0
  Ni  Ni450  1  0.24992500  0.27714427  0.19690890  1.0
  Ni  Ni451  1  0.24992500  0.61047760  0.19690890  1.0
  Ni  Ni452  1  0.24992500  0.94381093  0.19690890  1.0
  Ni  Ni453  1  0.58325833  0.27714427  0.19690890  1.0
  Ni  Ni454  1  0.58325833  0.61047760  0.19690890  1.0
  Ni  Ni455  1  0.58325833  0.94381093  0.19690890  1.0
  Ni  Ni456  1  0.91659167  0.27714427  0.19690890  1.0
  Ni  Ni457  1  0.91659167  0.61047760  0.19690890  1.0
  Ni  Ni458  1  0.91659167  0.94381093  0.19690890  1.0
  Ni  Ni459  1  0.08325833  0.04381093  0.09690890  1.0
  Ni  Ni460  1  0.08325833  0.37714427  0.09690890  1.0
  Ni  Ni461  1  0.08325833  0.71047760  0.09690890  1.0
  Ni  Ni462  1  0.41659167  0.04381093  0.09690890  1.0
  Ni  Ni463  1  0.41659167  0.37714427  0.09690890  1.0
  Ni  Ni464  1  0.41659167  0.71047760  0.09690890  1.0
  Ni  Ni465  1  0.74992500  0.04381093  0.09690890  1.0
  Ni  Ni466  1  0.74992500  0.37714427  0.09690890  1.0
  Ni  Ni467  1  0.74992500  0.71047760  0.09690890  1.0
  Ni  Ni468  1  0.29174333  0.15217460  0.07218190  1.0
  Ni  Ni469  1  0.29174333  0.48550793  0.07218190  1.0
  Ni  Ni470  1  0.29174333  0.81884127  0.07218190  1.0
  Ni  Ni471  1  0.62507667  0.15217460  0.07218190  1.0
  Ni  Ni472  1  0.62507667  0.48550793  0.07218190  1.0
  Ni  Ni473  1  0.62507667  0.81884127  0.07218190  1.0
  Ni  Ni474  1  0.95841000  0.15217460  0.07218190  1.0
  Ni  Ni475  1  0.95841000  0.48550793  0.07218190  1.0
  Ni  Ni476  1  0.95841000  0.81884127  0.07218190  1.0
  Ni  Ni477  1  0.12507667  0.05217460  0.17218190  1.0
  Ni  Ni478  1  0.12507667  0.38550793  0.17218190  1.0
  Ni  Ni479  1  0.12507667  0.71884127  0.17218190  1.0
  Ni  Ni480  1  0.45841000  0.05217460  0.17218190  1.0
  Ni  Ni481  1  0.45841000  0.38550793  0.17218190  1.0
  Ni  Ni482  1  0.45841000  0.71884127  0.17218190  1.0
  Ni  Ni483  1  0.79174333  0.05217460  0.17218190  1.0
  Ni  Ni484  1  0.79174333  0.38550793  0.17218190  1.0
  Ni  Ni485  1  0.79174333  0.71884127  0.17218190  1.0
  Ni  Ni486  1  0.04181833  0.26882627  0.12204690  1.0
  Ni  Ni487  1  0.04181833  0.60215960  0.12204690  1.0
  Ni  Ni488  1  0.04181833  0.93549293  0.12204690  1.0
  Ni  Ni489  1  0.37515167  0.26882627  0.12204690  1.0
  Ni  Ni490  1  0.37515167  0.60215960  0.12204690  1.0
  Ni  Ni491  1  0.37515167  0.93549293  0.12204690  1.0
  Ni  Ni492  1  0.70848500  0.26882627  0.12204690  1.0
  Ni  Ni493  1  0.70848500  0.60215960  0.12204690  1.0
  Ni  Ni494  1  0.70848500  0.93549293  0.12204690  1.0
  Ni  Ni495  1  0.20848500  0.03549293  0.02204690  1.0
  Ni  Ni496  1  0.20848500  0.36882627  0.02204690  1.0
  Ni  Ni497  1  0.20848500  0.70215960  0.02204690  1.0
  Ni  Ni498  1  0.54181833  0.03549293  0.02204690  1.0
  Ni  Ni499  1  0.54181833  0.36882627  0.02204690  1.0
  Ni  Ni500  1  0.54181833  0.70215960  0.02204690  1.0
  Ni  Ni501  1  0.87515167  0.03549293  0.02204690  1.0
  Ni  Ni502  1  0.87515167  0.36882627  0.02204690  1.0
  Ni  Ni503  1  0.87515167  0.70215960  0.02204690  1.0
  Ni  Ni504  1  0.04181833  0.20221960  0.02213690  1.0
  Ni  Ni505  1  0.04181833  0.53555293  0.02213690  1.0
  Ni  Ni506  1  0.04181833  0.86888627  0.02213690  1.0
  Ni  Ni507  1  0.37515167  0.20221960  0.02213690  1.0
  Ni  Ni508  1  0.37515167  0.53555293  0.02213690  1.0
  Ni  Ni509  1  0.37515167  0.86888627  0.02213690  1.0
  Ni  Ni510  1  0.70848500  0.20221960  0.02213690  1.0
  Ni  Ni511  1  0.70848500  0.53555293  0.02213690  1.0
  Ni  Ni512  1  0.70848500  0.86888627  0.02213690  1.0
  Ni  Ni513  1  0.20848500  0.10221960  0.12213690  1.0
  Ni  Ni514  1  0.20848500  0.43555293  0.12213690  1.0
  Ni  Ni515  1  0.20848500  0.76888627  0.12213690  1.0
  Ni  Ni516  1  0.54181833  0.10221960  0.12213690  1.0
  Ni  Ni517  1  0.54181833  0.43555293  0.12213690  1.0
  Ni  Ni518  1  0.54181833  0.76888627  0.12213690  1.0
  Ni  Ni519  1  0.87515167  0.10221960  0.12213690  1.0
  Ni  Ni520  1  0.87515167  0.43555293  0.12213690  1.0
  Ni  Ni521  1  0.87515167  0.76888627  0.12213690  1.0
  Ni  Ni522  1  0.04159000  0.15217460  0.07218190  1.0
  Ni  Ni523  1  0.04159000  0.48550793  0.07218190  1.0
  Ni  Ni524  1  0.04159000  0.81884127  0.07218190  1.0
  Ni  Ni525  1  0.37492333  0.15217460  0.07218190  1.0
  Ni  Ni526  1  0.37492333  0.48550793  0.07218190  1.0
  Ni  Ni527  1  0.37492333  0.81884127  0.07218190  1.0
  Ni  Ni528  1  0.70825667  0.15217460  0.07218190  1.0
  Ni  Ni529  1  0.70825667  0.48550793  0.07218190  1.0
  Ni  Ni530  1  0.70825667  0.81884127  0.07218190  1.0
  Ni  Ni531  1  0.20825667  0.05217460  0.17218190  1.0
  Ni  Ni532  1  0.20825667  0.38550793  0.17218190  1.0
  Ni  Ni533  1  0.20825667  0.71884127  0.17218190  1.0
  Ni  Ni534  1  0.54159000  0.05217460  0.17218190  1.0
  Ni  Ni535  1  0.54159000  0.38550793  0.17218190  1.0
  Ni  Ni536  1  0.54159000  0.71884127  0.17218190  1.0
  Ni  Ni537  1  0.87492333  0.05217460  0.17218190  1.0
  Ni  Ni538  1  0.87492333  0.38550793  0.17218190  1.0
  Ni  Ni539  1  0.87492333  0.71884127  0.17218190  1.0
  Ni  Ni540  1  0.29151500  0.20221960  0.02213690  1.0
  Ni  Ni541  1  0.29151500  0.53555293  0.02213690  1.0
  Ni  Ni542  1  0.29151500  0.86888627  0.02213690  1.0
  Ni  Ni543  1  0.62484833  0.20221960  0.02213690  1.0
  Ni  Ni544  1  0.62484833  0.53555293  0.02213690  1.0
  Ni  Ni545  1  0.62484833  0.86888627  0.02213690  1.0
  Ni  Ni546  1  0.95818167  0.20221960  0.02213690  1.0
  Ni  Ni547  1  0.95818167  0.53555293  0.02213690  1.0
  Ni  Ni548  1  0.95818167  0.86888627  0.02213690  1.0
  Ni  Ni549  1  0.12484833  0.10221960  0.12213690  1.0
  Ni  Ni550  1  0.12484833  0.43555293  0.12213690  1.0
  Ni  Ni551  1  0.12484833  0.76888627  0.12213690  1.0
  Ni  Ni552  1  0.45818167  0.10221960  0.12213690  1.0
  Ni  Ni553  1  0.45818167  0.43555293  0.12213690  1.0
  Ni  Ni554  1  0.45818167  0.76888627  0.12213690  1.0
  Ni  Ni555  1  0.79151500  0.10221960  0.12213690  1.0
  Ni  Ni556  1  0.79151500  0.43555293  0.12213690  1.0
  Ni  Ni557  1  0.79151500  0.76888627  0.12213690  1.0
  Ni  Ni558  1  0.29151500  0.26882627  0.12204690  1.0
  Ni  Ni559  1  0.29151500  0.60215960  0.12204690  1.0
  Ni  Ni560  1  0.29151500  0.93549293  0.12204690  1.0
  Ni  Ni561  1  0.62484833  0.26882627  0.12204690  1.0
  Ni  Ni562  1  0.62484833  0.60215960  0.12204690  1.0
  Ni  Ni563  1  0.62484833  0.93549293  0.12204690  1.0
  Ni  Ni564  1  0.95818167  0.26882627  0.12204690  1.0
  Ni  Ni565  1  0.95818167  0.60215960  0.12204690  1.0
  Ni  Ni566  1  0.95818167  0.93549293  0.12204690  1.0
  Ni  Ni567  1  0.12484833  0.03549293  0.02204690  1.0
  Ni  Ni568  1  0.12484833  0.36882627  0.02204690  1.0
  Ni  Ni569  1  0.12484833  0.70215960  0.02204690  1.0
  Ni  Ni570  1  0.45818167  0.03549293  0.02204690  1.0
  Ni  Ni571  1  0.45818167  0.36882627  0.02204690  1.0
  Ni  Ni572  1  0.45818167  0.70215960  0.02204690  1.0
  Ni  Ni573  1  0.79151500  0.03549293  0.02204690  1.0
  Ni  Ni574  1  0.79151500  0.36882627  0.02204690  1.0
  Ni  Ni575  1  0.79151500  0.70215960  0.02204690  1.0
  Ni  Ni576  1  0.33333333  0.16088960  0.39704590  1.0
  Ni  Ni577  1  0.33333333  0.49422293  0.39704590  1.0
  Ni  Ni578  1  0.33333333  0.82755627  0.39704590  1.0
  Ni  Ni579  1  0.66666667  0.16088960  0.39704590  1.0
  Ni  Ni580  1  0.66666667  0.49422293  0.39704590  1.0
  Ni  Ni581  1  0.66666667  0.82755627  0.39704590  1.0
  Ni  Ni582  1  1.00000000  0.16088960  0.39704590  1.0
  Ni  Ni583  1  1.00000000  0.49422293  0.39704590  1.0
  Ni  Ni584  1  1.00000000  0.82755627  0.39704590  1.0
  Ni  Ni585  1  0.16666667  0.26088960  0.29704590  1.0
  Ni  Ni586  1  0.16666667  0.59422293  0.29704590  1.0
  Ni  Ni587  1  0.16666667  0.92755627  0.29704590  1.0
  Ni  Ni588  1  0.50000000  0.26088960  0.29704590  1.0
  Ni  Ni589  1  0.50000000  0.59422293  0.29704590  1.0
  Ni  Ni590  1  0.50000000  0.92755627  0.29704590  1.0
  Ni  Ni591  1  0.83333333  0.26088960  0.29704590  1.0
  Ni  Ni592  1  0.83333333  0.59422293  0.29704590  1.0
  Ni  Ni593  1  0.83333333  0.92755627  0.29704590  1.0
  Ni  Ni594  1  0.33333333  0.06031520  0.24618430  1.0
  Ni  Ni595  1  0.33333333  0.39364853  0.24618430  1.0
  Ni  Ni596  1  0.33333333  0.72698187  0.24618430  1.0
  Ni  Ni597  1  0.66666667  0.06031520  0.24618430  1.0
  Ni  Ni598  1  0.66666667  0.39364853  0.24618430  1.0
  Ni  Ni599  1  0.66666667  0.72698187  0.24618430  1.0
  Ni  Ni600  1  1.00000000  0.06031520  0.24618430  1.0
  Ni  Ni601  1  1.00000000  0.39364853  0.24618430  1.0
  Ni  Ni602  1  1.00000000  0.72698187  0.24618430  1.0
  Ni  Ni603  1  0.16666667  0.29364853  0.34618430  1.0
  Ni  Ni604  1  0.16666667  0.62698187  0.34618430  1.0
  Ni  Ni605  1  0.16666667  0.96031520  0.34618430  1.0
  Ni  Ni606  1  0.50000000  0.29364853  0.34618430  1.0
  Ni  Ni607  1  0.50000000  0.62698187  0.34618430  1.0
  Ni  Ni608  1  0.50000000  0.96031520  0.34618430  1.0
  Ni  Ni609  1  0.83333333  0.29364853  0.34618430  1.0
  Ni  Ni610  1  0.83333333  0.62698187  0.34618430  1.0
  Ni  Ni611  1  0.83333333  0.96031520  0.34618430  1.0
  Ni  Ni612  1  0.29238467  0.18545880  0.37247670  1.0
  Ni  Ni613  1  0.29238467  0.51879213  0.37247670  1.0
  Ni  Ni614  1  0.29238467  0.85212547  0.37247670  1.0
  Ni  Ni615  1  0.62571800  0.18545880  0.37247670  1.0
  Ni  Ni616  1  0.62571800  0.51879213  0.37247670  1.0
  Ni  Ni617  1  0.62571800  0.85212547  0.37247670  1.0
  Ni  Ni618  1  0.95905133  0.18545880  0.37247670  1.0
  Ni  Ni619  1  0.95905133  0.51879213  0.37247670  1.0
  Ni  Ni620  1  0.95905133  0.85212547  0.37247670  1.0
  Ni  Ni621  1  0.12571800  0.28545880  0.27247670  1.0
  Ni  Ni622  1  0.12571800  0.61879213  0.27247670  1.0
  Ni  Ni623  1  0.12571800  0.95212547  0.27247670  1.0
  Ni  Ni624  1  0.45905133  0.28545880  0.27247670  1.0
  Ni  Ni625  1  0.45905133  0.61879213  0.27247670  1.0
  Ni  Ni626  1  0.45905133  0.95212547  0.27247670  1.0
  Ni  Ni627  1  0.79238467  0.28545880  0.27247670  1.0
  Ni  Ni628  1  0.79238467  0.61879213  0.27247670  1.0
  Ni  Ni629  1  0.79238467  0.95212547  0.27247670  1.0
  Ni  Ni630  1  0.04094867  0.18545880  0.37247670  1.0
  Ni  Ni631  1  0.04094867  0.51879213  0.37247670  1.0
  Ni  Ni632  1  0.04094867  0.85212547  0.37247670  1.0
  Ni  Ni633  1  0.37428200  0.18545880  0.37247670  1.0
  Ni  Ni634  1  0.37428200  0.51879213  0.37247670  1.0
  Ni  Ni635  1  0.37428200  0.85212547  0.37247670  1.0
  Ni  Ni636  1  0.70761533  0.18545880  0.37247670  1.0
  Ni  Ni637  1  0.70761533  0.51879213  0.37247670  1.0
  Ni  Ni638  1  0.70761533  0.85212547  0.37247670  1.0
  Ni  Ni639  1  0.20761533  0.28545880  0.27247670  1.0
  Ni  Ni640  1  0.20761533  0.61879213  0.27247670  1.0
  Ni  Ni641  1  0.20761533  0.95212547  0.27247670  1.0
  Ni  Ni642  1  0.54094867  0.28545880  0.27247670  1.0
  Ni  Ni643  1  0.54094867  0.61879213  0.27247670  1.0
  Ni  Ni644  1  0.54094867  0.95212547  0.27247670  1.0
  Ni  Ni645  1  0.87428200  0.28545880  0.27247670  1.0
  Ni  Ni646  1  0.87428200  0.61879213  0.27247670  1.0
  Ni  Ni647  1  0.87428200  0.95212547  0.27247670  1.0
  Ni  Ni648  1  0.33333333  0.32756193  0.39704590  1.0
  Ni  Ni649  1  0.33333333  0.66089527  0.39704590  1.0
  Ni  Ni650  1  0.33333333  0.99422860  0.39704590  1.0
  Ni  Ni651  1  0.66666667  0.32756193  0.39704590  1.0
  Ni  Ni652  1  0.66666667  0.66089527  0.39704590  1.0
  Ni  Ni653  1  0.66666667  0.99422860  0.39704590  1.0
  Ni  Ni654  1  1.00000000  0.32756193  0.39704590  1.0
  Ni  Ni655  1  1.00000000  0.66089527  0.39704590  1.0
  Ni  Ni656  1  1.00000000  0.99422860  0.39704590  1.0
  Ni  Ni657  1  0.16666667  0.09422860  0.29704590  1.0
  Ni  Ni658  1  0.16666667  0.42756193  0.29704590  1.0
  Ni  Ni659  1  0.16666667  0.76089527  0.29704590  1.0
  Ni  Ni660  1  0.50000000  0.09422860  0.29704590  1.0
  Ni  Ni661  1  0.50000000  0.42756193  0.29704590  1.0
  Ni  Ni662  1  0.50000000  0.76089527  0.29704590  1.0
  Ni  Ni663  1  0.83333333  0.09422860  0.29704590  1.0
  Ni  Ni664  1  0.83333333  0.42756193  0.29704590  1.0
  Ni  Ni665  1  0.83333333  0.76089527  0.29704590  1.0
  Ni  Ni666  1  0.33333333  0.22697847  0.24617070  1.0
  Ni  Ni667  1  0.33333333  0.56031180  0.24617070  1.0
  Ni  Ni668  1  0.33333333  0.89364513  0.24617070  1.0
  Ni  Ni669  1  0.66666667  0.22697847  0.24617070  1.0
  Ni  Ni670  1  0.66666667  0.56031180  0.24617070  1.0
  Ni  Ni671  1  0.66666667  0.89364513  0.24617070  1.0
  Ni  Ni672  1  1.00000000  0.22697847  0.24617070  1.0
  Ni  Ni673  1  1.00000000  0.56031180  0.24617070  1.0
  Ni  Ni674  1  1.00000000  0.89364513  0.24617070  1.0
  Ni  Ni675  1  0.16666667  0.12697847  0.34617070  1.0
  Ni  Ni676  1  0.16666667  0.46031180  0.34617070  1.0
  Ni  Ni677  1  0.16666667  0.79364513  0.34617070  1.0
  Ni  Ni678  1  0.50000000  0.12697847  0.34617070  1.0
  Ni  Ni679  1  0.50000000  0.46031180  0.34617070  1.0
  Ni  Ni680  1  0.50000000  0.79364513  0.34617070  1.0
  Ni  Ni681  1  0.83333333  0.12697847  0.34617070  1.0
  Ni  Ni682  1  0.83333333  0.46031180  0.34617070  1.0
  Ni  Ni683  1  0.83333333  0.79364513  0.34617070  1.0
  Ni  Ni684  1  0.29239600  0.01879100  0.37248350  1.0
  Ni  Ni685  1  0.29239600  0.35212433  0.37248350  1.0
  Ni  Ni686  1  0.29239600  0.68545767  0.37248350  1.0
  Ni  Ni687  1  0.62572933  0.01879100  0.37248350  1.0
  Ni  Ni688  1  0.62572933  0.35212433  0.37248350  1.0
  Ni  Ni689  1  0.62572933  0.68545767  0.37248350  1.0
  Ni  Ni690  1  0.95906267  0.01879100  0.37248350  1.0
  Ni  Ni691  1  0.95906267  0.35212433  0.37248350  1.0
  Ni  Ni692  1  0.95906267  0.68545767  0.37248350  1.0
  Ni  Ni693  1  0.12572933  0.11879100  0.27248350  1.0
  Ni  Ni694  1  0.12572933  0.45212433  0.27248350  1.0
  Ni  Ni695  1  0.12572933  0.78545767  0.27248350  1.0
  Ni  Ni696  1  0.45906267  0.11879100  0.27248350  1.0
  Ni  Ni697  1  0.45906267  0.45212433  0.27248350  1.0
  Ni  Ni698  1  0.45906267  0.78545767  0.27248350  1.0
  Ni  Ni699  1  0.79239600  0.11879100  0.27248350  1.0
  Ni  Ni700  1  0.79239600  0.45212433  0.27248350  1.0
  Ni  Ni701  1  0.79239600  0.78545767  0.27248350  1.0
  Ni  Ni702  1  0.04093733  0.01879100  0.37248350  1.0
  Ni  Ni703  1  0.04093733  0.35212433  0.37248350  1.0
  Ni  Ni704  1  0.04093733  0.68545767  0.37248350  1.0
  Ni  Ni705  1  0.37427067  0.01879100  0.37248350  1.0
  Ni  Ni706  1  0.37427067  0.35212433  0.37248350  1.0
  Ni  Ni707  1  0.37427067  0.68545767  0.37248350  1.0
  Ni  Ni708  1  0.70760400  0.01879100  0.37248350  1.0
  Ni  Ni709  1  0.70760400  0.35212433  0.37248350  1.0
  Ni  Ni710  1  0.70760400  0.68545767  0.37248350  1.0
  Ni  Ni711  1  0.20760400  0.11879100  0.27248350  1.0
  Ni  Ni712  1  0.20760400  0.45212433  0.27248350  1.0
  Ni  Ni713  1  0.20760400  0.78545767  0.27248350  1.0
  Ni  Ni714  1  0.54093733  0.11879100  0.27248350  1.0
  Ni  Ni715  1  0.54093733  0.45212433  0.27248350  1.0
  Ni  Ni716  1  0.54093733  0.78545767  0.27248350  1.0
  Ni  Ni717  1  0.87427067  0.11879100  0.27248350  1.0
  Ni  Ni718  1  0.87427067  0.45212433  0.27248350  1.0
  Ni  Ni719  1  0.87427067  0.78545767  0.27248350  1.0
  Ni  Ni720  1  0.00000000  0.25966063  0.29297120  1.0
  Ni  Ni721  1  0.00000000  0.59299397  0.29297120  1.0
  Ni  Ni722  1  0.00000000  0.92632730  0.29297120  1.0
  Ni  Ni723  1  0.33333333  0.25966063  0.29297120  1.0
  Ni  Ni724  1  0.33333333  0.59299397  0.29297120  1.0
  Ni  Ni725  1  0.33333333  0.92632730  0.29297120  1.0
  Ni  Ni726  1  0.66666667  0.25966063  0.29297120  1.0
  Ni  Ni727  1  0.66666667  0.59299397  0.29297120  1.0
  Ni  Ni728  1  0.66666667  0.92632730  0.29297120  1.0
  Ni  Ni729  1  0.16666667  0.15966063  0.39297120  1.0
  Ni  Ni730  1  0.16666667  0.49299397  0.39297120  1.0
  Ni  Ni731  1  0.16666667  0.82632730  0.39297120  1.0
  Ni  Ni732  1  0.50000000  0.15966063  0.39297120  1.0
  Ni  Ni733  1  0.50000000  0.49299397  0.39297120  1.0
  Ni  Ni734  1  0.50000000  0.82632730  0.39297120  1.0
  Ni  Ni735  1  0.83333333  0.15966063  0.39297120  1.0
  Ni  Ni736  1  0.83333333  0.49299397  0.39297120  1.0
  Ni  Ni737  1  0.83333333  0.82632730  0.39297120  1.0
  Ni  Ni738  1  0.07993775  0.04367308  0.34908325  1.0
  Ni  Ni739  1  0.07993775  0.37700642  0.34908325  1.0
  Ni  Ni740  1  0.07993775  0.71033975  0.34908325  1.0
  Ni  Ni741  1  0.41327108  0.04367308  0.34908325  1.0
  Ni  Ni742  1  0.41327108  0.37700642  0.34908325  1.0
  Ni  Ni743  1  0.41327108  0.71033975  0.34908325  1.0
  Ni  Ni744  1  0.74660442  0.04367308  0.34908325  1.0
  Ni  Ni745  1  0.74660442  0.37700642  0.34908325  1.0
  Ni  Ni746  1  0.74660442  0.71033975  0.34908325  1.0
  Ni  Ni747  1  0.24660442  0.14367308  0.24908325  1.0
  Ni  Ni748  1  0.24660442  0.47700642  0.24908325  1.0
  Ni  Ni749  1  0.24660442  0.81033975  0.24908325  1.0
  Ni  Ni750  1  0.57993775  0.14367308  0.24908325  1.0
  Ni  Ni751  1  0.57993775  0.47700642  0.24908325  1.0
  Ni  Ni752  1  0.57993775  0.81033975  0.24908325  1.0
  Ni  Ni753  1  0.91327108  0.14367308  0.24908325  1.0
  Ni  Ni754  1  0.91327108  0.47700642  0.24908325  1.0
  Ni  Ni755  1  0.91327108  0.81033975  0.24908325  1.0
  Ni  Ni756  1  0.25339558  0.04367308  0.34908325  1.0
  Ni  Ni757  1  0.25339558  0.37700642  0.34908325  1.0
  Ni  Ni758  1  0.25339558  0.71033975  0.34908325  1.0
  Ni  Ni759  1  0.58672892  0.04367308  0.34908325  1.0
  Ni  Ni760  1  0.58672892  0.37700642  0.34908325  1.0
  Ni  Ni761  1  0.58672892  0.71033975  0.34908325  1.0
  Ni  Ni762  1  0.92006225  0.04367308  0.34908325  1.0
  Ni  Ni763  1  0.92006225  0.37700642  0.34908325  1.0
  Ni  Ni764  1  0.92006225  0.71033975  0.34908325  1.0
  Ni  Ni765  1  0.08672892  0.14367308  0.24908325  1.0
  Ni  Ni766  1  0.08672892  0.47700642  0.24908325  1.0
  Ni  Ni767  1  0.08672892  0.81033975  0.24908325  1.0
  Ni  Ni768  1  0.42006225  0.14367308  0.24908325  1.0
  Ni  Ni769  1  0.42006225  0.47700642  0.24908325  1.0
  Ni  Ni770  1  0.42006225  0.81033975  0.24908325  1.0
  Ni  Ni771  1  0.75339558  0.14367308  0.24908325  1.0
  Ni  Ni772  1  0.75339558  0.47700642  0.24908325  1.0
  Ni  Ni773  1  0.75339558  0.81033975  0.24908325  1.0
  Ni  Ni774  1  0.33333333  0.29547250  0.34668900  1.0
  Ni  Ni775  1  0.33333333  0.62880583  0.34668900  1.0
  Ni  Ni776  1  0.33333333  0.96213917  0.34668900  1.0
  Ni  Ni777  1  0.66666667  0.29547250  0.34668900  1.0
  Ni  Ni778  1  0.66666667  0.62880583  0.34668900  1.0
  Ni  Ni779  1  0.66666667  0.96213917  0.34668900  1.0
  Ni  Ni780  1  1.00000000  0.29547250  0.34668900  1.0
  Ni  Ni781  1  1.00000000  0.62880583  0.34668900  1.0
  Ni  Ni782  1  1.00000000  0.96213917  0.34668900  1.0
  Ni  Ni783  1  0.16666667  0.06213917  0.24668900  1.0
  Ni  Ni784  1  0.16666667  0.39547250  0.24668900  1.0
  Ni  Ni785  1  0.16666667  0.72880583  0.24668900  1.0
  Ni  Ni786  1  0.50000000  0.06213917  0.24668900  1.0
  Ni  Ni787  1  0.50000000  0.39547250  0.24668900  1.0
  Ni  Ni788  1  0.50000000  0.72880583  0.24668900  1.0
  Ni  Ni789  1  0.83333333  0.06213917  0.24668900  1.0
  Ni  Ni790  1  0.83333333  0.39547250  0.24668900  1.0
  Ni  Ni791  1  0.83333333  0.72880583  0.24668900  1.0
  Ni  Ni792  1  0.25339558  0.01010182  0.29872635  1.0
  Ni  Ni793  1  0.25339558  0.34343515  0.29872635  1.0
  Ni  Ni794  1  0.25339558  0.67676848  0.29872635  1.0
  Ni  Ni795  1  0.58672892  0.01010182  0.29872635  1.0
  Ni  Ni796  1  0.58672892  0.34343515  0.29872635  1.0
  Ni  Ni797  1  0.58672892  0.67676848  0.29872635  1.0
  Ni  Ni798  1  0.92006225  0.01010182  0.29872635  1.0
  Ni  Ni799  1  0.92006225  0.34343515  0.29872635  1.0
  Ni  Ni800  1  0.92006225  0.67676848  0.29872635  1.0
  Ni  Ni801  1  0.08672892  0.24343515  0.39872635  1.0
  Ni  Ni802  1  0.08672892  0.57676848  0.39872635  1.0
  Ni  Ni803  1  0.08672892  0.91010182  0.39872635  1.0
  Ni  Ni804  1  0.42006225  0.24343515  0.39872635  1.0
  Ni  Ni805  1  0.42006225  0.57676848  0.39872635  1.0
  Ni  Ni806  1  0.42006225  0.91010182  0.39872635  1.0
  Ni  Ni807  1  0.75339558  0.24343515  0.39872635  1.0
  Ni  Ni808  1  0.75339558  0.57676848  0.39872635  1.0
  Ni  Ni809  1  0.75339558  0.91010182  0.39872635  1.0
  Ni  Ni810  1  0.07993775  0.01010182  0.29872635  1.0
  Ni  Ni811  1  0.07993775  0.34343515  0.29872635  1.0
  Ni  Ni812  1  0.07993775  0.67676848  0.29872635  1.0
  Ni  Ni813  1  0.41327108  0.01010182  0.29872635  1.0
  Ni  Ni814  1  0.41327108  0.34343515  0.29872635  1.0
  Ni  Ni815  1  0.41327108  0.67676848  0.29872635  1.0
  Ni  Ni816  1  0.74660442  0.01010182  0.29872635  1.0
  Ni  Ni817  1  0.74660442  0.34343515  0.29872635  1.0
  Ni  Ni818  1  0.74660442  0.67676848  0.29872635  1.0
  Ni  Ni819  1  0.24660442  0.24343515  0.39872635  1.0
  Ni  Ni820  1  0.24660442  0.57676848  0.39872635  1.0
  Ni  Ni821  1  0.24660442  0.91010182  0.39872635  1.0
  Ni  Ni822  1  0.57993775  0.24343515  0.39872635  1.0
  Ni  Ni823  1  0.57993775  0.57676848  0.39872635  1.0
  Ni  Ni824  1  0.57993775  0.91010182  0.39872635  1.0
  Ni  Ni825  1  0.91327108  0.24343515  0.39872635  1.0
  Ni  Ni826  1  0.91327108  0.57676848  0.39872635  1.0
  Ni  Ni827  1  0.91327108  0.91010182  0.39872635  1.0
  Ni  Ni828  1  0.28856850  0.11849463  0.27426170  1.0
  Ni  Ni829  1  0.28856850  0.45182797  0.27426170  1.0
  Ni  Ni830  1  0.28856850  0.78516130  0.27426170  1.0
  Ni  Ni831  1  0.62190183  0.11849463  0.27426170  1.0
  Ni  Ni832  1  0.62190183  0.45182797  0.27426170  1.0
  Ni  Ni833  1  0.62190183  0.78516130  0.27426170  1.0
  Ni  Ni834  1  0.95523517  0.11849463  0.27426170  1.0
  Ni  Ni835  1  0.95523517  0.45182797  0.27426170  1.0
  Ni  Ni836  1  0.95523517  0.78516130  0.27426170  1.0
  Ni  Ni837  1  0.12190183  0.01849463  0.37426170  1.0
  Ni  Ni838  1  0.12190183  0.35182797  0.37426170  1.0
  Ni  Ni839  1  0.12190183  0.68516130  0.37426170  1.0
  Ni  Ni840  1  0.45523517  0.01849463  0.37426170  1.0
  Ni  Ni841  1  0.45523517  0.35182797  0.37426170  1.0
  Ni  Ni842  1  0.45523517  0.68516130  0.37426170  1.0
  Ni  Ni843  1  0.78856850  0.01849463  0.37426170  1.0
  Ni  Ni844  1  0.78856850  0.35182797  0.37426170  1.0
  Ni  Ni845  1  0.78856850  0.68516130  0.37426170  1.0
  Ni  Ni846  1  0.20863075  0.00114885  0.21814965  1.0
  Ni  Ni847  1  0.20863075  0.33448218  0.21814965  1.0
  Ni  Ni848  1  0.20863075  0.66781552  0.21814965  1.0
  Ni  Ni849  1  0.54196408  0.00114885  0.21814965  1.0
  Ni  Ni850  1  0.54196408  0.33448218  0.21814965  1.0
  Ni  Ni851  1  0.54196408  0.66781552  0.21814965  1.0
  Ni  Ni852  1  0.87529742  0.00114885  0.21814965  1.0
  Ni  Ni853  1  0.87529742  0.33448218  0.21814965  1.0
  Ni  Ni854  1  0.87529742  0.66781552  0.21814965  1.0
  Ni  Ni855  1  0.04196408  0.23448218  0.31814965  1.0
  Ni  Ni856  1  0.04196408  0.56781552  0.31814965  1.0
  Ni  Ni857  1  0.04196408  0.90114885  0.31814965  1.0
  Ni  Ni858  1  0.37529742  0.23448218  0.31814965  1.0
  Ni  Ni859  1  0.37529742  0.56781552  0.31814965  1.0
  Ni  Ni860  1  0.37529742  0.90114885  0.31814965  1.0
  Ni  Ni861  1  0.70863075  0.23448218  0.31814965  1.0
  Ni  Ni862  1  0.70863075  0.56781552  0.31814965  1.0
  Ni  Ni863  1  0.70863075  0.90114885  0.31814965  1.0
  Ni  Ni864  1  0.20863075  0.07053198  0.32222435  1.0
  Ni  Ni865  1  0.20863075  0.40386532  0.32222435  1.0
  Ni  Ni866  1  0.20863075  0.73719865  0.32222435  1.0
  Ni  Ni867  1  0.54196408  0.07053198  0.32222435  1.0
  Ni  Ni868  1  0.54196408  0.40386532  0.32222435  1.0
  Ni  Ni869  1  0.54196408  0.73719865  0.32222435  1.0
  Ni  Ni870  1  0.87529742  0.07053198  0.32222435  1.0
  Ni  Ni871  1  0.87529742  0.40386532  0.32222435  1.0
  Ni  Ni872  1  0.87529742  0.73719865  0.32222435  1.0
  Ni  Ni873  1  0.04196408  0.17053198  0.22222435  1.0
  Ni  Ni874  1  0.04196408  0.50386532  0.22222435  1.0
  Ni  Ni875  1  0.04196408  0.83719865  0.22222435  1.0
  Ni  Ni876  1  0.37529742  0.17053198  0.22222435  1.0
  Ni  Ni877  1  0.37529742  0.50386532  0.22222435  1.0
  Ni  Ni878  1  0.37529742  0.83719865  0.22222435  1.0
  Ni  Ni879  1  0.70863075  0.17053198  0.22222435  1.0
  Ni  Ni880  1  0.70863075  0.50386532  0.22222435  1.0
  Ni  Ni881  1  0.70863075  0.83719865  0.22222435  1.0
  Ni  Ni882  1  0.04476483  0.11849463  0.27426170  1.0
  Ni  Ni883  1  0.04476483  0.45182797  0.27426170  1.0
  Ni  Ni884  1  0.04476483  0.78516130  0.27426170  1.0
  Ni  Ni885  1  0.37809817  0.11849463  0.27426170  1.0
  Ni  Ni886  1  0.37809817  0.45182797  0.27426170  1.0
  Ni  Ni887  1  0.37809817  0.78516130  0.27426170  1.0
  Ni  Ni888  1  0.71143150  0.11849463  0.27426170  1.0
  Ni  Ni889  1  0.71143150  0.45182797  0.27426170  1.0
  Ni  Ni890  1  0.71143150  0.78516130  0.27426170  1.0
  Ni  Ni891  1  0.21143150  0.01849463  0.37426170  1.0
  Ni  Ni892  1  0.21143150  0.35182797  0.37426170  1.0
  Ni  Ni893  1  0.21143150  0.68516130  0.37426170  1.0
  Ni  Ni894  1  0.54476483  0.01849463  0.37426170  1.0
  Ni  Ni895  1  0.54476483  0.35182797  0.37426170  1.0
  Ni  Ni896  1  0.54476483  0.68516130  0.37426170  1.0
  Ni  Ni897  1  0.87809817  0.01849463  0.37426170  1.0
  Ni  Ni898  1  0.87809817  0.35182797  0.37426170  1.0
  Ni  Ni899  1  0.87809817  0.68516130  0.37426170  1.0
  Ni  Ni900  1  0.12470258  0.07053198  0.32222435  1.0
  Ni  Ni901  1  0.12470258  0.40386532  0.32222435  1.0
  Ni  Ni902  1  0.12470258  0.73719865  0.32222435  1.0
  Ni  Ni903  1  0.45803592  0.07053198  0.32222435  1.0
  Ni  Ni904  1  0.45803592  0.40386532  0.32222435  1.0
  Ni  Ni905  1  0.45803592  0.73719865  0.32222435  1.0
  Ni  Ni906  1  0.79136925  0.07053198  0.32222435  1.0
  Ni  Ni907  1  0.79136925  0.40386532  0.32222435  1.0
  Ni  Ni908  1  0.79136925  0.73719865  0.32222435  1.0
  Ni  Ni909  1  0.29136925  0.17053198  0.22222435  1.0
  Ni  Ni910  1  0.29136925  0.50386532  0.22222435  1.0
  Ni  Ni911  1  0.29136925  0.83719865  0.22222435  1.0
  Ni  Ni912  1  0.62470258  0.17053198  0.22222435  1.0
  Ni  Ni913  1  0.62470258  0.50386532  0.22222435  1.0
  Ni  Ni914  1  0.62470258  0.83719865  0.22222435  1.0
  Ni  Ni915  1  0.95803592  0.17053198  0.22222435  1.0
  Ni  Ni916  1  0.95803592  0.50386532  0.22222435  1.0
  Ni  Ni917  1  0.95803592  0.83719865  0.22222435  1.0
  Ni  Ni918  1  0.12470258  0.00114885  0.21814965  1.0
  Ni  Ni919  1  0.12470258  0.33448218  0.21814965  1.0
  Ni  Ni920  1  0.12470258  0.66781552  0.21814965  1.0
  Ni  Ni921  1  0.45803592  0.00114885  0.21814965  1.0
  Ni  Ni922  1  0.45803592  0.33448218  0.21814965  1.0
  Ni  Ni923  1  0.45803592  0.66781552  0.21814965  1.0
  Ni  Ni924  1  0.79136925  0.00114885  0.21814965  1.0
  Ni  Ni925  1  0.79136925  0.33448218  0.21814965  1.0
  Ni  Ni926  1  0.79136925  0.66781552  0.21814965  1.0
  Ni  Ni927  1  0.29136925  0.23448218  0.31814965  1.0
  Ni  Ni928  1  0.29136925  0.56781552  0.31814965  1.0
  Ni  Ni929  1  0.29136925  0.90114885  0.31814965  1.0
  Ni  Ni930  1  0.62470258  0.23448218  0.31814965  1.0
  Ni  Ni931  1  0.62470258  0.56781552  0.31814965  1.0
  Ni  Ni932  1  0.62470258  0.90114885  0.31814965  1.0
  Ni  Ni933  1  0.95803592  0.23448218  0.31814965  1.0
  Ni  Ni934  1  0.95803592  0.56781552  0.31814965  1.0
  Ni  Ni935  1  0.95803592  0.90114885  0.31814965  1.0
  Ni  Ni936  1  0.00000000  0.09391727  0.29695590  1.0
  Ni  Ni937  1  0.00000000  0.42725060  0.29695590  1.0
  Ni  Ni938  1  0.00000000  0.76058393  0.29695590  1.0
  Ni  Ni939  1  0.33333333  0.09391727  0.29695590  1.0
  Ni  Ni940  1  0.33333333  0.42725060  0.29695590  1.0
  Ni  Ni941  1  0.33333333  0.76058393  0.29695590  1.0
  Ni  Ni942  1  0.66666667  0.09391727  0.29695590  1.0
  Ni  Ni943  1  0.66666667  0.42725060  0.29695590  1.0
  Ni  Ni944  1  0.66666667  0.76058393  0.29695590  1.0
  Ni  Ni945  1  0.16666667  0.32725060  0.39695590  1.0
  Ni  Ni946  1  0.16666667  0.66058393  0.39695590  1.0
  Ni  Ni947  1  0.16666667  0.99391727  0.39695590  1.0
  Ni  Ni948  1  0.50000000  0.32725060  0.39695590  1.0
  Ni  Ni949  1  0.50000000  0.66058393  0.39695590  1.0
  Ni  Ni950  1  0.50000000  0.99391727  0.39695590  1.0
  Ni  Ni951  1  0.83333333  0.32725060  0.39695590  1.0
  Ni  Ni952  1  0.83333333  0.66058393  0.39695590  1.0
  Ni  Ni953  1  0.83333333  0.99391727  0.39695590  1.0
  Ni  Ni954  1  0.24992500  0.31059893  0.24709090  1.0
  Ni  Ni955  1  0.24992500  0.64393227  0.24709090  1.0
  Ni  Ni956  1  0.24992500  0.97726560  0.24709090  1.0
  Ni  Ni957  1  0.58325833  0.31059893  0.24709090  1.0
  Ni  Ni958  1  0.58325833  0.64393227  0.24709090  1.0
  Ni  Ni959  1  0.58325833  0.97726560  0.24709090  1.0
  Ni  Ni960  1  0.91659167  0.31059893  0.24709090  1.0
  Ni  Ni961  1  0.91659167  0.64393227  0.24709090  1.0
  Ni  Ni962  1  0.91659167  0.97726560  0.24709090  1.0
  Ni  Ni963  1  0.08325833  0.21059893  0.34709090  1.0
  Ni  Ni964  1  0.08325833  0.54393227  0.34709090  1.0
  Ni  Ni965  1  0.08325833  0.87726560  0.34709090  1.0
  Ni  Ni966  1  0.41659167  0.21059893  0.34709090  1.0
  Ni  Ni967  1  0.41659167  0.54393227  0.34709090  1.0
  Ni  Ni968  1  0.41659167  0.87726560  0.34709090  1.0
  Ni  Ni969  1  0.74992500  0.21059893  0.34709090  1.0
  Ni  Ni970  1  0.74992500  0.54393227  0.34709090  1.0
  Ni  Ni971  1  0.74992500  0.87726560  0.34709090  1.0
  Ni  Ni972  1  0.08340833  0.31059893  0.24709090  1.0
  Ni  Ni973  1  0.08340833  0.64393227  0.24709090  1.0
  Ni  Ni974  1  0.08340833  0.97726560  0.24709090  1.0
  Ni  Ni975  1  0.41674167  0.31059893  0.24709090  1.0
  Ni  Ni976  1  0.41674167  0.64393227  0.24709090  1.0
  Ni  Ni977  1  0.41674167  0.97726560  0.24709090  1.0
  Ni  Ni978  1  0.75007500  0.31059893  0.24709090  1.0
  Ni  Ni979  1  0.75007500  0.64393227  0.24709090  1.0
  Ni  Ni980  1  0.75007500  0.97726560  0.24709090  1.0
  Ni  Ni981  1  0.25007500  0.21059893  0.34709090  1.0
  Ni  Ni982  1  0.25007500  0.54393227  0.34709090  1.0
  Ni  Ni983  1  0.25007500  0.87726560  0.34709090  1.0
  Ni  Ni984  1  0.58340833  0.21059893  0.34709090  1.0
  Ni  Ni985  1  0.58340833  0.54393227  0.34709090  1.0
  Ni  Ni986  1  0.58340833  0.87726560  0.34709090  1.0
  Ni  Ni987  1  0.91674167  0.21059893  0.34709090  1.0
  Ni  Ni988  1  0.91674167  0.54393227  0.34709090  1.0
  Ni  Ni989  1  0.91674167  0.87726560  0.34709090  1.0
  Ni  Ni990  1  0.33333333  0.12718927  0.34686390  1.0
  Ni  Ni991  1  0.33333333  0.46052260  0.34686390  1.0
  Ni  Ni992  1  0.33333333  0.79385593  0.34686390  1.0
  Ni  Ni993  1  0.66666667  0.12718927  0.34686390  1.0
  Ni  Ni994  1  0.66666667  0.46052260  0.34686390  1.0
  Ni  Ni995  1  0.66666667  0.79385593  0.34686390  1.0
  Ni  Ni996  1  1.00000000  0.12718927  0.34686390  1.0
  Ni  Ni997  1  1.00000000  0.46052260  0.34686390  1.0
  Ni  Ni998  1  1.00000000  0.79385593  0.34686390  1.0
  Ni  Ni999  1  0.16666667  0.22718927  0.24686390  1.0
  Ni  Ni1000  1  0.16666667  0.56052260  0.24686390  1.0
  Ni  Ni1001  1  0.16666667  0.89385593  0.24686390  1.0
  Ni  Ni1002  1  0.50000000  0.22718927  0.24686390  1.0
  Ni  Ni1003  1  0.50000000  0.56052260  0.24686390  1.0
  Ni  Ni1004  1  0.50000000  0.89385593  0.24686390  1.0
  Ni  Ni1005  1  0.83333333  0.22718927  0.24686390  1.0
  Ni  Ni1006  1  0.83333333  0.56052260  0.24686390  1.0
  Ni  Ni1007  1  0.83333333  0.89385593  0.24686390  1.0
  Ni  Ni1008  1  0.08340833  0.07714427  0.39690890  1.0
  Ni  Ni1009  1  0.08340833  0.41047760  0.39690890  1.0
  Ni  Ni1010  1  0.08340833  0.74381093  0.39690890  1.0
  Ni  Ni1011  1  0.41674167  0.07714427  0.39690890  1.0
  Ni  Ni1012  1  0.41674167  0.41047760  0.39690890  1.0
  Ni  Ni1013  1  0.41674167  0.74381093  0.39690890  1.0
  Ni  Ni1014  1  0.75007500  0.07714427  0.39690890  1.0
  Ni  Ni1015  1  0.75007500  0.41047760  0.39690890  1.0
  Ni  Ni1016  1  0.75007500  0.74381093  0.39690890  1.0
  Ni  Ni1017  1  0.25007500  0.17714427  0.29690890  1.0
  Ni  Ni1018  1  0.25007500  0.51047760  0.29690890  1.0
  Ni  Ni1019  1  0.25007500  0.84381093  0.29690890  1.0
  Ni  Ni1020  1  0.58340833  0.17714427  0.29690890  1.0
  Ni  Ni1021  1  0.58340833  0.51047760  0.29690890  1.0
  Ni  Ni1022  1  0.58340833  0.84381093  0.29690890  1.0
  Ni  Ni1023  1  0.91674167  0.17714427  0.29690890  1.0
  Ni  Ni1024  1  0.91674167  0.51047760  0.29690890  1.0
  Ni  Ni1025  1  0.91674167  0.84381093  0.29690890  1.0
  Ni  Ni1026  1  0.24992500  0.07714427  0.39690890  1.0
  Ni  Ni1027  1  0.24992500  0.41047760  0.39690890  1.0
  Ni  Ni1028  1  0.24992500  0.74381093  0.39690890  1.0
  Ni  Ni1029  1  0.58325833  0.07714427  0.39690890  1.0
  Ni  Ni1030  1  0.58325833  0.41047760  0.39690890  1.0
  Ni  Ni1031  1  0.58325833  0.74381093  0.39690890  1.0
  Ni  Ni1032  1  0.91659167  0.07714427  0.39690890  1.0
  Ni  Ni1033  1  0.91659167  0.41047760  0.39690890  1.0
  Ni  Ni1034  1  0.91659167  0.74381093  0.39690890  1.0
  Ni  Ni1035  1  0.08325833  0.17714427  0.29690890  1.0
  Ni  Ni1036  1  0.08325833  0.51047760  0.29690890  1.0
  Ni  Ni1037  1  0.08325833  0.84381093  0.29690890  1.0
  Ni  Ni1038  1  0.41659167  0.17714427  0.29690890  1.0
  Ni  Ni1039  1  0.41659167  0.51047760  0.29690890  1.0
  Ni  Ni1040  1  0.41659167  0.84381093  0.29690890  1.0
  Ni  Ni1041  1  0.74992500  0.17714427  0.29690890  1.0
  Ni  Ni1042  1  0.74992500  0.51047760  0.29690890  1.0
  Ni  Ni1043  1  0.74992500  0.84381093  0.29690890  1.0
  Ni  Ni1044  1  0.29174333  0.28550793  0.27218190  1.0
  Ni  Ni1045  1  0.29174333  0.61884127  0.27218190  1.0
  Ni  Ni1046  1  0.29174333  0.95217460  0.27218190  1.0
  Ni  Ni1047  1  0.62507667  0.28550793  0.27218190  1.0
  Ni  Ni1048  1  0.62507667  0.61884127  0.27218190  1.0
  Ni  Ni1049  1  0.62507667  0.95217460  0.27218190  1.0
  Ni  Ni1050  1  0.95841000  0.28550793  0.27218190  1.0
  Ni  Ni1051  1  0.95841000  0.61884127  0.27218190  1.0
  Ni  Ni1052  1  0.95841000  0.95217460  0.27218190  1.0
  Ni  Ni1053  1  0.12507667  0.18550793  0.37218190  1.0
  Ni  Ni1054  1  0.12507667  0.51884127  0.37218190  1.0
  Ni  Ni1055  1  0.12507667  0.85217460  0.37218190  1.0
  Ni  Ni1056  1  0.45841000  0.18550793  0.37218190  1.0
  Ni  Ni1057  1  0.45841000  0.51884127  0.37218190  1.0
  Ni  Ni1058  1  0.45841000  0.85217460  0.37218190  1.0
  Ni  Ni1059  1  0.79174333  0.18550793  0.37218190  1.0
  Ni  Ni1060  1  0.79174333  0.51884127  0.37218190  1.0
  Ni  Ni1061  1  0.79174333  0.85217460  0.37218190  1.0
  Ni  Ni1062  1  0.04181833  0.06882627  0.32204690  1.0
  Ni  Ni1063  1  0.04181833  0.40215960  0.32204690  1.0
  Ni  Ni1064  1  0.04181833  0.73549293  0.32204690  1.0
  Ni  Ni1065  1  0.37515167  0.06882627  0.32204690  1.0
  Ni  Ni1066  1  0.37515167  0.40215960  0.32204690  1.0
  Ni  Ni1067  1  0.37515167  0.73549293  0.32204690  1.0
  Ni  Ni1068  1  0.70848500  0.06882627  0.32204690  1.0
  Ni  Ni1069  1  0.70848500  0.40215960  0.32204690  1.0
  Ni  Ni1070  1  0.70848500  0.73549293  0.32204690  1.0
  Ni  Ni1071  1  0.20848500  0.16882627  0.22204690  1.0
  Ni  Ni1072  1  0.20848500  0.50215960  0.22204690  1.0
  Ni  Ni1073  1  0.20848500  0.83549293  0.22204690  1.0
  Ni  Ni1074  1  0.54181833  0.16882627  0.22204690  1.0
  Ni  Ni1075  1  0.54181833  0.50215960  0.22204690  1.0
  Ni  Ni1076  1  0.54181833  0.83549293  0.22204690  1.0
  Ni  Ni1077  1  0.87515167  0.16882627  0.22204690  1.0
  Ni  Ni1078  1  0.87515167  0.50215960  0.22204690  1.0
  Ni  Ni1079  1  0.87515167  0.83549293  0.22204690  1.0
  Ni  Ni1080  1  0.04181833  0.00221960  0.22213690  1.0
  Ni  Ni1081  1  0.04181833  0.33555293  0.22213690  1.0
  Ni  Ni1082  1  0.04181833  0.66888627  0.22213690  1.0
  Ni  Ni1083  1  0.37515167  0.00221960  0.22213690  1.0
  Ni  Ni1084  1  0.37515167  0.33555293  0.22213690  1.0
  Ni  Ni1085  1  0.37515167  0.66888627  0.22213690  1.0
  Ni  Ni1086  1  0.70848500  0.00221960  0.22213690  1.0
  Ni  Ni1087  1  0.70848500  0.33555293  0.22213690  1.0
  Ni  Ni1088  1  0.70848500  0.66888627  0.22213690  1.0
  Ni  Ni1089  1  0.20848500  0.23555293  0.32213690  1.0
  Ni  Ni1090  1  0.20848500  0.56888627  0.32213690  1.0
  Ni  Ni1091  1  0.20848500  0.90221960  0.32213690  1.0
  Ni  Ni1092  1  0.54181833  0.23555293  0.32213690  1.0
  Ni  Ni1093  1  0.54181833  0.56888627  0.32213690  1.0
  Ni  Ni1094  1  0.54181833  0.90221960  0.32213690  1.0
  Ni  Ni1095  1  0.87515167  0.23555293  0.32213690  1.0
  Ni  Ni1096  1  0.87515167  0.56888627  0.32213690  1.0
  Ni  Ni1097  1  0.87515167  0.90221960  0.32213690  1.0
  Ni  Ni1098  1  0.04159000  0.28550793  0.27218190  1.0
  Ni  Ni1099  1  0.04159000  0.61884127  0.27218190  1.0
  Ni  Ni1100  1  0.04159000  0.95217460  0.27218190  1.0
  Ni  Ni1101  1  0.37492333  0.28550793  0.27218190  1.0
  Ni  Ni1102  1  0.37492333  0.61884127  0.27218190  1.0
  Ni  Ni1103  1  0.37492333  0.95217460  0.27218190  1.0
  Ni  Ni1104  1  0.70825667  0.28550793  0.27218190  1.0
  Ni  Ni1105  1  0.70825667  0.61884127  0.27218190  1.0
  Ni  Ni1106  1  0.70825667  0.95217460  0.27218190  1.0
  Ni  Ni1107  1  0.20825667  0.18550793  0.37218190  1.0
  Ni  Ni1108  1  0.20825667  0.51884127  0.37218190  1.0
  Ni  Ni1109  1  0.20825667  0.85217460  0.37218190  1.0
  Ni  Ni1110  1  0.54159000  0.18550793  0.37218190  1.0
  Ni  Ni1111  1  0.54159000  0.51884127  0.37218190  1.0
  Ni  Ni1112  1  0.54159000  0.85217460  0.37218190  1.0
  Ni  Ni1113  1  0.87492333  0.18550793  0.37218190  1.0
  Ni  Ni1114  1  0.87492333  0.51884127  0.37218190  1.0
  Ni  Ni1115  1  0.87492333  0.85217460  0.37218190  1.0
  Ni  Ni1116  1  0.29151500  0.00221960  0.22213690  1.0
  Ni  Ni1117  1  0.29151500  0.33555293  0.22213690  1.0
  Ni  Ni1118  1  0.29151500  0.66888627  0.22213690  1.0
  Ni  Ni1119  1  0.62484833  0.00221960  0.22213690  1.0
  Ni  Ni1120  1  0.62484833  0.33555293  0.22213690  1.0
  Ni  Ni1121  1  0.62484833  0.66888627  0.22213690  1.0
  Ni  Ni1122  1  0.95818167  0.00221960  0.22213690  1.0
  Ni  Ni1123  1  0.95818167  0.33555293  0.22213690  1.0
  Ni  Ni1124  1  0.95818167  0.66888627  0.22213690  1.0
  Ni  Ni1125  1  0.12484833  0.23555293  0.32213690  1.0
  Ni  Ni1126  1  0.12484833  0.56888627  0.32213690  1.0
  Ni  Ni1127  1  0.12484833  0.90221960  0.32213690  1.0
  Ni  Ni1128  1  0.45818167  0.23555293  0.32213690  1.0
  Ni  Ni1129  1  0.45818167  0.56888627  0.32213690  1.0
  Ni  Ni1130  1  0.45818167  0.90221960  0.32213690  1.0
  Ni  Ni1131  1  0.79151500  0.23555293  0.32213690  1.0
  Ni  Ni1132  1  0.79151500  0.56888627  0.32213690  1.0
  Ni  Ni1133  1  0.79151500  0.90221960  0.32213690  1.0
  Ni  Ni1134  1  0.29151500  0.06882627  0.32204690  1.0
  Ni  Ni1135  1  0.29151500  0.40215960  0.32204690  1.0
  Ni  Ni1136  1  0.29151500  0.73549293  0.32204690  1.0
  Ni  Ni1137  1  0.62484833  0.06882627  0.32204690  1.0
  Ni  Ni1138  1  0.62484833  0.40215960  0.32204690  1.0
  Ni  Ni1139  1  0.62484833  0.73549293  0.32204690  1.0
  Ni  Ni1140  1  0.95818167  0.06882627  0.32204690  1.0
  Ni  Ni1141  1  0.95818167  0.40215960  0.32204690  1.0
  Ni  Ni1142  1  0.95818167  0.73549293  0.32204690  1.0
  Ni  Ni1143  1  0.12484833  0.16882627  0.22204690  1.0
  Ni  Ni1144  1  0.12484833  0.50215960  0.22204690  1.0
  Ni  Ni1145  1  0.12484833  0.83549293  0.22204690  1.0
  Ni  Ni1146  1  0.45818167  0.16882627  0.22204690  1.0
  Ni  Ni1147  1  0.45818167  0.50215960  0.22204690  1.0
  Ni  Ni1148  1  0.45818167  0.83549293  0.22204690  1.0
  Ni  Ni1149  1  0.79151500  0.16882627  0.22204690  1.0
  Ni  Ni1150  1  0.79151500  0.50215960  0.22204690  1.0
  Ni  Ni1151  1  0.79151500  0.83549293  0.22204690  1.0
  Y  Y1152  1  0.00000000  0.29803060  0.19704590  1.0
  Y  Y1153  1  0.00000000  0.63136393  0.19704590  1.0
  Y  Y1154  1  0.00000000  0.96469727  0.19704590  1.0
  Y  Y1155  1  0.33333333  0.29803060  0.19704590  1.0
  Y  Y1156  1  0.33333333  0.63136393  0.19704590  1.0
  Y  Y1157  1  0.33333333  0.96469727  0.19704590  1.0
  Y  Y1158  1  0.66666667  0.29803060  0.19704590  1.0
  Y  Y1159  1  0.66666667  0.63136393  0.19704590  1.0
  Y  Y1160  1  0.66666667  0.96469727  0.19704590  1.0
  Y  Y1161  1  0.16666667  0.06469727  0.09704590  1.0
  Y  Y1162  1  0.16666667  0.39803060  0.09704590  1.0
  Y  Y1163  1  0.16666667  0.73136393  0.09704590  1.0
  Y  Y1164  1  0.50000000  0.06469727  0.09704590  1.0
  Y  Y1165  1  0.50000000  0.39803060  0.09704590  1.0
  Y  Y1166  1  0.50000000  0.73136393  0.09704590  1.0
  Y  Y1167  1  0.83333333  0.06469727  0.09704590  1.0
  Y  Y1168  1  0.83333333  0.39803060  0.09704590  1.0
  Y  Y1169  1  0.83333333  0.73136393  0.09704590  1.0
  Y  Y1170  1  0.00000000  0.09930427  0.19704590  1.0
  Y  Y1171  1  0.00000000  0.43263760  0.19704590  1.0
  Y  Y1172  1  0.00000000  0.76597093  0.19704590  1.0
  Y  Y1173  1  0.33333333  0.09930427  0.19704590  1.0
  Y  Y1174  1  0.33333333  0.43263760  0.19704590  1.0
  Y  Y1175  1  0.33333333  0.76597093  0.19704590  1.0
  Y  Y1176  1  0.66666667  0.09930427  0.19704590  1.0
  Y  Y1177  1  0.66666667  0.43263760  0.19704590  1.0
  Y  Y1178  1  0.66666667  0.76597093  0.19704590  1.0
  Y  Y1179  1  0.16666667  0.19930427  0.09704590  1.0
  Y  Y1180  1  0.16666667  0.53263760  0.09704590  1.0
  Y  Y1181  1  0.16666667  0.86597093  0.09704590  1.0
  Y  Y1182  1  0.50000000  0.19930427  0.09704590  1.0
  Y  Y1183  1  0.50000000  0.53263760  0.09704590  1.0
  Y  Y1184  1  0.50000000  0.86597093  0.09704590  1.0
  Y  Y1185  1  0.83333333  0.19930427  0.09704590  1.0
  Y  Y1186  1  0.83333333  0.53263760  0.09704590  1.0
  Y  Y1187  1  0.83333333  0.86597093  0.09704590  1.0
  Y  Y1188  1  0.00000000  0.01726640  0.07398910  1.0
  Y  Y1189  1  0.00000000  0.35059973  0.07398910  1.0
  Y  Y1190  1  0.00000000  0.68393307  0.07398910  1.0
  Y  Y1191  1  0.33333333  0.01726640  0.07398910  1.0
  Y  Y1192  1  0.33333333  0.35059973  0.07398910  1.0
  Y  Y1193  1  0.33333333  0.68393307  0.07398910  1.0
  Y  Y1194  1  0.66666667  0.01726640  0.07398910  1.0
  Y  Y1195  1  0.66666667  0.35059973  0.07398910  1.0
  Y  Y1196  1  0.66666667  0.68393307  0.07398910  1.0
  Y  Y1197  1  0.16666667  0.25059973  0.17398910  1.0
  Y  Y1198  1  0.16666667  0.58393307  0.17398910  1.0
  Y  Y1199  1  0.16666667  0.91726640  0.17398910  1.0
  Y  Y1200  1  0.50000000  0.25059973  0.17398910  1.0
  Y  Y1201  1  0.50000000  0.58393307  0.17398910  1.0
  Y  Y1202  1  0.50000000  0.91726640  0.17398910  1.0
  Y  Y1203  1  0.83333333  0.25059973  0.17398910  1.0
  Y  Y1204  1  0.83333333  0.58393307  0.17398910  1.0
  Y  Y1205  1  0.83333333  0.91726640  0.17398910  1.0
  Y  Y1206  1  0.10254733  0.23777587  0.05857430  1.0
  Y  Y1207  1  0.10254733  0.57110920  0.05857430  1.0
  Y  Y1208  1  0.10254733  0.90444253  0.05857430  1.0
  Y  Y1209  1  0.43588067  0.23777587  0.05857430  1.0
  Y  Y1210  1  0.43588067  0.57110920  0.05857430  1.0
  Y  Y1211  1  0.43588067  0.90444253  0.05857430  1.0
  Y  Y1212  1  0.76921400  0.23777587  0.05857430  1.0
  Y  Y1213  1  0.76921400  0.57110920  0.05857430  1.0
  Y  Y1214  1  0.76921400  0.90444253  0.05857430  1.0
  Y  Y1215  1  0.26921400  0.13777587  0.15857430  1.0
  Y  Y1216  1  0.26921400  0.47110920  0.15857430  1.0
  Y  Y1217  1  0.26921400  0.80444253  0.15857430  1.0
  Y  Y1218  1  0.60254733  0.13777587  0.15857430  1.0
  Y  Y1219  1  0.60254733  0.47110920  0.15857430  1.0
  Y  Y1220  1  0.60254733  0.80444253  0.15857430  1.0
  Y  Y1221  1  0.93588067  0.13777587  0.15857430  1.0
  Y  Y1222  1  0.93588067  0.47110920  0.15857430  1.0
  Y  Y1223  1  0.93588067  0.80444253  0.15857430  1.0
  Y  Y1224  1  0.23078600  0.23777587  0.05857430  1.0
  Y  Y1225  1  0.23078600  0.57110920  0.05857430  1.0
  Y  Y1226  1  0.23078600  0.90444253  0.05857430  1.0
  Y  Y1227  1  0.56411933  0.23777587  0.05857430  1.0
  Y  Y1228  1  0.56411933  0.57110920  0.05857430  1.0
  Y  Y1229  1  0.56411933  0.90444253  0.05857430  1.0
  Y  Y1230  1  0.89745267  0.23777587  0.05857430  1.0
  Y  Y1231  1  0.89745267  0.57110920  0.05857430  1.0
  Y  Y1232  1  0.89745267  0.90444253  0.05857430  1.0
  Y  Y1233  1  0.06411933  0.13777587  0.15857430  1.0
  Y  Y1234  1  0.06411933  0.47110920  0.15857430  1.0
  Y  Y1235  1  0.06411933  0.80444253  0.15857430  1.0
  Y  Y1236  1  0.39745267  0.13777587  0.15857430  1.0
  Y  Y1237  1  0.39745267  0.47110920  0.15857430  1.0
  Y  Y1238  1  0.39745267  0.80444253  0.15857430  1.0
  Y  Y1239  1  0.73078600  0.13777587  0.15857430  1.0
  Y  Y1240  1  0.73078600  0.47110920  0.15857430  1.0
  Y  Y1241  1  0.73078600  0.80444253  0.15857430  1.0
  Y  Y1242  1  0.33333333  0.25575093  0.19704590  1.0
  Y  Y1243  1  0.33333333  0.58908427  0.19704590  1.0
  Y  Y1244  1  0.33333333  0.92241760  0.19704590  1.0
  Y  Y1245  1  0.66666667  0.25575093  0.19704590  1.0
  Y  Y1246  1  0.66666667  0.58908427  0.19704590  1.0
  Y  Y1247  1  0.66666667  0.92241760  0.19704590  1.0
  Y  Y1248  1  1.00000000  0.25575093  0.19704590  1.0
  Y  Y1249  1  0.00000000  0.58908427  0.19704590  1.0
  Y  Y1250  1  1.00000000  0.92241760  0.19704590  1.0
  Y  Y1251  1  0.16666667  0.02241760  0.09704590  1.0
  Y  Y1252  1  0.16666667  0.35575093  0.09704590  1.0
  Y  Y1253  1  0.16666667  0.68908427  0.09704590  1.0
  Y  Y1254  1  0.50000000  0.02241760  0.09704590  1.0
  Y  Y1255  1  0.50000000  0.35575093  0.09704590  1.0
  Y  Y1256  1  0.50000000  0.68908427  0.09704590  1.0
  Y  Y1257  1  0.83333333  0.02241760  0.09704590  1.0
  Y  Y1258  1  0.83333333  0.35575093  0.09704590  1.0
  Y  Y1259  1  0.83333333  0.68908427  0.09704590  1.0
  Y  Y1260  1  0.33333333  0.19006507  0.09851710  1.0
  Y  Y1261  1  0.33333333  0.52339840  0.09851710  1.0
  Y  Y1262  1  0.33333333  0.85673173  0.09851710  1.0
  Y  Y1263  1  0.66666667  0.19006507  0.09851710  1.0
  Y  Y1264  1  0.66666667  0.52339840  0.09851710  1.0
  Y  Y1265  1  0.66666667  0.85673173  0.09851710  1.0
  Y  Y1266  1  1.00000000  0.19006507  0.09851710  1.0
  Y  Y1267  1  1.00000000  0.52339840  0.09851710  1.0
  Y  Y1268  1  1.00000000  0.85673173  0.09851710  1.0
  Y  Y1269  1  0.16666667  0.09006507  0.19851710  1.0
  Y  Y1270  1  0.16666667  0.42339840  0.19851710  1.0
  Y  Y1271  1  0.16666667  0.75673173  0.19851710  1.0
  Y  Y1272  1  0.50000000  0.09006507  0.19851710  1.0
  Y  Y1273  1  0.50000000  0.42339840  0.19851710  1.0
  Y  Y1274  1  0.50000000  0.75673173  0.19851710  1.0
  Y  Y1275  1  0.83333333  0.09006507  0.19851710  1.0
  Y  Y1276  1  0.83333333  0.42339840  0.19851710  1.0
  Y  Y1277  1  0.83333333  0.75673173  0.19851710  1.0
  Y  Y1278  1  0.24877400  0.30648653  0.14631030  1.0
  Y  Y1279  1  0.24877400  0.63981987  0.14631030  1.0
  Y  Y1280  1  0.24877400  0.97315320  0.14631030  1.0
  Y  Y1281  1  0.58210733  0.30648653  0.14631030  1.0
  Y  Y1282  1  0.58210733  0.63981987  0.14631030  1.0
  Y  Y1283  1  0.58210733  0.97315320  0.14631030  1.0
  Y  Y1284  1  0.91544067  0.30648653  0.14631030  1.0
  Y  Y1285  1  0.91544067  0.63981987  0.14631030  1.0
  Y  Y1286  1  0.91544067  0.97315320  0.14631030  1.0
  Y  Y1287  1  0.08210733  0.07315320  0.04631030  1.0
  Y  Y1288  1  0.08210733  0.40648653  0.04631030  1.0
  Y  Y1289  1  0.08210733  0.73981987  0.04631030  1.0
  Y  Y1290  1  0.41544067  0.07315320  0.04631030  1.0
  Y  Y1291  1  0.41544067  0.40648653  0.04631030  1.0
  Y  Y1292  1  0.41544067  0.73981987  0.04631030  1.0
  Y  Y1293  1  0.74877400  0.07315320  0.04631030  1.0
  Y  Y1294  1  0.74877400  0.40648653  0.04631030  1.0
  Y  Y1295  1  0.74877400  0.73981987  0.04631030  1.0
  Y  Y1296  1  0.08455933  0.30648653  0.14631030  1.0
  Y  Y1297  1  0.08455933  0.63981987  0.14631030  1.0
  Y  Y1298  1  0.08455933  0.97315320  0.14631030  1.0
  Y  Y1299  1  0.41789267  0.30648653  0.14631030  1.0
  Y  Y1300  1  0.41789267  0.63981987  0.14631030  1.0
  Y  Y1301  1  0.41789267  0.97315320  0.14631030  1.0
  Y  Y1302  1  0.75122600  0.30648653  0.14631030  1.0
  Y  Y1303  1  0.75122600  0.63981987  0.14631030  1.0
  Y  Y1304  1  0.75122600  0.97315320  0.14631030  1.0
  Y  Y1305  1  0.25122600  0.07315320  0.04631030  1.0
  Y  Y1306  1  0.25122600  0.40648653  0.04631030  1.0
  Y  Y1307  1  0.25122600  0.73981987  0.04631030  1.0
  Y  Y1308  1  0.58455933  0.07315320  0.04631030  1.0
  Y  Y1309  1  0.58455933  0.40648653  0.04631030  1.0
  Y  Y1310  1  0.58455933  0.73981987  0.04631030  1.0
  Y  Y1311  1  0.91789267  0.07315320  0.04631030  1.0
  Y  Y1312  1  0.91789267  0.40648653  0.04631030  1.0
  Y  Y1313  1  0.91789267  0.73981987  0.04631030  1.0
  Y  Y1314  1  0.25503767  0.27934887  0.04402330  1.0
  Y  Y1315  1  0.25503767  0.61268220  0.04402330  1.0
  Y  Y1316  1  0.25503767  0.94601553  0.04402330  1.0
  Y  Y1317  1  0.58837100  0.27934887  0.04402330  1.0
  Y  Y1318  1  0.58837100  0.61268220  0.04402330  1.0
  Y  Y1319  1  0.58837100  0.94601553  0.04402330  1.0
  Y  Y1320  1  0.92170433  0.27934887  0.04402330  1.0
  Y  Y1321  1  0.92170433  0.61268220  0.04402330  1.0
  Y  Y1322  1  0.92170433  0.94601553  0.04402330  1.0
  Y  Y1323  1  0.08837100  0.17934887  0.14402330  1.0
  Y  Y1324  1  0.08837100  0.51268220  0.14402330  1.0
  Y  Y1325  1  0.08837100  0.84601553  0.14402330  1.0
  Y  Y1326  1  0.42170433  0.17934887  0.14402330  1.0
  Y  Y1327  1  0.42170433  0.51268220  0.14402330  1.0
  Y  Y1328  1  0.42170433  0.84601553  0.14402330  1.0
  Y  Y1329  1  0.75503767  0.17934887  0.14402330  1.0
  Y  Y1330  1  0.75503767  0.51268220  0.14402330  1.0
  Y  Y1331  1  0.75503767  0.84601553  0.14402330  1.0
  Y  Y1332  1  0.07829567  0.27934887  0.04402330  1.0
  Y  Y1333  1  0.07829567  0.61268220  0.04402330  1.0
  Y  Y1334  1  0.07829567  0.94601553  0.04402330  1.0
  Y  Y1335  1  0.41162900  0.27934887  0.04402330  1.0
  Y  Y1336  1  0.41162900  0.61268220  0.04402330  1.0
  Y  Y1337  1  0.41162900  0.94601553  0.04402330  1.0
  Y  Y1338  1  0.74496233  0.27934887  0.04402330  1.0
  Y  Y1339  1  0.74496233  0.61268220  0.04402330  1.0
  Y  Y1340  1  0.74496233  0.94601553  0.04402330  1.0
  Y  Y1341  1  0.24496233  0.17934887  0.14402330  1.0
  Y  Y1342  1  0.24496233  0.51268220  0.14402330  1.0
  Y  Y1343  1  0.24496233  0.84601553  0.14402330  1.0
  Y  Y1344  1  0.57829567  0.17934887  0.14402330  1.0
  Y  Y1345  1  0.57829567  0.51268220  0.14402330  1.0
  Y  Y1346  1  0.57829567  0.84601553  0.14402330  1.0
  Y  Y1347  1  0.91162900  0.17934887  0.14402330  1.0
  Y  Y1348  1  0.91162900  0.51268220  0.14402330  1.0
  Y  Y1349  1  0.91162900  0.84601553  0.14402330  1.0
  Y  Y1350  1  0.00000000  0.06368973  0.10309110  1.0
  Y  Y1351  1  0.00000000  0.39702307  0.10309110  1.0
  Y  Y1352  1  0.00000000  0.73035640  0.10309110  1.0
  Y  Y1353  1  0.33333333  0.06368973  0.10309110  1.0
  Y  Y1354  1  0.33333333  0.39702307  0.10309110  1.0
  Y  Y1355  1  0.33333333  0.73035640  0.10309110  1.0
  Y  Y1356  1  0.66666667  0.06368973  0.10309110  1.0
  Y  Y1357  1  0.66666667  0.39702307  0.10309110  1.0
  Y  Y1358  1  0.66666667  0.73035640  0.10309110  1.0
  Y  Y1359  1  0.16666667  0.16368973  0.00309110  1.0
  Y  Y1360  1  0.16666667  0.49702307  0.00309110  1.0
  Y  Y1361  1  0.16666667  0.83035640  0.00309110  1.0
  Y  Y1362  1  0.50000000  0.16368973  0.00309110  1.0
  Y  Y1363  1  0.50000000  0.49702307  0.00309110  1.0
  Y  Y1364  1  0.50000000  0.83035640  0.00309110  1.0
  Y  Y1365  1  0.83333333  0.16368973  0.00309110  1.0
  Y  Y1366  1  0.83333333  0.49702307  0.00309110  1.0
  Y  Y1367  1  0.83333333  0.83035640  0.00309110  1.0
  Y  Y1368  1  0.07829567  0.01671233  0.15006850  1.0
  Y  Y1369  1  0.07829567  0.35004567  0.15006850  1.0
  Y  Y1370  1  0.07829567  0.68337900  0.15006850  1.0
  Y  Y1371  1  0.41162900  0.01671233  0.15006850  1.0
  Y  Y1372  1  0.41162900  0.35004567  0.15006850  1.0
  Y  Y1373  1  0.41162900  0.68337900  0.15006850  1.0
  Y  Y1374  1  0.74496233  0.01671233  0.15006850  1.0
  Y  Y1375  1  0.74496233  0.35004567  0.15006850  1.0
  Y  Y1376  1  0.74496233  0.68337900  0.15006850  1.0
  Y  Y1377  1  0.24496233  0.11671233  0.05006850  1.0
  Y  Y1378  1  0.24496233  0.45004567  0.05006850  1.0
  Y  Y1379  1  0.24496233  0.78337900  0.05006850  1.0
  Y  Y1380  1  0.57829567  0.11671233  0.05006850  1.0
  Y  Y1381  1  0.57829567  0.45004567  0.05006850  1.0
  Y  Y1382  1  0.57829567  0.78337900  0.05006850  1.0
  Y  Y1383  1  0.91162900  0.11671233  0.05006850  1.0
  Y  Y1384  1  0.91162900  0.45004567  0.05006850  1.0
  Y  Y1385  1  0.91162900  0.78337900  0.05006850  1.0
  Y  Y1386  1  0.25503767  0.01671233  0.15006850  1.0
  Y  Y1387  1  0.25503767  0.35004567  0.15006850  1.0
  Y  Y1388  1  0.25503767  0.68337900  0.15006850  1.0
  Y  Y1389  1  0.58837100  0.01671233  0.15006850  1.0
  Y  Y1390  1  0.58837100  0.35004567  0.15006850  1.0
  Y  Y1391  1  0.58837100  0.68337900  0.15006850  1.0
  Y  Y1392  1  0.92170433  0.01671233  0.15006850  1.0
  Y  Y1393  1  0.92170433  0.35004567  0.15006850  1.0
  Y  Y1394  1  0.92170433  0.68337900  0.15006850  1.0
  Y  Y1395  1  0.08837100  0.11671233  0.05006850  1.0
  Y  Y1396  1  0.08837100  0.45004567  0.05006850  1.0
  Y  Y1397  1  0.08837100  0.78337900  0.05006850  1.0
  Y  Y1398  1  0.42170433  0.11671233  0.05006850  1.0
  Y  Y1399  1  0.42170433  0.45004567  0.05006850  1.0
  Y  Y1400  1  0.42170433  0.78337900  0.05006850  1.0
  Y  Y1401  1  0.75503767  0.11671233  0.05006850  1.0
  Y  Y1402  1  0.75503767  0.45004567  0.05006850  1.0
  Y  Y1403  1  0.75503767  0.78337900  0.05006850  1.0
  Y  Y1404  1  0.00000000  0.23237147  0.09100070  1.0
  Y  Y1405  1  0.00000000  0.56570480  0.09100070  1.0
  Y  Y1406  1  0.00000000  0.89903813  0.09100070  1.0
  Y  Y1407  1  0.33333333  0.23237147  0.09100070  1.0
  Y  Y1408  1  0.33333333  0.56570480  0.09100070  1.0
  Y  Y1409  1  0.33333333  0.89903813  0.09100070  1.0
  Y  Y1410  1  0.66666667  0.23237147  0.09100070  1.0
  Y  Y1411  1  0.66666667  0.56570480  0.09100070  1.0
  Y  Y1412  1  0.66666667  0.89903813  0.09100070  1.0
  Y  Y1413  1  0.16666667  0.13237147  0.19100070  1.0
  Y  Y1414  1  0.16666667  0.46570480  0.19100070  1.0
  Y  Y1415  1  0.16666667  0.79903813  0.19100070  1.0
  Y  Y1416  1  0.50000000  0.13237147  0.19100070  1.0
  Y  Y1417  1  0.50000000  0.46570480  0.19100070  1.0
  Y  Y1418  1  0.50000000  0.79903813  0.19100070  1.0
  Y  Y1419  1  0.83333333  0.13237147  0.19100070  1.0
  Y  Y1420  1  0.83333333  0.46570480  0.19100070  1.0
  Y  Y1421  1  0.83333333  0.79903813  0.19100070  1.0
  Y  Y1422  1  0.33333333  0.09803060  0.39704590  1.0
  Y  Y1423  1  0.33333333  0.43136393  0.39704590  1.0
  Y  Y1424  1  0.33333333  0.76469727  0.39704590  1.0
  Y  Y1425  1  0.66666667  0.09803060  0.39704590  1.0
  Y  Y1426  1  0.66666667  0.43136393  0.39704590  1.0
  Y  Y1427  1  0.66666667  0.76469727  0.39704590  1.0
  Y  Y1428  1  1.00000000  0.09803060  0.39704590  1.0
  Y  Y1429  1  1.00000000  0.43136393  0.39704590  1.0
  Y  Y1430  1  1.00000000  0.76469727  0.39704590  1.0
  Y  Y1431  1  0.16666667  0.19803060  0.29704590  1.0
  Y  Y1432  1  0.16666667  0.53136393  0.29704590  1.0
  Y  Y1433  1  0.16666667  0.86469727  0.29704590  1.0
  Y  Y1434  1  0.50000000  0.19803060  0.29704590  1.0
  Y  Y1435  1  0.50000000  0.53136393  0.29704590  1.0
  Y  Y1436  1  0.50000000  0.86469727  0.29704590  1.0
  Y  Y1437  1  0.83333333  0.19803060  0.29704590  1.0
  Y  Y1438  1  0.83333333  0.53136393  0.29704590  1.0
  Y  Y1439  1  0.83333333  0.86469727  0.29704590  1.0
  Y  Y1440  1  0.33333333  0.23263760  0.39704590  1.0
  Y  Y1441  1  0.33333333  0.56597093  0.39704590  1.0
  Y  Y1442  1  0.33333333  0.89930427  0.39704590  1.0
  Y  Y1443  1  0.66666667  0.23263760  0.39704590  1.0
  Y  Y1444  1  0.66666667  0.56597093  0.39704590  1.0
  Y  Y1445  1  0.66666667  0.89930427  0.39704590  1.0
  Y  Y1446  1  1.00000000  0.23263760  0.39704590  1.0
  Y  Y1447  1  1.00000000  0.56597093  0.39704590  1.0
  Y  Y1448  1  1.00000000  0.89930427  0.39704590  1.0
  Y  Y1449  1  0.16666667  0.33263760  0.29704590  1.0
  Y  Y1450  1  0.16666667  0.66597093  0.29704590  1.0
  Y  Y1451  1  0.16666667  0.99930427  0.29704590  1.0
  Y  Y1452  1  0.50000000  0.33263760  0.29704590  1.0
  Y  Y1453  1  0.50000000  0.66597093  0.29704590  1.0
  Y  Y1454  1  0.50000000  0.99930427  0.29704590  1.0
  Y  Y1455  1  0.83333333  0.33263760  0.29704590  1.0
  Y  Y1456  1  0.83333333  0.66597093  0.29704590  1.0
  Y  Y1457  1  0.83333333  0.99930427  0.29704590  1.0
  Y  Y1458  1  0.33333333  0.15059973  0.27398910  1.0
  Y  Y1459  1  0.33333333  0.48393307  0.27398910  1.0
  Y  Y1460  1  0.33333333  0.81726640  0.27398910  1.0
  Y  Y1461  1  0.66666667  0.15059973  0.27398910  1.0
  Y  Y1462  1  0.66666667  0.48393307  0.27398910  1.0
  Y  Y1463  1  0.66666667  0.81726640  0.27398910  1.0
  Y  Y1464  1  1.00000000  0.15059973  0.27398910  1.0
  Y  Y1465  1  1.00000000  0.48393307  0.27398910  1.0
  Y  Y1466  1  1.00000000  0.81726640  0.27398910  1.0
  Y  Y1467  1  0.16666667  0.05059973  0.37398910  1.0
  Y  Y1468  1  0.16666667  0.38393307  0.37398910  1.0
  Y  Y1469  1  0.16666667  0.71726640  0.37398910  1.0
  Y  Y1470  1  0.50000000  0.05059973  0.37398910  1.0
  Y  Y1471  1  0.50000000  0.38393307  0.37398910  1.0
  Y  Y1472  1  0.50000000  0.71726640  0.37398910  1.0
  Y  Y1473  1  0.83333333  0.05059973  0.37398910  1.0
  Y  Y1474  1  0.83333333  0.38393307  0.37398910  1.0
  Y  Y1475  1  0.83333333  0.71726640  0.37398910  1.0
  Y  Y1476  1  0.10254733  0.03777587  0.25857430  1.0
  Y  Y1477  1  0.10254733  0.37110920  0.25857430  1.0
  Y  Y1478  1  0.10254733  0.70444253  0.25857430  1.0
  Y  Y1479  1  0.43588067  0.03777587  0.25857430  1.0
  Y  Y1480  1  0.43588067  0.37110920  0.25857430  1.0
  Y  Y1481  1  0.43588067  0.70444253  0.25857430  1.0
  Y  Y1482  1  0.76921400  0.03777587  0.25857430  1.0
  Y  Y1483  1  0.76921400  0.37110920  0.25857430  1.0
  Y  Y1484  1  0.76921400  0.70444253  0.25857430  1.0
  Y  Y1485  1  0.26921400  0.27110920  0.35857430  1.0
  Y  Y1486  1  0.26921400  0.60444253  0.35857430  1.0
  Y  Y1487  1  0.26921400  0.93777587  0.35857430  1.0
  Y  Y1488  1  0.60254733  0.27110920  0.35857430  1.0
  Y  Y1489  1  0.60254733  0.60444253  0.35857430  1.0
  Y  Y1490  1  0.60254733  0.93777587  0.35857430  1.0
  Y  Y1491  1  0.93588067  0.27110920  0.35857430  1.0
  Y  Y1492  1  0.93588067  0.60444253  0.35857430  1.0
  Y  Y1493  1  0.93588067  0.93777587  0.35857430  1.0
  Y  Y1494  1  0.23078600  0.03777587  0.25857430  1.0
  Y  Y1495  1  0.23078600  0.37110920  0.25857430  1.0
  Y  Y1496  1  0.23078600  0.70444253  0.25857430  1.0
  Y  Y1497  1  0.56411933  0.03777587  0.25857430  1.0
  Y  Y1498  1  0.56411933  0.37110920  0.25857430  1.0
  Y  Y1499  1  0.56411933  0.70444253  0.25857430  1.0
  Y  Y1500  1  0.89745267  0.03777587  0.25857430  1.0
  Y  Y1501  1  0.89745267  0.37110920  0.25857430  1.0
  Y  Y1502  1  0.89745267  0.70444253  0.25857430  1.0
  Y  Y1503  1  0.06411933  0.27110920  0.35857430  1.0
  Y  Y1504  1  0.06411933  0.60444253  0.35857430  1.0
  Y  Y1505  1  0.06411933  0.93777587  0.35857430  1.0
  Y  Y1506  1  0.39745267  0.27110920  0.35857430  1.0
  Y  Y1507  1  0.39745267  0.60444253  0.35857430  1.0
  Y  Y1508  1  0.39745267  0.93777587  0.35857430  1.0
  Y  Y1509  1  0.73078600  0.27110920  0.35857430  1.0
  Y  Y1510  1  0.73078600  0.60444253  0.35857430  1.0
  Y  Y1511  1  0.73078600  0.93777587  0.35857430  1.0
  Y  Y1512  1  0.33333333  0.05575093  0.39704590  1.0
  Y  Y1513  1  0.33333333  0.38908427  0.39704590  1.0
  Y  Y1514  1  0.33333333  0.72241760  0.39704590  1.0
  Y  Y1515  1  0.66666667  0.05575093  0.39704590  1.0
  Y  Y1516  1  0.66666667  0.38908427  0.39704590  1.0
  Y  Y1517  1  0.66666667  0.72241760  0.39704590  1.0
  Y  Y1518  1  1.00000000  0.05575093  0.39704590  1.0
  Y  Y1519  1  1.00000000  0.38908427  0.39704590  1.0
  Y  Y1520  1  1.00000000  0.72241760  0.39704590  1.0
  Y  Y1521  1  0.16666667  0.15575093  0.29704590  1.0
  Y  Y1522  1  0.16666667  0.48908427  0.29704590  1.0
  Y  Y1523  1  0.16666667  0.82241760  0.29704590  1.0
  Y  Y1524  1  0.50000000  0.15575093  0.29704590  1.0
  Y  Y1525  1  0.50000000  0.48908427  0.29704590  1.0
  Y  Y1526  1  0.50000000  0.82241760  0.29704590  1.0
  Y  Y1527  1  0.83333333  0.15575093  0.29704590  1.0
  Y  Y1528  1  0.83333333  0.48908427  0.29704590  1.0
  Y  Y1529  1  0.83333333  0.82241760  0.29704590  1.0
  Y  Y1530  1  0.33333333  0.32339840  0.29851710  1.0
  Y  Y1531  1  0.33333333  0.65673173  0.29851710  1.0
  Y  Y1532  1  0.33333333  0.99006507  0.29851710  1.0
  Y  Y1533  1  0.66666667  0.32339840  0.29851710  1.0
  Y  Y1534  1  0.66666667  0.65673173  0.29851710  1.0
  Y  Y1535  1  0.66666667  0.99006507  0.29851710  1.0
  Y  Y1536  1  1.00000000  0.32339840  0.29851710  1.0
  Y  Y1537  1  1.00000000  0.65673173  0.29851710  1.0
  Y  Y1538  1  1.00000000  0.99006507  0.29851710  1.0
  Y  Y1539  1  0.16666667  0.22339840  0.39851710  1.0
  Y  Y1540  1  0.16666667  0.55673173  0.39851710  1.0
  Y  Y1541  1  0.16666667  0.89006507  0.39851710  1.0
  Y  Y1542  1  0.50000000  0.22339840  0.39851710  1.0
  Y  Y1543  1  0.50000000  0.55673173  0.39851710  1.0
  Y  Y1544  1  0.50000000  0.89006507  0.39851710  1.0
  Y  Y1545  1  0.83333333  0.22339840  0.39851710  1.0
  Y  Y1546  1  0.83333333  0.55673173  0.39851710  1.0
  Y  Y1547  1  0.83333333  0.89006507  0.39851710  1.0
  Y  Y1548  1  0.24877400  0.10648653  0.34631030  1.0
  Y  Y1549  1  0.24877400  0.43981987  0.34631030  1.0
  Y  Y1550  1  0.24877400  0.77315320  0.34631030  1.0
  Y  Y1551  1  0.58210733  0.10648653  0.34631030  1.0
  Y  Y1552  1  0.58210733  0.43981987  0.34631030  1.0
  Y  Y1553  1  0.58210733  0.77315320  0.34631030  1.0
  Y  Y1554  1  0.91544067  0.10648653  0.34631030  1.0
  Y  Y1555  1  0.91544067  0.43981987  0.34631030  1.0
  Y  Y1556  1  0.91544067  0.77315320  0.34631030  1.0
  Y  Y1557  1  0.08210733  0.20648653  0.24631030  1.0
  Y  Y1558  1  0.08210733  0.53981987  0.24631030  1.0
  Y  Y1559  1  0.08210733  0.87315320  0.24631030  1.0
  Y  Y1560  1  0.41544067  0.20648653  0.24631030  1.0
  Y  Y1561  1  0.41544067  0.53981987  0.24631030  1.0
  Y  Y1562  1  0.41544067  0.87315320  0.24631030  1.0
  Y  Y1563  1  0.74877400  0.20648653  0.24631030  1.0
  Y  Y1564  1  0.74877400  0.53981987  0.24631030  1.0
  Y  Y1565  1  0.74877400  0.87315320  0.24631030  1.0
  Y  Y1566  1  0.08455933  0.10648653  0.34631030  1.0
  Y  Y1567  1  0.08455933  0.43981987  0.34631030  1.0
  Y  Y1568  1  0.08455933  0.77315320  0.34631030  1.0
  Y  Y1569  1  0.41789267  0.10648653  0.34631030  1.0
  Y  Y1570  1  0.41789267  0.43981987  0.34631030  1.0
  Y  Y1571  1  0.41789267  0.77315320  0.34631030  1.0
  Y  Y1572  1  0.75122600  0.10648653  0.34631030  1.0
  Y  Y1573  1  0.75122600  0.43981987  0.34631030  1.0
  Y  Y1574  1  0.75122600  0.77315320  0.34631030  1.0
  Y  Y1575  1  0.25122600  0.20648653  0.24631030  1.0
  Y  Y1576  1  0.25122600  0.53981987  0.24631030  1.0
  Y  Y1577  1  0.25122600  0.87315320  0.24631030  1.0
  Y  Y1578  1  0.58455933  0.20648653  0.24631030  1.0
  Y  Y1579  1  0.58455933  0.53981987  0.24631030  1.0
  Y  Y1580  1  0.58455933  0.87315320  0.24631030  1.0
  Y  Y1581  1  0.91789267  0.20648653  0.24631030  1.0
  Y  Y1582  1  0.91789267  0.53981987  0.24631030  1.0
  Y  Y1583  1  0.91789267  0.87315320  0.24631030  1.0
  Y  Y1584  1  0.25503767  0.07934887  0.24402330  1.0
  Y  Y1585  1  0.25503767  0.41268220  0.24402330  1.0
  Y  Y1586  1  0.25503767  0.74601553  0.24402330  1.0
  Y  Y1587  1  0.58837100  0.07934887  0.24402330  1.0
  Y  Y1588  1  0.58837100  0.41268220  0.24402330  1.0
  Y  Y1589  1  0.58837100  0.74601553  0.24402330  1.0
  Y  Y1590  1  0.92170433  0.07934887  0.24402330  1.0
  Y  Y1591  1  0.92170433  0.41268220  0.24402330  1.0
  Y  Y1592  1  0.92170433  0.74601553  0.24402330  1.0
  Y  Y1593  1  0.08837100  0.31268220  0.34402330  1.0
  Y  Y1594  1  0.08837100  0.64601553  0.34402330  1.0
  Y  Y1595  1  0.08837100  0.97934887  0.34402330  1.0
  Y  Y1596  1  0.42170433  0.31268220  0.34402330  1.0
  Y  Y1597  1  0.42170433  0.64601553  0.34402330  1.0
  Y  Y1598  1  0.42170433  0.97934887  0.34402330  1.0
  Y  Y1599  1  0.75503767  0.31268220  0.34402330  1.0
  Y  Y1600  1  0.75503767  0.64601553  0.34402330  1.0
  Y  Y1601  1  0.75503767  0.97934887  0.34402330  1.0
  Y  Y1602  1  0.07829567  0.07934887  0.24402330  1.0
  Y  Y1603  1  0.07829567  0.41268220  0.24402330  1.0
  Y  Y1604  1  0.07829567  0.74601553  0.24402330  1.0
  Y  Y1605  1  0.41162900  0.07934887  0.24402330  1.0
  Y  Y1606  1  0.41162900  0.41268220  0.24402330  1.0
  Y  Y1607  1  0.41162900  0.74601553  0.24402330  1.0
  Y  Y1608  1  0.74496233  0.07934887  0.24402330  1.0
  Y  Y1609  1  0.74496233  0.41268220  0.24402330  1.0
  Y  Y1610  1  0.74496233  0.74601553  0.24402330  1.0
  Y  Y1611  1  0.24496233  0.31268220  0.34402330  1.0
  Y  Y1612  1  0.24496233  0.64601553  0.34402330  1.0
  Y  Y1613  1  0.24496233  0.97934887  0.34402330  1.0
  Y  Y1614  1  0.57829567  0.31268220  0.34402330  1.0
  Y  Y1615  1  0.57829567  0.64601553  0.34402330  1.0
  Y  Y1616  1  0.57829567  0.97934887  0.34402330  1.0
  Y  Y1617  1  0.91162900  0.31268220  0.34402330  1.0
  Y  Y1618  1  0.91162900  0.64601553  0.34402330  1.0
  Y  Y1619  1  0.91162900  0.97934887  0.34402330  1.0
  Y  Y1620  1  0.33333333  0.19702307  0.30309110  1.0
  Y  Y1621  1  0.33333333  0.53035640  0.30309110  1.0
  Y  Y1622  1  0.33333333  0.86368973  0.30309110  1.0
  Y  Y1623  1  0.66666667  0.19702307  0.30309110  1.0
  Y  Y1624  1  0.66666667  0.53035640  0.30309110  1.0
  Y  Y1625  1  0.66666667  0.86368973  0.30309110  1.0
  Y  Y1626  1  1.00000000  0.19702307  0.30309110  1.0
  Y  Y1627  1  1.00000000  0.53035640  0.30309110  1.0
  Y  Y1628  1  1.00000000  0.86368973  0.30309110  1.0
  Y  Y1629  1  0.16666667  0.29702307  0.20309110  1.0
  Y  Y1630  1  0.16666667  0.63035640  0.20309110  1.0
  Y  Y1631  1  0.16666667  0.96368973  0.20309110  1.0
  Y  Y1632  1  0.50000000  0.29702307  0.20309110  1.0
  Y  Y1633  1  0.50000000  0.63035640  0.20309110  1.0
  Y  Y1634  1  0.50000000  0.96368973  0.20309110  1.0
  Y  Y1635  1  0.83333333  0.29702307  0.20309110  1.0
  Y  Y1636  1  0.83333333  0.63035640  0.20309110  1.0
  Y  Y1637  1  0.83333333  0.96368973  0.20309110  1.0
  Y  Y1638  1  0.07829567  0.15004567  0.35006850  1.0
  Y  Y1639  1  0.07829567  0.48337900  0.35006850  1.0
  Y  Y1640  1  0.07829567  0.81671233  0.35006850  1.0
  Y  Y1641  1  0.41162900  0.15004567  0.35006850  1.0
  Y  Y1642  1  0.41162900  0.48337900  0.35006850  1.0
  Y  Y1643  1  0.41162900  0.81671233  0.35006850  1.0
  Y  Y1644  1  0.74496233  0.15004567  0.35006850  1.0
  Y  Y1645  1  0.74496233  0.48337900  0.35006850  1.0
  Y  Y1646  1  0.74496233  0.81671233  0.35006850  1.0
  Y  Y1647  1  0.24496233  0.25004567  0.25006850  1.0
  Y  Y1648  1  0.24496233  0.58337900  0.25006850  1.0
  Y  Y1649  1  0.24496233  0.91671233  0.25006850  1.0
  Y  Y1650  1  0.57829567  0.25004567  0.25006850  1.0
  Y  Y1651  1  0.57829567  0.58337900  0.25006850  1.0
  Y  Y1652  1  0.57829567  0.91671233  0.25006850  1.0
  Y  Y1653  1  0.91162900  0.25004567  0.25006850  1.0
  Y  Y1654  1  0.91162900  0.58337900  0.25006850  1.0
  Y  Y1655  1  0.91162900  0.91671233  0.25006850  1.0
  Y  Y1656  1  0.25503767  0.15004567  0.35006850  1.0
  Y  Y1657  1  0.25503767  0.48337900  0.35006850  1.0
  Y  Y1658  1  0.25503767  0.81671233  0.35006850  1.0
  Y  Y1659  1  0.58837100  0.15004567  0.35006850  1.0
  Y  Y1660  1  0.58837100  0.48337900  0.35006850  1.0
  Y  Y1661  1  0.58837100  0.81671233  0.35006850  1.0
  Y  Y1662  1  0.92170433  0.15004567  0.35006850  1.0
  Y  Y1663  1  0.92170433  0.48337900  0.35006850  1.0
  Y  Y1664  1  0.92170433  0.81671233  0.35006850  1.0
  Y  Y1665  1  0.08837100  0.25004567  0.25006850  1.0
  Y  Y1666  1  0.08837100  0.58337900  0.25006850  1.0
  Y  Y1667  1  0.08837100  0.91671233  0.25006850  1.0
  Y  Y1668  1  0.42170433  0.25004567  0.25006850  1.0
  Y  Y1669  1  0.42170433  0.58337900  0.25006850  1.0
  Y  Y1670  1  0.42170433  0.91671233  0.25006850  1.0
  Y  Y1671  1  0.75503767  0.25004567  0.25006850  1.0
  Y  Y1672  1  0.75503767  0.58337900  0.25006850  1.0
  Y  Y1673  1  0.75503767  0.91671233  0.25006850  1.0
  Y  Y1674  1  0.33333333  0.03237147  0.29100070  1.0
  Y  Y1675  1  0.33333333  0.36570480  0.29100070  1.0
  Y  Y1676  1  0.33333333  0.69903813  0.29100070  1.0
  Y  Y1677  1  0.66666667  0.03237147  0.29100070  1.0
  Y  Y1678  1  0.66666667  0.36570480  0.29100070  1.0
  Y  Y1679  1  0.66666667  0.69903813  0.29100070  1.0
  Y  Y1680  1  1.00000000  0.03237147  0.29100070  1.0
  Y  Y1681  1  1.00000000  0.36570480  0.29100070  1.0
  Y  Y1682  1  0.00000000  0.69903813  0.29100070  1.0
  Y  Y1683  1  0.16666667  0.26570480  0.39100070  1.0
  Y  Y1684  1  0.16666667  0.59903813  0.39100070  1.0
  Y  Y1685  1  0.16666667  0.93237147  0.39100070  1.0
  Y  Y1686  1  0.50000000  0.26570480  0.39100070  1.0
  Y  Y1687  1  0.50000000  0.59903813  0.39100070  1.0
  Y  Y1688  1  0.50000000  0.93237147  0.39100070  1.0
  Y  Y1689  1  0.83333333  0.26570480  0.39100070  1.0
  Y  Y1690  1  0.83333333  0.59903813  0.39100070  1.0
  Y  Y1691  1  0.83333333  0.93237147  0.39100070  1.0
