# generated using pymatgen
data_Y2Ni17
_symmetry_space_group_name_H-M   'P 1'
_cell_length_a   34.51430510
_cell_length_b   49.16365639
_cell_length_c   26.02253013
_cell_angle_alpha   81.33366136
_cell_angle_beta   82.72832964
_cell_angle_gamma   78.40521862
_symmetry_Int_Tables_number   1
_chemical_formula_structural   Y2Ni17
_chemical_formula_sum   'Y144 Ni1224'
_cell_volume   42549.47665164
_cell_formula_units_Z   72
loop_
 _symmetry_equiv_pos_site_id
 _symmetry_equiv_pos_as_xyz
  1  'x, y, z'
loop_
 _atom_site_type_symbol
 _atom_site_label
 _atom_site_symmetry_multiplicity
 _atom_site_fract_x
 _atom_site_fract_y
 _atom_site_fract_z
 _atom_site_occupancy
  Ni  Ni0  1  0.22212704  0.17061136  0.05170605  1.0
  Ni  Ni1  1  0.22212704  0.50394469  0.05170605  1.0
  Ni  Ni2  1  0.22212704  0.83727802  0.05170605  1.0
  Ni  Ni3  1  0.55546037  0.17061136  0.05170605  1.0
  Ni  Ni4  1  0.55546037  0.50394469  0.05170605  1.0
  Ni  Ni5  1  0.55546037  0.83727802  0.05170605  1.0
  Ni  Ni6  1  0.88879371  0.17061136  0.05170605  1.0
  Ni  Ni7  1  0.88879371  0.50394469  0.05170605  1.0
  Ni  Ni8  1  0.88879371  0.83727802  0.05170605  1.0
  Ni  Ni9  1  0.02212704  0.27061136  0.15170605  1.0
  Ni  Ni10  1  0.02212704  0.60394469  0.15170605  1.0
  Ni  Ni11  1  0.02212704  0.93727802  0.15170605  1.0
  Ni  Ni12  1  0.35546037  0.27061136  0.15170605  1.0
  Ni  Ni13  1  0.35546037  0.60394469  0.15170605  1.0
  Ni  Ni14  1  0.35546037  0.93727802  0.15170605  1.0
  Ni  Ni15  1  0.68879371  0.27061136  0.15170605  1.0
  Ni  Ni16  1  0.68879371  0.60394469  0.15170605  1.0
  Ni  Ni17  1  0.68879371  0.93727802  0.15170605  1.0
  Ni  Ni18  1  0.04765731  0.03562400  0.13894092  1.0
  Ni  Ni19  1  0.04765731  0.36895733  0.13894092  1.0
  Ni  Ni20  1  0.04765731  0.70229067  0.13894092  1.0
  Ni  Ni21  1  0.38099064  0.03562400  0.13894092  1.0
  Ni  Ni22  1  0.38099064  0.36895733  0.13894092  1.0
  Ni  Ni23  1  0.38099064  0.70229067  0.13894092  1.0
  Ni  Ni24  1  0.71432397  0.03562400  0.13894092  1.0
  Ni  Ni25  1  0.71432397  0.36895733  0.13894092  1.0
  Ni  Ni26  1  0.71432397  0.70229067  0.13894092  1.0
  Ni  Ni27  1  0.24765731  0.26895733  0.03894092  1.0
  Ni  Ni28  1  0.24765731  0.60229067  0.03894092  1.0
  Ni  Ni29  1  0.24765731  0.93562400  0.03894092  1.0
  Ni  Ni30  1  0.58099064  0.26895733  0.03894092  1.0
  Ni  Ni31  1  0.58099064  0.60229067  0.03894092  1.0
  Ni  Ni32  1  0.58099064  0.93562400  0.03894092  1.0
  Ni  Ni33  1  0.91432397  0.26895733  0.03894092  1.0
  Ni  Ni34  1  0.91432397  0.60229067  0.03894092  1.0
  Ni  Ni35  1  0.91432397  0.93562400  0.03894092  1.0
  Ni  Ni36  1  0.32212704  0.06505580  0.16837272  1.0
  Ni  Ni37  1  0.32212704  0.39838913  0.16837272  1.0
  Ni  Ni38  1  0.32212704  0.73172247  0.16837272  1.0
  Ni  Ni39  1  0.65546037  0.06505580  0.16837272  1.0
  Ni  Ni40  1  0.65546037  0.39838913  0.16837272  1.0
  Ni  Ni41  1  0.65546037  0.73172247  0.16837272  1.0
  Ni  Ni42  1  0.98879371  0.06505580  0.16837272  1.0
  Ni  Ni43  1  0.98879371  0.39838913  0.16837272  1.0
  Ni  Ni44  1  0.98879371  0.73172247  0.16837272  1.0
  Ni  Ni45  1  0.18879371  0.29838913  0.06837272  1.0
  Ni  Ni46  1  0.18879371  0.63172247  0.06837272  1.0
  Ni  Ni47  1  0.18879371  0.96505580  0.06837272  1.0
  Ni  Ni48  1  0.52212704  0.29838913  0.06837272  1.0
  Ni  Ni49  1  0.52212704  0.63172247  0.06837272  1.0
  Ni  Ni50  1  0.52212704  0.96505580  0.06837272  1.0
  Ni  Ni51  1  0.85546037  0.29838913  0.06837272  1.0
  Ni  Ni52  1  0.85546037  0.63172247  0.06837272  1.0
  Ni  Ni53  1  0.85546037  0.96505580  0.06837272  1.0
  Ni  Ni54  1  0.28099064  0.14117956  0.02227425  1.0
  Ni  Ni55  1  0.28099064  0.47451289  0.02227425  1.0
  Ni  Ni56  1  0.28099064  0.80784622  0.02227425  1.0
  Ni  Ni57  1  0.61432397  0.14117956  0.02227425  1.0
  Ni  Ni58  1  0.61432397  0.47451289  0.02227425  1.0
  Ni  Ni59  1  0.61432397  0.80784622  0.02227425  1.0
  Ni  Ni60  1  0.94765731  0.14117956  0.02227425  1.0
  Ni  Ni61  1  0.94765731  0.47451289  0.02227425  1.0
  Ni  Ni62  1  0.94765731  0.80784622  0.02227425  1.0
  Ni  Ni63  1  0.08099064  0.24117956  0.12227425  1.0
  Ni  Ni64  1  0.08099064  0.57451289  0.12227425  1.0
  Ni  Ni65  1  0.08099064  0.90784622  0.12227425  1.0
  Ni  Ni66  1  0.41432397  0.24117956  0.12227425  1.0
  Ni  Ni67  1  0.41432397  0.57451289  0.12227425  1.0
  Ni  Ni68  1  0.41432397  0.90784622  0.12227425  1.0
  Ni  Ni69  1  0.74765731  0.24117956  0.12227425  1.0
  Ni  Ni70  1  0.74765731  0.57451289  0.12227425  1.0
  Ni  Ni71  1  0.74765731  0.90784622  0.12227425  1.0
  Ni  Ni72  1  0.30155884  0.26978434  0.09532348  1.0
  Ni  Ni73  1  0.30155884  0.60311768  0.09532348  1.0
  Ni  Ni74  1  0.30155884  0.93645101  0.09532348  1.0
  Ni  Ni75  1  0.63489217  0.26978434  0.09532348  1.0
  Ni  Ni76  1  0.63489217  0.60311768  0.09532348  1.0
  Ni  Ni77  1  0.63489217  0.93645101  0.09532348  1.0
  Ni  Ni78  1  0.96822551  0.26978434  0.09532348  1.0
  Ni  Ni79  1  0.96822551  0.60311768  0.09532348  1.0
  Ni  Ni80  1  0.96822551  0.93645101  0.09532348  1.0
  Ni  Ni81  1  0.10155884  0.03645101  0.19532348  1.0
  Ni  Ni82  1  0.10155884  0.36978434  0.19532348  1.0
  Ni  Ni83  1  0.10155884  0.70311768  0.19532348  1.0
  Ni  Ni84  1  0.43489217  0.03645101  0.19532348  1.0
  Ni  Ni85  1  0.43489217  0.36978434  0.19532348  1.0
  Ni  Ni86  1  0.43489217  0.70311768  0.19532348  1.0
  Ni  Ni87  1  0.76822551  0.03645101  0.19532348  1.0
  Ni  Ni88  1  0.76822551  0.36978434  0.19532348  1.0
  Ni  Ni89  1  0.76822551  0.70311768  0.19532348  1.0
  Ni  Ni90  1  0.06822551  0.05311768  0.04532348  1.0
  Ni  Ni91  1  0.06822551  0.38645101  0.04532348  1.0
  Ni  Ni92  1  0.06822551  0.71978434  0.04532348  1.0
  Ni  Ni93  1  0.40155884  0.05311768  0.04532348  1.0
  Ni  Ni94  1  0.40155884  0.38645101  0.04532348  1.0
  Ni  Ni95  1  0.40155884  0.71978434  0.04532348  1.0
  Ni  Ni96  1  0.73489217  0.05311768  0.04532348  1.0
  Ni  Ni97  1  0.73489217  0.38645101  0.04532348  1.0
  Ni  Ni98  1  0.73489217  0.71978434  0.04532348  1.0
  Ni  Ni99  1  0.20155884  0.15311768  0.14532348  1.0
  Ni  Ni100  1  0.20155884  0.48645101  0.14532348  1.0
  Ni  Ni101  1  0.20155884  0.81978434  0.14532348  1.0
  Ni  Ni102  1  0.53489217  0.15311768  0.14532348  1.0
  Ni  Ni103  1  0.53489217  0.48645101  0.14532348  1.0
  Ni  Ni104  1  0.53489217  0.81978434  0.14532348  1.0
  Ni  Ni105  1  0.86822551  0.15311768  0.14532348  1.0
  Ni  Ni106  1  0.86822551  0.48645101  0.14532348  1.0
  Ni  Ni107  1  0.86822551  0.81978434  0.14532348  1.0
  Ni  Ni108  1  0.03489217  0.31978434  0.14532348  1.0
  Ni  Ni109  1  0.03489217  0.65311768  0.14532348  1.0
  Ni  Ni110  1  0.03489217  0.98645101  0.14532348  1.0
  Ni  Ni111  1  0.36822551  0.31978434  0.14532348  1.0
  Ni  Ni112  1  0.36822551  0.65311768  0.14532348  1.0
  Ni  Ni113  1  0.36822551  0.98645101  0.14532348  1.0
  Ni  Ni114  1  0.70155884  0.31978434  0.14532348  1.0
  Ni  Ni115  1  0.70155884  0.65311768  0.14532348  1.0
  Ni  Ni116  1  0.70155884  0.98645101  0.14532348  1.0
  Ni  Ni117  1  0.23489217  0.21978434  0.04532348  1.0
  Ni  Ni118  1  0.23489217  0.55311768  0.04532348  1.0
  Ni  Ni119  1  0.23489217  0.88645101  0.04532348  1.0
  Ni  Ni120  1  0.56822551  0.21978434  0.04532348  1.0
  Ni  Ni121  1  0.56822551  0.55311768  0.04532348  1.0
  Ni  Ni122  1  0.56822551  0.88645101  0.04532348  1.0
  Ni  Ni123  1  0.90155884  0.21978434  0.04532348  1.0
  Ni  Ni124  1  0.90155884  0.55311768  0.04532348  1.0
  Ni  Ni125  1  0.90155884  0.88645101  0.04532348  1.0
  Ni  Ni126  1  0.20155884  0.31978434  0.14532348  1.0
  Ni  Ni127  1  0.20155884  0.65311768  0.14532348  1.0
  Ni  Ni128  1  0.20155884  0.98645101  0.14532348  1.0
  Ni  Ni129  1  0.53489217  0.31978434  0.14532348  1.0
  Ni  Ni130  1  0.53489217  0.65311768  0.14532348  1.0
  Ni  Ni131  1  0.53489217  0.98645101  0.14532348  1.0
  Ni  Ni132  1  0.86822551  0.31978434  0.14532348  1.0
  Ni  Ni133  1  0.86822551  0.65311768  0.14532348  1.0
  Ni  Ni134  1  0.86822551  0.98645101  0.14532348  1.0
  Ni  Ni135  1  0.06822551  0.21978434  0.04532348  1.0
  Ni  Ni136  1  0.06822551  0.55311768  0.04532348  1.0
  Ni  Ni137  1  0.06822551  0.88645101  0.04532348  1.0
  Ni  Ni138  1  0.40155884  0.21978434  0.04532348  1.0
  Ni  Ni139  1  0.40155884  0.55311768  0.04532348  1.0
  Ni  Ni140  1  0.40155884  0.88645101  0.04532348  1.0
  Ni  Ni141  1  0.73489217  0.21978434  0.04532348  1.0
  Ni  Ni142  1  0.73489217  0.55311768  0.04532348  1.0
  Ni  Ni143  1  0.73489217  0.88645101  0.04532348  1.0
  Ni  Ni144  1  0.30155884  0.10311768  0.09532348  1.0
  Ni  Ni145  1  0.30155884  0.43645101  0.09532348  1.0
  Ni  Ni146  1  0.30155884  0.76978434  0.09532348  1.0
  Ni  Ni147  1  0.63489217  0.10311768  0.09532348  1.0
  Ni  Ni148  1  0.63489217  0.43645101  0.09532348  1.0
  Ni  Ni149  1  0.63489217  0.76978434  0.09532348  1.0
  Ni  Ni150  1  0.96822551  0.10311768  0.09532348  1.0
  Ni  Ni151  1  0.96822551  0.43645101  0.09532348  1.0
  Ni  Ni152  1  0.96822551  0.76978434  0.09532348  1.0
  Ni  Ni153  1  0.10155884  0.20311768  0.19532348  1.0
  Ni  Ni154  1  0.10155884  0.53645101  0.19532348  1.0
  Ni  Ni155  1  0.10155884  0.86978434  0.19532348  1.0
  Ni  Ni156  1  0.43489217  0.20311768  0.19532348  1.0
  Ni  Ni157  1  0.43489217  0.53645101  0.19532348  1.0
  Ni  Ni158  1  0.43489217  0.86978434  0.19532348  1.0
  Ni  Ni159  1  0.76822551  0.20311768  0.19532348  1.0
  Ni  Ni160  1  0.76822551  0.53645101  0.19532348  1.0
  Ni  Ni161  1  0.76822551  0.86978434  0.19532348  1.0
  Ni  Ni162  1  0.26822551  0.03645101  0.19532348  1.0
  Ni  Ni163  1  0.26822551  0.36978434  0.19532348  1.0
  Ni  Ni164  1  0.26822551  0.70311768  0.19532348  1.0
  Ni  Ni165  1  0.60155884  0.03645101  0.19532348  1.0
  Ni  Ni166  1  0.60155884  0.36978434  0.19532348  1.0
  Ni  Ni167  1  0.60155884  0.70311768  0.19532348  1.0
  Ni  Ni168  1  0.93489217  0.03645101  0.19532348  1.0
  Ni  Ni169  1  0.93489217  0.36978434  0.19532348  1.0
  Ni  Ni170  1  0.93489217  0.70311768  0.19532348  1.0
  Ni  Ni171  1  0.13489217  0.26978434  0.09532348  1.0
  Ni  Ni172  1  0.13489217  0.60311768  0.09532348  1.0
  Ni  Ni173  1  0.13489217  0.93645101  0.09532348  1.0
  Ni  Ni174  1  0.46822551  0.26978434  0.09532348  1.0
  Ni  Ni175  1  0.46822551  0.60311768  0.09532348  1.0
  Ni  Ni176  1  0.46822551  0.93645101  0.09532348  1.0
  Ni  Ni177  1  0.80155884  0.26978434  0.09532348  1.0
  Ni  Ni178  1  0.80155884  0.60311768  0.09532348  1.0
  Ni  Ni179  1  0.80155884  0.93645101  0.09532348  1.0
  Ni  Ni180  1  0.16597491  0.03295714  0.14905328  1.0
  Ni  Ni181  1  0.16597491  0.36629048  0.14905328  1.0
  Ni  Ni182  1  0.16597491  0.69962381  0.14905328  1.0
  Ni  Ni183  1  0.49930824  0.03295714  0.14905328  1.0
  Ni  Ni184  1  0.49930824  0.36629048  0.14905328  1.0
  Ni  Ni185  1  0.49930824  0.69962381  0.14905328  1.0
  Ni  Ni186  1  0.83264157  0.03295714  0.14905328  1.0
  Ni  Ni187  1  0.83264157  0.36629048  0.14905328  1.0
  Ni  Ni188  1  0.83264157  0.69962381  0.14905328  1.0
  Ni  Ni189  1  0.03264157  0.26629048  0.04905328  1.0
  Ni  Ni190  1  0.03264157  0.59962381  0.04905328  1.0
  Ni  Ni191  1  0.03264157  0.93295714  0.04905328  1.0
  Ni  Ni192  1  0.36597491  0.26629048  0.04905328  1.0
  Ni  Ni193  1  0.36597491  0.59962381  0.04905328  1.0
  Ni  Ni194  1  0.36597491  0.93295714  0.04905328  1.0
  Ni  Ni195  1  0.69930824  0.26629048  0.04905328  1.0
  Ni  Ni196  1  0.69930824  0.59962381  0.04905328  1.0
  Ni  Ni197  1  0.69930824  0.93295714  0.04905328  1.0
  Ni  Ni198  1  0.23151791  0.11674998  0.09430378  1.0
  Ni  Ni199  1  0.23151791  0.45008331  0.09430378  1.0
  Ni  Ni200  1  0.23151791  0.78341664  0.09430378  1.0
  Ni  Ni201  1  0.56485124  0.11674998  0.09430378  1.0
  Ni  Ni202  1  0.56485124  0.45008331  0.09430378  1.0
  Ni  Ni203  1  0.56485124  0.78341664  0.09430378  1.0
  Ni  Ni204  1  0.89818457  0.11674998  0.09430378  1.0
  Ni  Ni205  1  0.89818457  0.45008331  0.09430378  1.0
  Ni  Ni206  1  0.89818457  0.78341664  0.09430378  1.0
  Ni  Ni207  1  0.03151791  0.21674998  0.19430378  1.0
  Ni  Ni208  1  0.03151791  0.55008331  0.19430378  1.0
  Ni  Ni209  1  0.03151791  0.88341664  0.19430378  1.0
  Ni  Ni210  1  0.36485124  0.21674998  0.19430378  1.0
  Ni  Ni211  1  0.36485124  0.55008331  0.19430378  1.0
  Ni  Ni212  1  0.36485124  0.88341664  0.19430378  1.0
  Ni  Ni213  1  0.69818457  0.21674998  0.19430378  1.0
  Ni  Ni214  1  0.69818457  0.55008331  0.19430378  1.0
  Ni  Ni215  1  0.69818457  0.88341664  0.19430378  1.0
  Ni  Ni216  1  0.29051704  0.18464591  0.06761338  1.0
  Ni  Ni217  1  0.29051704  0.51797924  0.06761338  1.0
  Ni  Ni218  1  0.29051704  0.85131258  0.06761338  1.0
  Ni  Ni219  1  0.62385037  0.18464591  0.06761338  1.0
  Ni  Ni220  1  0.62385037  0.51797924  0.06761338  1.0
  Ni  Ni221  1  0.62385037  0.85131258  0.06761338  1.0
  Ni  Ni222  1  0.95718371  0.18464591  0.06761338  1.0
  Ni  Ni223  1  0.95718371  0.51797924  0.06761338  1.0
  Ni  Ni224  1  0.95718371  0.85131258  0.06761338  1.0
  Ni  Ni225  1  0.09051704  0.28464591  0.16761338  1.0
  Ni  Ni226  1  0.09051704  0.61797924  0.16761338  1.0
  Ni  Ni227  1  0.09051704  0.95131258  0.16761338  1.0
  Ni  Ni228  1  0.42385037  0.28464591  0.16761338  1.0
  Ni  Ni229  1  0.42385037  0.61797924  0.16761338  1.0
  Ni  Ni230  1  0.42385037  0.95131258  0.16761338  1.0
  Ni  Ni231  1  0.75718371  0.28464591  0.16761338  1.0
  Ni  Ni232  1  0.75718371  0.61797924  0.16761338  1.0
  Ni  Ni233  1  0.75718371  0.95131258  0.16761338  1.0
  Ni  Ni234  1  0.21260064  0.12620861  0.00917608  1.0
  Ni  Ni235  1  0.21260064  0.45954194  0.00917608  1.0
  Ni  Ni236  1  0.21260064  0.79287528  0.00917608  1.0
  Ni  Ni237  1  0.54593397  0.12620861  0.00917608  1.0
  Ni  Ni238  1  0.54593397  0.45954194  0.00917608  1.0
  Ni  Ni239  1  0.54593397  0.79287528  0.00917608  1.0
  Ni  Ni240  1  0.87926731  0.12620861  0.00917608  1.0
  Ni  Ni241  1  0.87926731  0.45954194  0.00917608  1.0
  Ni  Ni242  1  0.87926731  0.79287528  0.00917608  1.0
  Ni  Ni243  1  0.01260064  0.22620861  0.10917608  1.0
  Ni  Ni244  1  0.01260064  0.55954194  0.10917608  1.0
  Ni  Ni245  1  0.01260064  0.89287528  0.10917608  1.0
  Ni  Ni246  1  0.34593397  0.22620861  0.10917608  1.0
  Ni  Ni247  1  0.34593397  0.55954194  0.10917608  1.0
  Ni  Ni248  1  0.34593397  0.89287528  0.10917608  1.0
  Ni  Ni249  1  0.67926731  0.22620861  0.10917608  1.0
  Ni  Ni250  1  0.67926731  0.55954194  0.10917608  1.0
  Ni  Ni251  1  0.67926731  0.89287528  0.10917608  1.0
  Ni  Ni252  1  0.20380944  0.06133304  0.17742918  1.0
  Ni  Ni253  1  0.20380944  0.39466638  0.17742918  1.0
  Ni  Ni254  1  0.20380944  0.72799971  0.17742918  1.0
  Ni  Ni255  1  0.53714277  0.06133304  0.17742918  1.0
  Ni  Ni256  1  0.53714277  0.39466638  0.17742918  1.0
  Ni  Ni257  1  0.53714277  0.72799971  0.17742918  1.0
  Ni  Ni258  1  0.87047611  0.06133304  0.17742918  1.0
  Ni  Ni259  1  0.87047611  0.39466638  0.17742918  1.0
  Ni  Ni260  1  0.87047611  0.72799971  0.17742918  1.0
  Ni  Ni261  1  0.07047611  0.29466638  0.07742918  1.0
  Ni  Ni262  1  0.07047611  0.62799971  0.07742918  1.0
  Ni  Ni263  1  0.07047611  0.96133304  0.07742918  1.0
  Ni  Ni264  1  0.40380944  0.29466638  0.07742918  1.0
  Ni  Ni265  1  0.40380944  0.62799971  0.07742918  1.0
  Ni  Ni266  1  0.40380944  0.96133304  0.07742918  1.0
  Ni  Ni267  1  0.73714277  0.29466638  0.07742918  1.0
  Ni  Ni268  1  0.73714277  0.62799971  0.07742918  1.0
  Ni  Ni269  1  0.73714277  0.96133304  0.07742918  1.0
  Ni  Ni270  1  0.27159977  0.14681138  0.12436518  1.0
  Ni  Ni271  1  0.27159977  0.48014471  0.12436518  1.0
  Ni  Ni272  1  0.27159977  0.81347804  0.12436518  1.0
  Ni  Ni273  1  0.60493311  0.14681138  0.12436518  1.0
  Ni  Ni274  1  0.60493311  0.48014471  0.12436518  1.0
  Ni  Ni275  1  0.60493311  0.81347804  0.12436518  1.0
  Ni  Ni276  1  0.93826644  0.14681138  0.12436518  1.0
  Ni  Ni277  1  0.93826644  0.48014471  0.12436518  1.0
  Ni  Ni278  1  0.93826644  0.81347804  0.12436518  1.0
  Ni  Ni279  1  0.13826644  0.04681138  0.02436518  1.0
  Ni  Ni280  1  0.13826644  0.38014471  0.02436518  1.0
  Ni  Ni281  1  0.13826644  0.71347804  0.02436518  1.0
  Ni  Ni282  1  0.47159977  0.04681138  0.02436518  1.0
  Ni  Ni283  1  0.47159977  0.38014471  0.02436518  1.0
  Ni  Ni284  1  0.47159977  0.71347804  0.02436518  1.0
  Ni  Ni285  1  0.80493311  0.04681138  0.02436518  1.0
  Ni  Ni286  1  0.80493311  0.38014471  0.02436518  1.0
  Ni  Ni287  1  0.80493311  0.71347804  0.02436518  1.0
  Ni  Ni288  1  0.10380944  0.17327821  0.04159368  1.0
  Ni  Ni289  1  0.10380944  0.50661154  0.04159368  1.0
  Ni  Ni290  1  0.10380944  0.83994488  0.04159368  1.0
  Ni  Ni291  1  0.43714277  0.17327821  0.04159368  1.0
  Ni  Ni292  1  0.43714277  0.50661154  0.04159368  1.0
  Ni  Ni293  1  0.43714277  0.83994488  0.04159368  1.0
  Ni  Ni294  1  0.77047611  0.17327821  0.04159368  1.0
  Ni  Ni295  1  0.77047611  0.50661154  0.04159368  1.0
  Ni  Ni296  1  0.77047611  0.83994488  0.04159368  1.0
  Ni  Ni297  1  0.23714277  0.27327821  0.14159368  1.0
  Ni  Ni298  1  0.23714277  0.60661154  0.14159368  1.0
  Ni  Ni299  1  0.23714277  0.93994488  0.14159368  1.0
  Ni  Ni300  1  0.57047611  0.27327821  0.14159368  1.0
  Ni  Ni301  1  0.57047611  0.60661154  0.14159368  1.0
  Ni  Ni302  1  0.57047611  0.93994488  0.14159368  1.0
  Ni  Ni303  1  0.90380944  0.27327821  0.14159368  1.0
  Ni  Ni304  1  0.90380944  0.60661154  0.14159368  1.0
  Ni  Ni305  1  0.90380944  0.93994488  0.14159368  1.0
  Ni  Ni306  1  0.03826644  0.08948538  0.09634318  1.0
  Ni  Ni307  1  0.03826644  0.42281871  0.09634318  1.0
  Ni  Ni308  1  0.03826644  0.75615204  0.09634318  1.0
  Ni  Ni309  1  0.37159977  0.08948538  0.09634318  1.0
  Ni  Ni310  1  0.37159977  0.42281871  0.09634318  1.0
  Ni  Ni311  1  0.37159977  0.75615204  0.09634318  1.0
  Ni  Ni312  1  0.70493311  0.08948538  0.09634318  1.0
  Ni  Ni313  1  0.70493311  0.42281871  0.09634318  1.0
  Ni  Ni314  1  0.70493311  0.75615204  0.09634318  1.0
  Ni  Ni315  1  0.17159977  0.18948538  0.19634318  1.0
  Ni  Ni316  1  0.17159977  0.52281871  0.19634318  1.0
  Ni  Ni317  1  0.17159977  0.85615204  0.19634318  1.0
  Ni  Ni318  1  0.50493311  0.18948538  0.19634318  1.0
  Ni  Ni319  1  0.50493311  0.52281871  0.19634318  1.0
  Ni  Ni320  1  0.50493311  0.85615204  0.19634318  1.0
  Ni  Ni321  1  0.83826644  0.18948538  0.19634318  1.0
  Ni  Ni322  1  0.83826644  0.52281871  0.19634318  1.0
  Ni  Ni323  1  0.83826644  0.85615204  0.19634318  1.0
  Ni  Ni324  1  0.31260064  0.02158944  0.12303358  1.0
  Ni  Ni325  1  0.31260064  0.35492278  0.12303358  1.0
  Ni  Ni326  1  0.31260064  0.68825611  0.12303358  1.0
  Ni  Ni327  1  0.64593397  0.02158944  0.12303358  1.0
  Ni  Ni328  1  0.64593397  0.35492278  0.12303358  1.0
  Ni  Ni329  1  0.64593397  0.68825611  0.12303358  1.0
  Ni  Ni330  1  0.97926731  0.02158944  0.12303358  1.0
  Ni  Ni331  1  0.97926731  0.35492278  0.12303358  1.0
  Ni  Ni332  1  0.97926731  0.68825611  0.12303358  1.0
  Ni  Ni333  1  0.17926731  0.25492278  0.02303358  1.0
  Ni  Ni334  1  0.17926731  0.58825611  0.02303358  1.0
  Ni  Ni335  1  0.17926731  0.92158944  0.02303358  1.0
  Ni  Ni336  1  0.51260064  0.25492278  0.02303358  1.0
  Ni  Ni337  1  0.51260064  0.58825611  0.02303358  1.0
  Ni  Ni338  1  0.51260064  0.92158944  0.02303358  1.0
  Ni  Ni339  1  0.84593397  0.25492278  0.02303358  1.0
  Ni  Ni340  1  0.84593397  0.58825611  0.02303358  1.0
  Ni  Ni341  1  0.84593397  0.92158944  0.02303358  1.0
  Ni  Ni342  1  0.05718371  0.08002674  0.18147088  1.0
  Ni  Ni343  1  0.05718371  0.41336008  0.18147088  1.0
  Ni  Ni344  1  0.05718371  0.74669341  0.18147088  1.0
  Ni  Ni345  1  0.39051704  0.08002674  0.18147088  1.0
  Ni  Ni346  1  0.39051704  0.41336008  0.18147088  1.0
  Ni  Ni347  1  0.39051704  0.74669341  0.18147088  1.0
  Ni  Ni348  1  0.72385037  0.08002674  0.18147088  1.0
  Ni  Ni349  1  0.72385037  0.41336008  0.18147088  1.0
  Ni  Ni350  1  0.72385037  0.74669341  0.18147088  1.0
  Ni  Ni351  1  0.25718371  0.31336008  0.08147088  1.0
  Ni  Ni352  1  0.25718371  0.64669341  0.08147088  1.0
  Ni  Ni353  1  0.25718371  0.98002674  0.08147088  1.0
  Ni  Ni354  1  0.59051704  0.31336008  0.08147088  1.0
  Ni  Ni355  1  0.59051704  0.64669341  0.08147088  1.0
  Ni  Ni356  1  0.59051704  0.98002674  0.08147088  1.0
  Ni  Ni357  1  0.92385037  0.31336008  0.08147088  1.0
  Ni  Ni358  1  0.92385037  0.64669341  0.08147088  1.0
  Ni  Ni359  1  0.92385037  0.98002674  0.08147088  1.0
  Ni  Ni360  1  0.06597491  0.14490231  0.01321778  1.0
  Ni  Ni361  1  0.06597491  0.47823564  0.01321778  1.0
  Ni  Ni362  1  0.06597491  0.81156898  0.01321778  1.0
  Ni  Ni363  1  0.39930824  0.14490231  0.01321778  1.0
  Ni  Ni364  1  0.39930824  0.47823564  0.01321778  1.0
  Ni  Ni365  1  0.39930824  0.81156898  0.01321778  1.0
  Ni  Ni366  1  0.73264157  0.14490231  0.01321778  1.0
  Ni  Ni367  1  0.73264157  0.47823564  0.01321778  1.0
  Ni  Ni368  1  0.73264157  0.81156898  0.01321778  1.0
  Ni  Ni369  1  0.19930824  0.24490231  0.11321778  1.0
  Ni  Ni370  1  0.19930824  0.57823564  0.11321778  1.0
  Ni  Ni371  1  0.19930824  0.91156898  0.11321778  1.0
  Ni  Ni372  1  0.53264157  0.24490231  0.11321778  1.0
  Ni  Ni373  1  0.53264157  0.57823564  0.11321778  1.0
  Ni  Ni374  1  0.53264157  0.91156898  0.11321778  1.0
  Ni  Ni375  1  0.86597491  0.24490231  0.11321778  1.0
  Ni  Ni376  1  0.86597491  0.57823564  0.11321778  1.0
  Ni  Ni377  1  0.86597491  0.91156898  0.11321778  1.0
  Ni  Ni378  1  0.33151791  0.05942398  0.06628178  1.0
  Ni  Ni379  1  0.33151791  0.39275731  0.06628178  1.0
  Ni  Ni380  1  0.33151791  0.72609064  0.06628178  1.0
  Ni  Ni381  1  0.66485124  0.05942398  0.06628178  1.0
  Ni  Ni382  1  0.66485124  0.39275731  0.06628178  1.0
  Ni  Ni383  1  0.66485124  0.72609064  0.06628178  1.0
  Ni  Ni384  1  0.99818457  0.05942398  0.06628178  1.0
  Ni  Ni385  1  0.99818457  0.39275731  0.06628178  1.0
  Ni  Ni386  1  0.99818457  0.72609064  0.06628178  1.0
  Ni  Ni387  1  0.13151791  0.15942398  0.16628178  1.0
  Ni  Ni388  1  0.13151791  0.49275731  0.16628178  1.0
  Ni  Ni389  1  0.13151791  0.82609064  0.16628178  1.0
  Ni  Ni390  1  0.46485124  0.15942398  0.16628178  1.0
  Ni  Ni391  1  0.46485124  0.49275731  0.16628178  1.0
  Ni  Ni392  1  0.46485124  0.82609064  0.16628178  1.0
  Ni  Ni393  1  0.79818457  0.15942398  0.16628178  1.0
  Ni  Ni394  1  0.79818457  0.49275731  0.16628178  1.0
  Ni  Ni395  1  0.79818457  0.82609064  0.16628178  1.0
  Ni  Ni396  1  0.09749157  0.09428681  0.03143028  1.0
  Ni  Ni397  1  0.09749157  0.42762014  0.03143028  1.0
  Ni  Ni398  1  0.09749157  0.76095348  0.03143028  1.0
  Ni  Ni399  1  0.43082491  0.09428681  0.03143028  1.0
  Ni  Ni400  1  0.43082491  0.42762014  0.03143028  1.0
  Ni  Ni401  1  0.43082491  0.76095348  0.03143028  1.0
  Ni  Ni402  1  0.76415824  0.09428681  0.03143028  1.0
  Ni  Ni403  1  0.76415824  0.42762014  0.03143028  1.0
  Ni  Ni404  1  0.76415824  0.76095348  0.03143028  1.0
  Ni  Ni405  1  0.23082491  0.19428681  0.13143028  1.0
  Ni  Ni406  1  0.23082491  0.52762014  0.13143028  1.0
  Ni  Ni407  1  0.23082491  0.86095348  0.13143028  1.0
  Ni  Ni408  1  0.56415824  0.19428681  0.13143028  1.0
  Ni  Ni409  1  0.56415824  0.52762014  0.13143028  1.0
  Ni  Ni410  1  0.56415824  0.86095348  0.13143028  1.0
  Ni  Ni411  1  0.89749157  0.19428681  0.13143028  1.0
  Ni  Ni412  1  0.89749157  0.52762014  0.13143028  1.0
  Ni  Ni413  1  0.89749157  0.86095348  0.13143028  1.0
  Ni  Ni414  1  0.33052897  0.31110144  0.08009858  1.0
  Ni  Ni415  1  0.33052897  0.64443478  0.08009858  1.0
  Ni  Ni416  1  0.33052897  0.97776811  0.08009858  1.0
  Ni  Ni417  1  0.66386231  0.31110144  0.08009858  1.0
  Ni  Ni418  1  0.66386231  0.64443478  0.08009858  1.0
  Ni  Ni419  1  0.66386231  0.97776811  0.08009858  1.0
  Ni  Ni420  1  0.99719564  0.31110144  0.08009858  1.0
  Ni  Ni421  1  0.99719564  0.64443478  0.08009858  1.0
  Ni  Ni422  1  0.99719564  0.97776811  0.08009858  1.0
  Ni  Ni423  1  0.13052897  0.07776811  0.18009858  1.0
  Ni  Ni424  1  0.13052897  0.41110144  0.18009858  1.0
  Ni  Ni425  1  0.13052897  0.74443478  0.18009858  1.0
  Ni  Ni426  1  0.46386231  0.07776811  0.18009858  1.0
  Ni  Ni427  1  0.46386231  0.41110144  0.18009858  1.0
  Ni  Ni428  1  0.46386231  0.74443478  0.18009858  1.0
  Ni  Ni429  1  0.79719564  0.07776811  0.18009858  1.0
  Ni  Ni430  1  0.79719564  0.41110144  0.18009858  1.0
  Ni  Ni431  1  0.79719564  0.74443478  0.18009858  1.0
  Ni  Ni432  1  0.29689971  0.24384291  0.18098638  1.0
  Ni  Ni433  1  0.29689971  0.57717624  0.18098638  1.0
  Ni  Ni434  1  0.29689971  0.91050958  0.18098638  1.0
  Ni  Ni435  1  0.63023304  0.24384291  0.18098638  1.0
  Ni  Ni436  1  0.63023304  0.57717624  0.18098638  1.0
  Ni  Ni437  1  0.63023304  0.91050958  0.18098638  1.0
  Ni  Ni438  1  0.96356637  0.24384291  0.18098638  1.0
  Ni  Ni439  1  0.96356637  0.57717624  0.18098638  1.0
  Ni  Ni440  1  0.96356637  0.91050958  0.18098638  1.0
  Ni  Ni441  1  0.16356637  0.14384291  0.08098638  1.0
  Ni  Ni442  1  0.16356637  0.47717624  0.08098638  1.0
  Ni  Ni443  1  0.16356637  0.81050958  0.08098638  1.0
  Ni  Ni444  1  0.49689971  0.14384291  0.08098638  1.0
  Ni  Ni445  1  0.49689971  0.47717624  0.08098638  1.0
  Ni  Ni446  1  0.49689971  0.81050958  0.08098638  1.0
  Ni  Ni447  1  0.83023304  0.14384291  0.08098638  1.0
  Ni  Ni448  1  0.83023304  0.47717624  0.08098638  1.0
  Ni  Ni449  1  0.83023304  0.81050958  0.08098638  1.0
  Ni  Ni450  1  0.17229277  0.11194854  0.15921668  1.0
  Ni  Ni451  1  0.17229277  0.44528188  0.15921668  1.0
  Ni  Ni452  1  0.17229277  0.77861521  0.15921668  1.0
  Ni  Ni453  1  0.50562611  0.11194854  0.15921668  1.0
  Ni  Ni454  1  0.50562611  0.44528188  0.15921668  1.0
  Ni  Ni455  1  0.50562611  0.77861521  0.15921668  1.0
  Ni  Ni456  1  0.83895944  0.11194854  0.15921668  1.0
  Ni  Ni457  1  0.83895944  0.44528188  0.15921668  1.0
  Ni  Ni458  1  0.83895944  0.77861521  0.15921668  1.0
  Ni  Ni459  1  0.03895944  0.01194854  0.05921668  1.0
  Ni  Ni460  1  0.03895944  0.34528188  0.05921668  1.0
  Ni  Ni461  1  0.03895944  0.67861521  0.05921668  1.0
  Ni  Ni462  1  0.37229277  0.01194854  0.05921668  1.0
  Ni  Ni463  1  0.37229277  0.34528188  0.05921668  1.0
  Ni  Ni464  1  0.37229277  0.67861521  0.05921668  1.0
  Ni  Ni465  1  0.70562611  0.01194854  0.05921668  1.0
  Ni  Ni466  1  0.70562611  0.34528188  0.05921668  1.0
  Ni  Ni467  1  0.70562611  0.67861521  0.05921668  1.0
  Ni  Ni468  1  0.27258871  0.22846724  0.11054838  1.0
  Ni  Ni469  1  0.27258871  0.56180058  0.11054838  1.0
  Ni  Ni470  1  0.27258871  0.89513391  0.11054838  1.0
  Ni  Ni471  1  0.60592204  0.22846724  0.11054838  1.0
  Ni  Ni472  1  0.60592204  0.56180058  0.11054838  1.0
  Ni  Ni473  1  0.60592204  0.89513391  0.11054838  1.0
  Ni  Ni474  1  0.93925537  0.22846724  0.11054838  1.0
  Ni  Ni475  1  0.93925537  0.56180058  0.11054838  1.0
  Ni  Ni476  1  0.93925537  0.89513391  0.11054838  1.0
  Ni  Ni477  1  0.13925537  0.12846724  0.01054838  1.0
  Ni  Ni478  1  0.13925537  0.46180058  0.01054838  1.0
  Ni  Ni479  1  0.13925537  0.79513391  0.01054838  1.0
  Ni  Ni480  1  0.47258871  0.12846724  0.01054838  1.0
  Ni  Ni481  1  0.47258871  0.46180058  0.01054838  1.0
  Ni  Ni482  1  0.47258871  0.79513391  0.01054838  1.0
  Ni  Ni483  1  0.80592204  0.12846724  0.01054838  1.0
  Ni  Ni484  1  0.80592204  0.46180058  0.01054838  1.0
  Ni  Ni485  1  0.80592204  0.79513391  0.01054838  1.0
  Ni  Ni486  1  0.30621797  0.29572578  0.00966058  1.0
  Ni  Ni487  1  0.30621797  0.62905911  0.00966058  1.0
  Ni  Ni488  1  0.30621797  0.96239244  0.00966058  1.0
  Ni  Ni489  1  0.63955131  0.29572578  0.00966058  1.0
  Ni  Ni490  1  0.63955131  0.62905911  0.00966058  1.0
  Ni  Ni491  1  0.63955131  0.96239244  0.00966058  1.0
  Ni  Ni492  1  0.97288464  0.29572578  0.00966058  1.0
  Ni  Ni493  1  0.97288464  0.62905911  0.00966058  1.0
  Ni  Ni494  1  0.97288464  0.96239244  0.00966058  1.0
  Ni  Ni495  1  0.10621797  0.06239244  0.10966058  1.0
  Ni  Ni496  1  0.10621797  0.39572578  0.10966058  1.0
  Ni  Ni497  1  0.10621797  0.72905911  0.10966058  1.0
  Ni  Ni498  1  0.43955131  0.06239244  0.10966058  1.0
  Ni  Ni499  1  0.43955131  0.39572578  0.10966058  1.0
  Ni  Ni500  1  0.43955131  0.72905911  0.10966058  1.0
  Ni  Ni501  1  0.77288464  0.06239244  0.10966058  1.0
  Ni  Ni502  1  0.77288464  0.39572578  0.10966058  1.0
  Ni  Ni503  1  0.77288464  0.72905911  0.10966058  1.0
  Ni  Ni504  1  0.26356637  0.06631174  0.11357988  1.0
  Ni  Ni505  1  0.26356637  0.39964508  0.11357988  1.0
  Ni  Ni506  1  0.26356637  0.73297841  0.11357988  1.0
  Ni  Ni507  1  0.59689971  0.06631174  0.11357988  1.0
  Ni  Ni508  1  0.59689971  0.39964508  0.11357988  1.0
  Ni  Ni509  1  0.59689971  0.73297841  0.11357988  1.0
  Ni  Ni510  1  0.93023304  0.06631174  0.11357988  1.0
  Ni  Ni511  1  0.93023304  0.39964508  0.11357988  1.0
  Ni  Ni512  1  0.93023304  0.73297841  0.11357988  1.0
  Ni  Ni513  1  0.13023304  0.29964508  0.01357988  1.0
  Ni  Ni514  1  0.13023304  0.63297841  0.01357988  1.0
  Ni  Ni515  1  0.13023304  0.96631174  0.01357988  1.0
  Ni  Ni516  1  0.46356637  0.29964508  0.01357988  1.0
  Ni  Ni517  1  0.46356637  0.63297841  0.01357988  1.0
  Ni  Ni518  1  0.46356637  0.96631174  0.01357988  1.0
  Ni  Ni519  1  0.79689971  0.29964508  0.01357988  1.0
  Ni  Ni520  1  0.79689971  0.63297841  0.01357988  1.0
  Ni  Ni521  1  0.79689971  0.96631174  0.01357988  1.0
  Ni  Ni522  1  0.03052897  0.18283044  0.06491158  1.0
  Ni  Ni523  1  0.03052897  0.51616378  0.06491158  1.0
  Ni  Ni524  1  0.03052897  0.84949711  0.06491158  1.0
  Ni  Ni525  1  0.36386231  0.18283044  0.06491158  1.0
  Ni  Ni526  1  0.36386231  0.51616378  0.06491158  1.0
  Ni  Ni527  1  0.36386231  0.84949711  0.06491158  1.0
  Ni  Ni528  1  0.69719564  0.18283044  0.06491158  1.0
  Ni  Ni529  1  0.69719564  0.51616378  0.06491158  1.0
  Ni  Ni530  1  0.69719564  0.84949711  0.06491158  1.0
  Ni  Ni531  1  0.16386231  0.28283044  0.16491158  1.0
  Ni  Ni532  1  0.16386231  0.61616378  0.16491158  1.0
  Ni  Ni533  1  0.16386231  0.94949711  0.16491158  1.0
  Ni  Ni534  1  0.49719564  0.28283044  0.16491158  1.0
  Ni  Ni535  1  0.49719564  0.61616378  0.16491158  1.0
  Ni  Ni536  1  0.49719564  0.94949711  0.16491158  1.0
  Ni  Ni537  1  0.83052897  0.28283044  0.16491158  1.0
  Ni  Ni538  1  0.83052897  0.61616378  0.16491158  1.0
  Ni  Ni539  1  0.83052897  0.94949711  0.16491158  1.0
  Ni  Ni540  1  0.33082491  0.11675564  0.16402378  1.0
  Ni  Ni541  1  0.33082491  0.45008898  0.16402378  1.0
  Ni  Ni542  1  0.33082491  0.78342231  0.16402378  1.0
  Ni  Ni543  1  0.66415824  0.11675564  0.16402378  1.0
  Ni  Ni544  1  0.66415824  0.45008898  0.16402378  1.0
  Ni  Ni545  1  0.66415824  0.78342231  0.16402378  1.0
  Ni  Ni546  1  0.99749157  0.11675564  0.16402378  1.0
  Ni  Ni547  1  0.99749157  0.45008898  0.16402378  1.0
  Ni  Ni548  1  0.99749157  0.78342231  0.16402378  1.0
  Ni  Ni549  1  0.19749157  0.01675564  0.06402378  1.0
  Ni  Ni550  1  0.19749157  0.35008898  0.06402378  1.0
  Ni  Ni551  1  0.19749157  0.68342231  0.06402378  1.0
  Ni  Ni552  1  0.53082491  0.01675564  0.06402378  1.0
  Ni  Ni553  1  0.53082491  0.35008898  0.06402378  1.0
  Ni  Ni554  1  0.53082491  0.68342231  0.06402378  1.0
  Ni  Ni555  1  0.86415824  0.01675564  0.06402378  1.0
  Ni  Ni556  1  0.86415824  0.35008898  0.06402378  1.0
  Ni  Ni557  1  0.86415824  0.68342231  0.06402378  1.0
  Ni  Ni558  1  0.00621797  0.13992361  0.07706708  1.0
  Ni  Ni559  1  0.00621797  0.47325694  0.07706708  1.0
  Ni  Ni560  1  0.00621797  0.80659028  0.07706708  1.0
  Ni  Ni561  1  0.33955131  0.13992361  0.07706708  1.0
  Ni  Ni562  1  0.33955131  0.47325694  0.07706708  1.0
  Ni  Ni563  1  0.33955131  0.80659028  0.07706708  1.0
  Ni  Ni564  1  0.67288464  0.13992361  0.07706708  1.0
  Ni  Ni565  1  0.67288464  0.47325694  0.07706708  1.0
  Ni  Ni566  1  0.67288464  0.80659028  0.07706708  1.0
  Ni  Ni567  1  0.13955131  0.23992361  0.17706708  1.0
  Ni  Ni568  1  0.13955131  0.57325694  0.17706708  1.0
  Ni  Ni569  1  0.13955131  0.90659028  0.17706708  1.0
  Ni  Ni570  1  0.47288464  0.23992361  0.17706708  1.0
  Ni  Ni571  1  0.47288464  0.57325694  0.17706708  1.0
  Ni  Ni572  1  0.47288464  0.90659028  0.17706708  1.0
  Ni  Ni573  1  0.80621797  0.23992361  0.17706708  1.0
  Ni  Ni574  1  0.80621797  0.57325694  0.17706708  1.0
  Ni  Ni575  1  0.80621797  0.90659028  0.17706708  1.0
  Ni  Ni576  1  0.23925537  0.02340491  0.12573538  1.0
  Ni  Ni577  1  0.23925537  0.35673824  0.12573538  1.0
  Ni  Ni578  1  0.23925537  0.69007158  0.12573538  1.0
  Ni  Ni579  1  0.57258871  0.02340491  0.12573538  1.0
  Ni  Ni580  1  0.57258871  0.35673824  0.12573538  1.0
  Ni  Ni581  1  0.57258871  0.69007158  0.12573538  1.0
  Ni  Ni582  1  0.90592204  0.02340491  0.12573538  1.0
  Ni  Ni583  1  0.90592204  0.35673824  0.12573538  1.0
  Ni  Ni584  1  0.90592204  0.69007158  0.12573538  1.0
  Ni  Ni585  1  0.10592204  0.25673824  0.02573538  1.0
  Ni  Ni586  1  0.10592204  0.59007158  0.02573538  1.0
  Ni  Ni587  1  0.10592204  0.92340491  0.02573538  1.0
  Ni  Ni588  1  0.43925537  0.25673824  0.02573538  1.0
  Ni  Ni589  1  0.43925537  0.59007158  0.02573538  1.0
  Ni  Ni590  1  0.43925537  0.92340491  0.02573538  1.0
  Ni  Ni591  1  0.77258871  0.25673824  0.02573538  1.0
  Ni  Ni592  1  0.77258871  0.59007158  0.02573538  1.0
  Ni  Ni593  1  0.77258871  0.92340491  0.02573538  1.0
  Ni  Ni594  1  0.27229277  0.08947971  0.02662318  1.0
  Ni  Ni595  1  0.27229277  0.42281304  0.02662318  1.0
  Ni  Ni596  1  0.27229277  0.75614638  0.02662318  1.0
  Ni  Ni597  1  0.60562611  0.08947971  0.02662318  1.0
  Ni  Ni598  1  0.60562611  0.42281304  0.02662318  1.0
  Ni  Ni599  1  0.60562611  0.75614638  0.02662318  1.0
  Ni  Ni600  1  0.93895944  0.08947971  0.02662318  1.0
  Ni  Ni601  1  0.93895944  0.42281304  0.02662318  1.0
  Ni  Ni602  1  0.93895944  0.75614638  0.02662318  1.0
  Ni  Ni603  1  0.07229277  0.18947971  0.12662318  1.0
  Ni  Ni604  1  0.07229277  0.52281304  0.12662318  1.0
  Ni  Ni605  1  0.07229277  0.85614638  0.12662318  1.0
  Ni  Ni606  1  0.40562611  0.18947971  0.12662318  1.0
  Ni  Ni607  1  0.40562611  0.52281304  0.12662318  1.0
  Ni  Ni608  1  0.40562611  0.85614638  0.12662318  1.0
  Ni  Ni609  1  0.73895944  0.18947971  0.12662318  1.0
  Ni  Ni610  1  0.73895944  0.52281304  0.12662318  1.0
  Ni  Ni611  1  0.73895944  0.85614638  0.12662318  1.0
  Ni  Ni612  1  0.15546037  0.03727802  0.25170605  1.0
  Ni  Ni613  1  0.15546037  0.37061136  0.25170605  1.0
  Ni  Ni614  1  0.15546037  0.70394469  0.25170605  1.0
  Ni  Ni615  1  0.48879371  0.03727802  0.25170605  1.0
  Ni  Ni616  1  0.48879371  0.37061136  0.25170605  1.0
  Ni  Ni617  1  0.48879371  0.70394469  0.25170605  1.0
  Ni  Ni618  1  0.82212704  0.03727802  0.25170605  1.0
  Ni  Ni619  1  0.82212704  0.37061136  0.25170605  1.0
  Ni  Ni620  1  0.82212704  0.70394469  0.25170605  1.0
  Ni  Ni621  1  0.28879371  0.13727802  0.35170605  1.0
  Ni  Ni622  1  0.28879371  0.47061136  0.35170605  1.0
  Ni  Ni623  1  0.28879371  0.80394469  0.35170605  1.0
  Ni  Ni624  1  0.62212704  0.13727802  0.35170605  1.0
  Ni  Ni625  1  0.62212704  0.47061136  0.35170605  1.0
  Ni  Ni626  1  0.62212704  0.80394469  0.35170605  1.0
  Ni  Ni627  1  0.95546037  0.13727802  0.35170605  1.0
  Ni  Ni628  1  0.95546037  0.47061136  0.35170605  1.0
  Ni  Ni629  1  0.95546037  0.80394469  0.35170605  1.0
  Ni  Ni630  1  0.31432397  0.23562400  0.33894092  1.0
  Ni  Ni631  1  0.31432397  0.56895733  0.33894092  1.0
  Ni  Ni632  1  0.31432397  0.90229067  0.33894092  1.0
  Ni  Ni633  1  0.64765731  0.23562400  0.33894092  1.0
  Ni  Ni634  1  0.64765731  0.56895733  0.33894092  1.0
  Ni  Ni635  1  0.64765731  0.90229067  0.33894092  1.0
  Ni  Ni636  1  0.98099064  0.23562400  0.33894092  1.0
  Ni  Ni637  1  0.98099064  0.56895733  0.33894092  1.0
  Ni  Ni638  1  0.98099064  0.90229067  0.33894092  1.0
  Ni  Ni639  1  0.18099064  0.13562400  0.23894092  1.0
  Ni  Ni640  1  0.18099064  0.46895733  0.23894092  1.0
  Ni  Ni641  1  0.18099064  0.80229067  0.23894092  1.0
  Ni  Ni642  1  0.51432397  0.13562400  0.23894092  1.0
  Ni  Ni643  1  0.51432397  0.46895733  0.23894092  1.0
  Ni  Ni644  1  0.51432397  0.80229067  0.23894092  1.0
  Ni  Ni645  1  0.84765731  0.13562400  0.23894092  1.0
  Ni  Ni646  1  0.84765731  0.46895733  0.23894092  1.0
  Ni  Ni647  1  0.84765731  0.80229067  0.23894092  1.0
  Ni  Ni648  1  0.25546037  0.26505580  0.36837272  1.0
  Ni  Ni649  1  0.25546037  0.59838913  0.36837272  1.0
  Ni  Ni650  1  0.25546037  0.93172247  0.36837272  1.0
  Ni  Ni651  1  0.58879371  0.26505580  0.36837272  1.0
  Ni  Ni652  1  0.58879371  0.59838913  0.36837272  1.0
  Ni  Ni653  1  0.58879371  0.93172247  0.36837272  1.0
  Ni  Ni654  1  0.92212704  0.26505580  0.36837272  1.0
  Ni  Ni655  1  0.92212704  0.59838913  0.36837272  1.0
  Ni  Ni656  1  0.92212704  0.93172247  0.36837272  1.0
  Ni  Ni657  1  0.12212704  0.16505580  0.26837272  1.0
  Ni  Ni658  1  0.12212704  0.49838913  0.26837272  1.0
  Ni  Ni659  1  0.12212704  0.83172247  0.26837272  1.0
  Ni  Ni660  1  0.45546037  0.16505580  0.26837272  1.0
  Ni  Ni661  1  0.45546037  0.49838913  0.26837272  1.0
  Ni  Ni662  1  0.45546037  0.83172247  0.26837272  1.0
  Ni  Ni663  1  0.78879371  0.16505580  0.26837272  1.0
  Ni  Ni664  1  0.78879371  0.49838913  0.26837272  1.0
  Ni  Ni665  1  0.78879371  0.83172247  0.26837272  1.0
  Ni  Ni666  1  0.21432397  0.00784622  0.22227425  1.0
  Ni  Ni667  1  0.21432397  0.34117956  0.22227425  1.0
  Ni  Ni668  1  0.21432397  0.67451289  0.22227425  1.0
  Ni  Ni669  1  0.54765731  0.00784622  0.22227425  1.0
  Ni  Ni670  1  0.54765731  0.34117956  0.22227425  1.0
  Ni  Ni671  1  0.54765731  0.67451289  0.22227425  1.0
  Ni  Ni672  1  0.88099064  0.00784622  0.22227425  1.0
  Ni  Ni673  1  0.88099064  0.34117956  0.22227425  1.0
  Ni  Ni674  1  0.88099064  0.67451289  0.22227425  1.0
  Ni  Ni675  1  0.01432397  0.10784622  0.32227425  1.0
  Ni  Ni676  1  0.01432397  0.44117956  0.32227425  1.0
  Ni  Ni677  1  0.01432397  0.77451289  0.32227425  1.0
  Ni  Ni678  1  0.34765731  0.10784622  0.32227425  1.0
  Ni  Ni679  1  0.34765731  0.44117956  0.32227425  1.0
  Ni  Ni680  1  0.34765731  0.77451289  0.32227425  1.0
  Ni  Ni681  1  0.68099064  0.10784622  0.32227425  1.0
  Ni  Ni682  1  0.68099064  0.44117956  0.32227425  1.0
  Ni  Ni683  1  0.68099064  0.77451289  0.32227425  1.0
  Ni  Ni684  1  0.23489217  0.13645101  0.29532348  1.0
  Ni  Ni685  1  0.23489217  0.46978434  0.29532348  1.0
  Ni  Ni686  1  0.23489217  0.80311768  0.29532348  1.0
  Ni  Ni687  1  0.56822551  0.13645101  0.29532348  1.0
  Ni  Ni688  1  0.56822551  0.46978434  0.29532348  1.0
  Ni  Ni689  1  0.56822551  0.80311768  0.29532348  1.0
  Ni  Ni690  1  0.90155884  0.13645101  0.29532348  1.0
  Ni  Ni691  1  0.90155884  0.46978434  0.29532348  1.0
  Ni  Ni692  1  0.90155884  0.80311768  0.29532348  1.0
  Ni  Ni693  1  0.03489217  0.23645101  0.39532348  1.0
  Ni  Ni694  1  0.03489217  0.56978434  0.39532348  1.0
  Ni  Ni695  1  0.03489217  0.90311768  0.39532348  1.0
  Ni  Ni696  1  0.36822551  0.23645101  0.39532348  1.0
  Ni  Ni697  1  0.36822551  0.56978434  0.39532348  1.0
  Ni  Ni698  1  0.36822551  0.90311768  0.39532348  1.0
  Ni  Ni699  1  0.70155884  0.23645101  0.39532348  1.0
  Ni  Ni700  1  0.70155884  0.56978434  0.39532348  1.0
  Ni  Ni701  1  0.70155884  0.90311768  0.39532348  1.0
  Ni  Ni702  1  0.00155884  0.25311768  0.24532348  1.0
  Ni  Ni703  1  0.00155884  0.58645101  0.24532348  1.0
  Ni  Ni704  1  0.00155884  0.91978434  0.24532348  1.0
  Ni  Ni705  1  0.33489217  0.25311768  0.24532348  1.0
  Ni  Ni706  1  0.33489217  0.58645101  0.24532348  1.0
  Ni  Ni707  1  0.33489217  0.91978434  0.24532348  1.0
  Ni  Ni708  1  0.66822551  0.25311768  0.24532348  1.0
  Ni  Ni709  1  0.66822551  0.58645101  0.24532348  1.0
  Ni  Ni710  1  0.66822551  0.91978434  0.24532348  1.0
  Ni  Ni711  1  0.13489217  0.01978434  0.34532348  1.0
  Ni  Ni712  1  0.13489217  0.35311768  0.34532348  1.0
  Ni  Ni713  1  0.13489217  0.68645101  0.34532348  1.0
  Ni  Ni714  1  0.46822551  0.01978434  0.34532348  1.0
  Ni  Ni715  1  0.46822551  0.35311768  0.34532348  1.0
  Ni  Ni716  1  0.46822551  0.68645101  0.34532348  1.0
  Ni  Ni717  1  0.80155884  0.01978434  0.34532348  1.0
  Ni  Ni718  1  0.80155884  0.35311768  0.34532348  1.0
  Ni  Ni719  1  0.80155884  0.68645101  0.34532348  1.0
  Ni  Ni720  1  0.30155884  0.18645101  0.34532348  1.0
  Ni  Ni721  1  0.30155884  0.51978434  0.34532348  1.0
  Ni  Ni722  1  0.30155884  0.85311768  0.34532348  1.0
  Ni  Ni723  1  0.63489217  0.18645101  0.34532348  1.0
  Ni  Ni724  1  0.63489217  0.51978434  0.34532348  1.0
  Ni  Ni725  1  0.63489217  0.85311768  0.34532348  1.0
  Ni  Ni726  1  0.96822551  0.18645101  0.34532348  1.0
  Ni  Ni727  1  0.96822551  0.51978434  0.34532348  1.0
  Ni  Ni728  1  0.96822551  0.85311768  0.34532348  1.0
  Ni  Ni729  1  0.16822551  0.08645101  0.24532348  1.0
  Ni  Ni730  1  0.16822551  0.41978434  0.24532348  1.0
  Ni  Ni731  1  0.16822551  0.75311768  0.24532348  1.0
  Ni  Ni732  1  0.50155884  0.08645101  0.24532348  1.0
  Ni  Ni733  1  0.50155884  0.41978434  0.24532348  1.0
  Ni  Ni734  1  0.50155884  0.75311768  0.24532348  1.0
  Ni  Ni735  1  0.83489217  0.08645101  0.24532348  1.0
  Ni  Ni736  1  0.83489217  0.41978434  0.24532348  1.0
  Ni  Ni737  1  0.83489217  0.75311768  0.24532348  1.0
  Ni  Ni738  1  0.13489217  0.18645101  0.34532348  1.0
  Ni  Ni739  1  0.13489217  0.51978434  0.34532348  1.0
  Ni  Ni740  1  0.13489217  0.85311768  0.34532348  1.0
  Ni  Ni741  1  0.46822551  0.18645101  0.34532348  1.0
  Ni  Ni742  1  0.46822551  0.51978434  0.34532348  1.0
  Ni  Ni743  1  0.46822551  0.85311768  0.34532348  1.0
  Ni  Ni744  1  0.80155884  0.18645101  0.34532348  1.0
  Ni  Ni745  1  0.80155884  0.51978434  0.34532348  1.0
  Ni  Ni746  1  0.80155884  0.85311768  0.34532348  1.0
  Ni  Ni747  1  0.00155884  0.08645101  0.24532348  1.0
  Ni  Ni748  1  0.00155884  0.41978434  0.24532348  1.0
  Ni  Ni749  1  0.00155884  0.75311768  0.24532348  1.0
  Ni  Ni750  1  0.33489217  0.08645101  0.24532348  1.0
  Ni  Ni751  1  0.33489217  0.41978434  0.24532348  1.0
  Ni  Ni752  1  0.33489217  0.75311768  0.24532348  1.0
  Ni  Ni753  1  0.66822551  0.08645101  0.24532348  1.0
  Ni  Ni754  1  0.66822551  0.41978434  0.24532348  1.0
  Ni  Ni755  1  0.66822551  0.75311768  0.24532348  1.0
  Ni  Ni756  1  0.23489217  0.30311768  0.29532348  1.0
  Ni  Ni757  1  0.23489217  0.63645101  0.29532348  1.0
  Ni  Ni758  1  0.23489217  0.96978434  0.29532348  1.0
  Ni  Ni759  1  0.56822551  0.30311768  0.29532348  1.0
  Ni  Ni760  1  0.56822551  0.63645101  0.29532348  1.0
  Ni  Ni761  1  0.56822551  0.96978434  0.29532348  1.0
  Ni  Ni762  1  0.90155884  0.30311768  0.29532348  1.0
  Ni  Ni763  1  0.90155884  0.63645101  0.29532348  1.0
  Ni  Ni764  1  0.90155884  0.96978434  0.29532348  1.0
  Ni  Ni765  1  0.03489217  0.06978434  0.39532348  1.0
  Ni  Ni766  1  0.03489217  0.40311768  0.39532348  1.0
  Ni  Ni767  1  0.03489217  0.73645101  0.39532348  1.0
  Ni  Ni768  1  0.36822551  0.06978434  0.39532348  1.0
  Ni  Ni769  1  0.36822551  0.40311768  0.39532348  1.0
  Ni  Ni770  1  0.36822551  0.73645101  0.39532348  1.0
  Ni  Ni771  1  0.70155884  0.06978434  0.39532348  1.0
  Ni  Ni772  1  0.70155884  0.40311768  0.39532348  1.0
  Ni  Ni773  1  0.70155884  0.73645101  0.39532348  1.0
  Ni  Ni774  1  0.20155884  0.23645101  0.39532348  1.0
  Ni  Ni775  1  0.20155884  0.56978434  0.39532348  1.0
  Ni  Ni776  1  0.20155884  0.90311768  0.39532348  1.0
  Ni  Ni777  1  0.53489217  0.23645101  0.39532348  1.0
  Ni  Ni778  1  0.53489217  0.56978434  0.39532348  1.0
  Ni  Ni779  1  0.53489217  0.90311768  0.39532348  1.0
  Ni  Ni780  1  0.86822551  0.23645101  0.39532348  1.0
  Ni  Ni781  1  0.86822551  0.56978434  0.39532348  1.0
  Ni  Ni782  1  0.86822551  0.90311768  0.39532348  1.0
  Ni  Ni783  1  0.06822551  0.13645101  0.29532348  1.0
  Ni  Ni784  1  0.06822551  0.46978434  0.29532348  1.0
  Ni  Ni785  1  0.06822551  0.80311768  0.29532348  1.0
  Ni  Ni786  1  0.40155884  0.13645101  0.29532348  1.0
  Ni  Ni787  1  0.40155884  0.46978434  0.29532348  1.0
  Ni  Ni788  1  0.40155884  0.80311768  0.29532348  1.0
  Ni  Ni789  1  0.73489217  0.13645101  0.29532348  1.0
  Ni  Ni790  1  0.73489217  0.46978434  0.29532348  1.0
  Ni  Ni791  1  0.73489217  0.80311768  0.29532348  1.0
  Ni  Ni792  1  0.09930824  0.23295714  0.34905328  1.0
  Ni  Ni793  1  0.09930824  0.56629048  0.34905328  1.0
  Ni  Ni794  1  0.09930824  0.89962381  0.34905328  1.0
  Ni  Ni795  1  0.43264157  0.23295714  0.34905328  1.0
  Ni  Ni796  1  0.43264157  0.56629048  0.34905328  1.0
  Ni  Ni797  1  0.43264157  0.89962381  0.34905328  1.0
  Ni  Ni798  1  0.76597491  0.23295714  0.34905328  1.0
  Ni  Ni799  1  0.76597491  0.56629048  0.34905328  1.0
  Ni  Ni800  1  0.76597491  0.89962381  0.34905328  1.0
  Ni  Ni801  1  0.29930824  0.13295714  0.24905328  1.0
  Ni  Ni802  1  0.29930824  0.46629048  0.24905328  1.0
  Ni  Ni803  1  0.29930824  0.79962381  0.24905328  1.0
  Ni  Ni804  1  0.63264157  0.13295714  0.24905328  1.0
  Ni  Ni805  1  0.63264157  0.46629048  0.24905328  1.0
  Ni  Ni806  1  0.63264157  0.79962381  0.24905328  1.0
  Ni  Ni807  1  0.96597491  0.13295714  0.24905328  1.0
  Ni  Ni808  1  0.96597491  0.46629048  0.24905328  1.0
  Ni  Ni809  1  0.96597491  0.79962381  0.24905328  1.0
  Ni  Ni810  1  0.16485124  0.31674998  0.29430378  1.0
  Ni  Ni811  1  0.16485124  0.65008331  0.29430378  1.0
  Ni  Ni812  1  0.16485124  0.98341664  0.29430378  1.0
  Ni  Ni813  1  0.49818457  0.31674998  0.29430378  1.0
  Ni  Ni814  1  0.49818457  0.65008331  0.29430378  1.0
  Ni  Ni815  1  0.49818457  0.98341664  0.29430378  1.0
  Ni  Ni816  1  0.83151791  0.31674998  0.29430378  1.0
  Ni  Ni817  1  0.83151791  0.65008331  0.29430378  1.0
  Ni  Ni818  1  0.83151791  0.98341664  0.29430378  1.0
  Ni  Ni819  1  0.29818457  0.08341664  0.39430378  1.0
  Ni  Ni820  1  0.29818457  0.41674998  0.39430378  1.0
  Ni  Ni821  1  0.29818457  0.75008331  0.39430378  1.0
  Ni  Ni822  1  0.63151791  0.08341664  0.39430378  1.0
  Ni  Ni823  1  0.63151791  0.41674998  0.39430378  1.0
  Ni  Ni824  1  0.63151791  0.75008331  0.39430378  1.0
  Ni  Ni825  1  0.96485124  0.08341664  0.39430378  1.0
  Ni  Ni826  1  0.96485124  0.41674998  0.39430378  1.0
  Ni  Ni827  1  0.96485124  0.75008331  0.39430378  1.0
  Ni  Ni828  1  0.22385037  0.05131258  0.26761338  1.0
  Ni  Ni829  1  0.22385037  0.38464591  0.26761338  1.0
  Ni  Ni830  1  0.22385037  0.71797924  0.26761338  1.0
  Ni  Ni831  1  0.55718371  0.05131258  0.26761338  1.0
  Ni  Ni832  1  0.55718371  0.38464591  0.26761338  1.0
  Ni  Ni833  1  0.55718371  0.71797924  0.26761338  1.0
  Ni  Ni834  1  0.89051704  0.05131258  0.26761338  1.0
  Ni  Ni835  1  0.89051704  0.38464591  0.26761338  1.0
  Ni  Ni836  1  0.89051704  0.71797924  0.26761338  1.0
  Ni  Ni837  1  0.02385037  0.15131258  0.36761338  1.0
  Ni  Ni838  1  0.02385037  0.48464591  0.36761338  1.0
  Ni  Ni839  1  0.02385037  0.81797924  0.36761338  1.0
  Ni  Ni840  1  0.35718371  0.15131258  0.36761338  1.0
  Ni  Ni841  1  0.35718371  0.48464591  0.36761338  1.0
  Ni  Ni842  1  0.35718371  0.81797924  0.36761338  1.0
  Ni  Ni843  1  0.69051704  0.15131258  0.36761338  1.0
  Ni  Ni844  1  0.69051704  0.48464591  0.36761338  1.0
  Ni  Ni845  1  0.69051704  0.81797924  0.36761338  1.0
  Ni  Ni846  1  0.14593397  0.32620861  0.20917608  1.0
  Ni  Ni847  1  0.14593397  0.65954194  0.20917608  1.0
  Ni  Ni848  1  0.14593397  0.99287528  0.20917608  1.0
  Ni  Ni849  1  0.47926731  0.32620861  0.20917608  1.0
  Ni  Ni850  1  0.47926731  0.65954194  0.20917608  1.0
  Ni  Ni851  1  0.47926731  0.99287528  0.20917608  1.0
  Ni  Ni852  1  0.81260064  0.32620861  0.20917608  1.0
  Ni  Ni853  1  0.81260064  0.65954194  0.20917608  1.0
  Ni  Ni854  1  0.81260064  0.99287528  0.20917608  1.0
  Ni  Ni855  1  0.27926731  0.09287528  0.30917608  1.0
  Ni  Ni856  1  0.27926731  0.42620861  0.30917608  1.0
  Ni  Ni857  1  0.27926731  0.75954194  0.30917608  1.0
  Ni  Ni858  1  0.61260064  0.09287528  0.30917608  1.0
  Ni  Ni859  1  0.61260064  0.42620861  0.30917608  1.0
  Ni  Ni860  1  0.61260064  0.75954194  0.30917608  1.0
  Ni  Ni861  1  0.94593397  0.09287528  0.30917608  1.0
  Ni  Ni862  1  0.94593397  0.42620861  0.30917608  1.0
  Ni  Ni863  1  0.94593397  0.75954194  0.30917608  1.0
  Ni  Ni864  1  0.13714277  0.26133304  0.37742918  1.0
  Ni  Ni865  1  0.13714277  0.59466638  0.37742918  1.0
  Ni  Ni866  1  0.13714277  0.92799971  0.37742918  1.0
  Ni  Ni867  1  0.47047611  0.26133304  0.37742918  1.0
  Ni  Ni868  1  0.47047611  0.59466638  0.37742918  1.0
  Ni  Ni869  1  0.47047611  0.92799971  0.37742918  1.0
  Ni  Ni870  1  0.80380944  0.26133304  0.37742918  1.0
  Ni  Ni871  1  0.80380944  0.59466638  0.37742918  1.0
  Ni  Ni872  1  0.80380944  0.92799971  0.37742918  1.0
  Ni  Ni873  1  0.00380944  0.16133304  0.27742918  1.0
  Ni  Ni874  1  0.00380944  0.49466638  0.27742918  1.0
  Ni  Ni875  1  0.00380944  0.82799971  0.27742918  1.0
  Ni  Ni876  1  0.33714277  0.16133304  0.27742918  1.0
  Ni  Ni877  1  0.33714277  0.49466638  0.27742918  1.0
  Ni  Ni878  1  0.33714277  0.82799971  0.27742918  1.0
  Ni  Ni879  1  0.67047611  0.16133304  0.27742918  1.0
  Ni  Ni880  1  0.67047611  0.49466638  0.27742918  1.0
  Ni  Ni881  1  0.67047611  0.82799971  0.27742918  1.0
  Ni  Ni882  1  0.20493311  0.01347804  0.32436518  1.0
  Ni  Ni883  1  0.20493311  0.34681138  0.32436518  1.0
  Ni  Ni884  1  0.20493311  0.68014471  0.32436518  1.0
  Ni  Ni885  1  0.53826644  0.01347804  0.32436518  1.0
  Ni  Ni886  1  0.53826644  0.34681138  0.32436518  1.0
  Ni  Ni887  1  0.53826644  0.68014471  0.32436518  1.0
  Ni  Ni888  1  0.87159977  0.01347804  0.32436518  1.0
  Ni  Ni889  1  0.87159977  0.34681138  0.32436518  1.0
  Ni  Ni890  1  0.87159977  0.68014471  0.32436518  1.0
  Ni  Ni891  1  0.07159977  0.24681138  0.22436518  1.0
  Ni  Ni892  1  0.07159977  0.58014471  0.22436518  1.0
  Ni  Ni893  1  0.07159977  0.91347804  0.22436518  1.0
  Ni  Ni894  1  0.40493311  0.24681138  0.22436518  1.0
  Ni  Ni895  1  0.40493311  0.58014471  0.22436518  1.0
  Ni  Ni896  1  0.40493311  0.91347804  0.22436518  1.0
  Ni  Ni897  1  0.73826644  0.24681138  0.22436518  1.0
  Ni  Ni898  1  0.73826644  0.58014471  0.22436518  1.0
  Ni  Ni899  1  0.73826644  0.91347804  0.22436518  1.0
  Ni  Ni900  1  0.03714277  0.03994488  0.24159368  1.0
  Ni  Ni901  1  0.03714277  0.37327821  0.24159368  1.0
  Ni  Ni902  1  0.03714277  0.70661154  0.24159368  1.0
  Ni  Ni903  1  0.37047611  0.03994488  0.24159368  1.0
  Ni  Ni904  1  0.37047611  0.37327821  0.24159368  1.0
  Ni  Ni905  1  0.37047611  0.70661154  0.24159368  1.0
  Ni  Ni906  1  0.70380944  0.03994488  0.24159368  1.0
  Ni  Ni907  1  0.70380944  0.37327821  0.24159368  1.0
  Ni  Ni908  1  0.70380944  0.70661154  0.24159368  1.0
  Ni  Ni909  1  0.17047611  0.13994488  0.34159368  1.0
  Ni  Ni910  1  0.17047611  0.47327821  0.34159368  1.0
  Ni  Ni911  1  0.17047611  0.80661154  0.34159368  1.0
  Ni  Ni912  1  0.50380944  0.13994488  0.34159368  1.0
  Ni  Ni913  1  0.50380944  0.47327821  0.34159368  1.0
  Ni  Ni914  1  0.50380944  0.80661154  0.34159368  1.0
  Ni  Ni915  1  0.83714277  0.13994488  0.34159368  1.0
  Ni  Ni916  1  0.83714277  0.47327821  0.34159368  1.0
  Ni  Ni917  1  0.83714277  0.80661154  0.34159368  1.0
  Ni  Ni918  1  0.30493311  0.28948538  0.29634318  1.0
  Ni  Ni919  1  0.30493311  0.62281871  0.29634318  1.0
  Ni  Ni920  1  0.30493311  0.95615204  0.29634318  1.0
  Ni  Ni921  1  0.63826644  0.28948538  0.29634318  1.0
  Ni  Ni922  1  0.63826644  0.62281871  0.29634318  1.0
  Ni  Ni923  1  0.63826644  0.95615204  0.29634318  1.0
  Ni  Ni924  1  0.97159977  0.28948538  0.29634318  1.0
  Ni  Ni925  1  0.97159977  0.62281871  0.29634318  1.0
  Ni  Ni926  1  0.97159977  0.95615204  0.29634318  1.0
  Ni  Ni927  1  0.10493311  0.05615204  0.39634318  1.0
  Ni  Ni928  1  0.10493311  0.38948538  0.39634318  1.0
  Ni  Ni929  1  0.10493311  0.72281871  0.39634318  1.0
  Ni  Ni930  1  0.43826644  0.05615204  0.39634318  1.0
  Ni  Ni931  1  0.43826644  0.38948538  0.39634318  1.0
  Ni  Ni932  1  0.43826644  0.72281871  0.39634318  1.0
  Ni  Ni933  1  0.77159977  0.05615204  0.39634318  1.0
  Ni  Ni934  1  0.77159977  0.38948538  0.39634318  1.0
  Ni  Ni935  1  0.77159977  0.72281871  0.39634318  1.0
  Ni  Ni936  1  0.24593397  0.22158944  0.32303358  1.0
  Ni  Ni937  1  0.24593397  0.55492278  0.32303358  1.0
  Ni  Ni938  1  0.24593397  0.88825611  0.32303358  1.0
  Ni  Ni939  1  0.57926731  0.22158944  0.32303358  1.0
  Ni  Ni940  1  0.57926731  0.55492278  0.32303358  1.0
  Ni  Ni941  1  0.57926731  0.88825611  0.32303358  1.0
  Ni  Ni942  1  0.91260064  0.22158944  0.32303358  1.0
  Ni  Ni943  1  0.91260064  0.55492278  0.32303358  1.0
  Ni  Ni944  1  0.91260064  0.88825611  0.32303358  1.0
  Ni  Ni945  1  0.11260064  0.12158944  0.22303358  1.0
  Ni  Ni946  1  0.11260064  0.45492278  0.22303358  1.0
  Ni  Ni947  1  0.11260064  0.78825611  0.22303358  1.0
  Ni  Ni948  1  0.44593397  0.12158944  0.22303358  1.0
  Ni  Ni949  1  0.44593397  0.45492278  0.22303358  1.0
  Ni  Ni950  1  0.44593397  0.78825611  0.22303358  1.0
  Ni  Ni951  1  0.77926731  0.12158944  0.22303358  1.0
  Ni  Ni952  1  0.77926731  0.45492278  0.22303358  1.0
  Ni  Ni953  1  0.77926731  0.78825611  0.22303358  1.0
  Ni  Ni954  1  0.32385037  0.28002674  0.38147088  1.0
  Ni  Ni955  1  0.32385037  0.61336008  0.38147088  1.0
  Ni  Ni956  1  0.32385037  0.94669341  0.38147088  1.0
  Ni  Ni957  1  0.65718371  0.28002674  0.38147088  1.0
  Ni  Ni958  1  0.65718371  0.61336008  0.38147088  1.0
  Ni  Ni959  1  0.65718371  0.94669341  0.38147088  1.0
  Ni  Ni960  1  0.99051704  0.28002674  0.38147088  1.0
  Ni  Ni961  1  0.99051704  0.61336008  0.38147088  1.0
  Ni  Ni962  1  0.99051704  0.94669341  0.38147088  1.0
  Ni  Ni963  1  0.19051704  0.18002674  0.28147088  1.0
  Ni  Ni964  1  0.19051704  0.51336008  0.28147088  1.0
  Ni  Ni965  1  0.19051704  0.84669341  0.28147088  1.0
  Ni  Ni966  1  0.52385037  0.18002674  0.28147088  1.0
  Ni  Ni967  1  0.52385037  0.51336008  0.28147088  1.0
  Ni  Ni968  1  0.52385037  0.84669341  0.28147088  1.0
  Ni  Ni969  1  0.85718371  0.18002674  0.28147088  1.0
  Ni  Ni970  1  0.85718371  0.51336008  0.28147088  1.0
  Ni  Ni971  1  0.85718371  0.84669341  0.28147088  1.0
  Ni  Ni972  1  0.33264157  0.01156898  0.21321778  1.0
  Ni  Ni973  1  0.33264157  0.34490231  0.21321778  1.0
  Ni  Ni974  1  0.33264157  0.67823564  0.21321778  1.0
  Ni  Ni975  1  0.66597491  0.01156898  0.21321778  1.0
  Ni  Ni976  1  0.66597491  0.34490231  0.21321778  1.0
  Ni  Ni977  1  0.66597491  0.67823564  0.21321778  1.0
  Ni  Ni978  1  0.99930824  0.01156898  0.21321778  1.0
  Ni  Ni979  1  0.99930824  0.34490231  0.21321778  1.0
  Ni  Ni980  1  0.99930824  0.67823564  0.21321778  1.0
  Ni  Ni981  1  0.13264157  0.11156898  0.31321778  1.0
  Ni  Ni982  1  0.13264157  0.44490231  0.31321778  1.0
  Ni  Ni983  1  0.13264157  0.77823564  0.31321778  1.0
  Ni  Ni984  1  0.46597491  0.11156898  0.31321778  1.0
  Ni  Ni985  1  0.46597491  0.44490231  0.31321778  1.0
  Ni  Ni986  1  0.46597491  0.77823564  0.31321778  1.0
  Ni  Ni987  1  0.79930824  0.11156898  0.31321778  1.0
  Ni  Ni988  1  0.79930824  0.44490231  0.31321778  1.0
  Ni  Ni989  1  0.79930824  0.77823564  0.31321778  1.0
  Ni  Ni990  1  0.26485124  0.25942398  0.26628178  1.0
  Ni  Ni991  1  0.26485124  0.59275731  0.26628178  1.0
  Ni  Ni992  1  0.26485124  0.92609064  0.26628178  1.0
  Ni  Ni993  1  0.59818457  0.25942398  0.26628178  1.0
  Ni  Ni994  1  0.59818457  0.59275731  0.26628178  1.0
  Ni  Ni995  1  0.59818457  0.92609064  0.26628178  1.0
  Ni  Ni996  1  0.93151791  0.25942398  0.26628178  1.0
  Ni  Ni997  1  0.93151791  0.59275731  0.26628178  1.0
  Ni  Ni998  1  0.93151791  0.92609064  0.26628178  1.0
  Ni  Ni999  1  0.06485124  0.02609064  0.36628178  1.0
  Ni  Ni1000  1  0.06485124  0.35942398  0.36628178  1.0
  Ni  Ni1001  1  0.06485124  0.69275731  0.36628178  1.0
  Ni  Ni1002  1  0.39818457  0.02609064  0.36628178  1.0
  Ni  Ni1003  1  0.39818457  0.35942398  0.36628178  1.0
  Ni  Ni1004  1  0.39818457  0.69275731  0.36628178  1.0
  Ni  Ni1005  1  0.73151791  0.02609064  0.36628178  1.0
  Ni  Ni1006  1  0.73151791  0.35942398  0.36628178  1.0
  Ni  Ni1007  1  0.73151791  0.69275731  0.36628178  1.0
  Ni  Ni1008  1  0.03082491  0.29428681  0.23143028  1.0
  Ni  Ni1009  1  0.03082491  0.62762014  0.23143028  1.0
  Ni  Ni1010  1  0.03082491  0.96095348  0.23143028  1.0
  Ni  Ni1011  1  0.36415824  0.29428681  0.23143028  1.0
  Ni  Ni1012  1  0.36415824  0.62762014  0.23143028  1.0
  Ni  Ni1013  1  0.36415824  0.96095348  0.23143028  1.0
  Ni  Ni1014  1  0.69749157  0.29428681  0.23143028  1.0
  Ni  Ni1015  1  0.69749157  0.62762014  0.23143028  1.0
  Ni  Ni1016  1  0.69749157  0.96095348  0.23143028  1.0
  Ni  Ni1017  1  0.16415824  0.06095348  0.33143028  1.0
  Ni  Ni1018  1  0.16415824  0.39428681  0.33143028  1.0
  Ni  Ni1019  1  0.16415824  0.72762014  0.33143028  1.0
  Ni  Ni1020  1  0.49749157  0.06095348  0.33143028  1.0
  Ni  Ni1021  1  0.49749157  0.39428681  0.33143028  1.0
  Ni  Ni1022  1  0.49749157  0.72762014  0.33143028  1.0
  Ni  Ni1023  1  0.83082491  0.06095348  0.33143028  1.0
  Ni  Ni1024  1  0.83082491  0.39428681  0.33143028  1.0
  Ni  Ni1025  1  0.83082491  0.72762014  0.33143028  1.0
  Ni  Ni1026  1  0.26386231  0.17776811  0.28009858  1.0
  Ni  Ni1027  1  0.26386231  0.51110144  0.28009858  1.0
  Ni  Ni1028  1  0.26386231  0.84443478  0.28009858  1.0
  Ni  Ni1029  1  0.59719564  0.17776811  0.28009858  1.0
  Ni  Ni1030  1  0.59719564  0.51110144  0.28009858  1.0
  Ni  Ni1031  1  0.59719564  0.84443478  0.28009858  1.0
  Ni  Ni1032  1  0.93052897  0.17776811  0.28009858  1.0
  Ni  Ni1033  1  0.93052897  0.51110144  0.28009858  1.0
  Ni  Ni1034  1  0.93052897  0.84443478  0.28009858  1.0
  Ni  Ni1035  1  0.06386231  0.27776811  0.38009858  1.0
  Ni  Ni1036  1  0.06386231  0.61110144  0.38009858  1.0
  Ni  Ni1037  1  0.06386231  0.94443478  0.38009858  1.0
  Ni  Ni1038  1  0.39719564  0.27776811  0.38009858  1.0
  Ni  Ni1039  1  0.39719564  0.61110144  0.38009858  1.0
  Ni  Ni1040  1  0.39719564  0.94443478  0.38009858  1.0
  Ni  Ni1041  1  0.73052897  0.27776811  0.38009858  1.0
  Ni  Ni1042  1  0.73052897  0.61110144  0.38009858  1.0
  Ni  Ni1043  1  0.73052897  0.94443478  0.38009858  1.0
  Ni  Ni1044  1  0.23023304  0.11050958  0.38098638  1.0
  Ni  Ni1045  1  0.23023304  0.44384291  0.38098638  1.0
  Ni  Ni1046  1  0.23023304  0.77717624  0.38098638  1.0
  Ni  Ni1047  1  0.56356637  0.11050958  0.38098638  1.0
  Ni  Ni1048  1  0.56356637  0.44384291  0.38098638  1.0
  Ni  Ni1049  1  0.56356637  0.77717624  0.38098638  1.0
  Ni  Ni1050  1  0.89689971  0.11050958  0.38098638  1.0
  Ni  Ni1051  1  0.89689971  0.44384291  0.38098638  1.0
  Ni  Ni1052  1  0.89689971  0.77717624  0.38098638  1.0
  Ni  Ni1053  1  0.09689971  0.01050958  0.28098638  1.0
  Ni  Ni1054  1  0.09689971  0.34384291  0.28098638  1.0
  Ni  Ni1055  1  0.09689971  0.67717624  0.28098638  1.0
  Ni  Ni1056  1  0.43023304  0.01050958  0.28098638  1.0
  Ni  Ni1057  1  0.43023304  0.34384291  0.28098638  1.0
  Ni  Ni1058  1  0.43023304  0.67717624  0.28098638  1.0
  Ni  Ni1059  1  0.76356637  0.01050958  0.28098638  1.0
  Ni  Ni1060  1  0.76356637  0.34384291  0.28098638  1.0
  Ni  Ni1061  1  0.76356637  0.67717624  0.28098638  1.0
  Ni  Ni1062  1  0.10562611  0.31194854  0.35921668  1.0
  Ni  Ni1063  1  0.10562611  0.64528188  0.35921668  1.0
  Ni  Ni1064  1  0.10562611  0.97861521  0.35921668  1.0
  Ni  Ni1065  1  0.43895944  0.31194854  0.35921668  1.0
  Ni  Ni1066  1  0.43895944  0.64528188  0.35921668  1.0
  Ni  Ni1067  1  0.43895944  0.97861521  0.35921668  1.0
  Ni  Ni1068  1  0.77229277  0.31194854  0.35921668  1.0
  Ni  Ni1069  1  0.77229277  0.64528188  0.35921668  1.0
  Ni  Ni1070  1  0.77229277  0.97861521  0.35921668  1.0
  Ni  Ni1071  1  0.30562611  0.21194854  0.25921668  1.0
  Ni  Ni1072  1  0.30562611  0.54528188  0.25921668  1.0
  Ni  Ni1073  1  0.30562611  0.87861521  0.25921668  1.0
  Ni  Ni1074  1  0.63895944  0.21194854  0.25921668  1.0
  Ni  Ni1075  1  0.63895944  0.54528188  0.25921668  1.0
  Ni  Ni1076  1  0.63895944  0.87861521  0.25921668  1.0
  Ni  Ni1077  1  0.97229277  0.21194854  0.25921668  1.0
  Ni  Ni1078  1  0.97229277  0.54528188  0.25921668  1.0
  Ni  Ni1079  1  0.97229277  0.87861521  0.25921668  1.0
  Ni  Ni1080  1  0.20592204  0.09513391  0.31054838  1.0
  Ni  Ni1081  1  0.20592204  0.42846724  0.31054838  1.0
  Ni  Ni1082  1  0.20592204  0.76180058  0.31054838  1.0
  Ni  Ni1083  1  0.53925537  0.09513391  0.31054838  1.0
  Ni  Ni1084  1  0.53925537  0.42846724  0.31054838  1.0
  Ni  Ni1085  1  0.53925537  0.76180058  0.31054838  1.0
  Ni  Ni1086  1  0.87258871  0.09513391  0.31054838  1.0
  Ni  Ni1087  1  0.87258871  0.42846724  0.31054838  1.0
  Ni  Ni1088  1  0.87258871  0.76180058  0.31054838  1.0
  Ni  Ni1089  1  0.07258871  0.32846724  0.21054838  1.0
  Ni  Ni1090  1  0.07258871  0.66180058  0.21054838  1.0
  Ni  Ni1091  1  0.07258871  0.99513391  0.21054838  1.0
  Ni  Ni1092  1  0.40592204  0.32846724  0.21054838  1.0
  Ni  Ni1093  1  0.40592204  0.66180058  0.21054838  1.0
  Ni  Ni1094  1  0.40592204  0.99513391  0.21054838  1.0
  Ni  Ni1095  1  0.73925537  0.32846724  0.21054838  1.0
  Ni  Ni1096  1  0.73925537  0.66180058  0.21054838  1.0
  Ni  Ni1097  1  0.73925537  0.99513391  0.21054838  1.0
  Ni  Ni1098  1  0.23955131  0.16239244  0.20966058  1.0
  Ni  Ni1099  1  0.23955131  0.49572578  0.20966058  1.0
  Ni  Ni1100  1  0.23955131  0.82905911  0.20966058  1.0
  Ni  Ni1101  1  0.57288464  0.16239244  0.20966058  1.0
  Ni  Ni1102  1  0.57288464  0.49572578  0.20966058  1.0
  Ni  Ni1103  1  0.57288464  0.82905911  0.20966058  1.0
  Ni  Ni1104  1  0.90621797  0.16239244  0.20966058  1.0
  Ni  Ni1105  1  0.90621797  0.49572578  0.20966058  1.0
  Ni  Ni1106  1  0.90621797  0.82905911  0.20966058  1.0
  Ni  Ni1107  1  0.03955131  0.26239244  0.30966058  1.0
  Ni  Ni1108  1  0.03955131  0.59572578  0.30966058  1.0
  Ni  Ni1109  1  0.03955131  0.92905911  0.30966058  1.0
  Ni  Ni1110  1  0.37288464  0.26239244  0.30966058  1.0
  Ni  Ni1111  1  0.37288464  0.59572578  0.30966058  1.0
  Ni  Ni1112  1  0.37288464  0.92905911  0.30966058  1.0
  Ni  Ni1113  1  0.70621797  0.26239244  0.30966058  1.0
  Ni  Ni1114  1  0.70621797  0.59572578  0.30966058  1.0
  Ni  Ni1115  1  0.70621797  0.92905911  0.30966058  1.0
  Ni  Ni1116  1  0.19689971  0.26631174  0.31357988  1.0
  Ni  Ni1117  1  0.19689971  0.59964508  0.31357988  1.0
  Ni  Ni1118  1  0.19689971  0.93297841  0.31357988  1.0
  Ni  Ni1119  1  0.53023304  0.26631174  0.31357988  1.0
  Ni  Ni1120  1  0.53023304  0.59964508  0.31357988  1.0
  Ni  Ni1121  1  0.53023304  0.93297841  0.31357988  1.0
  Ni  Ni1122  1  0.86356637  0.26631174  0.31357988  1.0
  Ni  Ni1123  1  0.86356637  0.59964508  0.31357988  1.0
  Ni  Ni1124  1  0.86356637  0.93297841  0.31357988  1.0
  Ni  Ni1125  1  0.06356637  0.16631174  0.21357988  1.0
  Ni  Ni1126  1  0.06356637  0.49964508  0.21357988  1.0
  Ni  Ni1127  1  0.06356637  0.83297841  0.21357988  1.0
  Ni  Ni1128  1  0.39689971  0.16631174  0.21357988  1.0
  Ni  Ni1129  1  0.39689971  0.49964508  0.21357988  1.0
  Ni  Ni1130  1  0.39689971  0.83297841  0.21357988  1.0
  Ni  Ni1131  1  0.73023304  0.16631174  0.21357988  1.0
  Ni  Ni1132  1  0.73023304  0.49964508  0.21357988  1.0
  Ni  Ni1133  1  0.73023304  0.83297841  0.21357988  1.0
  Ni  Ni1134  1  0.29719564  0.04949711  0.26491158  1.0
  Ni  Ni1135  1  0.29719564  0.38283044  0.26491158  1.0
  Ni  Ni1136  1  0.29719564  0.71616378  0.26491158  1.0
  Ni  Ni1137  1  0.63052897  0.04949711  0.26491158  1.0
  Ni  Ni1138  1  0.63052897  0.38283044  0.26491158  1.0
  Ni  Ni1139  1  0.63052897  0.71616378  0.26491158  1.0
  Ni  Ni1140  1  0.96386231  0.04949711  0.26491158  1.0
  Ni  Ni1141  1  0.96386231  0.38283044  0.26491158  1.0
  Ni  Ni1142  1  0.96386231  0.71616378  0.26491158  1.0
  Ni  Ni1143  1  0.09719564  0.14949711  0.36491158  1.0
  Ni  Ni1144  1  0.09719564  0.48283044  0.36491158  1.0
  Ni  Ni1145  1  0.09719564  0.81616378  0.36491158  1.0
  Ni  Ni1146  1  0.43052897  0.14949711  0.36491158  1.0
  Ni  Ni1147  1  0.43052897  0.48283044  0.36491158  1.0
  Ni  Ni1148  1  0.43052897  0.81616378  0.36491158  1.0
  Ni  Ni1149  1  0.76386231  0.14949711  0.36491158  1.0
  Ni  Ni1150  1  0.76386231  0.48283044  0.36491158  1.0
  Ni  Ni1151  1  0.76386231  0.81616378  0.36491158  1.0
  Ni  Ni1152  1  0.26415824  0.31675564  0.36402378  1.0
  Ni  Ni1153  1  0.26415824  0.65008898  0.36402378  1.0
  Ni  Ni1154  1  0.26415824  0.98342231  0.36402378  1.0
  Ni  Ni1155  1  0.59749157  0.31675564  0.36402378  1.0
  Ni  Ni1156  1  0.59749157  0.65008898  0.36402378  1.0
  Ni  Ni1157  1  0.59749157  0.98342231  0.36402378  1.0
  Ni  Ni1158  1  0.93082491  0.31675564  0.36402378  1.0
  Ni  Ni1159  1  0.93082491  0.65008898  0.36402378  1.0
  Ni  Ni1160  1  0.93082491  0.98342231  0.36402378  1.0
  Ni  Ni1161  1  0.13082491  0.21675564  0.26402378  1.0
  Ni  Ni1162  1  0.13082491  0.55008898  0.26402378  1.0
  Ni  Ni1163  1  0.13082491  0.88342231  0.26402378  1.0
  Ni  Ni1164  1  0.46415824  0.21675564  0.26402378  1.0
  Ni  Ni1165  1  0.46415824  0.55008898  0.26402378  1.0
  Ni  Ni1166  1  0.46415824  0.88342231  0.26402378  1.0
  Ni  Ni1167  1  0.79749157  0.21675564  0.26402378  1.0
  Ni  Ni1168  1  0.79749157  0.55008898  0.26402378  1.0
  Ni  Ni1169  1  0.79749157  0.88342231  0.26402378  1.0
  Ni  Ni1170  1  0.27288464  0.00659028  0.27706708  1.0
  Ni  Ni1171  1  0.27288464  0.33992361  0.27706708  1.0
  Ni  Ni1172  1  0.27288464  0.67325694  0.27706708  1.0
  Ni  Ni1173  1  0.60621797  0.00659028  0.27706708  1.0
  Ni  Ni1174  1  0.60621797  0.33992361  0.27706708  1.0
  Ni  Ni1175  1  0.60621797  0.67325694  0.27706708  1.0
  Ni  Ni1176  1  0.93955131  0.00659028  0.27706708  1.0
  Ni  Ni1177  1  0.93955131  0.33992361  0.27706708  1.0
  Ni  Ni1178  1  0.93955131  0.67325694  0.27706708  1.0
  Ni  Ni1179  1  0.07288464  0.10659028  0.37706708  1.0
  Ni  Ni1180  1  0.07288464  0.43992361  0.37706708  1.0
  Ni  Ni1181  1  0.07288464  0.77325694  0.37706708  1.0
  Ni  Ni1182  1  0.40621797  0.10659028  0.37706708  1.0
  Ni  Ni1183  1  0.40621797  0.43992361  0.37706708  1.0
  Ni  Ni1184  1  0.40621797  0.77325694  0.37706708  1.0
  Ni  Ni1185  1  0.73955131  0.10659028  0.37706708  1.0
  Ni  Ni1186  1  0.73955131  0.43992361  0.37706708  1.0
  Ni  Ni1187  1  0.73955131  0.77325694  0.37706708  1.0
  Ni  Ni1188  1  0.17258871  0.22340491  0.32573538  1.0
  Ni  Ni1189  1  0.17258871  0.55673824  0.32573538  1.0
  Ni  Ni1190  1  0.17258871  0.89007158  0.32573538  1.0
  Ni  Ni1191  1  0.50592204  0.22340491  0.32573538  1.0
  Ni  Ni1192  1  0.50592204  0.55673824  0.32573538  1.0
  Ni  Ni1193  1  0.50592204  0.89007158  0.32573538  1.0
  Ni  Ni1194  1  0.83925537  0.22340491  0.32573538  1.0
  Ni  Ni1195  1  0.83925537  0.55673824  0.32573538  1.0
  Ni  Ni1196  1  0.83925537  0.89007158  0.32573538  1.0
  Ni  Ni1197  1  0.03925537  0.12340491  0.22573538  1.0
  Ni  Ni1198  1  0.03925537  0.45673824  0.22573538  1.0
  Ni  Ni1199  1  0.03925537  0.79007158  0.22573538  1.0
  Ni  Ni1200  1  0.37258871  0.12340491  0.22573538  1.0
  Ni  Ni1201  1  0.37258871  0.45673824  0.22573538  1.0
  Ni  Ni1202  1  0.37258871  0.79007158  0.22573538  1.0
  Ni  Ni1203  1  0.70592204  0.12340491  0.22573538  1.0
  Ni  Ni1204  1  0.70592204  0.45673824  0.22573538  1.0
  Ni  Ni1205  1  0.70592204  0.79007158  0.22573538  1.0
  Ni  Ni1206  1  0.20562611  0.28947971  0.22662318  1.0
  Ni  Ni1207  1  0.20562611  0.62281304  0.22662318  1.0
  Ni  Ni1208  1  0.20562611  0.95614638  0.22662318  1.0
  Ni  Ni1209  1  0.53895944  0.28947971  0.22662318  1.0
  Ni  Ni1210  1  0.53895944  0.62281304  0.22662318  1.0
  Ni  Ni1211  1  0.53895944  0.95614638  0.22662318  1.0
  Ni  Ni1212  1  0.87229277  0.28947971  0.22662318  1.0
  Ni  Ni1213  1  0.87229277  0.62281304  0.22662318  1.0
  Ni  Ni1214  1  0.87229277  0.95614638  0.22662318  1.0
  Ni  Ni1215  1  0.00562611  0.05614638  0.32662318  1.0
  Ni  Ni1216  1  0.00562611  0.38947971  0.32662318  1.0
  Ni  Ni1217  1  0.00562611  0.72281304  0.32662318  1.0
  Ni  Ni1218  1  0.33895944  0.05614638  0.32662318  1.0
  Ni  Ni1219  1  0.33895944  0.38947971  0.32662318  1.0
  Ni  Ni1220  1  0.33895944  0.72281304  0.32662318  1.0
  Ni  Ni1221  1  0.67229277  0.05614638  0.32662318  1.0
  Ni  Ni1222  1  0.67229277  0.38947971  0.32662318  1.0
  Ni  Ni1223  1  0.67229277  0.72281304  0.32662318  1.0
  Y  Y1224  1  0.18489217  0.07811768  0.07032348  1.0
  Y  Y1225  1  0.18489217  0.41145101  0.07032348  1.0
  Y  Y1226  1  0.18489217  0.74478434  0.07032348  1.0
  Y  Y1227  1  0.51822551  0.07811768  0.07032348  1.0
  Y  Y1228  1  0.51822551  0.41145101  0.07032348  1.0
  Y  Y1229  1  0.51822551  0.74478434  0.07032348  1.0
  Y  Y1230  1  0.85155884  0.07811768  0.07032348  1.0
  Y  Y1231  1  0.85155884  0.41145101  0.07032348  1.0
  Y  Y1232  1  0.85155884  0.74478434  0.07032348  1.0
  Y  Y1233  1  0.31822551  0.17811768  0.17032348  1.0
  Y  Y1234  1  0.31822551  0.51145101  0.17032348  1.0
  Y  Y1235  1  0.31822551  0.84478434  0.17032348  1.0
  Y  Y1236  1  0.65155884  0.17811768  0.17032348  1.0
  Y  Y1237  1  0.65155884  0.51145101  0.17032348  1.0
  Y  Y1238  1  0.65155884  0.84478434  0.17032348  1.0
  Y  Y1239  1  0.98489217  0.17811768  0.17032348  1.0
  Y  Y1240  1  0.98489217  0.51145101  0.17032348  1.0
  Y  Y1241  1  0.98489217  0.84478434  0.17032348  1.0
  Y  Y1242  1  0.28489217  0.02811768  0.02032348  1.0
  Y  Y1243  1  0.28489217  0.36145101  0.02032348  1.0
  Y  Y1244  1  0.28489217  0.69478434  0.02032348  1.0
  Y  Y1245  1  0.61822551  0.02811768  0.02032348  1.0
  Y  Y1246  1  0.61822551  0.36145101  0.02032348  1.0
  Y  Y1247  1  0.61822551  0.69478434  0.02032348  1.0
  Y  Y1248  1  0.95155884  0.02811768  0.02032348  1.0
  Y  Y1249  1  0.95155884  0.36145101  0.02032348  1.0
  Y  Y1250  1  0.95155884  0.69478434  0.02032348  1.0
  Y  Y1251  1  0.08489217  0.12811768  0.12032348  1.0
  Y  Y1252  1  0.08489217  0.46145101  0.12032348  1.0
  Y  Y1253  1  0.08489217  0.79478434  0.12032348  1.0
  Y  Y1254  1  0.41822551  0.12811768  0.12032348  1.0
  Y  Y1255  1  0.41822551  0.46145101  0.12032348  1.0
  Y  Y1256  1  0.41822551  0.79478434  0.12032348  1.0
  Y  Y1257  1  0.75155884  0.12811768  0.12032348  1.0
  Y  Y1258  1  0.75155884  0.46145101  0.12032348  1.0
  Y  Y1259  1  0.75155884  0.79478434  0.12032348  1.0
  Y  Y1260  1  0.28489217  0.30589546  0.18699015  1.0
  Y  Y1261  1  0.28489217  0.63922879  0.18699015  1.0
  Y  Y1262  1  0.28489217  0.97256212  0.18699015  1.0
  Y  Y1263  1  0.61822551  0.30589546  0.18699015  1.0
  Y  Y1264  1  0.61822551  0.63922879  0.18699015  1.0
  Y  Y1265  1  0.61822551  0.97256212  0.18699015  1.0
  Y  Y1266  1  0.95155884  0.30589546  0.18699015  1.0
  Y  Y1267  1  0.95155884  0.63922879  0.18699015  1.0
  Y  Y1268  1  0.95155884  0.97256212  0.18699015  1.0
  Y  Y1269  1  0.15155884  0.20589546  0.08699015  1.0
  Y  Y1270  1  0.15155884  0.53922879  0.08699015  1.0
  Y  Y1271  1  0.15155884  0.87256212  0.08699015  1.0
  Y  Y1272  1  0.48489217  0.20589546  0.08699015  1.0
  Y  Y1273  1  0.48489217  0.53922879  0.08699015  1.0
  Y  Y1274  1  0.48489217  0.87256212  0.08699015  1.0
  Y  Y1275  1  0.81822551  0.20589546  0.08699015  1.0
  Y  Y1276  1  0.81822551  0.53922879  0.08699015  1.0
  Y  Y1277  1  0.81822551  0.87256212  0.08699015  1.0
  Y  Y1278  1  0.31822551  0.23367323  0.00365682  1.0
  Y  Y1279  1  0.31822551  0.56700657  0.00365682  1.0
  Y  Y1280  1  0.31822551  0.90033990  0.00365682  1.0
  Y  Y1281  1  0.65155884  0.23367323  0.00365682  1.0
  Y  Y1282  1  0.65155884  0.56700657  0.00365682  1.0
  Y  Y1283  1  0.65155884  0.90033990  0.00365682  1.0
  Y  Y1284  1  0.98489217  0.23367323  0.00365682  1.0
  Y  Y1285  1  0.98489217  0.56700657  0.00365682  1.0
  Y  Y1286  1  0.98489217  0.90033990  0.00365682  1.0
  Y  Y1287  1  0.11822551  0.00033990  0.10365682  1.0
  Y  Y1288  1  0.11822551  0.33367323  0.10365682  1.0
  Y  Y1289  1  0.11822551  0.66700657  0.10365682  1.0
  Y  Y1290  1  0.45155884  0.00033990  0.10365682  1.0
  Y  Y1291  1  0.45155884  0.33367323  0.10365682  1.0
  Y  Y1292  1  0.45155884  0.66700657  0.10365682  1.0
  Y  Y1293  1  0.78489217  0.00033990  0.10365682  1.0
  Y  Y1294  1  0.78489217  0.33367323  0.10365682  1.0
  Y  Y1295  1  0.78489217  0.66700657  0.10365682  1.0
  Y  Y1296  1  0.11822551  0.27811768  0.27032348  1.0
  Y  Y1297  1  0.11822551  0.61145101  0.27032348  1.0
  Y  Y1298  1  0.11822551  0.94478434  0.27032348  1.0
  Y  Y1299  1  0.45155884  0.27811768  0.27032348  1.0
  Y  Y1300  1  0.45155884  0.61145101  0.27032348  1.0
  Y  Y1301  1  0.45155884  0.94478434  0.27032348  1.0
  Y  Y1302  1  0.78489217  0.27811768  0.27032348  1.0
  Y  Y1303  1  0.78489217  0.61145101  0.27032348  1.0
  Y  Y1304  1  0.78489217  0.94478434  0.27032348  1.0
  Y  Y1305  1  0.25155884  0.04478434  0.37032348  1.0
  Y  Y1306  1  0.25155884  0.37811768  0.37032348  1.0
  Y  Y1307  1  0.25155884  0.71145101  0.37032348  1.0
  Y  Y1308  1  0.58489217  0.04478434  0.37032348  1.0
  Y  Y1309  1  0.58489217  0.37811768  0.37032348  1.0
  Y  Y1310  1  0.58489217  0.71145101  0.37032348  1.0
  Y  Y1311  1  0.91822551  0.04478434  0.37032348  1.0
  Y  Y1312  1  0.91822551  0.37811768  0.37032348  1.0
  Y  Y1313  1  0.91822551  0.71145101  0.37032348  1.0
  Y  Y1314  1  0.21822551  0.22811768  0.22032348  1.0
  Y  Y1315  1  0.21822551  0.56145101  0.22032348  1.0
  Y  Y1316  1  0.21822551  0.89478434  0.22032348  1.0
  Y  Y1317  1  0.55155884  0.22811768  0.22032348  1.0
  Y  Y1318  1  0.55155884  0.56145101  0.22032348  1.0
  Y  Y1319  1  0.55155884  0.89478434  0.22032348  1.0
  Y  Y1320  1  0.88489217  0.22811768  0.22032348  1.0
  Y  Y1321  1  0.88489217  0.56145101  0.22032348  1.0
  Y  Y1322  1  0.88489217  0.89478434  0.22032348  1.0
  Y  Y1323  1  0.01822551  0.32811768  0.32032348  1.0
  Y  Y1324  1  0.01822551  0.66145101  0.32032348  1.0
  Y  Y1325  1  0.01822551  0.99478434  0.32032348  1.0
  Y  Y1326  1  0.35155884  0.32811768  0.32032348  1.0
  Y  Y1327  1  0.35155884  0.66145101  0.32032348  1.0
  Y  Y1328  1  0.35155884  0.99478434  0.32032348  1.0
  Y  Y1329  1  0.68489217  0.32811768  0.32032348  1.0
  Y  Y1330  1  0.68489217  0.66145101  0.32032348  1.0
  Y  Y1331  1  0.68489217  0.99478434  0.32032348  1.0
  Y  Y1332  1  0.21822551  0.17256212  0.38699015  1.0
  Y  Y1333  1  0.21822551  0.50589546  0.38699015  1.0
  Y  Y1334  1  0.21822551  0.83922879  0.38699015  1.0
  Y  Y1335  1  0.55155884  0.17256212  0.38699015  1.0
  Y  Y1336  1  0.55155884  0.50589546  0.38699015  1.0
  Y  Y1337  1  0.55155884  0.83922879  0.38699015  1.0
  Y  Y1338  1  0.88489217  0.17256212  0.38699015  1.0
  Y  Y1339  1  0.88489217  0.50589546  0.38699015  1.0
  Y  Y1340  1  0.88489217  0.83922879  0.38699015  1.0
  Y  Y1341  1  0.08489217  0.07256212  0.28699015  1.0
  Y  Y1342  1  0.08489217  0.40589546  0.28699015  1.0
  Y  Y1343  1  0.08489217  0.73922879  0.28699015  1.0
  Y  Y1344  1  0.41822551  0.07256212  0.28699015  1.0
  Y  Y1345  1  0.41822551  0.40589546  0.28699015  1.0
  Y  Y1346  1  0.41822551  0.73922879  0.28699015  1.0
  Y  Y1347  1  0.75155884  0.07256212  0.28699015  1.0
  Y  Y1348  1  0.75155884  0.40589546  0.28699015  1.0
  Y  Y1349  1  0.75155884  0.73922879  0.28699015  1.0
  Y  Y1350  1  0.25155884  0.10033990  0.20365682  1.0
  Y  Y1351  1  0.25155884  0.43367323  0.20365682  1.0
  Y  Y1352  1  0.25155884  0.76700657  0.20365682  1.0
  Y  Y1353  1  0.58489217  0.10033990  0.20365682  1.0
  Y  Y1354  1  0.58489217  0.43367323  0.20365682  1.0
  Y  Y1355  1  0.58489217  0.76700657  0.20365682  1.0
  Y  Y1356  1  0.91822551  0.10033990  0.20365682  1.0
  Y  Y1357  1  0.91822551  0.43367323  0.20365682  1.0
  Y  Y1358  1  0.91822551  0.76700657  0.20365682  1.0
  Y  Y1359  1  0.05155884  0.20033990  0.30365682  1.0
  Y  Y1360  1  0.05155884  0.53367323  0.30365682  1.0
  Y  Y1361  1  0.05155884  0.86700657  0.30365682  1.0
  Y  Y1362  1  0.38489217  0.20033990  0.30365682  1.0
  Y  Y1363  1  0.38489217  0.53367323  0.30365682  1.0
  Y  Y1364  1  0.38489217  0.86700657  0.30365682  1.0
  Y  Y1365  1  0.71822551  0.20033990  0.30365682  1.0
  Y  Y1366  1  0.71822551  0.53367323  0.30365682  1.0
  Y  Y1367  1  0.71822551  0.86700657  0.30365682  1.0
