# generated using pymatgen
data_Y2Ni7
_symmetry_space_group_name_H-M   'P 1'
_cell_length_a   37.10595975
_cell_length_b   72.71839319
_cell_length_c   148.42383900
_cell_angle_alpha   11.51431995
_cell_angle_beta   23.02863991
_cell_angle_gamma   20.08049352
_symmetry_Int_Tables_number   1
_chemical_formula_structural   Y2Ni7
_chemical_formula_sum   'Y180 Ni630'
_cell_volume   27447.60336567
_cell_formula_units_Z   90
loop_
 _symmetry_equiv_pos_site_id
 _symmetry_equiv_pos_as_xyz
  1  'x, y, z'
loop_
 _atom_site_type_symbol
 _atom_site_label
 _atom_site_symmetry_multiplicity
 _atom_site_fract_x
 _atom_site_fract_y
 _atom_site_fract_z
 _atom_site_occupancy
  Y  Y0  1  0.31652133  0.31652133  0.06254775  1.0
  Y  Y1  1  0.31652133  0.64985467  0.06254775  1.0
  Y  Y2  1  0.31652133  0.98318800  0.06254775  1.0
  Y  Y3  1  0.64985467  0.31652133  0.06254775  1.0
  Y  Y4  1  0.64985467  0.64985467  0.06254775  1.0
  Y  Y5  1  0.64985467  0.98318800  0.06254775  1.0
  Y  Y6  1  0.98318800  0.31652133  0.06254775  1.0
  Y  Y7  1  0.98318800  0.64985467  0.06254775  1.0
  Y  Y8  1  0.98318800  0.98318800  0.06254775  1.0
  Y  Y9  1  0.04905400  0.04905400  0.06254775  1.0
  Y  Y10  1  0.04905400  0.38238733  0.06254775  1.0
  Y  Y11  1  0.04905400  0.71572067  0.06254775  1.0
  Y  Y12  1  0.38238733  0.04905400  0.06254775  1.0
  Y  Y13  1  0.38238733  0.38238733  0.06254775  1.0
  Y  Y14  1  0.38238733  0.71572067  0.06254775  1.0
  Y  Y15  1  0.71572067  0.04905400  0.06254775  1.0
  Y  Y16  1  0.71572067  0.38238733  0.06254775  1.0
  Y  Y17  1  0.71572067  0.71572067  0.06254775  1.0
  Y  Y18  1  0.01681200  0.01681200  0.06254775  1.0
  Y  Y19  1  0.01681200  0.35014533  0.06254775  1.0
  Y  Y20  1  0.01681200  0.68347867  0.06254775  1.0
  Y  Y21  1  0.35014533  0.01681200  0.06254775  1.0
  Y  Y22  1  0.35014533  0.35014533  0.06254775  1.0
  Y  Y23  1  0.35014533  0.68347867  0.06254775  1.0
  Y  Y24  1  0.68347867  0.01681200  0.06254775  1.0
  Y  Y25  1  0.68347867  0.35014533  0.06254775  1.0
  Y  Y26  1  0.68347867  0.68347867  0.06254775  1.0
  Y  Y27  1  0.28427933  0.28427933  0.06254775  1.0
  Y  Y28  1  0.28427933  0.61761267  0.06254775  1.0
  Y  Y29  1  0.28427933  0.95094600  0.06254775  1.0
  Y  Y30  1  0.61761267  0.28427933  0.06254775  1.0
  Y  Y31  1  0.61761267  0.61761267  0.06254775  1.0
  Y  Y32  1  0.61761267  0.95094600  0.06254775  1.0
  Y  Y33  1  0.95094600  0.28427933  0.06254775  1.0
  Y  Y34  1  0.95094600  0.61761267  0.06254775  1.0
  Y  Y35  1  0.95094600  0.95094600  0.06254775  1.0
  Ni  Ni36  1  0.24060633  0.24060633  0.06254775  1.0
  Ni  Ni37  1  0.24060633  0.57393967  0.06254775  1.0
  Ni  Ni38  1  0.24060633  0.90727300  0.06254775  1.0
  Ni  Ni39  1  0.57393967  0.24060633  0.06254775  1.0
  Ni  Ni40  1  0.57393967  0.57393967  0.06254775  1.0
  Ni  Ni41  1  0.57393967  0.90727300  0.06254775  1.0
  Ni  Ni42  1  0.90727300  0.24060633  0.06254775  1.0
  Ni  Ni43  1  0.90727300  0.57393967  0.06254775  1.0
  Ni  Ni44  1  0.90727300  0.90727300  0.06254775  1.0
  Ni  Ni45  1  0.12942167  0.12942167  0.06254775  1.0
  Ni  Ni46  1  0.12942167  0.46275500  0.06254775  1.0
  Ni  Ni47  1  0.12942167  0.79608833  0.06254775  1.0
  Ni  Ni48  1  0.46275500  0.12942167  0.06254775  1.0
  Ni  Ni49  1  0.46275500  0.46275500  0.06254775  1.0
  Ni  Ni50  1  0.46275500  0.79608833  0.06254775  1.0
  Ni  Ni51  1  0.79608833  0.12942167  0.06254775  1.0
  Ni  Ni52  1  0.79608833  0.46275500  0.06254775  1.0
  Ni  Ni53  1  0.79608833  0.79608833  0.06254775  1.0
  Ni  Ni54  1  0.12999600  0.29704467  0.02078558  1.0
  Ni  Ni55  1  0.12999600  0.63037800  0.02078558  1.0
  Ni  Ni56  1  0.12999600  0.96371133  0.02078558  1.0
  Ni  Ni57  1  0.46332933  0.29704467  0.02078558  1.0
  Ni  Ni58  1  0.46332933  0.63037800  0.02078558  1.0
  Ni  Ni59  1  0.46332933  0.96371133  0.02078558  1.0
  Ni  Ni60  1  0.79666267  0.29704467  0.02078558  1.0
  Ni  Ni61  1  0.79666267  0.63037800  0.02078558  1.0
  Ni  Ni62  1  0.79666267  0.96371133  0.02078558  1.0
  Ni  Ni63  1  0.20391167  0.20391167  0.06254775  1.0
  Ni  Ni64  1  0.20391167  0.53724500  0.06254775  1.0
  Ni  Ni65  1  0.20391167  0.87057833  0.06254775  1.0
  Ni  Ni66  1  0.53724500  0.20391167  0.06254775  1.0
  Ni  Ni67  1  0.53724500  0.53724500  0.06254775  1.0
  Ni  Ni68  1  0.53724500  0.87057833  0.06254775  1.0
  Ni  Ni69  1  0.87057833  0.20391167  0.06254775  1.0
  Ni  Ni70  1  0.87057833  0.53724500  0.06254775  1.0
  Ni  Ni71  1  0.87057833  0.87057833  0.06254775  1.0
  Ni  Ni72  1  0.16666667  0.16666667  0.02088108  1.0
  Ni  Ni73  1  0.16666667  0.50000000  0.02088108  1.0
  Ni  Ni74  1  0.16666667  0.83333333  0.02088108  1.0
  Ni  Ni75  1  0.50000000  0.16666667  0.02088108  1.0
  Ni  Ni76  1  0.50000000  0.50000000  0.02088108  1.0
  Ni  Ni77  1  0.50000000  0.83333333  0.02088108  1.0
  Ni  Ni78  1  0.83333333  0.16666667  0.02088108  1.0
  Ni  Ni79  1  0.83333333  0.50000000  0.02088108  1.0
  Ni  Ni80  1  0.83333333  0.83333333  0.02088108  1.0
  Ni  Ni81  1  0.03628867  0.20333733  0.06254775  1.0
  Ni  Ni82  1  0.03628867  0.53667067  0.06254775  1.0
  Ni  Ni83  1  0.03628867  0.87000400  0.06254775  1.0
  Ni  Ni84  1  0.36962200  0.20333733  0.06254775  1.0
  Ni  Ni85  1  0.36962200  0.53667067  0.06254775  1.0
  Ni  Ni86  1  0.36962200  0.87000400  0.06254775  1.0
  Ni  Ni87  1  0.70295533  0.20333733  0.06254775  1.0
  Ni  Ni88  1  0.70295533  0.53667067  0.06254775  1.0
  Ni  Ni89  1  0.70295533  0.87000400  0.06254775  1.0
  Ni  Ni90  1  0.16666667  0.16666667  0.06254775  1.0
  Ni  Ni91  1  0.16666667  0.50000000  0.06254775  1.0
  Ni  Ni92  1  0.16666667  0.83333333  0.06254775  1.0
  Ni  Ni93  1  0.50000000  0.16666667  0.06254775  1.0
  Ni  Ni94  1  0.50000000  0.50000000  0.06254775  1.0
  Ni  Ni95  1  0.50000000  0.83333333  0.06254775  1.0
  Ni  Ni96  1  0.83333333  0.16666667  0.06254775  1.0
  Ni  Ni97  1  0.83333333  0.50000000  0.06254775  1.0
  Ni  Ni98  1  0.83333333  0.83333333  0.06254775  1.0
  Ni  Ni99  1  0.29704467  0.12999600  0.06254775  1.0
  Ni  Ni100  1  0.29704467  0.46332933  0.06254775  1.0
  Ni  Ni101  1  0.29704467  0.79666267  0.06254775  1.0
  Ni  Ni102  1  0.63037800  0.12999600  0.06254775  1.0
  Ni  Ni103  1  0.63037800  0.46332933  0.06254775  1.0
  Ni  Ni104  1  0.63037800  0.79666267  0.06254775  1.0
  Ni  Ni105  1  0.96371133  0.12999600  0.06254775  1.0
  Ni  Ni106  1  0.96371133  0.46332933  0.06254775  1.0
  Ni  Ni107  1  0.96371133  0.79666267  0.06254775  1.0
  Ni  Ni108  1  0.09272700  0.09272700  0.06254775  1.0
  Ni  Ni109  1  0.09272700  0.42606033  0.06254775  1.0
  Ni  Ni110  1  0.09272700  0.75939367  0.06254775  1.0
  Ni  Ni111  1  0.42606033  0.09272700  0.06254775  1.0
  Ni  Ni112  1  0.42606033  0.42606033  0.06254775  1.0
  Ni  Ni113  1  0.42606033  0.75939367  0.06254775  1.0
  Ni  Ni114  1  0.75939367  0.09272700  0.06254775  1.0
  Ni  Ni115  1  0.75939367  0.42606033  0.06254775  1.0
  Ni  Ni116  1  0.75939367  0.75939367  0.06254775  1.0
  Ni  Ni117  1  0.20333733  0.03628867  0.02097658  1.0
  Ni  Ni118  1  0.20333733  0.36962200  0.02097658  1.0
  Ni  Ni119  1  0.20333733  0.70295533  0.02097658  1.0
  Ni  Ni120  1  0.53667067  0.03628867  0.02097658  1.0
  Ni  Ni121  1  0.53667067  0.36962200  0.02097658  1.0
  Ni  Ni122  1  0.53667067  0.70295533  0.02097658  1.0
  Ni  Ni123  1  0.87000400  0.03628867  0.02097658  1.0
  Ni  Ni124  1  0.87000400  0.36962200  0.02097658  1.0
  Ni  Ni125  1  0.87000400  0.70295533  0.02097658  1.0
  Ni  Ni126  1  0.12999600  0.12999600  0.02097658  1.0
  Ni  Ni127  1  0.12999600  0.46332933  0.02097658  1.0
  Ni  Ni128  1  0.12999600  0.79666267  0.02097658  1.0
  Ni  Ni129  1  0.46332933  0.12999600  0.02097658  1.0
  Ni  Ni130  1  0.46332933  0.46332933  0.02097658  1.0
  Ni  Ni131  1  0.46332933  0.79666267  0.02097658  1.0
  Ni  Ni132  1  0.79666267  0.12999600  0.02097658  1.0
  Ni  Ni133  1  0.79666267  0.46332933  0.02097658  1.0
  Ni  Ni134  1  0.79666267  0.79666267  0.02097658  1.0
  Ni  Ni135  1  0.16666667  0.00000000  0.02088108  1.0
  Ni  Ni136  1  0.16666667  0.33333333  0.02088108  1.0
  Ni  Ni137  1  0.16666667  0.66666667  0.02088108  1.0
  Ni  Ni138  1  0.50000000  0.00000000  0.02088108  1.0
  Ni  Ni139  1  0.50000000  0.33333333  0.02088108  1.0
  Ni  Ni140  1  0.50000000  0.66666667  0.02088108  1.0
  Ni  Ni141  1  0.83333333  0.00000000  0.02088108  1.0
  Ni  Ni142  1  0.83333333  0.33333333  0.02088108  1.0
  Ni  Ni143  1  0.83333333  0.66666667  0.02088108  1.0
  Ni  Ni144  1  0.00000000  0.16666667  0.06254775  1.0
  Ni  Ni145  1  0.00000000  0.50000000  0.06254775  1.0
  Ni  Ni146  1  0.00000000  0.83333333  0.06254775  1.0
  Ni  Ni147  1  0.33333333  0.16666667  0.06254775  1.0
  Ni  Ni148  1  0.33333333  0.50000000  0.06254775  1.0
  Ni  Ni149  1  0.33333333  0.83333333  0.06254775  1.0
  Ni  Ni150  1  0.66666667  0.16666667  0.06254775  1.0
  Ni  Ni151  1  0.66666667  0.50000000  0.06254775  1.0
  Ni  Ni152  1  0.66666667  0.83333333  0.06254775  1.0
  Ni  Ni153  1  0.20333733  0.20333733  0.02078558  1.0
  Ni  Ni154  1  0.20333733  0.53667067  0.02078558  1.0
  Ni  Ni155  1  0.20333733  0.87000400  0.02078558  1.0
  Ni  Ni156  1  0.53667067  0.20333733  0.02078558  1.0
  Ni  Ni157  1  0.53667067  0.53667067  0.02078558  1.0
  Ni  Ni158  1  0.53667067  0.87000400  0.02078558  1.0
  Ni  Ni159  1  0.87000400  0.20333733  0.02078558  1.0
  Ni  Ni160  1  0.87000400  0.53667067  0.02078558  1.0
  Ni  Ni161  1  0.87000400  0.87000400  0.02078558  1.0
  Y  Y162  1  0.31652133  0.31652133  0.14588108  1.0
  Y  Y163  1  0.31652133  0.64985467  0.14588108  1.0
  Y  Y164  1  0.31652133  0.98318800  0.14588108  1.0
  Y  Y165  1  0.64985467  0.31652133  0.14588108  1.0
  Y  Y166  1  0.64985467  0.64985467  0.14588108  1.0
  Y  Y167  1  0.64985467  0.98318800  0.14588108  1.0
  Y  Y168  1  0.98318800  0.31652133  0.14588108  1.0
  Y  Y169  1  0.98318800  0.64985467  0.14588108  1.0
  Y  Y170  1  0.98318800  0.98318800  0.14588108  1.0
  Y  Y171  1  0.04905400  0.04905400  0.14588108  1.0
  Y  Y172  1  0.04905400  0.38238733  0.14588108  1.0
  Y  Y173  1  0.04905400  0.71572067  0.14588108  1.0
  Y  Y174  1  0.38238733  0.04905400  0.14588108  1.0
  Y  Y175  1  0.38238733  0.38238733  0.14588108  1.0
  Y  Y176  1  0.38238733  0.71572067  0.14588108  1.0
  Y  Y177  1  0.71572067  0.04905400  0.14588108  1.0
  Y  Y178  1  0.71572067  0.38238733  0.14588108  1.0
  Y  Y179  1  0.71572067  0.71572067  0.14588108  1.0
  Y  Y180  1  0.01681200  0.01681200  0.14588108  1.0
  Y  Y181  1  0.01681200  0.35014533  0.14588108  1.0
  Y  Y182  1  0.01681200  0.68347867  0.14588108  1.0
  Y  Y183  1  0.35014533  0.01681200  0.14588108  1.0
  Y  Y184  1  0.35014533  0.35014533  0.14588108  1.0
  Y  Y185  1  0.35014533  0.68347867  0.14588108  1.0
  Y  Y186  1  0.68347867  0.01681200  0.14588108  1.0
  Y  Y187  1  0.68347867  0.35014533  0.14588108  1.0
  Y  Y188  1  0.68347867  0.68347867  0.14588108  1.0
  Y  Y189  1  0.28427933  0.28427933  0.14588108  1.0
  Y  Y190  1  0.28427933  0.61761267  0.14588108  1.0
  Y  Y191  1  0.28427933  0.95094600  0.14588108  1.0
  Y  Y192  1  0.61761267  0.28427933  0.14588108  1.0
  Y  Y193  1  0.61761267  0.61761267  0.14588108  1.0
  Y  Y194  1  0.61761267  0.95094600  0.14588108  1.0
  Y  Y195  1  0.95094600  0.28427933  0.14588108  1.0
  Y  Y196  1  0.95094600  0.61761267  0.14588108  1.0
  Y  Y197  1  0.95094600  0.95094600  0.14588108  1.0
  Ni  Ni198  1  0.24060633  0.24060633  0.14588108  1.0
  Ni  Ni199  1  0.24060633  0.57393967  0.14588108  1.0
  Ni  Ni200  1  0.24060633  0.90727300  0.14588108  1.0
  Ni  Ni201  1  0.57393967  0.24060633  0.14588108  1.0
  Ni  Ni202  1  0.57393967  0.57393967  0.14588108  1.0
  Ni  Ni203  1  0.57393967  0.90727300  0.14588108  1.0
  Ni  Ni204  1  0.90727300  0.24060633  0.14588108  1.0
  Ni  Ni205  1  0.90727300  0.57393967  0.14588108  1.0
  Ni  Ni206  1  0.90727300  0.90727300  0.14588108  1.0
  Ni  Ni207  1  0.12942167  0.12942167  0.14588108  1.0
  Ni  Ni208  1  0.12942167  0.46275500  0.14588108  1.0
  Ni  Ni209  1  0.12942167  0.79608833  0.14588108  1.0
  Ni  Ni210  1  0.46275500  0.12942167  0.14588108  1.0
  Ni  Ni211  1  0.46275500  0.46275500  0.14588108  1.0
  Ni  Ni212  1  0.46275500  0.79608833  0.14588108  1.0
  Ni  Ni213  1  0.79608833  0.12942167  0.14588108  1.0
  Ni  Ni214  1  0.79608833  0.46275500  0.14588108  1.0
  Ni  Ni215  1  0.79608833  0.79608833  0.14588108  1.0
  Ni  Ni216  1  0.12999600  0.29704467  0.10411892  1.0
  Ni  Ni217  1  0.12999600  0.63037800  0.10411892  1.0
  Ni  Ni218  1  0.12999600  0.96371133  0.10411892  1.0
  Ni  Ni219  1  0.46332933  0.29704467  0.10411892  1.0
  Ni  Ni220  1  0.46332933  0.63037800  0.10411892  1.0
  Ni  Ni221  1  0.46332933  0.96371133  0.10411892  1.0
  Ni  Ni222  1  0.79666267  0.29704467  0.10411892  1.0
  Ni  Ni223  1  0.79666267  0.63037800  0.10411892  1.0
  Ni  Ni224  1  0.79666267  0.96371133  0.10411892  1.0
  Ni  Ni225  1  0.20391167  0.20391167  0.14588108  1.0
  Ni  Ni226  1  0.20391167  0.53724500  0.14588108  1.0
  Ni  Ni227  1  0.20391167  0.87057833  0.14588108  1.0
  Ni  Ni228  1  0.53724500  0.20391167  0.14588108  1.0
  Ni  Ni229  1  0.53724500  0.53724500  0.14588108  1.0
  Ni  Ni230  1  0.53724500  0.87057833  0.14588108  1.0
  Ni  Ni231  1  0.87057833  0.20391167  0.14588108  1.0
  Ni  Ni232  1  0.87057833  0.53724500  0.14588108  1.0
  Ni  Ni233  1  0.87057833  0.87057833  0.14588108  1.0
  Ni  Ni234  1  0.16666667  0.16666667  0.10421442  1.0
  Ni  Ni235  1  0.16666667  0.50000000  0.10421442  1.0
  Ni  Ni236  1  0.16666667  0.83333333  0.10421442  1.0
  Ni  Ni237  1  0.50000000  0.16666667  0.10421442  1.0
  Ni  Ni238  1  0.50000000  0.50000000  0.10421442  1.0
  Ni  Ni239  1  0.50000000  0.83333333  0.10421442  1.0
  Ni  Ni240  1  0.83333333  0.16666667  0.10421442  1.0
  Ni  Ni241  1  0.83333333  0.50000000  0.10421442  1.0
  Ni  Ni242  1  0.83333333  0.83333333  0.10421442  1.0
  Ni  Ni243  1  0.03628867  0.20333733  0.14588108  1.0
  Ni  Ni244  1  0.03628867  0.53667067  0.14588108  1.0
  Ni  Ni245  1  0.03628867  0.87000400  0.14588108  1.0
  Ni  Ni246  1  0.36962200  0.20333733  0.14588108  1.0
  Ni  Ni247  1  0.36962200  0.53667067  0.14588108  1.0
  Ni  Ni248  1  0.36962200  0.87000400  0.14588108  1.0
  Ni  Ni249  1  0.70295533  0.20333733  0.14588108  1.0
  Ni  Ni250  1  0.70295533  0.53667067  0.14588108  1.0
  Ni  Ni251  1  0.70295533  0.87000400  0.14588108  1.0
  Ni  Ni252  1  0.16666667  0.16666667  0.14588108  1.0
  Ni  Ni253  1  0.16666667  0.50000000  0.14588108  1.0
  Ni  Ni254  1  0.16666667  0.83333333  0.14588108  1.0
  Ni  Ni255  1  0.50000000  0.16666667  0.14588108  1.0
  Ni  Ni256  1  0.50000000  0.50000000  0.14588108  1.0
  Ni  Ni257  1  0.50000000  0.83333333  0.14588108  1.0
  Ni  Ni258  1  0.83333333  0.16666667  0.14588108  1.0
  Ni  Ni259  1  0.83333333  0.50000000  0.14588108  1.0
  Ni  Ni260  1  0.83333333  0.83333333  0.14588108  1.0
  Ni  Ni261  1  0.29704467  0.12999600  0.14588108  1.0
  Ni  Ni262  1  0.29704467  0.46332933  0.14588108  1.0
  Ni  Ni263  1  0.29704467  0.79666267  0.14588108  1.0
  Ni  Ni264  1  0.63037800  0.12999600  0.14588108  1.0
  Ni  Ni265  1  0.63037800  0.46332933  0.14588108  1.0
  Ni  Ni266  1  0.63037800  0.79666267  0.14588108  1.0
  Ni  Ni267  1  0.96371133  0.12999600  0.14588108  1.0
  Ni  Ni268  1  0.96371133  0.46332933  0.14588108  1.0
  Ni  Ni269  1  0.96371133  0.79666267  0.14588108  1.0
  Ni  Ni270  1  0.09272700  0.09272700  0.14588108  1.0
  Ni  Ni271  1  0.09272700  0.42606033  0.14588108  1.0
  Ni  Ni272  1  0.09272700  0.75939367  0.14588108  1.0
  Ni  Ni273  1  0.42606033  0.09272700  0.14588108  1.0
  Ni  Ni274  1  0.42606033  0.42606033  0.14588108  1.0
  Ni  Ni275  1  0.42606033  0.75939367  0.14588108  1.0
  Ni  Ni276  1  0.75939367  0.09272700  0.14588108  1.0
  Ni  Ni277  1  0.75939367  0.42606033  0.14588108  1.0
  Ni  Ni278  1  0.75939367  0.75939367  0.14588108  1.0
  Ni  Ni279  1  0.20333733  0.03628867  0.10430992  1.0
  Ni  Ni280  1  0.20333733  0.36962200  0.10430992  1.0
  Ni  Ni281  1  0.20333733  0.70295533  0.10430992  1.0
  Ni  Ni282  1  0.53667067  0.03628867  0.10430992  1.0
  Ni  Ni283  1  0.53667067  0.36962200  0.10430992  1.0
  Ni  Ni284  1  0.53667067  0.70295533  0.10430992  1.0
  Ni  Ni285  1  0.87000400  0.03628867  0.10430992  1.0
  Ni  Ni286  1  0.87000400  0.36962200  0.10430992  1.0
  Ni  Ni287  1  0.87000400  0.70295533  0.10430992  1.0
  Ni  Ni288  1  0.12999600  0.12999600  0.10430992  1.0
  Ni  Ni289  1  0.12999600  0.46332933  0.10430992  1.0
  Ni  Ni290  1  0.12999600  0.79666267  0.10430992  1.0
  Ni  Ni291  1  0.46332933  0.12999600  0.10430992  1.0
  Ni  Ni292  1  0.46332933  0.46332933  0.10430992  1.0
  Ni  Ni293  1  0.46332933  0.79666267  0.10430992  1.0
  Ni  Ni294  1  0.79666267  0.12999600  0.10430992  1.0
  Ni  Ni295  1  0.79666267  0.46332933  0.10430992  1.0
  Ni  Ni296  1  0.79666267  0.79666267  0.10430992  1.0
  Ni  Ni297  1  0.16666667  0.00000000  0.10421442  1.0
  Ni  Ni298  1  0.16666667  0.33333333  0.10421442  1.0
  Ni  Ni299  1  0.16666667  0.66666667  0.10421442  1.0
  Ni  Ni300  1  0.50000000  0.00000000  0.10421442  1.0
  Ni  Ni301  1  0.50000000  0.33333333  0.10421442  1.0
  Ni  Ni302  1  0.50000000  0.66666667  0.10421442  1.0
  Ni  Ni303  1  0.83333333  0.00000000  0.10421442  1.0
  Ni  Ni304  1  0.83333333  0.33333333  0.10421442  1.0
  Ni  Ni305  1  0.83333333  0.66666667  0.10421442  1.0
  Ni  Ni306  1  0.00000000  0.16666667  0.14588108  1.0
  Ni  Ni307  1  0.00000000  0.50000000  0.14588108  1.0
  Ni  Ni308  1  0.00000000  0.83333333  0.14588108  1.0
  Ni  Ni309  1  0.33333333  0.16666667  0.14588108  1.0
  Ni  Ni310  1  0.33333333  0.50000000  0.14588108  1.0
  Ni  Ni311  1  0.33333333  0.83333333  0.14588108  1.0
  Ni  Ni312  1  0.66666667  0.16666667  0.14588108  1.0
  Ni  Ni313  1  0.66666667  0.50000000  0.14588108  1.0
  Ni  Ni314  1  0.66666667  0.83333333  0.14588108  1.0
  Ni  Ni315  1  0.20333733  0.20333733  0.10411892  1.0
  Ni  Ni316  1  0.20333733  0.53667067  0.10411892  1.0
  Ni  Ni317  1  0.20333733  0.87000400  0.10411892  1.0
  Ni  Ni318  1  0.53667067  0.20333733  0.10411892  1.0
  Ni  Ni319  1  0.53667067  0.53667067  0.10411892  1.0
  Ni  Ni320  1  0.53667067  0.87000400  0.10411892  1.0
  Ni  Ni321  1  0.87000400  0.20333733  0.10411892  1.0
  Ni  Ni322  1  0.87000400  0.53667067  0.10411892  1.0
  Ni  Ni323  1  0.87000400  0.87000400  0.10411892  1.0
  Y  Y324  1  0.31652133  0.31652133  0.22921442  1.0
  Y  Y325  1  0.31652133  0.64985467  0.22921442  1.0
  Y  Y326  1  0.31652133  0.98318800  0.22921442  1.0
  Y  Y327  1  0.64985467  0.31652133  0.22921442  1.0
  Y  Y328  1  0.64985467  0.64985467  0.22921442  1.0
  Y  Y329  1  0.64985467  0.98318800  0.22921442  1.0
  Y  Y330  1  0.98318800  0.31652133  0.22921442  1.0
  Y  Y331  1  0.98318800  0.64985467  0.22921442  1.0
  Y  Y332  1  0.98318800  0.98318800  0.22921442  1.0
  Y  Y333  1  0.04905400  0.04905400  0.22921442  1.0
  Y  Y334  1  0.04905400  0.38238733  0.22921442  1.0
  Y  Y335  1  0.04905400  0.71572067  0.22921442  1.0
  Y  Y336  1  0.38238733  0.04905400  0.22921442  1.0
  Y  Y337  1  0.38238733  0.38238733  0.22921442  1.0
  Y  Y338  1  0.38238733  0.71572067  0.22921442  1.0
  Y  Y339  1  0.71572067  0.04905400  0.22921442  1.0
  Y  Y340  1  0.71572067  0.38238733  0.22921442  1.0
  Y  Y341  1  0.71572067  0.71572067  0.22921442  1.0
  Y  Y342  1  0.01681200  0.01681200  0.22921442  1.0
  Y  Y343  1  0.01681200  0.35014533  0.22921442  1.0
  Y  Y344  1  0.01681200  0.68347867  0.22921442  1.0
  Y  Y345  1  0.35014533  0.01681200  0.22921442  1.0
  Y  Y346  1  0.35014533  0.35014533  0.22921442  1.0
  Y  Y347  1  0.35014533  0.68347867  0.22921442  1.0
  Y  Y348  1  0.68347867  0.01681200  0.22921442  1.0
  Y  Y349  1  0.68347867  0.35014533  0.22921442  1.0
  Y  Y350  1  0.68347867  0.68347867  0.22921442  1.0
  Y  Y351  1  0.28427933  0.28427933  0.22921442  1.0
  Y  Y352  1  0.28427933  0.61761267  0.22921442  1.0
  Y  Y353  1  0.28427933  0.95094600  0.22921442  1.0
  Y  Y354  1  0.61761267  0.28427933  0.22921442  1.0
  Y  Y355  1  0.61761267  0.61761267  0.22921442  1.0
  Y  Y356  1  0.61761267  0.95094600  0.22921442  1.0
  Y  Y357  1  0.95094600  0.28427933  0.22921442  1.0
  Y  Y358  1  0.95094600  0.61761267  0.22921442  1.0
  Y  Y359  1  0.95094600  0.95094600  0.22921442  1.0
  Ni  Ni360  1  0.24060633  0.24060633  0.22921442  1.0
  Ni  Ni361  1  0.24060633  0.57393967  0.22921442  1.0
  Ni  Ni362  1  0.24060633  0.90727300  0.22921442  1.0
  Ni  Ni363  1  0.57393967  0.24060633  0.22921442  1.0
  Ni  Ni364  1  0.57393967  0.57393967  0.22921442  1.0
  Ni  Ni365  1  0.57393967  0.90727300  0.22921442  1.0
  Ni  Ni366  1  0.90727300  0.24060633  0.22921442  1.0
  Ni  Ni367  1  0.90727300  0.57393967  0.22921442  1.0
  Ni  Ni368  1  0.90727300  0.90727300  0.22921442  1.0
  Ni  Ni369  1  0.12942167  0.12942167  0.22921442  1.0
  Ni  Ni370  1  0.12942167  0.46275500  0.22921442  1.0
  Ni  Ni371  1  0.12942167  0.79608833  0.22921442  1.0
  Ni  Ni372  1  0.46275500  0.12942167  0.22921442  1.0
  Ni  Ni373  1  0.46275500  0.46275500  0.22921442  1.0
  Ni  Ni374  1  0.46275500  0.79608833  0.22921442  1.0
  Ni  Ni375  1  0.79608833  0.12942167  0.22921442  1.0
  Ni  Ni376  1  0.79608833  0.46275500  0.22921442  1.0
  Ni  Ni377  1  0.79608833  0.79608833  0.22921442  1.0
  Ni  Ni378  1  0.12999600  0.29704467  0.18745225  1.0
  Ni  Ni379  1  0.12999600  0.63037800  0.18745225  1.0
  Ni  Ni380  1  0.12999600  0.96371133  0.18745225  1.0
  Ni  Ni381  1  0.46332933  0.29704467  0.18745225  1.0
  Ni  Ni382  1  0.46332933  0.63037800  0.18745225  1.0
  Ni  Ni383  1  0.46332933  0.96371133  0.18745225  1.0
  Ni  Ni384  1  0.79666267  0.29704467  0.18745225  1.0
  Ni  Ni385  1  0.79666267  0.63037800  0.18745225  1.0
  Ni  Ni386  1  0.79666267  0.96371133  0.18745225  1.0
  Ni  Ni387  1  0.20391167  0.20391167  0.22921442  1.0
  Ni  Ni388  1  0.20391167  0.53724500  0.22921442  1.0
  Ni  Ni389  1  0.20391167  0.87057833  0.22921442  1.0
  Ni  Ni390  1  0.53724500  0.20391167  0.22921442  1.0
  Ni  Ni391  1  0.53724500  0.53724500  0.22921442  1.0
  Ni  Ni392  1  0.53724500  0.87057833  0.22921442  1.0
  Ni  Ni393  1  0.87057833  0.20391167  0.22921442  1.0
  Ni  Ni394  1  0.87057833  0.53724500  0.22921442  1.0
  Ni  Ni395  1  0.87057833  0.87057833  0.22921442  1.0
  Ni  Ni396  1  0.16666667  0.16666667  0.18754775  1.0
  Ni  Ni397  1  0.16666667  0.50000000  0.18754775  1.0
  Ni  Ni398  1  0.16666667  0.83333333  0.18754775  1.0
  Ni  Ni399  1  0.50000000  0.16666667  0.18754775  1.0
  Ni  Ni400  1  0.50000000  0.50000000  0.18754775  1.0
  Ni  Ni401  1  0.50000000  0.83333333  0.18754775  1.0
  Ni  Ni402  1  0.83333333  0.16666667  0.18754775  1.0
  Ni  Ni403  1  0.83333333  0.50000000  0.18754775  1.0
  Ni  Ni404  1  0.83333333  0.83333333  0.18754775  1.0
  Ni  Ni405  1  0.03628867  0.20333733  0.22921442  1.0
  Ni  Ni406  1  0.03628867  0.53667067  0.22921442  1.0
  Ni  Ni407  1  0.03628867  0.87000400  0.22921442  1.0
  Ni  Ni408  1  0.36962200  0.20333733  0.22921442  1.0
  Ni  Ni409  1  0.36962200  0.53667067  0.22921442  1.0
  Ni  Ni410  1  0.36962200  0.87000400  0.22921442  1.0
  Ni  Ni411  1  0.70295533  0.20333733  0.22921442  1.0
  Ni  Ni412  1  0.70295533  0.53667067  0.22921442  1.0
  Ni  Ni413  1  0.70295533  0.87000400  0.22921442  1.0
  Ni  Ni414  1  0.16666667  0.16666667  0.22921442  1.0
  Ni  Ni415  1  0.16666667  0.50000000  0.22921442  1.0
  Ni  Ni416  1  0.16666667  0.83333333  0.22921442  1.0
  Ni  Ni417  1  0.50000000  0.16666667  0.22921442  1.0
  Ni  Ni418  1  0.50000000  0.50000000  0.22921442  1.0
  Ni  Ni419  1  0.50000000  0.83333333  0.22921442  1.0
  Ni  Ni420  1  0.83333333  0.16666667  0.22921442  1.0
  Ni  Ni421  1  0.83333333  0.50000000  0.22921442  1.0
  Ni  Ni422  1  0.83333333  0.83333333  0.22921442  1.0
  Ni  Ni423  1  0.29704467  0.12999600  0.22921442  1.0
  Ni  Ni424  1  0.29704467  0.46332933  0.22921442  1.0
  Ni  Ni425  1  0.29704467  0.79666267  0.22921442  1.0
  Ni  Ni426  1  0.63037800  0.12999600  0.22921442  1.0
  Ni  Ni427  1  0.63037800  0.46332933  0.22921442  1.0
  Ni  Ni428  1  0.63037800  0.79666267  0.22921442  1.0
  Ni  Ni429  1  0.96371133  0.12999600  0.22921442  1.0
  Ni  Ni430  1  0.96371133  0.46332933  0.22921442  1.0
  Ni  Ni431  1  0.96371133  0.79666267  0.22921442  1.0
  Ni  Ni432  1  0.09272700  0.09272700  0.22921442  1.0
  Ni  Ni433  1  0.09272700  0.42606033  0.22921442  1.0
  Ni  Ni434  1  0.09272700  0.75939367  0.22921442  1.0
  Ni  Ni435  1  0.42606033  0.09272700  0.22921442  1.0
  Ni  Ni436  1  0.42606033  0.42606033  0.22921442  1.0
  Ni  Ni437  1  0.42606033  0.75939367  0.22921442  1.0
  Ni  Ni438  1  0.75939367  0.09272700  0.22921442  1.0
  Ni  Ni439  1  0.75939367  0.42606033  0.22921442  1.0
  Ni  Ni440  1  0.75939367  0.75939367  0.22921442  1.0
  Ni  Ni441  1  0.20333733  0.03628867  0.18764325  1.0
  Ni  Ni442  1  0.20333733  0.36962200  0.18764325  1.0
  Ni  Ni443  1  0.20333733  0.70295533  0.18764325  1.0
  Ni  Ni444  1  0.53667067  0.03628867  0.18764325  1.0
  Ni  Ni445  1  0.53667067  0.36962200  0.18764325  1.0
  Ni  Ni446  1  0.53667067  0.70295533  0.18764325  1.0
  Ni  Ni447  1  0.87000400  0.03628867  0.18764325  1.0
  Ni  Ni448  1  0.87000400  0.36962200  0.18764325  1.0
  Ni  Ni449  1  0.87000400  0.70295533  0.18764325  1.0
  Ni  Ni450  1  0.12999600  0.12999600  0.18764325  1.0
  Ni  Ni451  1  0.12999600  0.46332933  0.18764325  1.0
  Ni  Ni452  1  0.12999600  0.79666267  0.18764325  1.0
  Ni  Ni453  1  0.46332933  0.12999600  0.18764325  1.0
  Ni  Ni454  1  0.46332933  0.46332933  0.18764325  1.0
  Ni  Ni455  1  0.46332933  0.79666267  0.18764325  1.0
  Ni  Ni456  1  0.79666267  0.12999600  0.18764325  1.0
  Ni  Ni457  1  0.79666267  0.46332933  0.18764325  1.0
  Ni  Ni458  1  0.79666267  0.79666267  0.18764325  1.0
  Ni  Ni459  1  0.16666667  0.00000000  0.18754775  1.0
  Ni  Ni460  1  0.16666667  0.33333333  0.18754775  1.0
  Ni  Ni461  1  0.16666667  0.66666667  0.18754775  1.0
  Ni  Ni462  1  0.50000000  0.00000000  0.18754775  1.0
  Ni  Ni463  1  0.50000000  0.33333333  0.18754775  1.0
  Ni  Ni464  1  0.50000000  0.66666667  0.18754775  1.0
  Ni  Ni465  1  0.83333333  0.00000000  0.18754775  1.0
  Ni  Ni466  1  0.83333333  0.33333333  0.18754775  1.0
  Ni  Ni467  1  0.83333333  0.66666667  0.18754775  1.0
  Ni  Ni468  1  0.00000000  0.16666667  0.22921442  1.0
  Ni  Ni469  1  0.00000000  0.50000000  0.22921442  1.0
  Ni  Ni470  1  0.00000000  0.83333333  0.22921442  1.0
  Ni  Ni471  1  0.33333333  0.16666667  0.22921442  1.0
  Ni  Ni472  1  0.33333333  0.50000000  0.22921442  1.0
  Ni  Ni473  1  0.33333333  0.83333333  0.22921442  1.0
  Ni  Ni474  1  0.66666667  0.16666667  0.22921442  1.0
  Ni  Ni475  1  0.66666667  0.50000000  0.22921442  1.0
  Ni  Ni476  1  0.66666667  0.83333333  0.22921442  1.0
  Ni  Ni477  1  0.20333733  0.20333733  0.18745225  1.0
  Ni  Ni478  1  0.20333733  0.53667067  0.18745225  1.0
  Ni  Ni479  1  0.20333733  0.87000400  0.18745225  1.0
  Ni  Ni480  1  0.53667067  0.20333733  0.18745225  1.0
  Ni  Ni481  1  0.53667067  0.53667067  0.18745225  1.0
  Ni  Ni482  1  0.53667067  0.87000400  0.18745225  1.0
  Ni  Ni483  1  0.87000400  0.20333733  0.18745225  1.0
  Ni  Ni484  1  0.87000400  0.53667067  0.18745225  1.0
  Ni  Ni485  1  0.87000400  0.87000400  0.18745225  1.0
  Y  Y486  1  0.31652133  0.31652133  0.31254775  1.0
  Y  Y487  1  0.31652133  0.64985467  0.31254775  1.0
  Y  Y488  1  0.31652133  0.98318800  0.31254775  1.0
  Y  Y489  1  0.64985467  0.31652133  0.31254775  1.0
  Y  Y490  1  0.64985467  0.64985467  0.31254775  1.0
  Y  Y491  1  0.64985467  0.98318800  0.31254775  1.0
  Y  Y492  1  0.98318800  0.31652133  0.31254775  1.0
  Y  Y493  1  0.98318800  0.64985467  0.31254775  1.0
  Y  Y494  1  0.98318800  0.98318800  0.31254775  1.0
  Y  Y495  1  0.04905400  0.04905400  0.31254775  1.0
  Y  Y496  1  0.04905400  0.38238733  0.31254775  1.0
  Y  Y497  1  0.04905400  0.71572067  0.31254775  1.0
  Y  Y498  1  0.38238733  0.04905400  0.31254775  1.0
  Y  Y499  1  0.38238733  0.38238733  0.31254775  1.0
  Y  Y500  1  0.38238733  0.71572067  0.31254775  1.0
  Y  Y501  1  0.71572067  0.04905400  0.31254775  1.0
  Y  Y502  1  0.71572067  0.38238733  0.31254775  1.0
  Y  Y503  1  0.71572067  0.71572067  0.31254775  1.0
  Y  Y504  1  0.01681200  0.01681200  0.31254775  1.0
  Y  Y505  1  0.01681200  0.35014533  0.31254775  1.0
  Y  Y506  1  0.01681200  0.68347867  0.31254775  1.0
  Y  Y507  1  0.35014533  0.01681200  0.31254775  1.0
  Y  Y508  1  0.35014533  0.35014533  0.31254775  1.0
  Y  Y509  1  0.35014533  0.68347867  0.31254775  1.0
  Y  Y510  1  0.68347867  0.01681200  0.31254775  1.0
  Y  Y511  1  0.68347867  0.35014533  0.31254775  1.0
  Y  Y512  1  0.68347867  0.68347867  0.31254775  1.0
  Y  Y513  1  0.28427933  0.28427933  0.31254775  1.0
  Y  Y514  1  0.28427933  0.61761267  0.31254775  1.0
  Y  Y515  1  0.28427933  0.95094600  0.31254775  1.0
  Y  Y516  1  0.61761267  0.28427933  0.31254775  1.0
  Y  Y517  1  0.61761267  0.61761267  0.31254775  1.0
  Y  Y518  1  0.61761267  0.95094600  0.31254775  1.0
  Y  Y519  1  0.95094600  0.28427933  0.31254775  1.0
  Y  Y520  1  0.95094600  0.61761267  0.31254775  1.0
  Y  Y521  1  0.95094600  0.95094600  0.31254775  1.0
  Ni  Ni522  1  0.24060633  0.24060633  0.31254775  1.0
  Ni  Ni523  1  0.24060633  0.57393967  0.31254775  1.0
  Ni  Ni524  1  0.24060633  0.90727300  0.31254775  1.0
  Ni  Ni525  1  0.57393967  0.24060633  0.31254775  1.0
  Ni  Ni526  1  0.57393967  0.57393967  0.31254775  1.0
  Ni  Ni527  1  0.57393967  0.90727300  0.31254775  1.0
  Ni  Ni528  1  0.90727300  0.24060633  0.31254775  1.0
  Ni  Ni529  1  0.90727300  0.57393967  0.31254775  1.0
  Ni  Ni530  1  0.90727300  0.90727300  0.31254775  1.0
  Ni  Ni531  1  0.12942167  0.12942167  0.31254775  1.0
  Ni  Ni532  1  0.12942167  0.46275500  0.31254775  1.0
  Ni  Ni533  1  0.12942167  0.79608833  0.31254775  1.0
  Ni  Ni534  1  0.46275500  0.12942167  0.31254775  1.0
  Ni  Ni535  1  0.46275500  0.46275500  0.31254775  1.0
  Ni  Ni536  1  0.46275500  0.79608833  0.31254775  1.0
  Ni  Ni537  1  0.79608833  0.12942167  0.31254775  1.0
  Ni  Ni538  1  0.79608833  0.46275500  0.31254775  1.0
  Ni  Ni539  1  0.79608833  0.79608833  0.31254775  1.0
  Ni  Ni540  1  0.12999600  0.29704467  0.27078558  1.0
  Ni  Ni541  1  0.12999600  0.63037800  0.27078558  1.0
  Ni  Ni542  1  0.12999600  0.96371133  0.27078558  1.0
  Ni  Ni543  1  0.46332933  0.29704467  0.27078558  1.0
  Ni  Ni544  1  0.46332933  0.63037800  0.27078558  1.0
  Ni  Ni545  1  0.46332933  0.96371133  0.27078558  1.0
  Ni  Ni546  1  0.79666267  0.29704467  0.27078558  1.0
  Ni  Ni547  1  0.79666267  0.63037800  0.27078558  1.0
  Ni  Ni548  1  0.79666267  0.96371133  0.27078558  1.0
  Ni  Ni549  1  0.20391167  0.20391167  0.31254775  1.0
  Ni  Ni550  1  0.20391167  0.53724500  0.31254775  1.0
  Ni  Ni551  1  0.20391167  0.87057833  0.31254775  1.0
  Ni  Ni552  1  0.53724500  0.20391167  0.31254775  1.0
  Ni  Ni553  1  0.53724500  0.53724500  0.31254775  1.0
  Ni  Ni554  1  0.53724500  0.87057833  0.31254775  1.0
  Ni  Ni555  1  0.87057833  0.20391167  0.31254775  1.0
  Ni  Ni556  1  0.87057833  0.53724500  0.31254775  1.0
  Ni  Ni557  1  0.87057833  0.87057833  0.31254775  1.0
  Ni  Ni558  1  0.16666667  0.16666667  0.27088108  1.0
  Ni  Ni559  1  0.16666667  0.50000000  0.27088108  1.0
  Ni  Ni560  1  0.16666667  0.83333333  0.27088108  1.0
  Ni  Ni561  1  0.50000000  0.16666667  0.27088108  1.0
  Ni  Ni562  1  0.50000000  0.50000000  0.27088108  1.0
  Ni  Ni563  1  0.50000000  0.83333333  0.27088108  1.0
  Ni  Ni564  1  0.83333333  0.16666667  0.27088108  1.0
  Ni  Ni565  1  0.83333333  0.50000000  0.27088108  1.0
  Ni  Ni566  1  0.83333333  0.83333333  0.27088108  1.0
  Ni  Ni567  1  0.03628867  0.20333733  0.31254775  1.0
  Ni  Ni568  1  0.03628867  0.53667067  0.31254775  1.0
  Ni  Ni569  1  0.03628867  0.87000400  0.31254775  1.0
  Ni  Ni570  1  0.36962200  0.20333733  0.31254775  1.0
  Ni  Ni571  1  0.36962200  0.53667067  0.31254775  1.0
  Ni  Ni572  1  0.36962200  0.87000400  0.31254775  1.0
  Ni  Ni573  1  0.70295533  0.20333733  0.31254775  1.0
  Ni  Ni574  1  0.70295533  0.53667067  0.31254775  1.0
  Ni  Ni575  1  0.70295533  0.87000400  0.31254775  1.0
  Ni  Ni576  1  0.16666667  0.16666667  0.31254775  1.0
  Ni  Ni577  1  0.16666667  0.50000000  0.31254775  1.0
  Ni  Ni578  1  0.16666667  0.83333333  0.31254775  1.0
  Ni  Ni579  1  0.50000000  0.16666667  0.31254775  1.0
  Ni  Ni580  1  0.50000000  0.50000000  0.31254775  1.0
  Ni  Ni581  1  0.50000000  0.83333333  0.31254775  1.0
  Ni  Ni582  1  0.83333333  0.16666667  0.31254775  1.0
  Ni  Ni583  1  0.83333333  0.50000000  0.31254775  1.0
  Ni  Ni584  1  0.83333333  0.83333333  0.31254775  1.0
  Ni  Ni585  1  0.29704467  0.12999600  0.31254775  1.0
  Ni  Ni586  1  0.29704467  0.46332933  0.31254775  1.0
  Ni  Ni587  1  0.29704467  0.79666267  0.31254775  1.0
  Ni  Ni588  1  0.63037800  0.12999600  0.31254775  1.0
  Ni  Ni589  1  0.63037800  0.46332933  0.31254775  1.0
  Ni  Ni590  1  0.63037800  0.79666267  0.31254775  1.0
  Ni  Ni591  1  0.96371133  0.12999600  0.31254775  1.0
  Ni  Ni592  1  0.96371133  0.46332933  0.31254775  1.0
  Ni  Ni593  1  0.96371133  0.79666267  0.31254775  1.0
  Ni  Ni594  1  0.09272700  0.09272700  0.31254775  1.0
  Ni  Ni595  1  0.09272700  0.42606033  0.31254775  1.0
  Ni  Ni596  1  0.09272700  0.75939367  0.31254775  1.0
  Ni  Ni597  1  0.42606033  0.09272700  0.31254775  1.0
  Ni  Ni598  1  0.42606033  0.42606033  0.31254775  1.0
  Ni  Ni599  1  0.42606033  0.75939367  0.31254775  1.0
  Ni  Ni600  1  0.75939367  0.09272700  0.31254775  1.0
  Ni  Ni601  1  0.75939367  0.42606033  0.31254775  1.0
  Ni  Ni602  1  0.75939367  0.75939367  0.31254775  1.0
  Ni  Ni603  1  0.20333733  0.03628867  0.27097658  1.0
  Ni  Ni604  1  0.20333733  0.36962200  0.27097658  1.0
  Ni  Ni605  1  0.20333733  0.70295533  0.27097658  1.0
  Ni  Ni606  1  0.53667067  0.03628867  0.27097658  1.0
  Ni  Ni607  1  0.53667067  0.36962200  0.27097658  1.0
  Ni  Ni608  1  0.53667067  0.70295533  0.27097658  1.0
  Ni  Ni609  1  0.87000400  0.03628867  0.27097658  1.0
  Ni  Ni610  1  0.87000400  0.36962200  0.27097658  1.0
  Ni  Ni611  1  0.87000400  0.70295533  0.27097658  1.0
  Ni  Ni612  1  0.12999600  0.12999600  0.27097658  1.0
  Ni  Ni613  1  0.12999600  0.46332933  0.27097658  1.0
  Ni  Ni614  1  0.12999600  0.79666267  0.27097658  1.0
  Ni  Ni615  1  0.46332933  0.12999600  0.27097658  1.0
  Ni  Ni616  1  0.46332933  0.46332933  0.27097658  1.0
  Ni  Ni617  1  0.46332933  0.79666267  0.27097658  1.0
  Ni  Ni618  1  0.79666267  0.12999600  0.27097658  1.0
  Ni  Ni619  1  0.79666267  0.46332933  0.27097658  1.0
  Ni  Ni620  1  0.79666267  0.79666267  0.27097658  1.0
  Ni  Ni621  1  0.16666667  0.00000000  0.27088108  1.0
  Ni  Ni622  1  0.16666667  0.33333333  0.27088108  1.0
  Ni  Ni623  1  0.16666667  0.66666667  0.27088108  1.0
  Ni  Ni624  1  0.50000000  0.00000000  0.27088108  1.0
  Ni  Ni625  1  0.50000000  0.33333333  0.27088108  1.0
  Ni  Ni626  1  0.50000000  0.66666667  0.27088108  1.0
  Ni  Ni627  1  0.83333333  0.00000000  0.27088108  1.0
  Ni  Ni628  1  0.83333333  0.33333333  0.27088108  1.0
  Ni  Ni629  1  0.83333333  0.66666667  0.27088108  1.0
  Ni  Ni630  1  0.00000000  0.16666667  0.31254775  1.0
  Ni  Ni631  1  0.00000000  0.50000000  0.31254775  1.0
  Ni  Ni632  1  0.00000000  0.83333333  0.31254775  1.0
  Ni  Ni633  1  0.33333333  0.16666667  0.31254775  1.0
  Ni  Ni634  1  0.33333333  0.50000000  0.31254775  1.0
  Ni  Ni635  1  0.33333333  0.83333333  0.31254775  1.0
  Ni  Ni636  1  0.66666667  0.16666667  0.31254775  1.0
  Ni  Ni637  1  0.66666667  0.50000000  0.31254775  1.0
  Ni  Ni638  1  0.66666667  0.83333333  0.31254775  1.0
  Ni  Ni639  1  0.20333733  0.20333733  0.27078558  1.0
  Ni  Ni640  1  0.20333733  0.53667067  0.27078558  1.0
  Ni  Ni641  1  0.20333733  0.87000400  0.27078558  1.0
  Ni  Ni642  1  0.53667067  0.20333733  0.27078558  1.0
  Ni  Ni643  1  0.53667067  0.53667067  0.27078558  1.0
  Ni  Ni644  1  0.53667067  0.87000400  0.27078558  1.0
  Ni  Ni645  1  0.87000400  0.20333733  0.27078558  1.0
  Ni  Ni646  1  0.87000400  0.53667067  0.27078558  1.0
  Ni  Ni647  1  0.87000400  0.87000400  0.27078558  1.0
  Y  Y648  1  0.31652133  0.31652133  0.39588108  1.0
  Y  Y649  1  0.31652133  0.64985467  0.39588108  1.0
  Y  Y650  1  0.31652133  0.98318800  0.39588108  1.0
  Y  Y651  1  0.64985467  0.31652133  0.39588108  1.0
  Y  Y652  1  0.64985467  0.64985467  0.39588108  1.0
  Y  Y653  1  0.64985467  0.98318800  0.39588108  1.0
  Y  Y654  1  0.98318800  0.31652133  0.39588108  1.0
  Y  Y655  1  0.98318800  0.64985467  0.39588108  1.0
  Y  Y656  1  0.98318800  0.98318800  0.39588108  1.0
  Y  Y657  1  0.04905400  0.04905400  0.39588108  1.0
  Y  Y658  1  0.04905400  0.38238733  0.39588108  1.0
  Y  Y659  1  0.04905400  0.71572067  0.39588108  1.0
  Y  Y660  1  0.38238733  0.04905400  0.39588108  1.0
  Y  Y661  1  0.38238733  0.38238733  0.39588108  1.0
  Y  Y662  1  0.38238733  0.71572067  0.39588108  1.0
  Y  Y663  1  0.71572067  0.04905400  0.39588108  1.0
  Y  Y664  1  0.71572067  0.38238733  0.39588108  1.0
  Y  Y665  1  0.71572067  0.71572067  0.39588108  1.0
  Y  Y666  1  0.01681200  0.01681200  0.39588108  1.0
  Y  Y667  1  0.01681200  0.35014533  0.39588108  1.0
  Y  Y668  1  0.01681200  0.68347867  0.39588108  1.0
  Y  Y669  1  0.35014533  0.01681200  0.39588108  1.0
  Y  Y670  1  0.35014533  0.35014533  0.39588108  1.0
  Y  Y671  1  0.35014533  0.68347867  0.39588108  1.0
  Y  Y672  1  0.68347867  0.01681200  0.39588108  1.0
  Y  Y673  1  0.68347867  0.35014533  0.39588108  1.0
  Y  Y674  1  0.68347867  0.68347867  0.39588108  1.0
  Y  Y675  1  0.28427933  0.28427933  0.39588108  1.0
  Y  Y676  1  0.28427933  0.61761267  0.39588108  1.0
  Y  Y677  1  0.28427933  0.95094600  0.39588108  1.0
  Y  Y678  1  0.61761267  0.28427933  0.39588108  1.0
  Y  Y679  1  0.61761267  0.61761267  0.39588108  1.0
  Y  Y680  1  0.61761267  0.95094600  0.39588108  1.0
  Y  Y681  1  0.95094600  0.28427933  0.39588108  1.0
  Y  Y682  1  0.95094600  0.61761267  0.39588108  1.0
  Y  Y683  1  0.95094600  0.95094600  0.39588108  1.0
  Ni  Ni684  1  0.24060633  0.24060633  0.39588108  1.0
  Ni  Ni685  1  0.24060633  0.57393967  0.39588108  1.0
  Ni  Ni686  1  0.24060633  0.90727300  0.39588108  1.0
  Ni  Ni687  1  0.57393967  0.24060633  0.39588108  1.0
  Ni  Ni688  1  0.57393967  0.57393967  0.39588108  1.0
  Ni  Ni689  1  0.57393967  0.90727300  0.39588108  1.0
  Ni  Ni690  1  0.90727300  0.24060633  0.39588108  1.0
  Ni  Ni691  1  0.90727300  0.57393967  0.39588108  1.0
  Ni  Ni692  1  0.90727300  0.90727300  0.39588108  1.0
  Ni  Ni693  1  0.12942167  0.12942167  0.39588108  1.0
  Ni  Ni694  1  0.12942167  0.46275500  0.39588108  1.0
  Ni  Ni695  1  0.12942167  0.79608833  0.39588108  1.0
  Ni  Ni696  1  0.46275500  0.12942167  0.39588108  1.0
  Ni  Ni697  1  0.46275500  0.46275500  0.39588108  1.0
  Ni  Ni698  1  0.46275500  0.79608833  0.39588108  1.0
  Ni  Ni699  1  0.79608833  0.12942167  0.39588108  1.0
  Ni  Ni700  1  0.79608833  0.46275500  0.39588108  1.0
  Ni  Ni701  1  0.79608833  0.79608833  0.39588108  1.0
  Ni  Ni702  1  0.12999600  0.29704467  0.35411892  1.0
  Ni  Ni703  1  0.12999600  0.63037800  0.35411892  1.0
  Ni  Ni704  1  0.12999600  0.96371133  0.35411892  1.0
  Ni  Ni705  1  0.46332933  0.29704467  0.35411892  1.0
  Ni  Ni706  1  0.46332933  0.63037800  0.35411892  1.0
  Ni  Ni707  1  0.46332933  0.96371133  0.35411892  1.0
  Ni  Ni708  1  0.79666267  0.29704467  0.35411892  1.0
  Ni  Ni709  1  0.79666267  0.63037800  0.35411892  1.0
  Ni  Ni710  1  0.79666267  0.96371133  0.35411892  1.0
  Ni  Ni711  1  0.20391167  0.20391167  0.39588108  1.0
  Ni  Ni712  1  0.20391167  0.53724500  0.39588108  1.0
  Ni  Ni713  1  0.20391167  0.87057833  0.39588108  1.0
  Ni  Ni714  1  0.53724500  0.20391167  0.39588108  1.0
  Ni  Ni715  1  0.53724500  0.53724500  0.39588108  1.0
  Ni  Ni716  1  0.53724500  0.87057833  0.39588108  1.0
  Ni  Ni717  1  0.87057833  0.20391167  0.39588108  1.0
  Ni  Ni718  1  0.87057833  0.53724500  0.39588108  1.0
  Ni  Ni719  1  0.87057833  0.87057833  0.39588108  1.0
  Ni  Ni720  1  0.16666667  0.16666667  0.35421442  1.0
  Ni  Ni721  1  0.16666667  0.50000000  0.35421442  1.0
  Ni  Ni722  1  0.16666667  0.83333333  0.35421442  1.0
  Ni  Ni723  1  0.50000000  0.16666667  0.35421442  1.0
  Ni  Ni724  1  0.50000000  0.50000000  0.35421442  1.0
  Ni  Ni725  1  0.50000000  0.83333333  0.35421442  1.0
  Ni  Ni726  1  0.83333333  0.16666667  0.35421442  1.0
  Ni  Ni727  1  0.83333333  0.50000000  0.35421442  1.0
  Ni  Ni728  1  0.83333333  0.83333333  0.35421442  1.0
  Ni  Ni729  1  0.03628867  0.20333733  0.39588108  1.0
  Ni  Ni730  1  0.03628867  0.53667067  0.39588108  1.0
  Ni  Ni731  1  0.03628867  0.87000400  0.39588108  1.0
  Ni  Ni732  1  0.36962200  0.20333733  0.39588108  1.0
  Ni  Ni733  1  0.36962200  0.53667067  0.39588108  1.0
  Ni  Ni734  1  0.36962200  0.87000400  0.39588108  1.0
  Ni  Ni735  1  0.70295533  0.20333733  0.39588108  1.0
  Ni  Ni736  1  0.70295533  0.53667067  0.39588108  1.0
  Ni  Ni737  1  0.70295533  0.87000400  0.39588108  1.0
  Ni  Ni738  1  0.16666667  0.16666667  0.39588108  1.0
  Ni  Ni739  1  0.16666667  0.50000000  0.39588108  1.0
  Ni  Ni740  1  0.16666667  0.83333333  0.39588108  1.0
  Ni  Ni741  1  0.50000000  0.16666667  0.39588108  1.0
  Ni  Ni742  1  0.50000000  0.50000000  0.39588108  1.0
  Ni  Ni743  1  0.50000000  0.83333333  0.39588108  1.0
  Ni  Ni744  1  0.83333333  0.16666667  0.39588108  1.0
  Ni  Ni745  1  0.83333333  0.50000000  0.39588108  1.0
  Ni  Ni746  1  0.83333333  0.83333333  0.39588108  1.0
  Ni  Ni747  1  0.29704467  0.12999600  0.39588108  1.0
  Ni  Ni748  1  0.29704467  0.46332933  0.39588108  1.0
  Ni  Ni749  1  0.29704467  0.79666267  0.39588108  1.0
  Ni  Ni750  1  0.63037800  0.12999600  0.39588108  1.0
  Ni  Ni751  1  0.63037800  0.46332933  0.39588108  1.0
  Ni  Ni752  1  0.63037800  0.79666267  0.39588108  1.0
  Ni  Ni753  1  0.96371133  0.12999600  0.39588108  1.0
  Ni  Ni754  1  0.96371133  0.46332933  0.39588108  1.0
  Ni  Ni755  1  0.96371133  0.79666267  0.39588108  1.0
  Ni  Ni756  1  0.09272700  0.09272700  0.39588108  1.0
  Ni  Ni757  1  0.09272700  0.42606033  0.39588108  1.0
  Ni  Ni758  1  0.09272700  0.75939367  0.39588108  1.0
  Ni  Ni759  1  0.42606033  0.09272700  0.39588108  1.0
  Ni  Ni760  1  0.42606033  0.42606033  0.39588108  1.0
  Ni  Ni761  1  0.42606033  0.75939367  0.39588108  1.0
  Ni  Ni762  1  0.75939367  0.09272700  0.39588108  1.0
  Ni  Ni763  1  0.75939367  0.42606033  0.39588108  1.0
  Ni  Ni764  1  0.75939367  0.75939367  0.39588108  1.0
  Ni  Ni765  1  0.20333733  0.03628867  0.35430992  1.0
  Ni  Ni766  1  0.20333733  0.36962200  0.35430992  1.0
  Ni  Ni767  1  0.20333733  0.70295533  0.35430992  1.0
  Ni  Ni768  1  0.53667067  0.03628867  0.35430992  1.0
  Ni  Ni769  1  0.53667067  0.36962200  0.35430992  1.0
  Ni  Ni770  1  0.53667067  0.70295533  0.35430992  1.0
  Ni  Ni771  1  0.87000400  0.03628867  0.35430992  1.0
  Ni  Ni772  1  0.87000400  0.36962200  0.35430992  1.0
  Ni  Ni773  1  0.87000400  0.70295533  0.35430992  1.0
  Ni  Ni774  1  0.12999600  0.12999600  0.35430992  1.0
  Ni  Ni775  1  0.12999600  0.46332933  0.35430992  1.0
  Ni  Ni776  1  0.12999600  0.79666267  0.35430992  1.0
  Ni  Ni777  1  0.46332933  0.12999600  0.35430992  1.0
  Ni  Ni778  1  0.46332933  0.46332933  0.35430992  1.0
  Ni  Ni779  1  0.46332933  0.79666267  0.35430992  1.0
  Ni  Ni780  1  0.79666267  0.12999600  0.35430992  1.0
  Ni  Ni781  1  0.79666267  0.46332933  0.35430992  1.0
  Ni  Ni782  1  0.79666267  0.79666267  0.35430992  1.0
  Ni  Ni783  1  0.16666667  0.00000000  0.35421442  1.0
  Ni  Ni784  1  0.16666667  0.33333333  0.35421442  1.0
  Ni  Ni785  1  0.16666667  0.66666667  0.35421442  1.0
  Ni  Ni786  1  0.50000000  0.00000000  0.35421442  1.0
  Ni  Ni787  1  0.50000000  0.33333333  0.35421442  1.0
  Ni  Ni788  1  0.50000000  0.66666667  0.35421442  1.0
  Ni  Ni789  1  0.83333333  0.00000000  0.35421442  1.0
  Ni  Ni790  1  0.83333333  0.33333333  0.35421442  1.0
  Ni  Ni791  1  0.83333333  0.66666667  0.35421442  1.0
  Ni  Ni792  1  0.00000000  0.16666667  0.39588108  1.0
  Ni  Ni793  1  0.00000000  0.50000000  0.39588108  1.0
  Ni  Ni794  1  0.00000000  0.83333333  0.39588108  1.0
  Ni  Ni795  1  0.33333333  0.16666667  0.39588108  1.0
  Ni  Ni796  1  0.33333333  0.50000000  0.39588108  1.0
  Ni  Ni797  1  0.33333333  0.83333333  0.39588108  1.0
  Ni  Ni798  1  0.66666667  0.16666667  0.39588108  1.0
  Ni  Ni799  1  0.66666667  0.50000000  0.39588108  1.0
  Ni  Ni800  1  0.66666667  0.83333333  0.39588108  1.0
  Ni  Ni801  1  0.20333733  0.20333733  0.35411892  1.0
  Ni  Ni802  1  0.20333733  0.53667067  0.35411892  1.0
  Ni  Ni803  1  0.20333733  0.87000400  0.35411892  1.0
  Ni  Ni804  1  0.53667067  0.20333733  0.35411892  1.0
  Ni  Ni805  1  0.53667067  0.53667067  0.35411892  1.0
  Ni  Ni806  1  0.53667067  0.87000400  0.35411892  1.0
  Ni  Ni807  1  0.87000400  0.20333733  0.35411892  1.0
  Ni  Ni808  1  0.87000400  0.53667067  0.35411892  1.0
  Ni  Ni809  1  0.87000400  0.87000400  0.35411892  1.0
