# generated using pymatgen
data_Y2Ni17
_symmetry_space_group_name_H-M   'P 1'
_cell_length_a   42.88055247
_cell_length_b   34.51430510
_cell_length_c   64.12894400
_cell_angle_alpha   45.83198112
_cell_angle_beta   90.00000000
_cell_angle_gamma   51.59620351
_symmetry_Int_Tables_number   1
_chemical_formula_structural   Y2Ni17
_chemical_formula_sum   'Y108 Ni918'
_cell_volume   34039.58132131
_cell_formula_units_Z   54
loop_
 _symmetry_equiv_pos_site_id
 _symmetry_equiv_pos_as_xyz
  1  'x, y, z'
loop_
 _atom_site_type_symbol
 _atom_site_label
 _atom_site_symmetry_multiplicity
 _atom_site_fract_x
 _atom_site_fract_y
 _atom_site_fract_z
 _atom_site_occupancy
  Y  Y0  1  0.00000000  0.00000000  0.08896337  1.0
  Y  Y1  1  0.00000000  0.33333333  0.08896337  1.0
  Y  Y2  1  0.00000000  0.66666667  0.08896337  1.0
  Y  Y3  1  0.33333333  0.00000000  0.08896337  1.0
  Y  Y4  1  0.33333333  0.33333333  0.08896337  1.0
  Y  Y5  1  0.33333333  0.66666667  0.08896337  1.0
  Y  Y6  1  0.66666667  0.00000000  0.08896337  1.0
  Y  Y7  1  0.66666667  0.33333333  0.08896337  1.0
  Y  Y8  1  0.66666667  0.66666667  0.08896337  1.0
  Y  Y9  1  0.00000000  0.00000000  0.02646337  1.0
  Y  Y10  1  0.00000000  0.33333333  0.02646337  1.0
  Y  Y11  1  0.00000000  0.66666667  0.02646338  1.0
  Y  Y12  1  0.33333333  0.00000000  0.02646337  1.0
  Y  Y13  1  0.33333333  0.33333333  0.02646337  1.0
  Y  Y14  1  0.33333333  0.66666667  0.02646338  1.0
  Y  Y15  1  0.66666667  0.00000000  0.02646337  1.0
  Y  Y16  1  0.66666667  0.33333333  0.02646337  1.0
  Y  Y17  1  0.66666667  0.66666667  0.02646338  1.0
  Y  Y18  1  0.11111111  0.00000000  0.02646337  1.0
  Y  Y19  1  0.11111111  0.33333333  0.02646337  1.0
  Y  Y20  1  0.11111111  0.66666667  0.02646338  1.0
  Y  Y21  1  0.44444444  0.00000000  0.02646337  1.0
  Y  Y22  1  0.44444444  0.33333333  0.02646337  1.0
  Y  Y23  1  0.44444444  0.66666667  0.02646338  1.0
  Y  Y24  1  0.77777778  0.00000000  0.02646337  1.0
  Y  Y25  1  0.77777778  0.33333333  0.02646337  1.0
  Y  Y26  1  0.77777778  0.66666667  0.02646338  1.0
  Y  Y27  1  0.22222222  0.00000000  0.08896337  1.0
  Y  Y28  1  0.22222222  0.33333333  0.08896338  1.0
  Y  Y29  1  0.22222222  0.66666667  0.08896337  1.0
  Y  Y30  1  0.55555556  0.00000000  0.08896337  1.0
  Y  Y31  1  0.55555556  0.33333333  0.08896337  1.0
  Y  Y32  1  0.55555556  0.66666667  0.08896337  1.0
  Y  Y33  1  0.88888889  0.00000000  0.08896337  1.0
  Y  Y34  1  0.88888889  0.33333333  0.08896337  1.0
  Y  Y35  1  0.88888889  0.66666667  0.08896337  1.0
  Ni  Ni36  1  0.11111111  0.00000000  0.10735825  1.0
  Ni  Ni37  1  0.11111111  0.33333333  0.10735825  1.0
  Ni  Ni38  1  0.11111111  0.66666667  0.10735825  1.0
  Ni  Ni39  1  0.44444444  0.00000000  0.10735825  1.0
  Ni  Ni40  1  0.44444444  0.33333333  0.10735825  1.0
  Ni  Ni41  1  0.44444444  0.66666667  0.10735825  1.0
  Ni  Ni42  1  0.77777778  0.00000000  0.10735825  1.0
  Ni  Ni43  1  0.77777778  0.33333333  0.10735825  1.0
  Ni  Ni44  1  0.77777778  0.66666667  0.10735825  1.0
  Ni  Ni45  1  0.22222222  0.00000000  0.00806850  1.0
  Ni  Ni46  1  0.22222222  0.33333333  0.00806850  1.0
  Ni  Ni47  1  0.22222222  0.66666667  0.00806850  1.0
  Ni  Ni48  1  0.55555556  0.00000000  0.00806850  1.0
  Ni  Ni49  1  0.55555556  0.33333333  0.00806850  1.0
  Ni  Ni50  1  0.55555556  0.66666667  0.00806850  1.0
  Ni  Ni51  1  0.88888889  0.00000000  0.00806850  1.0
  Ni  Ni52  1  0.88888889  0.33333333  0.00806850  1.0
  Ni  Ni53  1  0.88888889  0.66666667  0.00806850  1.0
  Ni  Ni54  1  0.22222222  0.00000000  0.04485825  1.0
  Ni  Ni55  1  0.22222222  0.33333333  0.04485825  1.0
  Ni  Ni56  1  0.22222222  0.66666667  0.04485825  1.0
  Ni  Ni57  1  0.55555556  0.00000000  0.04485825  1.0
  Ni  Ni58  1  0.55555556  0.33333333  0.04485825  1.0
  Ni  Ni59  1  0.55555556  0.66666667  0.04485825  1.0
  Ni  Ni60  1  0.88888889  0.00000000  0.04485825  1.0
  Ni  Ni61  1  0.88888889  0.33333333  0.04485825  1.0
  Ni  Ni62  1  0.88888889  0.66666667  0.04485825  1.0
  Ni  Ni63  1  0.11111111  0.00000000  0.07056850  1.0
  Ni  Ni64  1  0.11111111  0.33333333  0.07056850  1.0
  Ni  Ni65  1  0.11111111  0.66666667  0.07056850  1.0
  Ni  Ni66  1  0.44444444  0.00000000  0.07056850  1.0
  Ni  Ni67  1  0.44444444  0.33333333  0.07056850  1.0
  Ni  Ni68  1  0.44444444  0.66666667  0.07056850  1.0
  Ni  Ni69  1  0.77777778  0.00000000  0.07056850  1.0
  Ni  Ni70  1  0.77777778  0.33333333  0.07056850  1.0
  Ni  Ni71  1  0.77777778  0.66666667  0.07056850  1.0
  Ni  Ni72  1  0.00000000  0.16666667  0.05771337  1.0
  Ni  Ni73  1  0.00000000  0.50000000  0.05771337  1.0
  Ni  Ni74  1  0.00000000  0.83333333  0.05771338  1.0
  Ni  Ni75  1  0.33333333  0.16666667  0.05771337  1.0
  Ni  Ni76  1  0.33333333  0.50000000  0.05771337  1.0
  Ni  Ni77  1  0.33333333  0.83333333  0.05771337  1.0
  Ni  Ni78  1  0.66666667  0.16666667  0.05771337  1.0
  Ni  Ni79  1  0.66666667  0.50000000  0.05771337  1.0
  Ni  Ni80  1  0.66666667  0.83333333  0.05771337  1.0
  Ni  Ni81  1  0.16666667  0.16666667  0.05771337  1.0
  Ni  Ni82  1  0.16666667  0.50000000  0.05771337  1.0
  Ni  Ni83  1  0.16666667  0.83333333  0.05771338  1.0
  Ni  Ni84  1  0.50000000  0.16666667  0.05771337  1.0
  Ni  Ni85  1  0.50000000  0.50000000  0.05771337  1.0
  Ni  Ni86  1  0.50000000  0.83333333  0.05771337  1.0
  Ni  Ni87  1  0.83333333  0.16666667  0.05771337  1.0
  Ni  Ni88  1  0.83333333  0.50000000  0.05771337  1.0
  Ni  Ni89  1  0.83333333  0.83333333  0.05771337  1.0
  Ni  Ni90  1  0.16666667  0.33333333  0.12021337  1.0
  Ni  Ni91  1  0.16666667  0.66666667  0.12021338  1.0
  Ni  Ni92  1  0.16666667  1.00000000  0.12021338  1.0
  Ni  Ni93  1  0.50000000  0.33333333  0.12021337  1.0
  Ni  Ni94  1  0.50000000  0.66666667  0.12021338  1.0
  Ni  Ni95  1  0.50000000  1.00000000  0.12021337  1.0
  Ni  Ni96  1  0.83333333  0.33333333  0.12021337  1.0
  Ni  Ni97  1  0.83333333  0.66666667  0.12021338  1.0
  Ni  Ni98  1  0.83333333  1.00000000  0.12021337  1.0
  Ni  Ni99  1  0.00000000  0.16666667  0.12021337  1.0
  Ni  Ni100  1  0.00000000  0.50000000  0.12021337  1.0
  Ni  Ni101  1  0.00000000  0.83333333  0.12021337  1.0
  Ni  Ni102  1  0.33333333  0.16666667  0.12021337  1.0
  Ni  Ni103  1  0.33333333  0.50000000  0.12021337  1.0
  Ni  Ni104  1  0.33333333  0.83333333  0.12021337  1.0
  Ni  Ni105  1  0.66666667  0.16666667  0.12021337  1.0
  Ni  Ni106  1  0.66666667  0.50000000  0.12021338  1.0
  Ni  Ni107  1  0.66666667  0.83333333  0.12021337  1.0
  Ni  Ni108  1  0.16666667  0.16666667  0.12021337  1.0
  Ni  Ni109  1  0.16666667  0.50000000  0.12021337  1.0
  Ni  Ni110  1  0.16666667  0.83333333  0.12021337  1.0
  Ni  Ni111  1  0.50000000  0.16666667  0.12021337  1.0
  Ni  Ni112  1  0.50000000  0.50000000  0.12021337  1.0
  Ni  Ni113  1  0.50000000  0.83333333  0.12021337  1.0
  Ni  Ni114  1  0.83333333  0.16666667  0.12021337  1.0
  Ni  Ni115  1  0.83333333  0.50000000  0.12021337  1.0
  Ni  Ni116  1  0.83333333  0.83333333  0.12021337  1.0
  Ni  Ni117  1  0.16666667  0.33333333  0.05771338  1.0
  Ni  Ni118  1  0.16666667  0.66666667  0.05771338  1.0
  Ni  Ni119  1  0.16666667  1.00000000  0.05771338  1.0
  Ni  Ni120  1  0.50000000  0.33333333  0.05771338  1.0
  Ni  Ni121  1  0.50000000  0.66666667  0.05771338  1.0
  Ni  Ni122  1  0.50000000  1.00000000  0.05771338  1.0
  Ni  Ni123  1  0.83333333  0.33333333  0.05771338  1.0
  Ni  Ni124  1  0.83333333  0.66666667  0.05771338  1.0
  Ni  Ni125  1  0.83333333  1.00000000  0.05771338  1.0
  Ni  Ni126  1  0.01465200  0.19479100  0.01591675  1.0
  Ni  Ni127  1  0.01465200  0.52812433  0.01591675  1.0
  Ni  Ni128  1  0.01465200  0.86145767  0.01591675  1.0
  Ni  Ni129  1  0.34798533  0.19479100  0.01591675  1.0
  Ni  Ni130  1  0.34798533  0.52812433  0.01591675  1.0
  Ni  Ni131  1  0.34798533  0.86145767  0.01591675  1.0
  Ni  Ni132  1  0.68131867  0.19479100  0.01591675  1.0
  Ni  Ni133  1  0.68131867  0.52812433  0.01591675  1.0
  Ni  Ni134  1  0.68131867  0.86145767  0.01591675  1.0
  Ni  Ni135  1  0.10923833  0.23874700  0.12443325  1.0
  Ni  Ni136  1  0.10923833  0.57208033  0.12443325  1.0
  Ni  Ni137  1  0.10923833  0.90541367  0.12443325  1.0
  Ni  Ni138  1  0.44257167  0.23874700  0.12443325  1.0
  Ni  Ni139  1  0.44257167  0.57208033  0.12443325  1.0
  Ni  Ni140  1  0.44257167  0.90541367  0.12443325  1.0
  Ni  Ni141  1  0.77590500  0.23874700  0.12443325  1.0
  Ni  Ni142  1  0.77590500  0.57208033  0.12443325  1.0
  Ni  Ni143  1  0.77590500  0.90541367  0.12443325  1.0
  Ni  Ni144  1  0.20944300  0.23312867  0.00154013  1.0
  Ni  Ni145  1  0.20944300  0.56646200  0.00154013  1.0
  Ni  Ni146  1  0.20944300  0.89979533  0.00154013  1.0
  Ni  Ni147  1  0.54277633  0.23312867  0.00154013  1.0
  Ni  Ni148  1  0.54277633  0.56646200  0.00154013  1.0
  Ni  Ni149  1  0.54277633  0.89979533  0.00154013  1.0
  Ni  Ni150  1  0.87610967  0.23312867  0.00154013  1.0
  Ni  Ni151  1  0.87610967  0.56646200  0.00154013  1.0
  Ni  Ni152  1  0.87610967  0.89979533  0.00154013  1.0
  Ni  Ni153  1  0.01465200  0.09458633  0.05349350  1.0
  Ni  Ni154  1  0.01465200  0.42791967  0.05349350  1.0
  Ni  Ni155  1  0.01465200  0.76125300  0.05349350  1.0
  Ni  Ni156  1  0.34798533  0.09458633  0.05349350  1.0
  Ni  Ni157  1  0.34798533  0.42791967  0.05349350  1.0
  Ni  Ni158  1  0.34798533  0.76125300  0.05349350  1.0
  Ni  Ni159  1  0.68131867  0.09458633  0.05349350  1.0
  Ni  Ni160  1  0.68131867  0.42791967  0.05349350  1.0
  Ni  Ni161  1  0.68131867  0.76125300  0.05349350  1.0
  Ni  Ni162  1  0.10923833  0.10020467  0.05138662  1.0
  Ni  Ni163  1  0.10923833  0.43353800  0.05138663  1.0
  Ni  Ni164  1  0.10923833  0.76687133  0.05138662  1.0
  Ni  Ni165  1  0.44257167  0.10020467  0.05138662  1.0
  Ni  Ni166  1  0.44257167  0.43353800  0.05138662  1.0
  Ni  Ni167  1  0.44257167  0.76687133  0.05138662  1.0
  Ni  Ni168  1  0.77590500  0.10020467  0.05138662  1.0
  Ni  Ni169  1  0.77590500  0.43353800  0.05138662  1.0
  Ni  Ni170  1  0.77590500  0.76687133  0.05138662  1.0
  Ni  Ni171  1  0.20944300  0.13854233  0.03701000  1.0
  Ni  Ni172  1  0.20944300  0.47187567  0.03701000  1.0
  Ni  Ni173  1  0.20944300  0.80520900  0.03701000  1.0
  Ni  Ni174  1  0.54277633  0.13854233  0.03701000  1.0
  Ni  Ni175  1  0.54277633  0.47187567  0.03701000  1.0
  Ni  Ni176  1  0.54277633  0.80520900  0.03701000  1.0
  Ni  Ni177  1  0.87610967  0.13854233  0.03701000  1.0
  Ni  Ni178  1  0.87610967  0.47187567  0.03701000  1.0
  Ni  Ni179  1  0.87610967  0.80520900  0.03701000  1.0
  Ni  Ni180  1  0.31868133  0.13854233  0.09951000  1.0
  Ni  Ni181  1  0.31868133  0.47187567  0.09951000  1.0
  Ni  Ni182  1  0.31868133  0.80520900  0.09951000  1.0
  Ni  Ni183  1  0.65201467  0.13854233  0.09951000  1.0
  Ni  Ni184  1  0.65201467  0.47187567  0.09951000  1.0
  Ni  Ni185  1  0.65201467  0.80520900  0.09951000  1.0
  Ni  Ni186  1  0.98534800  0.13854233  0.09951000  1.0
  Ni  Ni187  1  0.98534800  0.47187567  0.09951000  1.0
  Ni  Ni188  1  0.98534800  0.80520900  0.09951000  1.0
  Ni  Ni189  1  0.22409500  0.09458633  0.11599350  1.0
  Ni  Ni190  1  0.22409500  0.42791967  0.11599350  1.0
  Ni  Ni191  1  0.22409500  0.76125300  0.11599350  1.0
  Ni  Ni192  1  0.55742833  0.09458633  0.11599350  1.0
  Ni  Ni193  1  0.55742833  0.42791967  0.11599350  1.0
  Ni  Ni194  1  0.55742833  0.76125300  0.11599350  1.0
  Ni  Ni195  1  0.89076167  0.09458633  0.11599350  1.0
  Ni  Ni196  1  0.89076167  0.42791967  0.11599350  1.0
  Ni  Ni197  1  0.89076167  0.76125300  0.11599350  1.0
  Ni  Ni198  1  0.12389033  0.10020467  0.11388662  1.0
  Ni  Ni199  1  0.12389033  0.43353800  0.11388662  1.0
  Ni  Ni200  1  0.12389033  0.76687133  0.11388663  1.0
  Ni  Ni201  1  0.45722367  0.10020467  0.11388662  1.0
  Ni  Ni202  1  0.45722367  0.43353800  0.11388662  1.0
  Ni  Ni203  1  0.45722367  0.76687133  0.11388662  1.0
  Ni  Ni204  1  0.79055700  0.10020467  0.11388662  1.0
  Ni  Ni205  1  0.79055700  0.43353800  0.11388663  1.0
  Ni  Ni206  1  0.79055700  0.76687133  0.11388662  1.0
  Ni  Ni207  1  0.31868133  0.23874700  0.06193325  1.0
  Ni  Ni208  1  0.31868133  0.57208033  0.06193325  1.0
  Ni  Ni209  1  0.31868133  0.90541367  0.06193325  1.0
  Ni  Ni210  1  0.65201467  0.23874700  0.06193325  1.0
  Ni  Ni211  1  0.65201467  0.57208033  0.06193325  1.0
  Ni  Ni212  1  0.65201467  0.90541367  0.06193325  1.0
  Ni  Ni213  1  0.98534800  0.23874700  0.06193325  1.0
  Ni  Ni214  1  0.98534800  0.57208033  0.06193325  1.0
  Ni  Ni215  1  0.98534800  0.90541367  0.06193325  1.0
  Ni  Ni216  1  0.22409500  0.23312867  0.06404013  1.0
  Ni  Ni217  1  0.22409500  0.56646200  0.06404013  1.0
  Ni  Ni218  1  0.22409500  0.89979533  0.06404013  1.0
  Ni  Ni219  1  0.55742833  0.23312867  0.06404012  1.0
  Ni  Ni220  1  0.55742833  0.56646200  0.06404013  1.0
  Ni  Ni221  1  0.55742833  0.89979533  0.06404013  1.0
  Ni  Ni222  1  0.89076167  0.23312867  0.06404013  1.0
  Ni  Ni223  1  0.89076167  0.56646200  0.06404013  1.0
  Ni  Ni224  1  0.89076167  0.89979533  0.06404013  1.0
  Ni  Ni225  1  0.12389033  0.19479100  0.07841675  1.0
  Ni  Ni226  1  0.12389033  0.52812433  0.07841675  1.0
  Ni  Ni227  1  0.12389033  0.86145767  0.07841675  1.0
  Ni  Ni228  1  0.45722367  0.19479100  0.07841675  1.0
  Ni  Ni229  1  0.45722367  0.52812433  0.07841675  1.0
  Ni  Ni230  1  0.45722367  0.86145767  0.07841675  1.0
  Ni  Ni231  1  0.79055700  0.19479100  0.07841675  1.0
  Ni  Ni232  1  0.79055700  0.52812433  0.07841675  1.0
  Ni  Ni233  1  0.79055700  0.86145767  0.07841675  1.0
  Ni  Ni234  1  0.22320867  0.16518700  0.06099525  1.0
  Ni  Ni235  1  0.22320867  0.49852033  0.06099525  1.0
  Ni  Ni236  1  0.22320867  0.83185367  0.06099525  1.0
  Ni  Ni237  1  0.55654200  0.16518700  0.06099525  1.0
  Ni  Ni238  1  0.55654200  0.49852033  0.06099525  1.0
  Ni  Ni239  1  0.55654200  0.83185367  0.06099525  1.0
  Ni  Ni240  1  0.88987533  0.16518700  0.06099525  1.0
  Ni  Ni241  1  0.88987533  0.49852033  0.06099525  1.0
  Ni  Ni242  1  0.88987533  0.83185367  0.06099525  1.0
  Ni  Ni243  1  0.05506233  0.16814633  0.05988550  1.0
  Ni  Ni244  1  0.05506233  0.50147967  0.05988550  1.0
  Ni  Ni245  1  0.05506233  0.83481300  0.05988550  1.0
  Ni  Ni246  1  0.38839567  0.16814633  0.05988550  1.0
  Ni  Ni247  1  0.38839567  0.50147967  0.05988550  1.0
  Ni  Ni248  1  0.38839567  0.83481300  0.05988550  1.0
  Ni  Ni249  1  0.72172900  0.16814633  0.05988550  1.0
  Ni  Ni250  1  0.72172900  0.50147967  0.05988550  1.0
  Ni  Ni251  1  0.72172900  0.83481300  0.05988550  1.0
  Ni  Ni252  1  0.05506233  0.33333333  0.12294037  1.0
  Ni  Ni253  1  0.05506233  0.66666667  0.12294037  1.0
  Ni  Ni254  1  0.05506233  1.00000000  0.12294038  1.0
  Ni  Ni255  1  0.38839567  0.33333333  0.12294037  1.0
  Ni  Ni256  1  0.38839567  0.66666667  0.12294037  1.0
  Ni  Ni257  1  0.38839567  1.00000000  0.12294038  1.0
  Ni  Ni258  1  0.72172900  0.33333333  0.12294037  1.0
  Ni  Ni259  1  0.72172900  0.66666667  0.12294037  1.0
  Ni  Ni260  1  0.72172900  1.00000000  0.12294038  1.0
  Ni  Ni261  1  0.11012467  0.16814633  0.05443150  1.0
  Ni  Ni262  1  0.11012467  0.50147967  0.05443150  1.0
  Ni  Ni263  1  0.11012467  0.83481300  0.05443150  1.0
  Ni  Ni264  1  0.44345800  0.16814633  0.05443150  1.0
  Ni  Ni265  1  0.44345800  0.50147967  0.05443150  1.0
  Ni  Ni266  1  0.44345800  0.83481300  0.05443150  1.0
  Ni  Ni267  1  0.77679133  0.16814633  0.05443150  1.0
  Ni  Ni268  1  0.77679133  0.50147967  0.05443150  1.0
  Ni  Ni269  1  0.77679133  0.83481300  0.05443150  1.0
  Ni  Ni270  1  0.27827100  0.16518700  0.05554125  1.0
  Ni  Ni271  1  0.27827100  0.49852033  0.05554125  1.0
  Ni  Ni272  1  0.27827100  0.83185367  0.05554125  1.0
  Ni  Ni273  1  0.61160433  0.16518700  0.05554125  1.0
  Ni  Ni274  1  0.61160433  0.49852033  0.05554125  1.0
  Ni  Ni275  1  0.61160433  0.83185367  0.05554125  1.0
  Ni  Ni276  1  0.94493767  0.16518700  0.05554125  1.0
  Ni  Ni277  1  0.94493767  0.49852033  0.05554125  1.0
  Ni  Ni278  1  0.94493767  0.83185367  0.05554125  1.0
  Ni  Ni279  1  0.27827100  0.33333333  0.11748638  1.0
  Ni  Ni280  1  0.27827100  0.66666667  0.11748637  1.0
  Ni  Ni281  1  0.27827100  1.00000000  0.11748638  1.0
  Ni  Ni282  1  0.61160433  0.33333333  0.11748637  1.0
  Ni  Ni283  1  0.61160433  0.66666667  0.11748637  1.0
  Ni  Ni284  1  0.61160433  1.00000000  0.11748638  1.0
  Ni  Ni285  1  0.94493767  0.33333333  0.11748638  1.0
  Ni  Ni286  1  0.94493767  0.66666667  0.11748638  1.0
  Ni  Ni287  1  0.94493767  1.00000000  0.11748638  1.0
  Ni  Ni288  1  0.11012467  0.16814633  0.12238550  1.0
  Ni  Ni289  1  0.11012467  0.50147967  0.12238550  1.0
  Ni  Ni290  1  0.11012467  0.83481300  0.12238550  1.0
  Ni  Ni291  1  0.44345800  0.16814633  0.12238550  1.0
  Ni  Ni292  1  0.44345800  0.50147967  0.12238550  1.0
  Ni  Ni293  1  0.44345800  0.83481300  0.12238550  1.0
  Ni  Ni294  1  0.77679133  0.16814633  0.12238550  1.0
  Ni  Ni295  1  0.77679133  0.50147967  0.12238550  1.0
  Ni  Ni296  1  0.77679133  0.83481300  0.12238550  1.0
  Ni  Ni297  1  0.27827100  0.16518700  0.12349525  1.0
  Ni  Ni298  1  0.27827100  0.49852033  0.12349525  1.0
  Ni  Ni299  1  0.27827100  0.83185367  0.12349525  1.0
  Ni  Ni300  1  0.61160433  0.16518700  0.12349525  1.0
  Ni  Ni301  1  0.61160433  0.49852033  0.12349525  1.0
  Ni  Ni302  1  0.61160433  0.83185367  0.12349525  1.0
  Ni  Ni303  1  0.94493767  0.16518700  0.12349525  1.0
  Ni  Ni304  1  0.94493767  0.49852033  0.12349525  1.0
  Ni  Ni305  1  0.94493767  0.83185367  0.12349525  1.0
  Ni  Ni306  1  0.27827100  0.33333333  0.06044037  1.0
  Ni  Ni307  1  0.27827100  0.66666667  0.06044037  1.0
  Ni  Ni308  1  0.27827100  1.00000000  0.06044037  1.0
  Ni  Ni309  1  0.61160433  0.33333333  0.06044037  1.0
  Ni  Ni310  1  0.61160433  0.66666667  0.06044037  1.0
  Ni  Ni311  1  0.61160433  1.00000000  0.06044037  1.0
  Ni  Ni312  1  0.94493767  0.33333333  0.06044037  1.0
  Ni  Ni313  1  0.94493767  0.66666667  0.06044037  1.0
  Ni  Ni314  1  0.94493767  1.00000000  0.06044037  1.0
  Ni  Ni315  1  0.22320867  0.16518700  0.11804125  1.0
  Ni  Ni316  1  0.22320867  0.49852033  0.11804125  1.0
  Ni  Ni317  1  0.22320867  0.83185367  0.11804125  1.0
  Ni  Ni318  1  0.55654200  0.16518700  0.11804125  1.0
  Ni  Ni319  1  0.55654200  0.49852033  0.11804125  1.0
  Ni  Ni320  1  0.55654200  0.83185367  0.11804125  1.0
  Ni  Ni321  1  0.88987533  0.16518700  0.11804125  1.0
  Ni  Ni322  1  0.88987533  0.49852033  0.11804125  1.0
  Ni  Ni323  1  0.88987533  0.83185367  0.11804125  1.0
  Ni  Ni324  1  0.05506233  0.16814633  0.11693150  1.0
  Ni  Ni325  1  0.05506233  0.50147967  0.11693150  1.0
  Ni  Ni326  1  0.05506233  0.83481300  0.11693150  1.0
  Ni  Ni327  1  0.38839567  0.16814633  0.11693150  1.0
  Ni  Ni328  1  0.38839567  0.50147967  0.11693150  1.0
  Ni  Ni329  1  0.38839567  0.83481300  0.11693150  1.0
  Ni  Ni330  1  0.72172900  0.16814633  0.11693150  1.0
  Ni  Ni331  1  0.72172900  0.50147967  0.11693150  1.0
  Ni  Ni332  1  0.72172900  0.83481300  0.11693150  1.0
  Ni  Ni333  1  0.05506233  0.33333333  0.05498638  1.0
  Ni  Ni334  1  0.05506233  0.66666667  0.05498637  1.0
  Ni  Ni335  1  0.05506233  1.00000000  0.05498638  1.0
  Ni  Ni336  1  0.38839567  0.33333333  0.05498637  1.0
  Ni  Ni337  1  0.38839567  0.66666667  0.05498637  1.0
  Ni  Ni338  1  0.38839567  1.00000000  0.05498638  1.0
  Ni  Ni339  1  0.72172900  0.33333333  0.05498638  1.0
  Ni  Ni340  1  0.72172900  0.66666667  0.05498637  1.0
  Ni  Ni341  1  0.72172900  1.00000000  0.05498638  1.0
  Y  Y342  1  0.00000000  0.00000000  0.21396337  1.0
  Y  Y343  1  0.00000000  0.33333333  0.21396337  1.0
  Y  Y344  1  0.00000000  0.66666667  0.21396337  1.0
  Y  Y345  1  0.33333333  0.00000000  0.21396337  1.0
  Y  Y346  1  0.33333333  0.33333333  0.21396337  1.0
  Y  Y347  1  0.33333333  0.66666667  0.21396337  1.0
  Y  Y348  1  0.66666667  0.00000000  0.21396337  1.0
  Y  Y349  1  0.66666667  0.33333333  0.21396337  1.0
  Y  Y350  1  0.66666667  0.66666667  0.21396337  1.0
  Y  Y351  1  0.00000000  0.00000000  0.15146337  1.0
  Y  Y352  1  0.00000000  0.33333333  0.15146338  1.0
  Y  Y353  1  0.00000000  0.66666667  0.15146338  1.0
  Y  Y354  1  0.33333333  0.00000000  0.15146337  1.0
  Y  Y355  1  0.33333333  0.33333333  0.15146338  1.0
  Y  Y356  1  0.33333333  0.66666667  0.15146338  1.0
  Y  Y357  1  0.66666667  0.00000000  0.15146337  1.0
  Y  Y358  1  0.66666667  0.33333333  0.15146338  1.0
  Y  Y359  1  0.66666667  0.66666667  0.15146338  1.0
  Y  Y360  1  0.11111111  0.00000000  0.15146337  1.0
  Y  Y361  1  0.11111111  0.33333333  0.15146338  1.0
  Y  Y362  1  0.11111111  0.66666667  0.15146338  1.0
  Y  Y363  1  0.44444444  0.00000000  0.15146337  1.0
  Y  Y364  1  0.44444444  0.33333333  0.15146338  1.0
  Y  Y365  1  0.44444444  0.66666667  0.15146338  1.0
  Y  Y366  1  0.77777778  0.00000000  0.15146337  1.0
  Y  Y367  1  0.77777778  0.33333333  0.15146338  1.0
  Y  Y368  1  0.77777778  0.66666667  0.15146338  1.0
  Y  Y369  1  0.22222222  0.00000000  0.21396337  1.0
  Y  Y370  1  0.22222222  0.33333333  0.21396337  1.0
  Y  Y371  1  0.22222222  0.66666667  0.21396337  1.0
  Y  Y372  1  0.55555556  0.00000000  0.21396337  1.0
  Y  Y373  1  0.55555556  0.33333333  0.21396337  1.0
  Y  Y374  1  0.55555556  0.66666667  0.21396337  1.0
  Y  Y375  1  0.88888889  0.00000000  0.21396337  1.0
  Y  Y376  1  0.88888889  0.33333333  0.21396337  1.0
  Y  Y377  1  0.88888889  0.66666667  0.21396337  1.0
  Ni  Ni378  1  0.11111111  0.00000000  0.23235825  1.0
  Ni  Ni379  1  0.11111111  0.33333333  0.23235825  1.0
  Ni  Ni380  1  0.11111111  0.66666667  0.23235825  1.0
  Ni  Ni381  1  0.44444444  0.00000000  0.23235825  1.0
  Ni  Ni382  1  0.44444444  0.33333333  0.23235825  1.0
  Ni  Ni383  1  0.44444444  0.66666667  0.23235825  1.0
  Ni  Ni384  1  0.77777778  0.00000000  0.23235825  1.0
  Ni  Ni385  1  0.77777778  0.33333333  0.23235825  1.0
  Ni  Ni386  1  0.77777778  0.66666667  0.23235825  1.0
  Ni  Ni387  1  0.22222222  0.00000000  0.13306850  1.0
  Ni  Ni388  1  0.22222222  0.33333333  0.13306850  1.0
  Ni  Ni389  1  0.22222222  0.66666667  0.13306850  1.0
  Ni  Ni390  1  0.55555556  0.00000000  0.13306850  1.0
  Ni  Ni391  1  0.55555556  0.33333333  0.13306850  1.0
  Ni  Ni392  1  0.55555556  0.66666667  0.13306850  1.0
  Ni  Ni393  1  0.88888889  0.00000000  0.13306850  1.0
  Ni  Ni394  1  0.88888889  0.33333333  0.13306850  1.0
  Ni  Ni395  1  0.88888889  0.66666667  0.13306850  1.0
  Ni  Ni396  1  0.22222222  0.00000000  0.16985825  1.0
  Ni  Ni397  1  0.22222222  0.33333333  0.16985825  1.0
  Ni  Ni398  1  0.22222222  0.66666667  0.16985825  1.0
  Ni  Ni399  1  0.55555556  0.00000000  0.16985825  1.0
  Ni  Ni400  1  0.55555556  0.33333333  0.16985825  1.0
  Ni  Ni401  1  0.55555556  0.66666667  0.16985825  1.0
  Ni  Ni402  1  0.88888889  0.00000000  0.16985825  1.0
  Ni  Ni403  1  0.88888889  0.33333333  0.16985825  1.0
  Ni  Ni404  1  0.88888889  0.66666667  0.16985825  1.0
  Ni  Ni405  1  0.11111111  0.00000000  0.19556850  1.0
  Ni  Ni406  1  0.11111111  0.33333333  0.19556850  1.0
  Ni  Ni407  1  0.11111111  0.66666667  0.19556850  1.0
  Ni  Ni408  1  0.44444444  0.00000000  0.19556850  1.0
  Ni  Ni409  1  0.44444444  0.33333333  0.19556850  1.0
  Ni  Ni410  1  0.44444444  0.66666667  0.19556850  1.0
  Ni  Ni411  1  0.77777778  0.00000000  0.19556850  1.0
  Ni  Ni412  1  0.77777778  0.33333333  0.19556850  1.0
  Ni  Ni413  1  0.77777778  0.66666667  0.19556850  1.0
  Ni  Ni414  1  0.00000000  0.16666667  0.18271337  1.0
  Ni  Ni415  1  0.00000000  0.50000000  0.18271338  1.0
  Ni  Ni416  1  0.00000000  0.83333333  0.18271337  1.0
  Ni  Ni417  1  0.33333333  0.16666667  0.18271337  1.0
  Ni  Ni418  1  0.33333333  0.50000000  0.18271338  1.0
  Ni  Ni419  1  0.33333333  0.83333333  0.18271337  1.0
  Ni  Ni420  1  0.66666667  0.16666667  0.18271337  1.0
  Ni  Ni421  1  0.66666667  0.50000000  0.18271338  1.0
  Ni  Ni422  1  0.66666667  0.83333333  0.18271337  1.0
  Ni  Ni423  1  0.16666667  0.16666667  0.18271337  1.0
  Ni  Ni424  1  0.16666667  0.50000000  0.18271338  1.0
  Ni  Ni425  1  0.16666667  0.83333333  0.18271337  1.0
  Ni  Ni426  1  0.50000000  0.16666667  0.18271337  1.0
  Ni  Ni427  1  0.50000000  0.50000000  0.18271338  1.0
  Ni  Ni428  1  0.50000000  0.83333333  0.18271337  1.0
  Ni  Ni429  1  0.83333333  0.16666667  0.18271337  1.0
  Ni  Ni430  1  0.83333333  0.50000000  0.18271337  1.0
  Ni  Ni431  1  0.83333333  0.83333333  0.18271337  1.0
  Ni  Ni432  1  0.16666667  0.33333333  0.24521338  1.0
  Ni  Ni433  1  0.16666667  0.66666667  0.24521337  1.0
  Ni  Ni434  1  0.16666667  1.00000000  0.24521338  1.0
  Ni  Ni435  1  0.50000000  0.33333333  0.24521338  1.0
  Ni  Ni436  1  0.50000000  0.66666667  0.24521337  1.0
  Ni  Ni437  1  0.50000000  1.00000000  0.24521337  1.0
  Ni  Ni438  1  0.83333333  0.33333333  0.24521337  1.0
  Ni  Ni439  1  0.83333333  0.66666667  0.24521338  1.0
  Ni  Ni440  1  0.83333333  1.00000000  0.24521337  1.0
  Ni  Ni441  1  0.00000000  0.16666667  0.24521337  1.0
  Ni  Ni442  1  0.00000000  0.50000000  0.24521337  1.0
  Ni  Ni443  1  0.00000000  0.83333333  0.24521337  1.0
  Ni  Ni444  1  0.33333333  0.16666667  0.24521337  1.0
  Ni  Ni445  1  0.33333333  0.50000000  0.24521337  1.0
  Ni  Ni446  1  0.33333333  0.83333333  0.24521337  1.0
  Ni  Ni447  1  0.66666667  0.16666667  0.24521337  1.0
  Ni  Ni448  1  0.66666667  0.50000000  0.24521337  1.0
  Ni  Ni449  1  0.66666667  0.83333333  0.24521337  1.0
  Ni  Ni450  1  0.16666667  0.16666667  0.24521337  1.0
  Ni  Ni451  1  0.16666667  0.50000000  0.24521337  1.0
  Ni  Ni452  1  0.16666667  0.83333333  0.24521337  1.0
  Ni  Ni453  1  0.50000000  0.16666667  0.24521337  1.0
  Ni  Ni454  1  0.50000000  0.50000000  0.24521337  1.0
  Ni  Ni455  1  0.50000000  0.83333333  0.24521337  1.0
  Ni  Ni456  1  0.83333333  0.16666667  0.24521337  1.0
  Ni  Ni457  1  0.83333333  0.50000000  0.24521337  1.0
  Ni  Ni458  1  0.83333333  0.83333333  0.24521337  1.0
  Ni  Ni459  1  0.16666667  0.33333333  0.18271338  1.0
  Ni  Ni460  1  0.16666667  0.66666667  0.18271338  1.0
  Ni  Ni461  1  0.16666667  1.00000000  0.18271338  1.0
  Ni  Ni462  1  0.50000000  0.33333333  0.18271338  1.0
  Ni  Ni463  1  0.50000000  0.66666667  0.18271338  1.0
  Ni  Ni464  1  0.50000000  1.00000000  0.18271337  1.0
  Ni  Ni465  1  0.83333333  0.33333333  0.18271337  1.0
  Ni  Ni466  1  0.83333333  0.66666667  0.18271338  1.0
  Ni  Ni467  1  0.83333333  1.00000000  0.18271337  1.0
  Ni  Ni468  1  0.01465200  0.19479100  0.14091675  1.0
  Ni  Ni469  1  0.01465200  0.52812433  0.14091675  1.0
  Ni  Ni470  1  0.01465200  0.86145767  0.14091675  1.0
  Ni  Ni471  1  0.34798533  0.19479100  0.14091675  1.0
  Ni  Ni472  1  0.34798533  0.52812433  0.14091675  1.0
  Ni  Ni473  1  0.34798533  0.86145767  0.14091675  1.0
  Ni  Ni474  1  0.68131867  0.19479100  0.14091675  1.0
  Ni  Ni475  1  0.68131867  0.52812433  0.14091675  1.0
  Ni  Ni476  1  0.68131867  0.86145767  0.14091675  1.0
  Ni  Ni477  1  0.10923833  0.23874700  0.24943325  1.0
  Ni  Ni478  1  0.10923833  0.57208033  0.24943325  1.0
  Ni  Ni479  1  0.10923833  0.90541367  0.24943325  1.0
  Ni  Ni480  1  0.44257167  0.23874700  0.24943325  1.0
  Ni  Ni481  1  0.44257167  0.57208033  0.24943325  1.0
  Ni  Ni482  1  0.44257167  0.90541367  0.24943325  1.0
  Ni  Ni483  1  0.77590500  0.23874700  0.24943325  1.0
  Ni  Ni484  1  0.77590500  0.57208033  0.24943325  1.0
  Ni  Ni485  1  0.77590500  0.90541367  0.24943325  1.0
  Ni  Ni486  1  0.20944300  0.23312867  0.12654013  1.0
  Ni  Ni487  1  0.20944300  0.56646200  0.12654012  1.0
  Ni  Ni488  1  0.20944300  0.89979533  0.12654013  1.0
  Ni  Ni489  1  0.54277633  0.23312867  0.12654013  1.0
  Ni  Ni490  1  0.54277633  0.56646200  0.12654012  1.0
  Ni  Ni491  1  0.54277633  0.89979533  0.12654013  1.0
  Ni  Ni492  1  0.87610967  0.23312867  0.12654013  1.0
  Ni  Ni493  1  0.87610967  0.56646200  0.12654013  1.0
  Ni  Ni494  1  0.87610967  0.89979533  0.12654013  1.0
  Ni  Ni495  1  0.01465200  0.09458633  0.17849350  1.0
  Ni  Ni496  1  0.01465200  0.42791967  0.17849350  1.0
  Ni  Ni497  1  0.01465200  0.76125300  0.17849350  1.0
  Ni  Ni498  1  0.34798533  0.09458633  0.17849350  1.0
  Ni  Ni499  1  0.34798533  0.42791967  0.17849350  1.0
  Ni  Ni500  1  0.34798533  0.76125300  0.17849350  1.0
  Ni  Ni501  1  0.68131867  0.09458633  0.17849350  1.0
  Ni  Ni502  1  0.68131867  0.42791967  0.17849350  1.0
  Ni  Ni503  1  0.68131867  0.76125300  0.17849350  1.0
  Ni  Ni504  1  0.10923833  0.10020467  0.17638662  1.0
  Ni  Ni505  1  0.10923833  0.43353800  0.17638662  1.0
  Ni  Ni506  1  0.10923833  0.76687133  0.17638662  1.0
  Ni  Ni507  1  0.44257167  0.10020467  0.17638662  1.0
  Ni  Ni508  1  0.44257167  0.43353800  0.17638662  1.0
  Ni  Ni509  1  0.44257167  0.76687133  0.17638662  1.0
  Ni  Ni510  1  0.77590500  0.10020467  0.17638662  1.0
  Ni  Ni511  1  0.77590500  0.43353800  0.17638662  1.0
  Ni  Ni512  1  0.77590500  0.76687133  0.17638662  1.0
  Ni  Ni513  1  0.20944300  0.13854233  0.16201000  1.0
  Ni  Ni514  1  0.20944300  0.47187567  0.16201000  1.0
  Ni  Ni515  1  0.20944300  0.80520900  0.16201000  1.0
  Ni  Ni516  1  0.54277633  0.13854233  0.16201000  1.0
  Ni  Ni517  1  0.54277633  0.47187567  0.16201000  1.0
  Ni  Ni518  1  0.54277633  0.80520900  0.16201000  1.0
  Ni  Ni519  1  0.87610967  0.13854233  0.16201000  1.0
  Ni  Ni520  1  0.87610967  0.47187567  0.16201000  1.0
  Ni  Ni521  1  0.87610967  0.80520900  0.16201000  1.0
  Ni  Ni522  1  0.31868133  0.13854233  0.22451000  1.0
  Ni  Ni523  1  0.31868133  0.47187567  0.22451000  1.0
  Ni  Ni524  1  0.31868133  0.80520900  0.22451000  1.0
  Ni  Ni525  1  0.65201467  0.13854233  0.22451000  1.0
  Ni  Ni526  1  0.65201467  0.47187567  0.22451000  1.0
  Ni  Ni527  1  0.65201467  0.80520900  0.22451000  1.0
  Ni  Ni528  1  0.98534800  0.13854233  0.22451000  1.0
  Ni  Ni529  1  0.98534800  0.47187567  0.22451000  1.0
  Ni  Ni530  1  0.98534800  0.80520900  0.22451000  1.0
  Ni  Ni531  1  0.22409500  0.09458633  0.24099350  1.0
  Ni  Ni532  1  0.22409500  0.42791967  0.24099350  1.0
  Ni  Ni533  1  0.22409500  0.76125300  0.24099350  1.0
  Ni  Ni534  1  0.55742833  0.09458633  0.24099350  1.0
  Ni  Ni535  1  0.55742833  0.42791967  0.24099350  1.0
  Ni  Ni536  1  0.55742833  0.76125300  0.24099350  1.0
  Ni  Ni537  1  0.89076167  0.09458633  0.24099350  1.0
  Ni  Ni538  1  0.89076167  0.42791967  0.24099350  1.0
  Ni  Ni539  1  0.89076167  0.76125300  0.24099350  1.0
  Ni  Ni540  1  0.12389033  0.10020467  0.23888663  1.0
  Ni  Ni541  1  0.12389033  0.43353800  0.23888662  1.0
  Ni  Ni542  1  0.12389033  0.76687133  0.23888662  1.0
  Ni  Ni543  1  0.45722367  0.10020467  0.23888663  1.0
  Ni  Ni544  1  0.45722367  0.43353800  0.23888662  1.0
  Ni  Ni545  1  0.45722367  0.76687133  0.23888662  1.0
  Ni  Ni546  1  0.79055700  0.10020467  0.23888662  1.0
  Ni  Ni547  1  0.79055700  0.43353800  0.23888662  1.0
  Ni  Ni548  1  0.79055700  0.76687133  0.23888662  1.0
  Ni  Ni549  1  0.31868133  0.23874700  0.18693325  1.0
  Ni  Ni550  1  0.31868133  0.57208033  0.18693325  1.0
  Ni  Ni551  1  0.31868133  0.90541367  0.18693325  1.0
  Ni  Ni552  1  0.65201467  0.23874700  0.18693325  1.0
  Ni  Ni553  1  0.65201467  0.57208033  0.18693325  1.0
  Ni  Ni554  1  0.65201467  0.90541367  0.18693325  1.0
  Ni  Ni555  1  0.98534800  0.23874700  0.18693325  1.0
  Ni  Ni556  1  0.98534800  0.57208033  0.18693325  1.0
  Ni  Ni557  1  0.98534800  0.90541367  0.18693325  1.0
  Ni  Ni558  1  0.22409500  0.23312867  0.18904013  1.0
  Ni  Ni559  1  0.22409500  0.56646200  0.18904013  1.0
  Ni  Ni560  1  0.22409500  0.89979533  0.18904013  1.0
  Ni  Ni561  1  0.55742833  0.23312867  0.18904013  1.0
  Ni  Ni562  1  0.55742833  0.56646200  0.18904013  1.0
  Ni  Ni563  1  0.55742833  0.89979533  0.18904013  1.0
  Ni  Ni564  1  0.89076167  0.23312867  0.18904013  1.0
  Ni  Ni565  1  0.89076167  0.56646200  0.18904013  1.0
  Ni  Ni566  1  0.89076167  0.89979533  0.18904013  1.0
  Ni  Ni567  1  0.12389033  0.19479100  0.20341675  1.0
  Ni  Ni568  1  0.12389033  0.52812433  0.20341675  1.0
  Ni  Ni569  1  0.12389033  0.86145767  0.20341675  1.0
  Ni  Ni570  1  0.45722367  0.19479100  0.20341675  1.0
  Ni  Ni571  1  0.45722367  0.52812433  0.20341675  1.0
  Ni  Ni572  1  0.45722367  0.86145767  0.20341675  1.0
  Ni  Ni573  1  0.79055700  0.19479100  0.20341675  1.0
  Ni  Ni574  1  0.79055700  0.52812433  0.20341675  1.0
  Ni  Ni575  1  0.79055700  0.86145767  0.20341675  1.0
  Ni  Ni576  1  0.22320867  0.16518700  0.18599525  1.0
  Ni  Ni577  1  0.22320867  0.49852033  0.18599525  1.0
  Ni  Ni578  1  0.22320867  0.83185367  0.18599525  1.0
  Ni  Ni579  1  0.55654200  0.16518700  0.18599525  1.0
  Ni  Ni580  1  0.55654200  0.49852033  0.18599525  1.0
  Ni  Ni581  1  0.55654200  0.83185367  0.18599525  1.0
  Ni  Ni582  1  0.88987533  0.16518700  0.18599525  1.0
  Ni  Ni583  1  0.88987533  0.49852033  0.18599525  1.0
  Ni  Ni584  1  0.88987533  0.83185367  0.18599525  1.0
  Ni  Ni585  1  0.05506233  0.16814633  0.18488550  1.0
  Ni  Ni586  1  0.05506233  0.50147967  0.18488550  1.0
  Ni  Ni587  1  0.05506233  0.83481300  0.18488550  1.0
  Ni  Ni588  1  0.38839567  0.16814633  0.18488550  1.0
  Ni  Ni589  1  0.38839567  0.50147967  0.18488550  1.0
  Ni  Ni590  1  0.38839567  0.83481300  0.18488550  1.0
  Ni  Ni591  1  0.72172900  0.16814633  0.18488550  1.0
  Ni  Ni592  1  0.72172900  0.50147967  0.18488550  1.0
  Ni  Ni593  1  0.72172900  0.83481300  0.18488550  1.0
  Ni  Ni594  1  0.05506233  0.33333333  0.24794037  1.0
  Ni  Ni595  1  0.05506233  0.66666667  0.24794037  1.0
  Ni  Ni596  1  0.05506233  1.00000000  0.24794038  1.0
  Ni  Ni597  1  0.38839567  0.33333333  0.24794037  1.0
  Ni  Ni598  1  0.38839567  0.66666667  0.24794037  1.0
  Ni  Ni599  1  0.38839567  1.00000000  0.24794038  1.0
  Ni  Ni600  1  0.72172900  0.33333333  0.24794037  1.0
  Ni  Ni601  1  0.72172900  0.66666667  0.24794037  1.0
  Ni  Ni602  1  0.72172900  1.00000000  0.24794038  1.0
  Ni  Ni603  1  0.11012467  0.16814633  0.17943150  1.0
  Ni  Ni604  1  0.11012467  0.50147967  0.17943150  1.0
  Ni  Ni605  1  0.11012467  0.83481300  0.17943150  1.0
  Ni  Ni606  1  0.44345800  0.16814633  0.17943150  1.0
  Ni  Ni607  1  0.44345800  0.50147967  0.17943150  1.0
  Ni  Ni608  1  0.44345800  0.83481300  0.17943150  1.0
  Ni  Ni609  1  0.77679133  0.16814633  0.17943150  1.0
  Ni  Ni610  1  0.77679133  0.50147967  0.17943150  1.0
  Ni  Ni611  1  0.77679133  0.83481300  0.17943150  1.0
  Ni  Ni612  1  0.27827100  0.16518700  0.18054125  1.0
  Ni  Ni613  1  0.27827100  0.49852033  0.18054125  1.0
  Ni  Ni614  1  0.27827100  0.83185367  0.18054125  1.0
  Ni  Ni615  1  0.61160433  0.16518700  0.18054125  1.0
  Ni  Ni616  1  0.61160433  0.49852033  0.18054125  1.0
  Ni  Ni617  1  0.61160433  0.83185367  0.18054125  1.0
  Ni  Ni618  1  0.94493767  0.16518700  0.18054125  1.0
  Ni  Ni619  1  0.94493767  0.49852033  0.18054125  1.0
  Ni  Ni620  1  0.94493767  0.83185367  0.18054125  1.0
  Ni  Ni621  1  0.27827100  0.33333333  0.24248637  1.0
  Ni  Ni622  1  0.27827100  0.66666667  0.24248638  1.0
  Ni  Ni623  1  0.27827100  1.00000000  0.24248638  1.0
  Ni  Ni624  1  0.61160433  0.33333333  0.24248637  1.0
  Ni  Ni625  1  0.61160433  0.66666667  0.24248638  1.0
  Ni  Ni626  1  0.61160433  1.00000000  0.24248638  1.0
  Ni  Ni627  1  0.94493767  0.33333333  0.24248637  1.0
  Ni  Ni628  1  0.94493767  0.66666667  0.24248638  1.0
  Ni  Ni629  1  0.94493767  1.00000000  0.24248638  1.0
  Ni  Ni630  1  0.11012467  0.16814633  0.24738550  1.0
  Ni  Ni631  1  0.11012467  0.50147967  0.24738550  1.0
  Ni  Ni632  1  0.11012467  0.83481300  0.24738550  1.0
  Ni  Ni633  1  0.44345800  0.16814633  0.24738550  1.0
  Ni  Ni634  1  0.44345800  0.50147967  0.24738550  1.0
  Ni  Ni635  1  0.44345800  0.83481300  0.24738550  1.0
  Ni  Ni636  1  0.77679133  0.16814633  0.24738550  1.0
  Ni  Ni637  1  0.77679133  0.50147967  0.24738550  1.0
  Ni  Ni638  1  0.77679133  0.83481300  0.24738550  1.0
  Ni  Ni639  1  0.27827100  0.16518700  0.24849525  1.0
  Ni  Ni640  1  0.27827100  0.49852033  0.24849525  1.0
  Ni  Ni641  1  0.27827100  0.83185367  0.24849525  1.0
  Ni  Ni642  1  0.61160433  0.16518700  0.24849525  1.0
  Ni  Ni643  1  0.61160433  0.49852033  0.24849525  1.0
  Ni  Ni644  1  0.61160433  0.83185367  0.24849525  1.0
  Ni  Ni645  1  0.94493767  0.16518700  0.24849525  1.0
  Ni  Ni646  1  0.94493767  0.49852033  0.24849525  1.0
  Ni  Ni647  1  0.94493767  0.83185367  0.24849525  1.0
  Ni  Ni648  1  0.27827100  0.33333333  0.18544037  1.0
  Ni  Ni649  1  0.27827100  0.66666667  0.18544037  1.0
  Ni  Ni650  1  0.27827100  1.00000000  0.18544037  1.0
  Ni  Ni651  1  0.61160433  0.33333333  0.18544037  1.0
  Ni  Ni652  1  0.61160433  0.66666667  0.18544037  1.0
  Ni  Ni653  1  0.61160433  1.00000000  0.18544037  1.0
  Ni  Ni654  1  0.94493767  0.33333333  0.18544037  1.0
  Ni  Ni655  1  0.94493767  0.66666667  0.18544038  1.0
  Ni  Ni656  1  0.94493767  1.00000000  0.18544037  1.0
  Ni  Ni657  1  0.22320867  0.16518700  0.24304125  1.0
  Ni  Ni658  1  0.22320867  0.49852033  0.24304125  1.0
  Ni  Ni659  1  0.22320867  0.83185367  0.24304125  1.0
  Ni  Ni660  1  0.55654200  0.16518700  0.24304125  1.0
  Ni  Ni661  1  0.55654200  0.49852033  0.24304125  1.0
  Ni  Ni662  1  0.55654200  0.83185367  0.24304125  1.0
  Ni  Ni663  1  0.88987533  0.16518700  0.24304125  1.0
  Ni  Ni664  1  0.88987533  0.49852033  0.24304125  1.0
  Ni  Ni665  1  0.88987533  0.83185367  0.24304125  1.0
  Ni  Ni666  1  0.05506233  0.16814633  0.24193150  1.0
  Ni  Ni667  1  0.05506233  0.50147967  0.24193150  1.0
  Ni  Ni668  1  0.05506233  0.83481300  0.24193150  1.0
  Ni  Ni669  1  0.38839567  0.16814633  0.24193150  1.0
  Ni  Ni670  1  0.38839567  0.50147967  0.24193150  1.0
  Ni  Ni671  1  0.38839567  0.83481300  0.24193150  1.0
  Ni  Ni672  1  0.72172900  0.16814633  0.24193150  1.0
  Ni  Ni673  1  0.72172900  0.50147967  0.24193150  1.0
  Ni  Ni674  1  0.72172900  0.83481300  0.24193150  1.0
  Ni  Ni675  1  0.05506233  0.33333333  0.17998638  1.0
  Ni  Ni676  1  0.05506233  0.66666667  0.17998637  1.0
  Ni  Ni677  1  0.05506233  1.00000000  0.17998638  1.0
  Ni  Ni678  1  0.38839567  0.33333333  0.17998637  1.0
  Ni  Ni679  1  0.38839567  0.66666667  0.17998637  1.0
  Ni  Ni680  1  0.38839567  1.00000000  0.17998638  1.0
  Ni  Ni681  1  0.72172900  0.33333333  0.17998637  1.0
  Ni  Ni682  1  0.72172900  0.66666667  0.17998638  1.0
  Ni  Ni683  1  0.72172900  1.00000000  0.17998638  1.0
  Y  Y684  1  0.00000000  0.00000000  0.33896337  1.0
  Y  Y685  1  0.00000000  0.33333333  0.33896337  1.0
  Y  Y686  1  0.00000000  0.66666667  0.33896337  1.0
  Y  Y687  1  0.33333333  0.00000000  0.33896337  1.0
  Y  Y688  1  0.33333333  0.33333333  0.33896337  1.0
  Y  Y689  1  0.33333333  0.66666667  0.33896337  1.0
  Y  Y690  1  0.66666667  0.00000000  0.33896337  1.0
  Y  Y691  1  0.66666667  0.33333333  0.33896337  1.0
  Y  Y692  1  0.66666667  0.66666667  0.33896337  1.0
  Y  Y693  1  0.00000000  0.00000000  0.27646337  1.0
  Y  Y694  1  0.00000000  0.33333333  0.27646337  1.0
  Y  Y695  1  0.00000000  0.66666667  0.27646337  1.0
  Y  Y696  1  0.33333333  0.00000000  0.27646337  1.0
  Y  Y697  1  0.33333333  0.33333333  0.27646337  1.0
  Y  Y698  1  0.33333333  0.66666667  0.27646337  1.0
  Y  Y699  1  0.66666667  0.00000000  0.27646337  1.0
  Y  Y700  1  0.66666667  0.33333333  0.27646337  1.0
  Y  Y701  1  0.66666667  0.66666667  0.27646337  1.0
  Y  Y702  1  0.11111111  0.00000000  0.27646337  1.0
  Y  Y703  1  0.11111111  0.33333333  0.27646337  1.0
  Y  Y704  1  0.11111111  0.66666667  0.27646337  1.0
  Y  Y705  1  0.44444444  0.00000000  0.27646337  1.0
  Y  Y706  1  0.44444444  0.33333333  0.27646337  1.0
  Y  Y707  1  0.44444444  0.66666667  0.27646337  1.0
  Y  Y708  1  0.77777778  0.00000000  0.27646337  1.0
  Y  Y709  1  0.77777778  0.33333333  0.27646337  1.0
  Y  Y710  1  0.77777778  0.66666667  0.27646337  1.0
  Y  Y711  1  0.22222222  0.00000000  0.33896337  1.0
  Y  Y712  1  0.22222222  0.33333333  0.33896337  1.0
  Y  Y713  1  0.22222222  0.66666667  0.33896337  1.0
  Y  Y714  1  0.55555556  0.00000000  0.33896337  1.0
  Y  Y715  1  0.55555556  0.33333333  0.33896337  1.0
  Y  Y716  1  0.55555556  0.66666667  0.33896337  1.0
  Y  Y717  1  0.88888889  0.00000000  0.33896337  1.0
  Y  Y718  1  0.88888889  0.33333333  0.33896337  1.0
  Y  Y719  1  0.88888889  0.66666667  0.33896337  1.0
  Ni  Ni720  1  0.11111111  0.00000000  0.35735825  1.0
  Ni  Ni721  1  0.11111111  0.33333333  0.35735825  1.0
  Ni  Ni722  1  0.11111111  0.66666667  0.35735825  1.0
  Ni  Ni723  1  0.44444444  0.00000000  0.35735825  1.0
  Ni  Ni724  1  0.44444444  0.33333333  0.35735825  1.0
  Ni  Ni725  1  0.44444444  0.66666667  0.35735825  1.0
  Ni  Ni726  1  0.77777778  0.00000000  0.35735825  1.0
  Ni  Ni727  1  0.77777778  0.33333333  0.35735825  1.0
  Ni  Ni728  1  0.77777778  0.66666667  0.35735825  1.0
  Ni  Ni729  1  0.22222222  0.00000000  0.25806850  1.0
  Ni  Ni730  1  0.22222222  0.33333333  0.25806850  1.0
  Ni  Ni731  1  0.22222222  0.66666667  0.25806850  1.0
  Ni  Ni732  1  0.55555556  0.00000000  0.25806850  1.0
  Ni  Ni733  1  0.55555556  0.33333333  0.25806850  1.0
  Ni  Ni734  1  0.55555556  0.66666667  0.25806850  1.0
  Ni  Ni735  1  0.88888889  0.00000000  0.25806850  1.0
  Ni  Ni736  1  0.88888889  0.33333333  0.25806850  1.0
  Ni  Ni737  1  0.88888889  0.66666667  0.25806850  1.0
  Ni  Ni738  1  0.22222222  0.00000000  0.29485825  1.0
  Ni  Ni739  1  0.22222222  0.33333333  0.29485825  1.0
  Ni  Ni740  1  0.22222222  0.66666667  0.29485825  1.0
  Ni  Ni741  1  0.55555556  0.00000000  0.29485825  1.0
  Ni  Ni742  1  0.55555556  0.33333333  0.29485825  1.0
  Ni  Ni743  1  0.55555556  0.66666667  0.29485825  1.0
  Ni  Ni744  1  0.88888889  0.00000000  0.29485825  1.0
  Ni  Ni745  1  0.88888889  0.33333333  0.29485825  1.0
  Ni  Ni746  1  0.88888889  0.66666667  0.29485825  1.0
  Ni  Ni747  1  0.11111111  0.00000000  0.32056850  1.0
  Ni  Ni748  1  0.11111111  0.33333333  0.32056850  1.0
  Ni  Ni749  1  0.11111111  0.66666667  0.32056850  1.0
  Ni  Ni750  1  0.44444444  0.00000000  0.32056850  1.0
  Ni  Ni751  1  0.44444444  0.33333333  0.32056850  1.0
  Ni  Ni752  1  0.44444444  0.66666667  0.32056850  1.0
  Ni  Ni753  1  0.77777778  0.00000000  0.32056850  1.0
  Ni  Ni754  1  0.77777778  0.33333333  0.32056850  1.0
  Ni  Ni755  1  0.77777778  0.66666667  0.32056850  1.0
  Ni  Ni756  1  0.00000000  0.16666667  0.30771338  1.0
  Ni  Ni757  1  0.00000000  0.50000000  0.30771337  1.0
  Ni  Ni758  1  0.00000000  0.83333333  0.30771337  1.0
  Ni  Ni759  1  0.33333333  0.16666667  0.30771338  1.0
  Ni  Ni760  1  0.33333333  0.50000000  0.30771337  1.0
  Ni  Ni761  1  0.33333333  0.83333333  0.30771337  1.0
  Ni  Ni762  1  0.66666667  0.16666667  0.30771337  1.0
  Ni  Ni763  1  0.66666667  0.50000000  0.30771338  1.0
  Ni  Ni764  1  0.66666667  0.83333333  0.30771337  1.0
  Ni  Ni765  1  0.16666667  0.16666667  0.30771338  1.0
  Ni  Ni766  1  0.16666667  0.50000000  0.30771337  1.0
  Ni  Ni767  1  0.16666667  0.83333333  0.30771337  1.0
  Ni  Ni768  1  0.50000000  0.16666667  0.30771338  1.0
  Ni  Ni769  1  0.50000000  0.50000000  0.30771337  1.0
  Ni  Ni770  1  0.50000000  0.83333333  0.30771337  1.0
  Ni  Ni771  1  0.83333333  0.16666667  0.30771337  1.0
  Ni  Ni772  1  0.83333333  0.50000000  0.30771337  1.0
  Ni  Ni773  1  0.83333333  0.83333333  0.30771337  1.0
  Ni  Ni774  1  0.16666667  0.33333333  0.37021337  1.0
  Ni  Ni775  1  0.16666667  0.66666667  0.37021337  1.0
  Ni  Ni776  1  0.16666667  1.00000000  0.37021338  1.0
  Ni  Ni777  1  0.50000000  0.33333333  0.37021337  1.0
  Ni  Ni778  1  0.50000000  0.66666667  0.37021337  1.0
  Ni  Ni779  1  0.50000000  1.00000000  0.37021337  1.0
  Ni  Ni780  1  0.83333333  0.33333333  0.37021337  1.0
  Ni  Ni781  1  0.83333333  0.66666667  0.37021337  1.0
  Ni  Ni782  1  0.83333333  1.00000000  0.37021337  1.0
  Ni  Ni783  1  0.00000000  0.16666667  0.37021337  1.0
  Ni  Ni784  1  0.00000000  0.50000000  0.37021337  1.0
  Ni  Ni785  1  0.00000000  0.83333333  0.37021337  1.0
  Ni  Ni786  1  0.33333333  0.16666667  0.37021337  1.0
  Ni  Ni787  1  0.33333333  0.50000000  0.37021337  1.0
  Ni  Ni788  1  0.33333333  0.83333333  0.37021337  1.0
  Ni  Ni789  1  0.66666667  0.16666667  0.37021337  1.0
  Ni  Ni790  1  0.66666667  0.50000000  0.37021337  1.0
  Ni  Ni791  1  0.66666667  0.83333333  0.37021337  1.0
  Ni  Ni792  1  0.16666667  0.16666667  0.37021337  1.0
  Ni  Ni793  1  0.16666667  0.50000000  0.37021337  1.0
  Ni  Ni794  1  0.16666667  0.83333333  0.37021337  1.0
  Ni  Ni795  1  0.50000000  0.16666667  0.37021337  1.0
  Ni  Ni796  1  0.50000000  0.50000000  0.37021337  1.0
  Ni  Ni797  1  0.50000000  0.83333333  0.37021337  1.0
  Ni  Ni798  1  0.83333333  0.16666667  0.37021337  1.0
  Ni  Ni799  1  0.83333333  0.50000000  0.37021337  1.0
  Ni  Ni800  1  0.83333333  0.83333333  0.37021337  1.0
  Ni  Ni801  1  0.16666667  0.33333333  0.30771338  1.0
  Ni  Ni802  1  0.16666667  0.66666667  0.30771337  1.0
  Ni  Ni803  1  0.16666667  1.00000000  0.30771338  1.0
  Ni  Ni804  1  0.50000000  0.33333333  0.30771338  1.0
  Ni  Ni805  1  0.50000000  0.66666667  0.30771337  1.0
  Ni  Ni806  1  0.50000000  1.00000000  0.30771337  1.0
  Ni  Ni807  1  0.83333333  0.33333333  0.30771337  1.0
  Ni  Ni808  1  0.83333333  0.66666667  0.30771338  1.0
  Ni  Ni809  1  0.83333333  1.00000000  0.30771337  1.0
  Ni  Ni810  1  0.01465200  0.19479100  0.26591675  1.0
  Ni  Ni811  1  0.01465200  0.52812433  0.26591675  1.0
  Ni  Ni812  1  0.01465200  0.86145767  0.26591675  1.0
  Ni  Ni813  1  0.34798533  0.19479100  0.26591675  1.0
  Ni  Ni814  1  0.34798533  0.52812433  0.26591675  1.0
  Ni  Ni815  1  0.34798533  0.86145767  0.26591675  1.0
  Ni  Ni816  1  0.68131867  0.19479100  0.26591675  1.0
  Ni  Ni817  1  0.68131867  0.52812433  0.26591675  1.0
  Ni  Ni818  1  0.68131867  0.86145767  0.26591675  1.0
  Ni  Ni819  1  0.10923833  0.23874700  0.37443325  1.0
  Ni  Ni820  1  0.10923833  0.57208033  0.37443325  1.0
  Ni  Ni821  1  0.10923833  0.90541367  0.37443325  1.0
  Ni  Ni822  1  0.44257167  0.23874700  0.37443325  1.0
  Ni  Ni823  1  0.44257167  0.57208033  0.37443325  1.0
  Ni  Ni824  1  0.44257167  0.90541367  0.37443325  1.0
  Ni  Ni825  1  0.77590500  0.23874700  0.37443325  1.0
  Ni  Ni826  1  0.77590500  0.57208033  0.37443325  1.0
  Ni  Ni827  1  0.77590500  0.90541367  0.37443325  1.0
  Ni  Ni828  1  0.20944300  0.23312867  0.25154013  1.0
  Ni  Ni829  1  0.20944300  0.56646200  0.25154013  1.0
  Ni  Ni830  1  0.20944300  0.89979533  0.25154013  1.0
  Ni  Ni831  1  0.54277633  0.23312867  0.25154012  1.0
  Ni  Ni832  1  0.54277633  0.56646200  0.25154013  1.0
  Ni  Ni833  1  0.54277633  0.89979533  0.25154013  1.0
  Ni  Ni834  1  0.87610967  0.23312867  0.25154012  1.0
  Ni  Ni835  1  0.87610967  0.56646200  0.25154013  1.0
  Ni  Ni836  1  0.87610967  0.89979533  0.25154013  1.0
  Ni  Ni837  1  0.01465200  0.09458633  0.30349350  1.0
  Ni  Ni838  1  0.01465200  0.42791967  0.30349350  1.0
  Ni  Ni839  1  0.01465200  0.76125300  0.30349350  1.0
  Ni  Ni840  1  0.34798533  0.09458633  0.30349350  1.0
  Ni  Ni841  1  0.34798533  0.42791967  0.30349350  1.0
  Ni  Ni842  1  0.34798533  0.76125300  0.30349350  1.0
  Ni  Ni843  1  0.68131867  0.09458633  0.30349350  1.0
  Ni  Ni844  1  0.68131867  0.42791967  0.30349350  1.0
  Ni  Ni845  1  0.68131867  0.76125300  0.30349350  1.0
  Ni  Ni846  1  0.10923833  0.10020467  0.30138663  1.0
  Ni  Ni847  1  0.10923833  0.43353800  0.30138663  1.0
  Ni  Ni848  1  0.10923833  0.76687133  0.30138663  1.0
  Ni  Ni849  1  0.44257167  0.10020467  0.30138663  1.0
  Ni  Ni850  1  0.44257167  0.43353800  0.30138663  1.0
  Ni  Ni851  1  0.44257167  0.76687133  0.30138663  1.0
  Ni  Ni852  1  0.77590500  0.10020467  0.30138662  1.0
  Ni  Ni853  1  0.77590500  0.43353800  0.30138663  1.0
  Ni  Ni854  1  0.77590500  0.76687133  0.30138663  1.0
  Ni  Ni855  1  0.20944300  0.13854233  0.28701000  1.0
  Ni  Ni856  1  0.20944300  0.47187567  0.28701000  1.0
  Ni  Ni857  1  0.20944300  0.80520900  0.28701000  1.0
  Ni  Ni858  1  0.54277633  0.13854233  0.28701000  1.0
  Ni  Ni859  1  0.54277633  0.47187567  0.28701000  1.0
  Ni  Ni860  1  0.54277633  0.80520900  0.28701000  1.0
  Ni  Ni861  1  0.87610967  0.13854233  0.28701000  1.0
  Ni  Ni862  1  0.87610967  0.47187567  0.28701000  1.0
  Ni  Ni863  1  0.87610967  0.80520900  0.28701000  1.0
  Ni  Ni864  1  0.31868133  0.13854233  0.34951000  1.0
  Ni  Ni865  1  0.31868133  0.47187567  0.34951000  1.0
  Ni  Ni866  1  0.31868133  0.80520900  0.34951000  1.0
  Ni  Ni867  1  0.65201467  0.13854233  0.34951000  1.0
  Ni  Ni868  1  0.65201467  0.47187567  0.34951000  1.0
  Ni  Ni869  1  0.65201467  0.80520900  0.34951000  1.0
  Ni  Ni870  1  0.98534800  0.13854233  0.34951000  1.0
  Ni  Ni871  1  0.98534800  0.47187567  0.34951000  1.0
  Ni  Ni872  1  0.98534800  0.80520900  0.34951000  1.0
  Ni  Ni873  1  0.22409500  0.09458633  0.36599350  1.0
  Ni  Ni874  1  0.22409500  0.42791967  0.36599350  1.0
  Ni  Ni875  1  0.22409500  0.76125300  0.36599350  1.0
  Ni  Ni876  1  0.55742833  0.09458633  0.36599350  1.0
  Ni  Ni877  1  0.55742833  0.42791967  0.36599350  1.0
  Ni  Ni878  1  0.55742833  0.76125300  0.36599350  1.0
  Ni  Ni879  1  0.89076167  0.09458633  0.36599350  1.0
  Ni  Ni880  1  0.89076167  0.42791967  0.36599350  1.0
  Ni  Ni881  1  0.89076167  0.76125300  0.36599350  1.0
  Ni  Ni882  1  0.12389033  0.10020467  0.36388663  1.0
  Ni  Ni883  1  0.12389033  0.43353800  0.36388662  1.0
  Ni  Ni884  1  0.12389033  0.76687133  0.36388662  1.0
  Ni  Ni885  1  0.45722367  0.10020467  0.36388663  1.0
  Ni  Ni886  1  0.45722367  0.43353800  0.36388662  1.0
  Ni  Ni887  1  0.45722367  0.76687133  0.36388662  1.0
  Ni  Ni888  1  0.79055700  0.10020467  0.36388663  1.0
  Ni  Ni889  1  0.79055700  0.43353800  0.36388663  1.0
  Ni  Ni890  1  0.79055700  0.76687133  0.36388662  1.0
  Ni  Ni891  1  0.31868133  0.23874700  0.31193325  1.0
  Ni  Ni892  1  0.31868133  0.57208033  0.31193325  1.0
  Ni  Ni893  1  0.31868133  0.90541367  0.31193325  1.0
  Ni  Ni894  1  0.65201467  0.23874700  0.31193325  1.0
  Ni  Ni895  1  0.65201467  0.57208033  0.31193325  1.0
  Ni  Ni896  1  0.65201467  0.90541367  0.31193325  1.0
  Ni  Ni897  1  0.98534800  0.23874700  0.31193325  1.0
  Ni  Ni898  1  0.98534800  0.57208033  0.31193325  1.0
  Ni  Ni899  1  0.98534800  0.90541367  0.31193325  1.0
  Ni  Ni900  1  0.22409500  0.23312867  0.31404013  1.0
  Ni  Ni901  1  0.22409500  0.56646200  0.31404013  1.0
  Ni  Ni902  1  0.22409500  0.89979533  0.31404013  1.0
  Ni  Ni903  1  0.55742833  0.23312867  0.31404012  1.0
  Ni  Ni904  1  0.55742833  0.56646200  0.31404013  1.0
  Ni  Ni905  1  0.55742833  0.89979533  0.31404013  1.0
  Ni  Ni906  1  0.89076167  0.23312867  0.31404012  1.0
  Ni  Ni907  1  0.89076167  0.56646200  0.31404012  1.0
  Ni  Ni908  1  0.89076167  0.89979533  0.31404013  1.0
  Ni  Ni909  1  0.12389033  0.19479100  0.32841675  1.0
  Ni  Ni910  1  0.12389033  0.52812433  0.32841675  1.0
  Ni  Ni911  1  0.12389033  0.86145767  0.32841675  1.0
  Ni  Ni912  1  0.45722367  0.19479100  0.32841675  1.0
  Ni  Ni913  1  0.45722367  0.52812433  0.32841675  1.0
  Ni  Ni914  1  0.45722367  0.86145767  0.32841675  1.0
  Ni  Ni915  1  0.79055700  0.19479100  0.32841675  1.0
  Ni  Ni916  1  0.79055700  0.52812433  0.32841675  1.0
  Ni  Ni917  1  0.79055700  0.86145767  0.32841675  1.0
  Ni  Ni918  1  0.22320867  0.16518700  0.31099525  1.0
  Ni  Ni919  1  0.22320867  0.49852033  0.31099525  1.0
  Ni  Ni920  1  0.22320867  0.83185367  0.31099525  1.0
  Ni  Ni921  1  0.55654200  0.16518700  0.31099525  1.0
  Ni  Ni922  1  0.55654200  0.49852033  0.31099525  1.0
  Ni  Ni923  1  0.55654200  0.83185367  0.31099525  1.0
  Ni  Ni924  1  0.88987533  0.16518700  0.31099525  1.0
  Ni  Ni925  1  0.88987533  0.49852033  0.31099525  1.0
  Ni  Ni926  1  0.88987533  0.83185367  0.31099525  1.0
  Ni  Ni927  1  0.05506233  0.16814633  0.30988550  1.0
  Ni  Ni928  1  0.05506233  0.50147967  0.30988550  1.0
  Ni  Ni929  1  0.05506233  0.83481300  0.30988550  1.0
  Ni  Ni930  1  0.38839567  0.16814633  0.30988550  1.0
  Ni  Ni931  1  0.38839567  0.50147967  0.30988550  1.0
  Ni  Ni932  1  0.38839567  0.83481300  0.30988550  1.0
  Ni  Ni933  1  0.72172900  0.16814633  0.30988550  1.0
  Ni  Ni934  1  0.72172900  0.50147967  0.30988550  1.0
  Ni  Ni935  1  0.72172900  0.83481300  0.30988550  1.0
  Ni  Ni936  1  0.05506233  0.33333333  0.37294038  1.0
  Ni  Ni937  1  0.05506233  0.66666667  0.37294037  1.0
  Ni  Ni938  1  0.05506233  1.00000000  0.37294038  1.0
  Ni  Ni939  1  0.38839567  0.33333333  0.37294038  1.0
  Ni  Ni940  1  0.38839567  0.66666667  0.37294037  1.0
  Ni  Ni941  1  0.38839567  1.00000000  0.37294038  1.0
  Ni  Ni942  1  0.72172900  0.33333333  0.37294038  1.0
  Ni  Ni943  1  0.72172900  0.66666667  0.37294037  1.0
  Ni  Ni944  1  0.72172900  1.00000000  0.37294038  1.0
  Ni  Ni945  1  0.11012467  0.16814633  0.30443150  1.0
  Ni  Ni946  1  0.11012467  0.50147967  0.30443150  1.0
  Ni  Ni947  1  0.11012467  0.83481300  0.30443150  1.0
  Ni  Ni948  1  0.44345800  0.16814633  0.30443150  1.0
  Ni  Ni949  1  0.44345800  0.50147967  0.30443150  1.0
  Ni  Ni950  1  0.44345800  0.83481300  0.30443150  1.0
  Ni  Ni951  1  0.77679133  0.16814633  0.30443150  1.0
  Ni  Ni952  1  0.77679133  0.50147967  0.30443150  1.0
  Ni  Ni953  1  0.77679133  0.83481300  0.30443150  1.0
  Ni  Ni954  1  0.27827100  0.16518700  0.30554125  1.0
  Ni  Ni955  1  0.27827100  0.49852033  0.30554125  1.0
  Ni  Ni956  1  0.27827100  0.83185367  0.30554125  1.0
  Ni  Ni957  1  0.61160433  0.16518700  0.30554125  1.0
  Ni  Ni958  1  0.61160433  0.49852033  0.30554125  1.0
  Ni  Ni959  1  0.61160433  0.83185367  0.30554125  1.0
  Ni  Ni960  1  0.94493767  0.16518700  0.30554125  1.0
  Ni  Ni961  1  0.94493767  0.49852033  0.30554125  1.0
  Ni  Ni962  1  0.94493767  0.83185367  0.30554125  1.0
  Ni  Ni963  1  0.27827100  0.33333333  0.36748638  1.0
  Ni  Ni964  1  0.27827100  0.66666667  0.36748638  1.0
  Ni  Ni965  1  0.27827100  1.00000000  0.36748637  1.0
  Ni  Ni966  1  0.61160433  0.33333333  0.36748638  1.0
  Ni  Ni967  1  0.61160433  0.66666667  0.36748638  1.0
  Ni  Ni968  1  0.61160433  1.00000000  0.36748637  1.0
  Ni  Ni969  1  0.94493767  0.33333333  0.36748638  1.0
  Ni  Ni970  1  0.94493767  0.66666667  0.36748638  1.0
  Ni  Ni971  1  0.94493767  1.00000000  0.36748637  1.0
  Ni  Ni972  1  0.11012467  0.16814633  0.37238550  1.0
  Ni  Ni973  1  0.11012467  0.50147967  0.37238550  1.0
  Ni  Ni974  1  0.11012467  0.83481300  0.37238550  1.0
  Ni  Ni975  1  0.44345800  0.16814633  0.37238550  1.0
  Ni  Ni976  1  0.44345800  0.50147967  0.37238550  1.0
  Ni  Ni977  1  0.44345800  0.83481300  0.37238550  1.0
  Ni  Ni978  1  0.77679133  0.16814633  0.37238550  1.0
  Ni  Ni979  1  0.77679133  0.50147967  0.37238550  1.0
  Ni  Ni980  1  0.77679133  0.83481300  0.37238550  1.0
  Ni  Ni981  1  0.27827100  0.16518700  0.37349525  1.0
  Ni  Ni982  1  0.27827100  0.49852033  0.37349525  1.0
  Ni  Ni983  1  0.27827100  0.83185367  0.37349525  1.0
  Ni  Ni984  1  0.61160433  0.16518700  0.37349525  1.0
  Ni  Ni985  1  0.61160433  0.49852033  0.37349525  1.0
  Ni  Ni986  1  0.61160433  0.83185367  0.37349525  1.0
  Ni  Ni987  1  0.94493767  0.16518700  0.37349525  1.0
  Ni  Ni988  1  0.94493767  0.49852033  0.37349525  1.0
  Ni  Ni989  1  0.94493767  0.83185367  0.37349525  1.0
  Ni  Ni990  1  0.27827100  0.33333333  0.31044037  1.0
  Ni  Ni991  1  0.27827100  0.66666667  0.31044037  1.0
  Ni  Ni992  1  0.27827100  1.00000000  0.31044037  1.0
  Ni  Ni993  1  0.61160433  0.33333333  0.31044037  1.0
  Ni  Ni994  1  0.61160433  0.66666667  0.31044037  1.0
  Ni  Ni995  1  0.61160433  1.00000000  0.31044037  1.0
  Ni  Ni996  1  0.94493767  0.33333333  0.31044037  1.0
  Ni  Ni997  1  0.94493767  0.66666667  0.31044037  1.0
  Ni  Ni998  1  0.94493767  1.00000000  0.31044037  1.0
  Ni  Ni999  1  0.22320867  0.16518700  0.36804125  1.0
  Ni  Ni1000  1  0.22320867  0.49852033  0.36804125  1.0
  Ni  Ni1001  1  0.22320867  0.83185367  0.36804125  1.0
  Ni  Ni1002  1  0.55654200  0.16518700  0.36804125  1.0
  Ni  Ni1003  1  0.55654200  0.49852033  0.36804125  1.0
  Ni  Ni1004  1  0.55654200  0.83185367  0.36804125  1.0
  Ni  Ni1005  1  0.88987533  0.16518700  0.36804125  1.0
  Ni  Ni1006  1  0.88987533  0.49852033  0.36804125  1.0
  Ni  Ni1007  1  0.88987533  0.83185367  0.36804125  1.0
  Ni  Ni1008  1  0.05506233  0.16814633  0.36693150  1.0
  Ni  Ni1009  1  0.05506233  0.50147967  0.36693150  1.0
  Ni  Ni1010  1  0.05506233  0.83481300  0.36693150  1.0
  Ni  Ni1011  1  0.38839567  0.16814633  0.36693150  1.0
  Ni  Ni1012  1  0.38839567  0.50147967  0.36693150  1.0
  Ni  Ni1013  1  0.38839567  0.83481300  0.36693150  1.0
  Ni  Ni1014  1  0.72172900  0.16814633  0.36693150  1.0
  Ni  Ni1015  1  0.72172900  0.50147967  0.36693150  1.0
  Ni  Ni1016  1  0.72172900  0.83481300  0.36693150  1.0
  Ni  Ni1017  1  0.05506233  0.33333333  0.30498638  1.0
  Ni  Ni1018  1  0.05506233  0.66666667  0.30498637  1.0
  Ni  Ni1019  1  0.05506233  1.00000000  0.30498638  1.0
  Ni  Ni1020  1  0.38839567  0.33333333  0.30498637  1.0
  Ni  Ni1021  1  0.38839567  0.66666667  0.30498637  1.0
  Ni  Ni1022  1  0.38839567  1.00000000  0.30498637  1.0
  Ni  Ni1023  1  0.72172900  0.33333333  0.30498637  1.0
  Ni  Ni1024  1  0.72172900  0.66666667  0.30498638  1.0
  Ni  Ni1025  1  0.72172900  1.00000000  0.30498637  1.0
