# generated using pymatgen
data_Y2Ni7
_symmetry_space_group_name_H-M   'P 1'
_cell_length_a   37.10595975
_cell_length_b   109.32877784
_cell_length_c   111.31787925
_cell_angle_alpha   15.39898043
_cell_angle_beta   23.02863991
_cell_angle_gamma   20.43755478
_symmetry_Int_Tables_number   1
_chemical_formula_structural   Y2Ni7
_chemical_formula_sum   'Y288 Ni1008'
_cell_volume   41171.40504850
_cell_formula_units_Z   144
loop_
 _symmetry_equiv_pos_site_id
 _symmetry_equiv_pos_as_xyz
  1  'x, y, z'
loop_
 _atom_site_type_symbol
 _atom_site_label
 _atom_site_symmetry_multiplicity
 _atom_site_fract_x
 _atom_site_fract_y
 _atom_site_fract_z
 _atom_site_occupancy
  Y  Y0  1  0.01681200  0.00840600  0.10927358  1.0
  Y  Y1  1  0.01681200  0.34173933  0.10927358  1.0
  Y  Y2  1  0.01681200  0.67507267  0.10927358  1.0
  Y  Y3  1  0.35014533  0.00840600  0.10927358  1.0
  Y  Y4  1  0.35014533  0.34173933  0.10927358  1.0
  Y  Y5  1  0.35014533  0.67507267  0.10927358  1.0
  Y  Y6  1  0.68347867  0.00840600  0.10927358  1.0
  Y  Y7  1  0.68347867  0.34173933  0.10927358  1.0
  Y  Y8  1  0.68347867  0.67507267  0.10927358  1.0
  Y  Y9  1  0.01681200  0.17507267  0.05371803  1.0
  Y  Y10  1  0.01681200  0.50840600  0.05371803  1.0
  Y  Y11  1  0.01681200  0.84173933  0.05371803  1.0
  Y  Y12  1  0.35014533  0.17507267  0.05371803  1.0
  Y  Y13  1  0.35014533  0.50840600  0.05371803  1.0
  Y  Y14  1  0.35014533  0.84173933  0.05371803  1.0
  Y  Y15  1  0.68347867  0.17507267  0.05371803  1.0
  Y  Y16  1  0.68347867  0.50840600  0.05371803  1.0
  Y  Y17  1  0.68347867  0.84173933  0.05371803  1.0
  Y  Y18  1  0.28427933  0.14213967  0.04274036  1.0
  Y  Y19  1  0.28427933  0.47547300  0.04274036  1.0
  Y  Y20  1  0.28427933  0.80880633  0.04274036  1.0
  Y  Y21  1  0.61761267  0.14213967  0.04274036  1.0
  Y  Y22  1  0.61761267  0.47547300  0.04274036  1.0
  Y  Y23  1  0.61761267  0.80880633  0.04274036  1.0
  Y  Y24  1  0.95094600  0.14213967  0.04274036  1.0
  Y  Y25  1  0.95094600  0.47547300  0.04274036  1.0
  Y  Y26  1  0.95094600  0.80880633  0.04274036  1.0
  Y  Y27  1  0.28427933  0.30880633  0.09829592  1.0
  Y  Y28  1  0.28427933  0.64213967  0.09829592  1.0
  Y  Y29  1  0.28427933  0.97547300  0.09829592  1.0
  Y  Y30  1  0.61761267  0.30880633  0.09829592  1.0
  Y  Y31  1  0.61761267  0.64213967  0.09829592  1.0
  Y  Y32  1  0.61761267  0.97547300  0.09829592  1.0
  Y  Y33  1  0.95094600  0.30880633  0.09829592  1.0
  Y  Y34  1  0.95094600  0.64213967  0.09829592  1.0
  Y  Y35  1  0.95094600  0.97547300  0.09829592  1.0
  Y  Y36  1  0.31652133  0.15826067  0.04811403  1.0
  Y  Y37  1  0.31652133  0.49159400  0.04811403  1.0
  Y  Y38  1  0.31652133  0.82492733  0.04811403  1.0
  Y  Y39  1  0.64985467  0.15826067  0.04811403  1.0
  Y  Y40  1  0.64985467  0.49159400  0.04811403  1.0
  Y  Y41  1  0.64985467  0.82492733  0.04811403  1.0
  Y  Y42  1  0.98318800  0.15826067  0.04811403  1.0
  Y  Y43  1  0.98318800  0.49159400  0.04811403  1.0
  Y  Y44  1  0.98318800  0.82492733  0.04811403  1.0
  Y  Y45  1  0.31652133  0.32492733  0.10366958  1.0
  Y  Y46  1  0.31652133  0.65826067  0.10366958  1.0
  Y  Y47  1  0.31652133  0.99159400  0.10366958  1.0
  Y  Y48  1  0.64985467  0.32492733  0.10366958  1.0
  Y  Y49  1  0.64985467  0.65826067  0.10366958  1.0
  Y  Y50  1  0.64985467  0.99159400  0.10366958  1.0
  Y  Y51  1  0.98318800  0.32492733  0.10366958  1.0
  Y  Y52  1  0.98318800  0.65826067  0.10366958  1.0
  Y  Y53  1  0.98318800  0.99159400  0.10366958  1.0
  Y  Y54  1  0.04905400  0.02452700  0.00353614  1.0
  Y  Y55  1  0.04905400  0.35786033  0.00353614  1.0
  Y  Y56  1  0.04905400  0.69119367  0.00353614  1.0
  Y  Y57  1  0.38238733  0.02452700  0.00353614  1.0
  Y  Y58  1  0.38238733  0.35786033  0.00353614  1.0
  Y  Y59  1  0.38238733  0.69119367  0.00353614  1.0
  Y  Y60  1  0.71572067  0.02452700  0.00353614  1.0
  Y  Y61  1  0.71572067  0.35786033  0.00353614  1.0
  Y  Y62  1  0.71572067  0.69119367  0.00353614  1.0
  Y  Y63  1  0.04905400  0.19119367  0.05909169  1.0
  Y  Y64  1  0.04905400  0.52452700  0.05909169  1.0
  Y  Y65  1  0.04905400  0.85786033  0.05909169  1.0
  Y  Y66  1  0.38238733  0.19119367  0.05909169  1.0
  Y  Y67  1  0.38238733  0.52452700  0.05909169  1.0
  Y  Y68  1  0.38238733  0.85786033  0.05909169  1.0
  Y  Y69  1  0.71572067  0.19119367  0.05909169  1.0
  Y  Y70  1  0.71572067  0.52452700  0.05909169  1.0
  Y  Y71  1  0.71572067  0.85786033  0.05909169  1.0
  Ni  Ni72  1  0.09272700  0.04636350  0.01081497  1.0
  Ni  Ni73  1  0.09272700  0.37969683  0.01081497  1.0
  Ni  Ni74  1  0.09272700  0.71303017  0.01081497  1.0
  Ni  Ni75  1  0.42606033  0.04636350  0.01081497  1.0
  Ni  Ni76  1  0.42606033  0.37969683  0.01081497  1.0
  Ni  Ni77  1  0.42606033  0.71303017  0.01081497  1.0
  Ni  Ni78  1  0.75939367  0.04636350  0.01081497  1.0
  Ni  Ni79  1  0.75939367  0.37969683  0.01081497  1.0
  Ni  Ni80  1  0.75939367  0.71303017  0.01081497  1.0
  Ni  Ni81  1  0.09272700  0.21303017  0.06637053  1.0
  Ni  Ni82  1  0.09272700  0.54636350  0.06637053  1.0
  Ni  Ni83  1  0.09272700  0.87969683  0.06637053  1.0
  Ni  Ni84  1  0.42606033  0.21303017  0.06637053  1.0
  Ni  Ni85  1  0.42606033  0.54636350  0.06637053  1.0
  Ni  Ni86  1  0.42606033  0.87969683  0.06637053  1.0
  Ni  Ni87  1  0.75939367  0.21303017  0.06637053  1.0
  Ni  Ni88  1  0.75939367  0.54636350  0.06637053  1.0
  Ni  Ni89  1  0.75939367  0.87969683  0.06637053  1.0
  Ni  Ni90  1  0.20391167  0.10195583  0.02934575  1.0
  Ni  Ni91  1  0.20391167  0.43528917  0.02934575  1.0
  Ni  Ni92  1  0.20391167  0.76862250  0.02934575  1.0
  Ni  Ni93  1  0.53724500  0.10195583  0.02934575  1.0
  Ni  Ni94  1  0.53724500  0.43528917  0.02934575  1.0
  Ni  Ni95  1  0.53724500  0.76862250  0.02934575  1.0
  Ni  Ni96  1  0.87057833  0.10195583  0.02934575  1.0
  Ni  Ni97  1  0.87057833  0.43528917  0.02934575  1.0
  Ni  Ni98  1  0.87057833  0.76862250  0.02934575  1.0
  Ni  Ni99  1  0.20391167  0.26862250  0.08490131  1.0
  Ni  Ni100  1  0.20391167  0.60195583  0.08490131  1.0
  Ni  Ni101  1  0.20391167  0.93528917  0.08490131  1.0
  Ni  Ni102  1  0.53724500  0.26862250  0.08490131  1.0
  Ni  Ni103  1  0.53724500  0.60195583  0.08490131  1.0
  Ni  Ni104  1  0.53724500  0.93528917  0.08490131  1.0
  Ni  Ni105  1  0.87057833  0.26862250  0.08490131  1.0
  Ni  Ni106  1  0.87057833  0.60195583  0.08490131  1.0
  Ni  Ni107  1  0.87057833  0.93528917  0.08490131  1.0
  Ni  Ni108  1  0.20333733  0.10166867  0.08467825  1.0
  Ni  Ni109  1  0.20333733  0.43500200  0.08467825  1.0
  Ni  Ni110  1  0.20333733  0.76833533  0.08467825  1.0
  Ni  Ni111  1  0.53667067  0.10166867  0.08467825  1.0
  Ni  Ni112  1  0.53667067  0.43500200  0.08467825  1.0
  Ni  Ni113  1  0.53667067  0.76833533  0.08467825  1.0
  Ni  Ni114  1  0.87000400  0.10166867  0.08467825  1.0
  Ni  Ni115  1  0.87000400  0.43500200  0.08467825  1.0
  Ni  Ni116  1  0.87000400  0.76833533  0.08467825  1.0
  Ni  Ni117  1  0.20333733  0.26833533  0.02912269  1.0
  Ni  Ni118  1  0.20333733  0.60166867  0.02912269  1.0
  Ni  Ni119  1  0.20333733  0.93500200  0.02912269  1.0
  Ni  Ni120  1  0.53667067  0.26833533  0.02912269  1.0
  Ni  Ni121  1  0.53667067  0.60166867  0.02912269  1.0
  Ni  Ni122  1  0.53667067  0.93500200  0.02912269  1.0
  Ni  Ni123  1  0.87000400  0.26833533  0.02912269  1.0
  Ni  Ni124  1  0.87000400  0.60166867  0.02912269  1.0
  Ni  Ni125  1  0.87000400  0.93500200  0.02912269  1.0
  Ni  Ni126  1  0.12942167  0.06471083  0.01693075  1.0
  Ni  Ni127  1  0.12942167  0.39804417  0.01693075  1.0
  Ni  Ni128  1  0.12942167  0.73137750  0.01693075  1.0
  Ni  Ni129  1  0.46275500  0.06471083  0.01693075  1.0
  Ni  Ni130  1  0.46275500  0.39804417  0.01693075  1.0
  Ni  Ni131  1  0.46275500  0.73137750  0.01693075  1.0
  Ni  Ni132  1  0.79608833  0.06471083  0.01693075  1.0
  Ni  Ni133  1  0.79608833  0.39804417  0.01693075  1.0
  Ni  Ni134  1  0.79608833  0.73137750  0.01693075  1.0
  Ni  Ni135  1  0.12942167  0.23137750  0.07248631  1.0
  Ni  Ni136  1  0.12942167  0.56471083  0.07248631  1.0
  Ni  Ni137  1  0.12942167  0.89804417  0.07248631  1.0
  Ni  Ni138  1  0.46275500  0.23137750  0.07248631  1.0
  Ni  Ni139  1  0.46275500  0.56471083  0.07248631  1.0
  Ni  Ni140  1  0.46275500  0.89804417  0.07248631  1.0
  Ni  Ni141  1  0.79608833  0.23137750  0.07248631  1.0
  Ni  Ni142  1  0.79608833  0.56471083  0.07248631  1.0
  Ni  Ni143  1  0.79608833  0.89804417  0.07248631  1.0
  Ni  Ni144  1  0.16666667  0.33333333  0.05091603  1.0
  Ni  Ni145  1  0.16666667  0.66666667  0.05091603  1.0
  Ni  Ni146  1  0.16666667  0.00000000  0.05091603  1.0
  Ni  Ni147  1  0.50000000  0.33333333  0.05091603  1.0
  Ni  Ni148  1  0.50000000  0.66666667  0.05091603  1.0
  Ni  Ni149  1  0.50000000  0.00000000  0.05091603  1.0
  Ni  Ni150  1  0.83333333  0.33333333  0.05091603  1.0
  Ni  Ni151  1  0.83333333  0.66666667  0.05091603  1.0
  Ni  Ni152  1  0.83333333  0.00000000  0.05091603  1.0
  Ni  Ni153  1  0.16666667  0.16666667  0.10647158  1.0
  Ni  Ni154  1  0.16666667  0.50000000  0.10647158  1.0
  Ni  Ni155  1  0.16666667  0.83333333  0.10647158  1.0
  Ni  Ni156  1  0.50000000  0.16666667  0.10647158  1.0
  Ni  Ni157  1  0.50000000  0.50000000  0.10647158  1.0
  Ni  Ni158  1  0.50000000  0.83333333  0.10647158  1.0
  Ni  Ni159  1  0.83333333  0.16666667  0.10647158  1.0
  Ni  Ni160  1  0.83333333  0.50000000  0.10647158  1.0
  Ni  Ni161  1  0.83333333  0.83333333  0.10647158  1.0
  Ni  Ni162  1  0.29704467  0.06499800  0.01702647  1.0
  Ni  Ni163  1  0.29704467  0.39833133  0.01702647  1.0
  Ni  Ni164  1  0.29704467  0.73166467  0.01702647  1.0
  Ni  Ni165  1  0.63037800  0.06499800  0.01702647  1.0
  Ni  Ni166  1  0.63037800  0.39833133  0.01702647  1.0
  Ni  Ni167  1  0.63037800  0.73166467  0.01702647  1.0
  Ni  Ni168  1  0.96371133  0.06499800  0.01702647  1.0
  Ni  Ni169  1  0.96371133  0.39833133  0.01702647  1.0
  Ni  Ni170  1  0.96371133  0.73166467  0.01702647  1.0
  Ni  Ni171  1  0.29704467  0.23166467  0.07258203  1.0
  Ni  Ni172  1  0.29704467  0.56499800  0.07258203  1.0
  Ni  Ni173  1  0.29704467  0.89833133  0.07258203  1.0
  Ni  Ni174  1  0.63037800  0.23166467  0.07258203  1.0
  Ni  Ni175  1  0.63037800  0.56499800  0.07258203  1.0
  Ni  Ni176  1  0.63037800  0.89833133  0.07258203  1.0
  Ni  Ni177  1  0.96371133  0.23166467  0.07258203  1.0
  Ni  Ni178  1  0.96371133  0.56499800  0.07258203  1.0
  Ni  Ni179  1  0.96371133  0.89833133  0.07258203  1.0
  Ni  Ni180  1  0.16666667  0.08333333  0.02313825  1.0
  Ni  Ni181  1  0.16666667  0.41666667  0.02313825  1.0
  Ni  Ni182  1  0.16666667  0.75000000  0.02313825  1.0
  Ni  Ni183  1  0.50000000  0.08333333  0.02313825  1.0
  Ni  Ni184  1  0.50000000  0.41666667  0.02313825  1.0
  Ni  Ni185  1  0.50000000  0.75000000  0.02313825  1.0
  Ni  Ni186  1  0.83333333  0.08333333  0.02313825  1.0
  Ni  Ni187  1  0.83333333  0.41666667  0.02313825  1.0
  Ni  Ni188  1  0.83333333  0.75000000  0.02313825  1.0
  Ni  Ni189  1  0.16666667  0.25000000  0.07869381  1.0
  Ni  Ni190  1  0.16666667  0.58333333  0.07869381  1.0
  Ni  Ni191  1  0.16666667  0.91666667  0.07869381  1.0
  Ni  Ni192  1  0.50000000  0.25000000  0.07869381  1.0
  Ni  Ni193  1  0.50000000  0.58333333  0.07869381  1.0
  Ni  Ni194  1  0.50000000  0.91666667  0.07869381  1.0
  Ni  Ni195  1  0.83333333  0.25000000  0.07869381  1.0
  Ni  Ni196  1  0.83333333  0.58333333  0.07869381  1.0
  Ni  Ni197  1  0.83333333  0.91666667  0.07869381  1.0
  Ni  Ni198  1  0.03628867  0.10166867  0.02925003  1.0
  Ni  Ni199  1  0.03628867  0.43500200  0.02925003  1.0
  Ni  Ni200  1  0.03628867  0.76833533  0.02925003  1.0
  Ni  Ni201  1  0.36962200  0.10166867  0.02925003  1.0
  Ni  Ni202  1  0.36962200  0.43500200  0.02925003  1.0
  Ni  Ni203  1  0.36962200  0.76833533  0.02925003  1.0
  Ni  Ni204  1  0.70295533  0.10166867  0.02925003  1.0
  Ni  Ni205  1  0.70295533  0.43500200  0.02925003  1.0
  Ni  Ni206  1  0.70295533  0.76833533  0.02925003  1.0
  Ni  Ni207  1  0.03628867  0.26833533  0.08480558  1.0
  Ni  Ni208  1  0.03628867  0.60166867  0.08480558  1.0
  Ni  Ni209  1  0.03628867  0.93500200  0.08480558  1.0
  Ni  Ni210  1  0.36962200  0.26833533  0.08480558  1.0
  Ni  Ni211  1  0.36962200  0.60166867  0.08480558  1.0
  Ni  Ni212  1  0.36962200  0.93500200  0.08480558  1.0
  Ni  Ni213  1  0.70295533  0.26833533  0.08480558  1.0
  Ni  Ni214  1  0.70295533  0.60166867  0.08480558  1.0
  Ni  Ni215  1  0.70295533  0.93500200  0.08480558  1.0
  Ni  Ni216  1  0.24060633  0.12030317  0.03546153  1.0
  Ni  Ni217  1  0.24060633  0.45363650  0.03546153  1.0
  Ni  Ni218  1  0.24060633  0.78696983  0.03546153  1.0
  Ni  Ni219  1  0.57393967  0.12030317  0.03546153  1.0
  Ni  Ni220  1  0.57393967  0.45363650  0.03546153  1.0
  Ni  Ni221  1  0.57393967  0.78696983  0.03546153  1.0
  Ni  Ni222  1  0.90727300  0.12030317  0.03546153  1.0
  Ni  Ni223  1  0.90727300  0.45363650  0.03546153  1.0
  Ni  Ni224  1  0.90727300  0.78696983  0.03546153  1.0
  Ni  Ni225  1  0.24060633  0.28696983  0.09101708  1.0
  Ni  Ni226  1  0.24060633  0.62030317  0.09101708  1.0
  Ni  Ni227  1  0.24060633  0.95363650  0.09101708  1.0
  Ni  Ni228  1  0.57393967  0.28696983  0.09101708  1.0
  Ni  Ni229  1  0.57393967  0.62030317  0.09101708  1.0
  Ni  Ni230  1  0.57393967  0.95363650  0.09101708  1.0
  Ni  Ni231  1  0.90727300  0.28696983  0.09101708  1.0
  Ni  Ni232  1  0.90727300  0.62030317  0.09101708  1.0
  Ni  Ni233  1  0.90727300  0.95363650  0.09101708  1.0
  Ni  Ni234  1  0.12999600  0.06499800  0.07270936  1.0
  Ni  Ni235  1  0.12999600  0.39833133  0.07270936  1.0
  Ni  Ni236  1  0.12999600  0.73166467  0.07270936  1.0
  Ni  Ni237  1  0.46332933  0.06499800  0.07270936  1.0
  Ni  Ni238  1  0.46332933  0.39833133  0.07270936  1.0
  Ni  Ni239  1  0.46332933  0.73166467  0.07270936  1.0
  Ni  Ni240  1  0.79666267  0.06499800  0.07270936  1.0
  Ni  Ni241  1  0.79666267  0.39833133  0.07270936  1.0
  Ni  Ni242  1  0.79666267  0.73166467  0.07270936  1.0
  Ni  Ni243  1  0.12999600  0.23166467  0.01715381  1.0
  Ni  Ni244  1  0.12999600  0.56499800  0.01715381  1.0
  Ni  Ni245  1  0.12999600  0.89833133  0.01715381  1.0
  Ni  Ni246  1  0.46332933  0.23166467  0.01715381  1.0
  Ni  Ni247  1  0.46332933  0.56499800  0.01715381  1.0
  Ni  Ni248  1  0.46332933  0.89833133  0.01715381  1.0
  Ni  Ni249  1  0.79666267  0.23166467  0.01715381  1.0
  Ni  Ni250  1  0.79666267  0.56499800  0.01715381  1.0
  Ni  Ni251  1  0.79666267  0.89833133  0.01715381  1.0
  Ni  Ni252  1  0.20333733  0.01814433  0.05709147  1.0
  Ni  Ni253  1  0.20333733  0.35147767  0.05709147  1.0
  Ni  Ni254  1  0.20333733  0.68481100  0.05709147  1.0
  Ni  Ni255  1  0.53667067  0.01814433  0.05709147  1.0
  Ni  Ni256  1  0.53667067  0.35147767  0.05709147  1.0
  Ni  Ni257  1  0.53667067  0.68481100  0.05709147  1.0
  Ni  Ni258  1  0.87000400  0.01814433  0.05709147  1.0
  Ni  Ni259  1  0.87000400  0.35147767  0.05709147  1.0
  Ni  Ni260  1  0.87000400  0.68481100  0.05709147  1.0
  Ni  Ni261  1  0.20333733  0.18481100  0.00153592  1.0
  Ni  Ni262  1  0.20333733  0.51814433  0.00153592  1.0
  Ni  Ni263  1  0.20333733  0.85147767  0.00153592  1.0
  Ni  Ni264  1  0.53667067  0.18481100  0.00153592  1.0
  Ni  Ni265  1  0.53667067  0.51814433  0.00153592  1.0
  Ni  Ni266  1  0.53667067  0.85147767  0.00153592  1.0
  Ni  Ni267  1  0.87000400  0.18481100  0.00153592  1.0
  Ni  Ni268  1  0.87000400  0.51814433  0.00153592  1.0
  Ni  Ni269  1  0.87000400  0.85147767  0.00153592  1.0
  Ni  Ni270  1  0.16666667  0.08333333  0.07869381  1.0
  Ni  Ni271  1  0.16666667  0.41666667  0.07869381  1.0
  Ni  Ni272  1  0.16666667  0.75000000  0.07869381  1.0
  Ni  Ni273  1  0.50000000  0.08333333  0.07869381  1.0
  Ni  Ni274  1  0.50000000  0.41666667  0.07869381  1.0
  Ni  Ni275  1  0.50000000  0.75000000  0.07869381  1.0
  Ni  Ni276  1  0.83333333  0.08333333  0.07869381  1.0
  Ni  Ni277  1  0.83333333  0.41666667  0.07869381  1.0
  Ni  Ni278  1  0.83333333  0.75000000  0.07869381  1.0
  Ni  Ni279  1  0.16666667  0.25000000  0.02313825  1.0
  Ni  Ni280  1  0.16666667  0.58333333  0.02313825  1.0
  Ni  Ni281  1  0.16666667  0.91666667  0.02313825  1.0
  Ni  Ni282  1  0.50000000  0.25000000  0.02313825  1.0
  Ni  Ni283  1  0.50000000  0.58333333  0.02313825  1.0
  Ni  Ni284  1  0.50000000  0.91666667  0.02313825  1.0
  Ni  Ni285  1  0.83333333  0.25000000  0.02313825  1.0
  Ni  Ni286  1  0.83333333  0.58333333  0.02313825  1.0
  Ni  Ni287  1  0.83333333  0.91666667  0.02313825  1.0
  Ni  Ni288  1  0.00000000  0.08333333  0.02313825  1.0
  Ni  Ni289  1  1.00000000  0.41666667  0.02313825  1.0
  Ni  Ni290  1  1.00000000  0.75000000  0.02313825  1.0
  Ni  Ni291  1  0.33333333  0.08333333  0.02313825  1.0
  Ni  Ni292  1  0.33333333  0.41666667  0.02313825  1.0
  Ni  Ni293  1  0.33333333  0.75000000  0.02313825  1.0
  Ni  Ni294  1  0.66666667  0.08333333  0.02313825  1.0
  Ni  Ni295  1  0.66666667  0.41666667  0.02313825  1.0
  Ni  Ni296  1  0.66666667  0.75000000  0.02313825  1.0
  Ni  Ni297  1  0.00000000  0.25000000  0.07869381  1.0
  Ni  Ni298  1  0.00000000  0.58333333  0.07869381  1.0
  Ni  Ni299  1  1.00000000  0.91666667  0.07869381  1.0
  Ni  Ni300  1  0.33333333  0.25000000  0.07869381  1.0
  Ni  Ni301  1  0.33333333  0.58333333  0.07869381  1.0
  Ni  Ni302  1  0.33333333  0.91666667  0.07869381  1.0
  Ni  Ni303  1  0.66666667  0.25000000  0.07869381  1.0
  Ni  Ni304  1  0.66666667  0.58333333  0.07869381  1.0
  Ni  Ni305  1  0.66666667  0.91666667  0.07869381  1.0
  Ni  Ni306  1  0.12999600  0.14852233  0.10029614  1.0
  Ni  Ni307  1  0.12999600  0.48185567  0.10029614  1.0
  Ni  Ni308  1  0.12999600  0.81518900  0.10029614  1.0
  Ni  Ni309  1  0.46332933  0.14852233  0.10029614  1.0
  Ni  Ni310  1  0.46332933  0.48185567  0.10029614  1.0
  Ni  Ni311  1  0.46332933  0.81518900  0.10029614  1.0
  Ni  Ni312  1  0.79666267  0.14852233  0.10029614  1.0
  Ni  Ni313  1  0.79666267  0.48185567  0.10029614  1.0
  Ni  Ni314  1  0.79666267  0.81518900  0.10029614  1.0
  Ni  Ni315  1  0.12999600  0.31518900  0.04474058  1.0
  Ni  Ni316  1  0.12999600  0.64852233  0.04474058  1.0
  Ni  Ni317  1  0.12999600  0.98185567  0.04474058  1.0
  Ni  Ni318  1  0.46332933  0.31518900  0.04474058  1.0
  Ni  Ni319  1  0.46332933  0.64852233  0.04474058  1.0
  Ni  Ni320  1  0.46332933  0.98185567  0.04474058  1.0
  Ni  Ni321  1  0.79666267  0.31518900  0.04474058  1.0
  Ni  Ni322  1  0.79666267  0.64852233  0.04474058  1.0
  Ni  Ni323  1  0.79666267  0.98185567  0.04474058  1.0
  Y  Y324  1  0.01681200  0.00840600  0.22038469  1.0
  Y  Y325  1  0.01681200  0.34173933  0.22038469  1.0
  Y  Y326  1  0.01681200  0.67507267  0.22038469  1.0
  Y  Y327  1  0.35014533  0.00840600  0.22038469  1.0
  Y  Y328  1  0.35014533  0.34173933  0.22038469  1.0
  Y  Y329  1  0.35014533  0.67507267  0.22038469  1.0
  Y  Y330  1  0.68347867  0.00840600  0.22038469  1.0
  Y  Y331  1  0.68347867  0.34173933  0.22038469  1.0
  Y  Y332  1  0.68347867  0.67507267  0.22038469  1.0
  Y  Y333  1  0.01681200  0.17507267  0.16482914  1.0
  Y  Y334  1  0.01681200  0.50840600  0.16482914  1.0
  Y  Y335  1  0.01681200  0.84173933  0.16482914  1.0
  Y  Y336  1  0.35014533  0.17507267  0.16482914  1.0
  Y  Y337  1  0.35014533  0.50840600  0.16482914  1.0
  Y  Y338  1  0.35014533  0.84173933  0.16482914  1.0
  Y  Y339  1  0.68347867  0.17507267  0.16482914  1.0
  Y  Y340  1  0.68347867  0.50840600  0.16482914  1.0
  Y  Y341  1  0.68347867  0.84173933  0.16482914  1.0
  Y  Y342  1  0.28427933  0.14213967  0.15385147  1.0
  Y  Y343  1  0.28427933  0.47547300  0.15385147  1.0
  Y  Y344  1  0.28427933  0.80880633  0.15385147  1.0
  Y  Y345  1  0.61761267  0.14213967  0.15385147  1.0
  Y  Y346  1  0.61761267  0.47547300  0.15385147  1.0
  Y  Y347  1  0.61761267  0.80880633  0.15385147  1.0
  Y  Y348  1  0.95094600  0.14213967  0.15385147  1.0
  Y  Y349  1  0.95094600  0.47547300  0.15385147  1.0
  Y  Y350  1  0.95094600  0.80880633  0.15385147  1.0
  Y  Y351  1  0.28427933  0.30880633  0.20940703  1.0
  Y  Y352  1  0.28427933  0.64213967  0.20940703  1.0
  Y  Y353  1  0.28427933  0.97547300  0.20940703  1.0
  Y  Y354  1  0.61761267  0.30880633  0.20940703  1.0
  Y  Y355  1  0.61761267  0.64213967  0.20940703  1.0
  Y  Y356  1  0.61761267  0.97547300  0.20940703  1.0
  Y  Y357  1  0.95094600  0.30880633  0.20940703  1.0
  Y  Y358  1  0.95094600  0.64213967  0.20940703  1.0
  Y  Y359  1  0.95094600  0.97547300  0.20940703  1.0
  Y  Y360  1  0.31652133  0.15826067  0.15922514  1.0
  Y  Y361  1  0.31652133  0.49159400  0.15922514  1.0
  Y  Y362  1  0.31652133  0.82492733  0.15922514  1.0
  Y  Y363  1  0.64985467  0.15826067  0.15922514  1.0
  Y  Y364  1  0.64985467  0.49159400  0.15922514  1.0
  Y  Y365  1  0.64985467  0.82492733  0.15922514  1.0
  Y  Y366  1  0.98318800  0.15826067  0.15922514  1.0
  Y  Y367  1  0.98318800  0.49159400  0.15922514  1.0
  Y  Y368  1  0.98318800  0.82492733  0.15922514  1.0
  Y  Y369  1  0.31652133  0.32492733  0.21478069  1.0
  Y  Y370  1  0.31652133  0.65826067  0.21478069  1.0
  Y  Y371  1  0.31652133  0.99159400  0.21478069  1.0
  Y  Y372  1  0.64985467  0.32492733  0.21478069  1.0
  Y  Y373  1  0.64985467  0.65826067  0.21478069  1.0
  Y  Y374  1  0.64985467  0.99159400  0.21478069  1.0
  Y  Y375  1  0.98318800  0.32492733  0.21478069  1.0
  Y  Y376  1  0.98318800  0.65826067  0.21478069  1.0
  Y  Y377  1  0.98318800  0.99159400  0.21478069  1.0
  Y  Y378  1  0.04905400  0.02452700  0.11464725  1.0
  Y  Y379  1  0.04905400  0.35786033  0.11464725  1.0
  Y  Y380  1  0.04905400  0.69119367  0.11464725  1.0
  Y  Y381  1  0.38238733  0.02452700  0.11464725  1.0
  Y  Y382  1  0.38238733  0.35786033  0.11464725  1.0
  Y  Y383  1  0.38238733  0.69119367  0.11464725  1.0
  Y  Y384  1  0.71572067  0.02452700  0.11464725  1.0
  Y  Y385  1  0.71572067  0.35786033  0.11464725  1.0
  Y  Y386  1  0.71572067  0.69119367  0.11464725  1.0
  Y  Y387  1  0.04905400  0.19119367  0.17020281  1.0
  Y  Y388  1  0.04905400  0.52452700  0.17020281  1.0
  Y  Y389  1  0.04905400  0.85786033  0.17020281  1.0
  Y  Y390  1  0.38238733  0.19119367  0.17020281  1.0
  Y  Y391  1  0.38238733  0.52452700  0.17020281  1.0
  Y  Y392  1  0.38238733  0.85786033  0.17020281  1.0
  Y  Y393  1  0.71572067  0.19119367  0.17020281  1.0
  Y  Y394  1  0.71572067  0.52452700  0.17020281  1.0
  Y  Y395  1  0.71572067  0.85786033  0.17020281  1.0
  Ni  Ni396  1  0.09272700  0.04636350  0.12192608  1.0
  Ni  Ni397  1  0.09272700  0.37969683  0.12192608  1.0
  Ni  Ni398  1  0.09272700  0.71303017  0.12192608  1.0
  Ni  Ni399  1  0.42606033  0.04636350  0.12192608  1.0
  Ni  Ni400  1  0.42606033  0.37969683  0.12192608  1.0
  Ni  Ni401  1  0.42606033  0.71303017  0.12192608  1.0
  Ni  Ni402  1  0.75939367  0.04636350  0.12192608  1.0
  Ni  Ni403  1  0.75939367  0.37969683  0.12192608  1.0
  Ni  Ni404  1  0.75939367  0.71303017  0.12192608  1.0
  Ni  Ni405  1  0.09272700  0.21303017  0.17748164  1.0
  Ni  Ni406  1  0.09272700  0.54636350  0.17748164  1.0
  Ni  Ni407  1  0.09272700  0.87969683  0.17748164  1.0
  Ni  Ni408  1  0.42606033  0.21303017  0.17748164  1.0
  Ni  Ni409  1  0.42606033  0.54636350  0.17748164  1.0
  Ni  Ni410  1  0.42606033  0.87969683  0.17748164  1.0
  Ni  Ni411  1  0.75939367  0.21303017  0.17748164  1.0
  Ni  Ni412  1  0.75939367  0.54636350  0.17748164  1.0
  Ni  Ni413  1  0.75939367  0.87969683  0.17748164  1.0
  Ni  Ni414  1  0.20391167  0.10195583  0.14045686  1.0
  Ni  Ni415  1  0.20391167  0.43528917  0.14045686  1.0
  Ni  Ni416  1  0.20391167  0.76862250  0.14045686  1.0
  Ni  Ni417  1  0.53724500  0.10195583  0.14045686  1.0
  Ni  Ni418  1  0.53724500  0.43528917  0.14045686  1.0
  Ni  Ni419  1  0.53724500  0.76862250  0.14045686  1.0
  Ni  Ni420  1  0.87057833  0.10195583  0.14045686  1.0
  Ni  Ni421  1  0.87057833  0.43528917  0.14045686  1.0
  Ni  Ni422  1  0.87057833  0.76862250  0.14045686  1.0
  Ni  Ni423  1  0.20391167  0.26862250  0.19601242  1.0
  Ni  Ni424  1  0.20391167  0.60195583  0.19601242  1.0
  Ni  Ni425  1  0.20391167  0.93528917  0.19601242  1.0
  Ni  Ni426  1  0.53724500  0.26862250  0.19601242  1.0
  Ni  Ni427  1  0.53724500  0.60195583  0.19601242  1.0
  Ni  Ni428  1  0.53724500  0.93528917  0.19601242  1.0
  Ni  Ni429  1  0.87057833  0.26862250  0.19601242  1.0
  Ni  Ni430  1  0.87057833  0.60195583  0.19601242  1.0
  Ni  Ni431  1  0.87057833  0.93528917  0.19601242  1.0
  Ni  Ni432  1  0.20333733  0.10166867  0.19578936  1.0
  Ni  Ni433  1  0.20333733  0.43500200  0.19578936  1.0
  Ni  Ni434  1  0.20333733  0.76833533  0.19578936  1.0
  Ni  Ni435  1  0.53667067  0.10166867  0.19578936  1.0
  Ni  Ni436  1  0.53667067  0.43500200  0.19578936  1.0
  Ni  Ni437  1  0.53667067  0.76833533  0.19578936  1.0
  Ni  Ni438  1  0.87000400  0.10166867  0.19578936  1.0
  Ni  Ni439  1  0.87000400  0.43500200  0.19578936  1.0
  Ni  Ni440  1  0.87000400  0.76833533  0.19578936  1.0
  Ni  Ni441  1  0.20333733  0.26833533  0.14023381  1.0
  Ni  Ni442  1  0.20333733  0.60166867  0.14023381  1.0
  Ni  Ni443  1  0.20333733  0.93500200  0.14023381  1.0
  Ni  Ni444  1  0.53667067  0.26833533  0.14023381  1.0
  Ni  Ni445  1  0.53667067  0.60166867  0.14023381  1.0
  Ni  Ni446  1  0.53667067  0.93500200  0.14023381  1.0
  Ni  Ni447  1  0.87000400  0.26833533  0.14023381  1.0
  Ni  Ni448  1  0.87000400  0.60166867  0.14023381  1.0
  Ni  Ni449  1  0.87000400  0.93500200  0.14023381  1.0
  Ni  Ni450  1  0.12942167  0.06471083  0.12804186  1.0
  Ni  Ni451  1  0.12942167  0.39804417  0.12804186  1.0
  Ni  Ni452  1  0.12942167  0.73137750  0.12804186  1.0
  Ni  Ni453  1  0.46275500  0.06471083  0.12804186  1.0
  Ni  Ni454  1  0.46275500  0.39804417  0.12804186  1.0
  Ni  Ni455  1  0.46275500  0.73137750  0.12804186  1.0
  Ni  Ni456  1  0.79608833  0.06471083  0.12804186  1.0
  Ni  Ni457  1  0.79608833  0.39804417  0.12804186  1.0
  Ni  Ni458  1  0.79608833  0.73137750  0.12804186  1.0
  Ni  Ni459  1  0.12942167  0.23137750  0.18359742  1.0
  Ni  Ni460  1  0.12942167  0.56471083  0.18359742  1.0
  Ni  Ni461  1  0.12942167  0.89804417  0.18359742  1.0
  Ni  Ni462  1  0.46275500  0.23137750  0.18359742  1.0
  Ni  Ni463  1  0.46275500  0.56471083  0.18359742  1.0
  Ni  Ni464  1  0.46275500  0.89804417  0.18359742  1.0
  Ni  Ni465  1  0.79608833  0.23137750  0.18359742  1.0
  Ni  Ni466  1  0.79608833  0.56471083  0.18359742  1.0
  Ni  Ni467  1  0.79608833  0.89804417  0.18359742  1.0
  Ni  Ni468  1  0.16666667  0.33333333  0.16202714  1.0
  Ni  Ni469  1  0.16666667  0.66666667  0.16202714  1.0
  Ni  Ni470  1  0.16666667  0.00000000  0.16202714  1.0
  Ni  Ni471  1  0.50000000  0.33333333  0.16202714  1.0
  Ni  Ni472  1  0.50000000  0.66666667  0.16202714  1.0
  Ni  Ni473  1  0.50000000  0.00000000  0.16202714  1.0
  Ni  Ni474  1  0.83333333  0.33333333  0.16202714  1.0
  Ni  Ni475  1  0.83333333  0.66666667  0.16202714  1.0
  Ni  Ni476  1  0.83333333  0.00000000  0.16202714  1.0
  Ni  Ni477  1  0.16666667  0.16666667  0.21758269  1.0
  Ni  Ni478  1  0.16666667  0.50000000  0.21758269  1.0
  Ni  Ni479  1  0.16666667  0.83333333  0.21758269  1.0
  Ni  Ni480  1  0.50000000  0.16666667  0.21758269  1.0
  Ni  Ni481  1  0.50000000  0.50000000  0.21758269  1.0
  Ni  Ni482  1  0.50000000  0.83333333  0.21758269  1.0
  Ni  Ni483  1  0.83333333  0.16666667  0.21758269  1.0
  Ni  Ni484  1  0.83333333  0.50000000  0.21758269  1.0
  Ni  Ni485  1  0.83333333  0.83333333  0.21758269  1.0
  Ni  Ni486  1  0.29704467  0.06499800  0.12813758  1.0
  Ni  Ni487  1  0.29704467  0.39833133  0.12813758  1.0
  Ni  Ni488  1  0.29704467  0.73166467  0.12813758  1.0
  Ni  Ni489  1  0.63037800  0.06499800  0.12813758  1.0
  Ni  Ni490  1  0.63037800  0.39833133  0.12813758  1.0
  Ni  Ni491  1  0.63037800  0.73166467  0.12813758  1.0
  Ni  Ni492  1  0.96371133  0.06499800  0.12813758  1.0
  Ni  Ni493  1  0.96371133  0.39833133  0.12813758  1.0
  Ni  Ni494  1  0.96371133  0.73166467  0.12813758  1.0
  Ni  Ni495  1  0.29704467  0.23166467  0.18369314  1.0
  Ni  Ni496  1  0.29704467  0.56499800  0.18369314  1.0
  Ni  Ni497  1  0.29704467  0.89833133  0.18369314  1.0
  Ni  Ni498  1  0.63037800  0.23166467  0.18369314  1.0
  Ni  Ni499  1  0.63037800  0.56499800  0.18369314  1.0
  Ni  Ni500  1  0.63037800  0.89833133  0.18369314  1.0
  Ni  Ni501  1  0.96371133  0.23166467  0.18369314  1.0
  Ni  Ni502  1  0.96371133  0.56499800  0.18369314  1.0
  Ni  Ni503  1  0.96371133  0.89833133  0.18369314  1.0
  Ni  Ni504  1  0.16666667  0.08333333  0.13424936  1.0
  Ni  Ni505  1  0.16666667  0.41666667  0.13424936  1.0
  Ni  Ni506  1  0.16666667  0.75000000  0.13424936  1.0
  Ni  Ni507  1  0.50000000  0.08333333  0.13424936  1.0
  Ni  Ni508  1  0.50000000  0.41666667  0.13424936  1.0
  Ni  Ni509  1  0.50000000  0.75000000  0.13424936  1.0
  Ni  Ni510  1  0.83333333  0.08333333  0.13424936  1.0
  Ni  Ni511  1  0.83333333  0.41666667  0.13424936  1.0
  Ni  Ni512  1  0.83333333  0.75000000  0.13424936  1.0
  Ni  Ni513  1  0.16666667  0.25000000  0.18980492  1.0
  Ni  Ni514  1  0.16666667  0.58333333  0.18980492  1.0
  Ni  Ni515  1  0.16666667  0.91666667  0.18980492  1.0
  Ni  Ni516  1  0.50000000  0.25000000  0.18980492  1.0
  Ni  Ni517  1  0.50000000  0.58333333  0.18980492  1.0
  Ni  Ni518  1  0.50000000  0.91666667  0.18980492  1.0
  Ni  Ni519  1  0.83333333  0.25000000  0.18980492  1.0
  Ni  Ni520  1  0.83333333  0.58333333  0.18980492  1.0
  Ni  Ni521  1  0.83333333  0.91666667  0.18980492  1.0
  Ni  Ni522  1  0.03628867  0.10166867  0.14036114  1.0
  Ni  Ni523  1  0.03628867  0.43500200  0.14036114  1.0
  Ni  Ni524  1  0.03628867  0.76833533  0.14036114  1.0
  Ni  Ni525  1  0.36962200  0.10166867  0.14036114  1.0
  Ni  Ni526  1  0.36962200  0.43500200  0.14036114  1.0
  Ni  Ni527  1  0.36962200  0.76833533  0.14036114  1.0
  Ni  Ni528  1  0.70295533  0.10166867  0.14036114  1.0
  Ni  Ni529  1  0.70295533  0.43500200  0.14036114  1.0
  Ni  Ni530  1  0.70295533  0.76833533  0.14036114  1.0
  Ni  Ni531  1  0.03628867  0.26833533  0.19591669  1.0
  Ni  Ni532  1  0.03628867  0.60166867  0.19591669  1.0
  Ni  Ni533  1  0.03628867  0.93500200  0.19591669  1.0
  Ni  Ni534  1  0.36962200  0.26833533  0.19591669  1.0
  Ni  Ni535  1  0.36962200  0.60166867  0.19591669  1.0
  Ni  Ni536  1  0.36962200  0.93500200  0.19591669  1.0
  Ni  Ni537  1  0.70295533  0.26833533  0.19591669  1.0
  Ni  Ni538  1  0.70295533  0.60166867  0.19591669  1.0
  Ni  Ni539  1  0.70295533  0.93500200  0.19591669  1.0
  Ni  Ni540  1  0.24060633  0.12030317  0.14657264  1.0
  Ni  Ni541  1  0.24060633  0.45363650  0.14657264  1.0
  Ni  Ni542  1  0.24060633  0.78696983  0.14657264  1.0
  Ni  Ni543  1  0.57393967  0.12030317  0.14657264  1.0
  Ni  Ni544  1  0.57393967  0.45363650  0.14657264  1.0
  Ni  Ni545  1  0.57393967  0.78696983  0.14657264  1.0
  Ni  Ni546  1  0.90727300  0.12030317  0.14657264  1.0
  Ni  Ni547  1  0.90727300  0.45363650  0.14657264  1.0
  Ni  Ni548  1  0.90727300  0.78696983  0.14657264  1.0
  Ni  Ni549  1  0.24060633  0.28696983  0.20212819  1.0
  Ni  Ni550  1  0.24060633  0.62030317  0.20212819  1.0
  Ni  Ni551  1  0.24060633  0.95363650  0.20212819  1.0
  Ni  Ni552  1  0.57393967  0.28696983  0.20212819  1.0
  Ni  Ni553  1  0.57393967  0.62030317  0.20212819  1.0
  Ni  Ni554  1  0.57393967  0.95363650  0.20212819  1.0
  Ni  Ni555  1  0.90727300  0.28696983  0.20212819  1.0
  Ni  Ni556  1  0.90727300  0.62030317  0.20212819  1.0
  Ni  Ni557  1  0.90727300  0.95363650  0.20212819  1.0
  Ni  Ni558  1  0.12999600  0.06499800  0.18382047  1.0
  Ni  Ni559  1  0.12999600  0.39833133  0.18382047  1.0
  Ni  Ni560  1  0.12999600  0.73166467  0.18382047  1.0
  Ni  Ni561  1  0.46332933  0.06499800  0.18382047  1.0
  Ni  Ni562  1  0.46332933  0.39833133  0.18382047  1.0
  Ni  Ni563  1  0.46332933  0.73166467  0.18382047  1.0
  Ni  Ni564  1  0.79666267  0.06499800  0.18382047  1.0
  Ni  Ni565  1  0.79666267  0.39833133  0.18382047  1.0
  Ni  Ni566  1  0.79666267  0.73166467  0.18382047  1.0
  Ni  Ni567  1  0.12999600  0.23166467  0.12826492  1.0
  Ni  Ni568  1  0.12999600  0.56499800  0.12826492  1.0
  Ni  Ni569  1  0.12999600  0.89833133  0.12826492  1.0
  Ni  Ni570  1  0.46332933  0.23166467  0.12826492  1.0
  Ni  Ni571  1  0.46332933  0.56499800  0.12826492  1.0
  Ni  Ni572  1  0.46332933  0.89833133  0.12826492  1.0
  Ni  Ni573  1  0.79666267  0.23166467  0.12826492  1.0
  Ni  Ni574  1  0.79666267  0.56499800  0.12826492  1.0
  Ni  Ni575  1  0.79666267  0.89833133  0.12826492  1.0
  Ni  Ni576  1  0.20333733  0.01814433  0.16820258  1.0
  Ni  Ni577  1  0.20333733  0.35147767  0.16820258  1.0
  Ni  Ni578  1  0.20333733  0.68481100  0.16820258  1.0
  Ni  Ni579  1  0.53667067  0.01814433  0.16820258  1.0
  Ni  Ni580  1  0.53667067  0.35147767  0.16820258  1.0
  Ni  Ni581  1  0.53667067  0.68481100  0.16820258  1.0
  Ni  Ni582  1  0.87000400  0.01814433  0.16820258  1.0
  Ni  Ni583  1  0.87000400  0.35147767  0.16820258  1.0
  Ni  Ni584  1  0.87000400  0.68481100  0.16820258  1.0
  Ni  Ni585  1  0.20333733  0.18481100  0.11264703  1.0
  Ni  Ni586  1  0.20333733  0.51814433  0.11264703  1.0
  Ni  Ni587  1  0.20333733  0.85147767  0.11264703  1.0
  Ni  Ni588  1  0.53667067  0.18481100  0.11264703  1.0
  Ni  Ni589  1  0.53667067  0.51814433  0.11264703  1.0
  Ni  Ni590  1  0.53667067  0.85147767  0.11264703  1.0
  Ni  Ni591  1  0.87000400  0.18481100  0.11264703  1.0
  Ni  Ni592  1  0.87000400  0.51814433  0.11264703  1.0
  Ni  Ni593  1  0.87000400  0.85147767  0.11264703  1.0
  Ni  Ni594  1  0.16666667  0.08333333  0.18980492  1.0
  Ni  Ni595  1  0.16666667  0.41666667  0.18980492  1.0
  Ni  Ni596  1  0.16666667  0.75000000  0.18980492  1.0
  Ni  Ni597  1  0.50000000  0.08333333  0.18980492  1.0
  Ni  Ni598  1  0.50000000  0.41666667  0.18980492  1.0
  Ni  Ni599  1  0.50000000  0.75000000  0.18980492  1.0
  Ni  Ni600  1  0.83333333  0.08333333  0.18980492  1.0
  Ni  Ni601  1  0.83333333  0.41666667  0.18980492  1.0
  Ni  Ni602  1  0.83333333  0.75000000  0.18980492  1.0
  Ni  Ni603  1  0.16666667  0.25000000  0.13424936  1.0
  Ni  Ni604  1  0.16666667  0.58333333  0.13424936  1.0
  Ni  Ni605  1  0.16666667  0.91666667  0.13424936  1.0
  Ni  Ni606  1  0.50000000  0.25000000  0.13424936  1.0
  Ni  Ni607  1  0.50000000  0.58333333  0.13424936  1.0
  Ni  Ni608  1  0.50000000  0.91666667  0.13424936  1.0
  Ni  Ni609  1  0.83333333  0.25000000  0.13424936  1.0
  Ni  Ni610  1  0.83333333  0.58333333  0.13424936  1.0
  Ni  Ni611  1  0.83333333  0.91666667  0.13424936  1.0
  Ni  Ni612  1  0.00000000  0.08333333  0.13424936  1.0
  Ni  Ni613  1  1.00000000  0.41666667  0.13424936  1.0
  Ni  Ni614  1  1.00000000  0.75000000  0.13424936  1.0
  Ni  Ni615  1  0.33333333  0.08333333  0.13424936  1.0
  Ni  Ni616  1  0.33333333  0.41666667  0.13424936  1.0
  Ni  Ni617  1  0.33333333  0.75000000  0.13424936  1.0
  Ni  Ni618  1  0.66666667  0.08333333  0.13424936  1.0
  Ni  Ni619  1  0.66666667  0.41666667  0.13424936  1.0
  Ni  Ni620  1  0.66666667  0.75000000  0.13424936  1.0
  Ni  Ni621  1  0.00000000  0.25000000  0.18980492  1.0
  Ni  Ni622  1  0.00000000  0.58333333  0.18980492  1.0
  Ni  Ni623  1  1.00000000  0.91666667  0.18980492  1.0
  Ni  Ni624  1  0.33333333  0.25000000  0.18980492  1.0
  Ni  Ni625  1  0.33333333  0.58333333  0.18980492  1.0
  Ni  Ni626  1  0.33333333  0.91666667  0.18980492  1.0
  Ni  Ni627  1  0.66666667  0.25000000  0.18980492  1.0
  Ni  Ni628  1  0.66666667  0.58333333  0.18980492  1.0
  Ni  Ni629  1  0.66666667  0.91666667  0.18980492  1.0
  Ni  Ni630  1  0.12999600  0.14852233  0.21140725  1.0
  Ni  Ni631  1  0.12999600  0.48185567  0.21140725  1.0
  Ni  Ni632  1  0.12999600  0.81518900  0.21140725  1.0
  Ni  Ni633  1  0.46332933  0.14852233  0.21140725  1.0
  Ni  Ni634  1  0.46332933  0.48185567  0.21140725  1.0
  Ni  Ni635  1  0.46332933  0.81518900  0.21140725  1.0
  Ni  Ni636  1  0.79666267  0.14852233  0.21140725  1.0
  Ni  Ni637  1  0.79666267  0.48185567  0.21140725  1.0
  Ni  Ni638  1  0.79666267  0.81518900  0.21140725  1.0
  Ni  Ni639  1  0.12999600  0.31518900  0.15585169  1.0
  Ni  Ni640  1  0.12999600  0.64852233  0.15585169  1.0
  Ni  Ni641  1  0.12999600  0.98185567  0.15585169  1.0
  Ni  Ni642  1  0.46332933  0.31518900  0.15585169  1.0
  Ni  Ni643  1  0.46332933  0.64852233  0.15585169  1.0
  Ni  Ni644  1  0.46332933  0.98185567  0.15585169  1.0
  Ni  Ni645  1  0.79666267  0.31518900  0.15585169  1.0
  Ni  Ni646  1  0.79666267  0.64852233  0.15585169  1.0
  Ni  Ni647  1  0.79666267  0.98185567  0.15585169  1.0
  Y  Y648  1  0.01681200  0.00840600  0.33149581  1.0
  Y  Y649  1  0.01681200  0.34173933  0.33149581  1.0
  Y  Y650  1  0.01681200  0.67507267  0.33149581  1.0
  Y  Y651  1  0.35014533  0.00840600  0.33149581  1.0
  Y  Y652  1  0.35014533  0.34173933  0.33149581  1.0
  Y  Y653  1  0.35014533  0.67507267  0.33149581  1.0
  Y  Y654  1  0.68347867  0.00840600  0.33149581  1.0
  Y  Y655  1  0.68347867  0.34173933  0.33149581  1.0
  Y  Y656  1  0.68347867  0.67507267  0.33149581  1.0
  Y  Y657  1  0.01681200  0.17507267  0.27594025  1.0
  Y  Y658  1  0.01681200  0.50840600  0.27594025  1.0
  Y  Y659  1  0.01681200  0.84173933  0.27594025  1.0
  Y  Y660  1  0.35014533  0.17507267  0.27594025  1.0
  Y  Y661  1  0.35014533  0.50840600  0.27594025  1.0
  Y  Y662  1  0.35014533  0.84173933  0.27594025  1.0
  Y  Y663  1  0.68347867  0.17507267  0.27594025  1.0
  Y  Y664  1  0.68347867  0.50840600  0.27594025  1.0
  Y  Y665  1  0.68347867  0.84173933  0.27594025  1.0
  Y  Y666  1  0.28427933  0.14213967  0.26496258  1.0
  Y  Y667  1  0.28427933  0.47547300  0.26496258  1.0
  Y  Y668  1  0.28427933  0.80880633  0.26496258  1.0
  Y  Y669  1  0.61761267  0.14213967  0.26496258  1.0
  Y  Y670  1  0.61761267  0.47547300  0.26496258  1.0
  Y  Y671  1  0.61761267  0.80880633  0.26496258  1.0
  Y  Y672  1  0.95094600  0.14213967  0.26496258  1.0
  Y  Y673  1  0.95094600  0.47547300  0.26496258  1.0
  Y  Y674  1  0.95094600  0.80880633  0.26496258  1.0
  Y  Y675  1  0.28427933  0.30880633  0.32051814  1.0
  Y  Y676  1  0.28427933  0.64213967  0.32051814  1.0
  Y  Y677  1  0.28427933  0.97547300  0.32051814  1.0
  Y  Y678  1  0.61761267  0.30880633  0.32051814  1.0
  Y  Y679  1  0.61761267  0.64213967  0.32051814  1.0
  Y  Y680  1  0.61761267  0.97547300  0.32051814  1.0
  Y  Y681  1  0.95094600  0.30880633  0.32051814  1.0
  Y  Y682  1  0.95094600  0.64213967  0.32051814  1.0
  Y  Y683  1  0.95094600  0.97547300  0.32051814  1.0
  Y  Y684  1  0.31652133  0.15826067  0.27033625  1.0
  Y  Y685  1  0.31652133  0.49159400  0.27033625  1.0
  Y  Y686  1  0.31652133  0.82492733  0.27033625  1.0
  Y  Y687  1  0.64985467  0.15826067  0.27033625  1.0
  Y  Y688  1  0.64985467  0.49159400  0.27033625  1.0
  Y  Y689  1  0.64985467  0.82492733  0.27033625  1.0
  Y  Y690  1  0.98318800  0.15826067  0.27033625  1.0
  Y  Y691  1  0.98318800  0.49159400  0.27033625  1.0
  Y  Y692  1  0.98318800  0.82492733  0.27033625  1.0
  Y  Y693  1  0.31652133  0.32492733  0.32589181  1.0
  Y  Y694  1  0.31652133  0.65826067  0.32589181  1.0
  Y  Y695  1  0.31652133  0.99159400  0.32589181  1.0
  Y  Y696  1  0.64985467  0.32492733  0.32589181  1.0
  Y  Y697  1  0.64985467  0.65826067  0.32589181  1.0
  Y  Y698  1  0.64985467  0.99159400  0.32589181  1.0
  Y  Y699  1  0.98318800  0.32492733  0.32589181  1.0
  Y  Y700  1  0.98318800  0.65826067  0.32589181  1.0
  Y  Y701  1  0.98318800  0.99159400  0.32589181  1.0
  Y  Y702  1  0.04905400  0.02452700  0.22575836  1.0
  Y  Y703  1  0.04905400  0.35786033  0.22575836  1.0
  Y  Y704  1  0.04905400  0.69119367  0.22575836  1.0
  Y  Y705  1  0.38238733  0.02452700  0.22575836  1.0
  Y  Y706  1  0.38238733  0.35786033  0.22575836  1.0
  Y  Y707  1  0.38238733  0.69119367  0.22575836  1.0
  Y  Y708  1  0.71572067  0.02452700  0.22575836  1.0
  Y  Y709  1  0.71572067  0.35786033  0.22575836  1.0
  Y  Y710  1  0.71572067  0.69119367  0.22575836  1.0
  Y  Y711  1  0.04905400  0.19119367  0.28131392  1.0
  Y  Y712  1  0.04905400  0.52452700  0.28131392  1.0
  Y  Y713  1  0.04905400  0.85786033  0.28131392  1.0
  Y  Y714  1  0.38238733  0.19119367  0.28131392  1.0
  Y  Y715  1  0.38238733  0.52452700  0.28131392  1.0
  Y  Y716  1  0.38238733  0.85786033  0.28131392  1.0
  Y  Y717  1  0.71572067  0.19119367  0.28131392  1.0
  Y  Y718  1  0.71572067  0.52452700  0.28131392  1.0
  Y  Y719  1  0.71572067  0.85786033  0.28131392  1.0
  Ni  Ni720  1  0.09272700  0.04636350  0.23303719  1.0
  Ni  Ni721  1  0.09272700  0.37969683  0.23303719  1.0
  Ni  Ni722  1  0.09272700  0.71303017  0.23303719  1.0
  Ni  Ni723  1  0.42606033  0.04636350  0.23303719  1.0
  Ni  Ni724  1  0.42606033  0.37969683  0.23303719  1.0
  Ni  Ni725  1  0.42606033  0.71303017  0.23303719  1.0
  Ni  Ni726  1  0.75939367  0.04636350  0.23303719  1.0
  Ni  Ni727  1  0.75939367  0.37969683  0.23303719  1.0
  Ni  Ni728  1  0.75939367  0.71303017  0.23303719  1.0
  Ni  Ni729  1  0.09272700  0.21303017  0.28859275  1.0
  Ni  Ni730  1  0.09272700  0.54636350  0.28859275  1.0
  Ni  Ni731  1  0.09272700  0.87969683  0.28859275  1.0
  Ni  Ni732  1  0.42606033  0.21303017  0.28859275  1.0
  Ni  Ni733  1  0.42606033  0.54636350  0.28859275  1.0
  Ni  Ni734  1  0.42606033  0.87969683  0.28859275  1.0
  Ni  Ni735  1  0.75939367  0.21303017  0.28859275  1.0
  Ni  Ni736  1  0.75939367  0.54636350  0.28859275  1.0
  Ni  Ni737  1  0.75939367  0.87969683  0.28859275  1.0
  Ni  Ni738  1  0.20391167  0.10195583  0.25156797  1.0
  Ni  Ni739  1  0.20391167  0.43528917  0.25156797  1.0
  Ni  Ni740  1  0.20391167  0.76862250  0.25156797  1.0
  Ni  Ni741  1  0.53724500  0.10195583  0.25156797  1.0
  Ni  Ni742  1  0.53724500  0.43528917  0.25156797  1.0
  Ni  Ni743  1  0.53724500  0.76862250  0.25156797  1.0
  Ni  Ni744  1  0.87057833  0.10195583  0.25156797  1.0
  Ni  Ni745  1  0.87057833  0.43528917  0.25156797  1.0
  Ni  Ni746  1  0.87057833  0.76862250  0.25156797  1.0
  Ni  Ni747  1  0.20391167  0.26862250  0.30712353  1.0
  Ni  Ni748  1  0.20391167  0.60195583  0.30712353  1.0
  Ni  Ni749  1  0.20391167  0.93528917  0.30712353  1.0
  Ni  Ni750  1  0.53724500  0.26862250  0.30712353  1.0
  Ni  Ni751  1  0.53724500  0.60195583  0.30712353  1.0
  Ni  Ni752  1  0.53724500  0.93528917  0.30712353  1.0
  Ni  Ni753  1  0.87057833  0.26862250  0.30712353  1.0
  Ni  Ni754  1  0.87057833  0.60195583  0.30712353  1.0
  Ni  Ni755  1  0.87057833  0.93528917  0.30712353  1.0
  Ni  Ni756  1  0.20333733  0.10166867  0.30690047  1.0
  Ni  Ni757  1  0.20333733  0.43500200  0.30690047  1.0
  Ni  Ni758  1  0.20333733  0.76833533  0.30690047  1.0
  Ni  Ni759  1  0.53667067  0.10166867  0.30690047  1.0
  Ni  Ni760  1  0.53667067  0.43500200  0.30690047  1.0
  Ni  Ni761  1  0.53667067  0.76833533  0.30690047  1.0
  Ni  Ni762  1  0.87000400  0.10166867  0.30690047  1.0
  Ni  Ni763  1  0.87000400  0.43500200  0.30690047  1.0
  Ni  Ni764  1  0.87000400  0.76833533  0.30690047  1.0
  Ni  Ni765  1  0.20333733  0.26833533  0.25134492  1.0
  Ni  Ni766  1  0.20333733  0.60166867  0.25134492  1.0
  Ni  Ni767  1  0.20333733  0.93500200  0.25134492  1.0
  Ni  Ni768  1  0.53667067  0.26833533  0.25134492  1.0
  Ni  Ni769  1  0.53667067  0.60166867  0.25134492  1.0
  Ni  Ni770  1  0.53667067  0.93500200  0.25134492  1.0
  Ni  Ni771  1  0.87000400  0.26833533  0.25134492  1.0
  Ni  Ni772  1  0.87000400  0.60166867  0.25134492  1.0
  Ni  Ni773  1  0.87000400  0.93500200  0.25134492  1.0
  Ni  Ni774  1  0.12942167  0.06471083  0.23915297  1.0
  Ni  Ni775  1  0.12942167  0.39804417  0.23915297  1.0
  Ni  Ni776  1  0.12942167  0.73137750  0.23915297  1.0
  Ni  Ni777  1  0.46275500  0.06471083  0.23915297  1.0
  Ni  Ni778  1  0.46275500  0.39804417  0.23915297  1.0
  Ni  Ni779  1  0.46275500  0.73137750  0.23915297  1.0
  Ni  Ni780  1  0.79608833  0.06471083  0.23915297  1.0
  Ni  Ni781  1  0.79608833  0.39804417  0.23915297  1.0
  Ni  Ni782  1  0.79608833  0.73137750  0.23915297  1.0
  Ni  Ni783  1  0.12942167  0.23137750  0.29470853  1.0
  Ni  Ni784  1  0.12942167  0.56471083  0.29470853  1.0
  Ni  Ni785  1  0.12942167  0.89804417  0.29470853  1.0
  Ni  Ni786  1  0.46275500  0.23137750  0.29470853  1.0
  Ni  Ni787  1  0.46275500  0.56471083  0.29470853  1.0
  Ni  Ni788  1  0.46275500  0.89804417  0.29470853  1.0
  Ni  Ni789  1  0.79608833  0.23137750  0.29470853  1.0
  Ni  Ni790  1  0.79608833  0.56471083  0.29470853  1.0
  Ni  Ni791  1  0.79608833  0.89804417  0.29470853  1.0
  Ni  Ni792  1  0.16666667  0.33333333  0.27313825  1.0
  Ni  Ni793  1  0.16666667  0.66666667  0.27313825  1.0
  Ni  Ni794  1  0.16666667  0.00000000  0.27313825  1.0
  Ni  Ni795  1  0.50000000  0.33333333  0.27313825  1.0
  Ni  Ni796  1  0.50000000  0.66666667  0.27313825  1.0
  Ni  Ni797  1  0.50000000  0.00000000  0.27313825  1.0
  Ni  Ni798  1  0.83333333  0.33333333  0.27313825  1.0
  Ni  Ni799  1  0.83333333  0.66666667  0.27313825  1.0
  Ni  Ni800  1  0.83333333  0.00000000  0.27313825  1.0
  Ni  Ni801  1  0.16666667  0.16666667  0.32869381  1.0
  Ni  Ni802  1  0.16666667  0.50000000  0.32869381  1.0
  Ni  Ni803  1  0.16666667  0.83333333  0.32869381  1.0
  Ni  Ni804  1  0.50000000  0.16666667  0.32869381  1.0
  Ni  Ni805  1  0.50000000  0.50000000  0.32869381  1.0
  Ni  Ni806  1  0.50000000  0.83333333  0.32869381  1.0
  Ni  Ni807  1  0.83333333  0.16666667  0.32869381  1.0
  Ni  Ni808  1  0.83333333  0.50000000  0.32869381  1.0
  Ni  Ni809  1  0.83333333  0.83333333  0.32869381  1.0
  Ni  Ni810  1  0.29704467  0.06499800  0.23924869  1.0
  Ni  Ni811  1  0.29704467  0.39833133  0.23924869  1.0
  Ni  Ni812  1  0.29704467  0.73166467  0.23924869  1.0
  Ni  Ni813  1  0.63037800  0.06499800  0.23924869  1.0
  Ni  Ni814  1  0.63037800  0.39833133  0.23924869  1.0
  Ni  Ni815  1  0.63037800  0.73166467  0.23924869  1.0
  Ni  Ni816  1  0.96371133  0.06499800  0.23924869  1.0
  Ni  Ni817  1  0.96371133  0.39833133  0.23924869  1.0
  Ni  Ni818  1  0.96371133  0.73166467  0.23924869  1.0
  Ni  Ni819  1  0.29704467  0.23166467  0.29480425  1.0
  Ni  Ni820  1  0.29704467  0.56499800  0.29480425  1.0
  Ni  Ni821  1  0.29704467  0.89833133  0.29480425  1.0
  Ni  Ni822  1  0.63037800  0.23166467  0.29480425  1.0
  Ni  Ni823  1  0.63037800  0.56499800  0.29480425  1.0
  Ni  Ni824  1  0.63037800  0.89833133  0.29480425  1.0
  Ni  Ni825  1  0.96371133  0.23166467  0.29480425  1.0
  Ni  Ni826  1  0.96371133  0.56499800  0.29480425  1.0
  Ni  Ni827  1  0.96371133  0.89833133  0.29480425  1.0
  Ni  Ni828  1  0.16666667  0.08333333  0.24536047  1.0
  Ni  Ni829  1  0.16666667  0.41666667  0.24536047  1.0
  Ni  Ni830  1  0.16666667  0.75000000  0.24536047  1.0
  Ni  Ni831  1  0.50000000  0.08333333  0.24536047  1.0
  Ni  Ni832  1  0.50000000  0.41666667  0.24536047  1.0
  Ni  Ni833  1  0.50000000  0.75000000  0.24536047  1.0
  Ni  Ni834  1  0.83333333  0.08333333  0.24536047  1.0
  Ni  Ni835  1  0.83333333  0.41666667  0.24536047  1.0
  Ni  Ni836  1  0.83333333  0.75000000  0.24536047  1.0
  Ni  Ni837  1  0.16666667  0.25000000  0.30091603  1.0
  Ni  Ni838  1  0.16666667  0.58333333  0.30091603  1.0
  Ni  Ni839  1  0.16666667  0.91666667  0.30091603  1.0
  Ni  Ni840  1  0.50000000  0.25000000  0.30091603  1.0
  Ni  Ni841  1  0.50000000  0.58333333  0.30091603  1.0
  Ni  Ni842  1  0.50000000  0.91666667  0.30091603  1.0
  Ni  Ni843  1  0.83333333  0.25000000  0.30091603  1.0
  Ni  Ni844  1  0.83333333  0.58333333  0.30091603  1.0
  Ni  Ni845  1  0.83333333  0.91666667  0.30091603  1.0
  Ni  Ni846  1  0.03628867  0.10166867  0.25147225  1.0
  Ni  Ni847  1  0.03628867  0.43500200  0.25147225  1.0
  Ni  Ni848  1  0.03628867  0.76833533  0.25147225  1.0
  Ni  Ni849  1  0.36962200  0.10166867  0.25147225  1.0
  Ni  Ni850  1  0.36962200  0.43500200  0.25147225  1.0
  Ni  Ni851  1  0.36962200  0.76833533  0.25147225  1.0
  Ni  Ni852  1  0.70295533  0.10166867  0.25147225  1.0
  Ni  Ni853  1  0.70295533  0.43500200  0.25147225  1.0
  Ni  Ni854  1  0.70295533  0.76833533  0.25147225  1.0
  Ni  Ni855  1  0.03628867  0.26833533  0.30702781  1.0
  Ni  Ni856  1  0.03628867  0.60166867  0.30702781  1.0
  Ni  Ni857  1  0.03628867  0.93500200  0.30702781  1.0
  Ni  Ni858  1  0.36962200  0.26833533  0.30702781  1.0
  Ni  Ni859  1  0.36962200  0.60166867  0.30702781  1.0
  Ni  Ni860  1  0.36962200  0.93500200  0.30702781  1.0
  Ni  Ni861  1  0.70295533  0.26833533  0.30702781  1.0
  Ni  Ni862  1  0.70295533  0.60166867  0.30702781  1.0
  Ni  Ni863  1  0.70295533  0.93500200  0.30702781  1.0
  Ni  Ni864  1  0.24060633  0.12030317  0.25768375  1.0
  Ni  Ni865  1  0.24060633  0.45363650  0.25768375  1.0
  Ni  Ni866  1  0.24060633  0.78696983  0.25768375  1.0
  Ni  Ni867  1  0.57393967  0.12030317  0.25768375  1.0
  Ni  Ni868  1  0.57393967  0.45363650  0.25768375  1.0
  Ni  Ni869  1  0.57393967  0.78696983  0.25768375  1.0
  Ni  Ni870  1  0.90727300  0.12030317  0.25768375  1.0
  Ni  Ni871  1  0.90727300  0.45363650  0.25768375  1.0
  Ni  Ni872  1  0.90727300  0.78696983  0.25768375  1.0
  Ni  Ni873  1  0.24060633  0.28696983  0.31323931  1.0
  Ni  Ni874  1  0.24060633  0.62030317  0.31323931  1.0
  Ni  Ni875  1  0.24060633  0.95363650  0.31323931  1.0
  Ni  Ni876  1  0.57393967  0.28696983  0.31323931  1.0
  Ni  Ni877  1  0.57393967  0.62030317  0.31323931  1.0
  Ni  Ni878  1  0.57393967  0.95363650  0.31323931  1.0
  Ni  Ni879  1  0.90727300  0.28696983  0.31323931  1.0
  Ni  Ni880  1  0.90727300  0.62030317  0.31323931  1.0
  Ni  Ni881  1  0.90727300  0.95363650  0.31323931  1.0
  Ni  Ni882  1  0.12999600  0.06499800  0.29493158  1.0
  Ni  Ni883  1  0.12999600  0.39833133  0.29493158  1.0
  Ni  Ni884  1  0.12999600  0.73166467  0.29493158  1.0
  Ni  Ni885  1  0.46332933  0.06499800  0.29493158  1.0
  Ni  Ni886  1  0.46332933  0.39833133  0.29493158  1.0
  Ni  Ni887  1  0.46332933  0.73166467  0.29493158  1.0
  Ni  Ni888  1  0.79666267  0.06499800  0.29493158  1.0
  Ni  Ni889  1  0.79666267  0.39833133  0.29493158  1.0
  Ni  Ni890  1  0.79666267  0.73166467  0.29493158  1.0
  Ni  Ni891  1  0.12999600  0.23166467  0.23937603  1.0
  Ni  Ni892  1  0.12999600  0.56499800  0.23937603  1.0
  Ni  Ni893  1  0.12999600  0.89833133  0.23937603  1.0
  Ni  Ni894  1  0.46332933  0.23166467  0.23937603  1.0
  Ni  Ni895  1  0.46332933  0.56499800  0.23937603  1.0
  Ni  Ni896  1  0.46332933  0.89833133  0.23937603  1.0
  Ni  Ni897  1  0.79666267  0.23166467  0.23937603  1.0
  Ni  Ni898  1  0.79666267  0.56499800  0.23937603  1.0
  Ni  Ni899  1  0.79666267  0.89833133  0.23937603  1.0
  Ni  Ni900  1  0.20333733  0.01814433  0.27931369  1.0
  Ni  Ni901  1  0.20333733  0.35147767  0.27931369  1.0
  Ni  Ni902  1  0.20333733  0.68481100  0.27931369  1.0
  Ni  Ni903  1  0.53667067  0.01814433  0.27931369  1.0
  Ni  Ni904  1  0.53667067  0.35147767  0.27931369  1.0
  Ni  Ni905  1  0.53667067  0.68481100  0.27931369  1.0
  Ni  Ni906  1  0.87000400  0.01814433  0.27931369  1.0
  Ni  Ni907  1  0.87000400  0.35147767  0.27931369  1.0
  Ni  Ni908  1  0.87000400  0.68481100  0.27931369  1.0
  Ni  Ni909  1  0.20333733  0.18481100  0.22375814  1.0
  Ni  Ni910  1  0.20333733  0.51814433  0.22375814  1.0
  Ni  Ni911  1  0.20333733  0.85147767  0.22375814  1.0
  Ni  Ni912  1  0.53667067  0.18481100  0.22375814  1.0
  Ni  Ni913  1  0.53667067  0.51814433  0.22375814  1.0
  Ni  Ni914  1  0.53667067  0.85147767  0.22375814  1.0
  Ni  Ni915  1  0.87000400  0.18481100  0.22375814  1.0
  Ni  Ni916  1  0.87000400  0.51814433  0.22375814  1.0
  Ni  Ni917  1  0.87000400  0.85147767  0.22375814  1.0
  Ni  Ni918  1  0.16666667  0.08333333  0.30091603  1.0
  Ni  Ni919  1  0.16666667  0.41666667  0.30091603  1.0
  Ni  Ni920  1  0.16666667  0.75000000  0.30091603  1.0
  Ni  Ni921  1  0.50000000  0.08333333  0.30091603  1.0
  Ni  Ni922  1  0.50000000  0.41666667  0.30091603  1.0
  Ni  Ni923  1  0.50000000  0.75000000  0.30091603  1.0
  Ni  Ni924  1  0.83333333  0.08333333  0.30091603  1.0
  Ni  Ni925  1  0.83333333  0.41666667  0.30091603  1.0
  Ni  Ni926  1  0.83333333  0.75000000  0.30091603  1.0
  Ni  Ni927  1  0.16666667  0.25000000  0.24536047  1.0
  Ni  Ni928  1  0.16666667  0.58333333  0.24536047  1.0
  Ni  Ni929  1  0.16666667  0.91666667  0.24536047  1.0
  Ni  Ni930  1  0.50000000  0.25000000  0.24536047  1.0
  Ni  Ni931  1  0.50000000  0.58333333  0.24536047  1.0
  Ni  Ni932  1  0.50000000  0.91666667  0.24536047  1.0
  Ni  Ni933  1  0.83333333  0.25000000  0.24536047  1.0
  Ni  Ni934  1  0.83333333  0.58333333  0.24536047  1.0
  Ni  Ni935  1  0.83333333  0.91666667  0.24536047  1.0
  Ni  Ni936  1  0.00000000  0.08333333  0.24536047  1.0
  Ni  Ni937  1  1.00000000  0.41666667  0.24536047  1.0
  Ni  Ni938  1  1.00000000  0.75000000  0.24536047  1.0
  Ni  Ni939  1  0.33333333  0.08333333  0.24536047  1.0
  Ni  Ni940  1  0.33333333  0.41666667  0.24536047  1.0
  Ni  Ni941  1  0.33333333  0.75000000  0.24536047  1.0
  Ni  Ni942  1  0.66666667  0.08333333  0.24536047  1.0
  Ni  Ni943  1  0.66666667  0.41666667  0.24536047  1.0
  Ni  Ni944  1  0.66666667  0.75000000  0.24536047  1.0
  Ni  Ni945  1  0.00000000  0.25000000  0.30091603  1.0
  Ni  Ni946  1  0.00000000  0.58333333  0.30091603  1.0
  Ni  Ni947  1  1.00000000  0.91666667  0.30091603  1.0
  Ni  Ni948  1  0.33333333  0.25000000  0.30091603  1.0
  Ni  Ni949  1  0.33333333  0.58333333  0.30091603  1.0
  Ni  Ni950  1  0.33333333  0.91666667  0.30091603  1.0
  Ni  Ni951  1  0.66666667  0.25000000  0.30091603  1.0
  Ni  Ni952  1  0.66666667  0.58333333  0.30091603  1.0
  Ni  Ni953  1  0.66666667  0.91666667  0.30091603  1.0
  Ni  Ni954  1  0.12999600  0.14852233  0.32251836  1.0
  Ni  Ni955  1  0.12999600  0.48185567  0.32251836  1.0
  Ni  Ni956  1  0.12999600  0.81518900  0.32251836  1.0
  Ni  Ni957  1  0.46332933  0.14852233  0.32251836  1.0
  Ni  Ni958  1  0.46332933  0.48185567  0.32251836  1.0
  Ni  Ni959  1  0.46332933  0.81518900  0.32251836  1.0
  Ni  Ni960  1  0.79666267  0.14852233  0.32251836  1.0
  Ni  Ni961  1  0.79666267  0.48185567  0.32251836  1.0
  Ni  Ni962  1  0.79666267  0.81518900  0.32251836  1.0
  Ni  Ni963  1  0.12999600  0.31518900  0.26696281  1.0
  Ni  Ni964  1  0.12999600  0.64852233  0.26696281  1.0
  Ni  Ni965  1  0.12999600  0.98185567  0.26696281  1.0
  Ni  Ni966  1  0.46332933  0.31518900  0.26696281  1.0
  Ni  Ni967  1  0.46332933  0.64852233  0.26696281  1.0
  Ni  Ni968  1  0.46332933  0.98185567  0.26696281  1.0
  Ni  Ni969  1  0.79666267  0.31518900  0.26696281  1.0
  Ni  Ni970  1  0.79666267  0.64852233  0.26696281  1.0
  Ni  Ni971  1  0.79666267  0.98185567  0.26696281  1.0
  Y  Y972  1  0.01681200  0.00840600  0.44260692  1.0
  Y  Y973  1  0.01681200  0.34173933  0.44260692  1.0
  Y  Y974  1  0.01681200  0.67507267  0.44260692  1.0
  Y  Y975  1  0.35014533  0.00840600  0.44260692  1.0
  Y  Y976  1  0.35014533  0.34173933  0.44260692  1.0
  Y  Y977  1  0.35014533  0.67507267  0.44260692  1.0
  Y  Y978  1  0.68347867  0.00840600  0.44260692  1.0
  Y  Y979  1  0.68347867  0.34173933  0.44260692  1.0
  Y  Y980  1  0.68347867  0.67507267  0.44260692  1.0
  Y  Y981  1  0.01681200  0.17507267  0.38705136  1.0
  Y  Y982  1  0.01681200  0.50840600  0.38705136  1.0
  Y  Y983  1  0.01681200  0.84173933  0.38705136  1.0
  Y  Y984  1  0.35014533  0.17507267  0.38705136  1.0
  Y  Y985  1  0.35014533  0.50840600  0.38705136  1.0
  Y  Y986  1  0.35014533  0.84173933  0.38705136  1.0
  Y  Y987  1  0.68347867  0.17507267  0.38705136  1.0
  Y  Y988  1  0.68347867  0.50840600  0.38705136  1.0
  Y  Y989  1  0.68347867  0.84173933  0.38705136  1.0
  Y  Y990  1  0.28427933  0.14213967  0.37607369  1.0
  Y  Y991  1  0.28427933  0.47547300  0.37607369  1.0
  Y  Y992  1  0.28427933  0.80880633  0.37607369  1.0
  Y  Y993  1  0.61761267  0.14213967  0.37607369  1.0
  Y  Y994  1  0.61761267  0.47547300  0.37607369  1.0
  Y  Y995  1  0.61761267  0.80880633  0.37607369  1.0
  Y  Y996  1  0.95094600  0.14213967  0.37607369  1.0
  Y  Y997  1  0.95094600  0.47547300  0.37607369  1.0
  Y  Y998  1  0.95094600  0.80880633  0.37607369  1.0
  Y  Y999  1  0.28427933  0.30880633  0.43162925  1.0
  Y  Y1000  1  0.28427933  0.64213967  0.43162925  1.0
  Y  Y1001  1  0.28427933  0.97547300  0.43162925  1.0
  Y  Y1002  1  0.61761267  0.30880633  0.43162925  1.0
  Y  Y1003  1  0.61761267  0.64213967  0.43162925  1.0
  Y  Y1004  1  0.61761267  0.97547300  0.43162925  1.0
  Y  Y1005  1  0.95094600  0.30880633  0.43162925  1.0
  Y  Y1006  1  0.95094600  0.64213967  0.43162925  1.0
  Y  Y1007  1  0.95094600  0.97547300  0.43162925  1.0
  Y  Y1008  1  0.31652133  0.15826067  0.38144736  1.0
  Y  Y1009  1  0.31652133  0.49159400  0.38144736  1.0
  Y  Y1010  1  0.31652133  0.82492733  0.38144736  1.0
  Y  Y1011  1  0.64985467  0.15826067  0.38144736  1.0
  Y  Y1012  1  0.64985467  0.49159400  0.38144736  1.0
  Y  Y1013  1  0.64985467  0.82492733  0.38144736  1.0
  Y  Y1014  1  0.98318800  0.15826067  0.38144736  1.0
  Y  Y1015  1  0.98318800  0.49159400  0.38144736  1.0
  Y  Y1016  1  0.98318800  0.82492733  0.38144736  1.0
  Y  Y1017  1  0.31652133  0.32492733  0.43700292  1.0
  Y  Y1018  1  0.31652133  0.65826067  0.43700292  1.0
  Y  Y1019  1  0.31652133  0.99159400  0.43700292  1.0
  Y  Y1020  1  0.64985467  0.32492733  0.43700292  1.0
  Y  Y1021  1  0.64985467  0.65826067  0.43700292  1.0
  Y  Y1022  1  0.64985467  0.99159400  0.43700292  1.0
  Y  Y1023  1  0.98318800  0.32492733  0.43700292  1.0
  Y  Y1024  1  0.98318800  0.65826067  0.43700292  1.0
  Y  Y1025  1  0.98318800  0.99159400  0.43700292  1.0
  Y  Y1026  1  0.04905400  0.02452700  0.33686947  1.0
  Y  Y1027  1  0.04905400  0.35786033  0.33686947  1.0
  Y  Y1028  1  0.04905400  0.69119367  0.33686947  1.0
  Y  Y1029  1  0.38238733  0.02452700  0.33686947  1.0
  Y  Y1030  1  0.38238733  0.35786033  0.33686947  1.0
  Y  Y1031  1  0.38238733  0.69119367  0.33686947  1.0
  Y  Y1032  1  0.71572067  0.02452700  0.33686947  1.0
  Y  Y1033  1  0.71572067  0.35786033  0.33686947  1.0
  Y  Y1034  1  0.71572067  0.69119367  0.33686947  1.0
  Y  Y1035  1  0.04905400  0.19119367  0.39242503  1.0
  Y  Y1036  1  0.04905400  0.52452700  0.39242503  1.0
  Y  Y1037  1  0.04905400  0.85786033  0.39242503  1.0
  Y  Y1038  1  0.38238733  0.19119367  0.39242503  1.0
  Y  Y1039  1  0.38238733  0.52452700  0.39242503  1.0
  Y  Y1040  1  0.38238733  0.85786033  0.39242503  1.0
  Y  Y1041  1  0.71572067  0.19119367  0.39242503  1.0
  Y  Y1042  1  0.71572067  0.52452700  0.39242503  1.0
  Y  Y1043  1  0.71572067  0.85786033  0.39242503  1.0
  Ni  Ni1044  1  0.09272700  0.04636350  0.34414831  1.0
  Ni  Ni1045  1  0.09272700  0.37969683  0.34414831  1.0
  Ni  Ni1046  1  0.09272700  0.71303017  0.34414831  1.0
  Ni  Ni1047  1  0.42606033  0.04636350  0.34414831  1.0
  Ni  Ni1048  1  0.42606033  0.37969683  0.34414831  1.0
  Ni  Ni1049  1  0.42606033  0.71303017  0.34414831  1.0
  Ni  Ni1050  1  0.75939367  0.04636350  0.34414831  1.0
  Ni  Ni1051  1  0.75939367  0.37969683  0.34414831  1.0
  Ni  Ni1052  1  0.75939367  0.71303017  0.34414831  1.0
  Ni  Ni1053  1  0.09272700  0.21303017  0.39970386  1.0
  Ni  Ni1054  1  0.09272700  0.54636350  0.39970386  1.0
  Ni  Ni1055  1  0.09272700  0.87969683  0.39970386  1.0
  Ni  Ni1056  1  0.42606033  0.21303017  0.39970386  1.0
  Ni  Ni1057  1  0.42606033  0.54636350  0.39970386  1.0
  Ni  Ni1058  1  0.42606033  0.87969683  0.39970386  1.0
  Ni  Ni1059  1  0.75939367  0.21303017  0.39970386  1.0
  Ni  Ni1060  1  0.75939367  0.54636350  0.39970386  1.0
  Ni  Ni1061  1  0.75939367  0.87969683  0.39970386  1.0
  Ni  Ni1062  1  0.20391167  0.10195583  0.36267908  1.0
  Ni  Ni1063  1  0.20391167  0.43528917  0.36267908  1.0
  Ni  Ni1064  1  0.20391167  0.76862250  0.36267908  1.0
  Ni  Ni1065  1  0.53724500  0.10195583  0.36267908  1.0
  Ni  Ni1066  1  0.53724500  0.43528917  0.36267908  1.0
  Ni  Ni1067  1  0.53724500  0.76862250  0.36267908  1.0
  Ni  Ni1068  1  0.87057833  0.10195583  0.36267908  1.0
  Ni  Ni1069  1  0.87057833  0.43528917  0.36267908  1.0
  Ni  Ni1070  1  0.87057833  0.76862250  0.36267908  1.0
  Ni  Ni1071  1  0.20391167  0.26862250  0.41823464  1.0
  Ni  Ni1072  1  0.20391167  0.60195583  0.41823464  1.0
  Ni  Ni1073  1  0.20391167  0.93528917  0.41823464  1.0
  Ni  Ni1074  1  0.53724500  0.26862250  0.41823464  1.0
  Ni  Ni1075  1  0.53724500  0.60195583  0.41823464  1.0
  Ni  Ni1076  1  0.53724500  0.93528917  0.41823464  1.0
  Ni  Ni1077  1  0.87057833  0.26862250  0.41823464  1.0
  Ni  Ni1078  1  0.87057833  0.60195583  0.41823464  1.0
  Ni  Ni1079  1  0.87057833  0.93528917  0.41823464  1.0
  Ni  Ni1080  1  0.20333733  0.10166867  0.41801158  1.0
  Ni  Ni1081  1  0.20333733  0.43500200  0.41801158  1.0
  Ni  Ni1082  1  0.20333733  0.76833533  0.41801158  1.0
  Ni  Ni1083  1  0.53667067  0.10166867  0.41801158  1.0
  Ni  Ni1084  1  0.53667067  0.43500200  0.41801158  1.0
  Ni  Ni1085  1  0.53667067  0.76833533  0.41801158  1.0
  Ni  Ni1086  1  0.87000400  0.10166867  0.41801158  1.0
  Ni  Ni1087  1  0.87000400  0.43500200  0.41801158  1.0
  Ni  Ni1088  1  0.87000400  0.76833533  0.41801158  1.0
  Ni  Ni1089  1  0.20333733  0.26833533  0.36245603  1.0
  Ni  Ni1090  1  0.20333733  0.60166867  0.36245603  1.0
  Ni  Ni1091  1  0.20333733  0.93500200  0.36245603  1.0
  Ni  Ni1092  1  0.53667067  0.26833533  0.36245603  1.0
  Ni  Ni1093  1  0.53667067  0.60166867  0.36245603  1.0
  Ni  Ni1094  1  0.53667067  0.93500200  0.36245603  1.0
  Ni  Ni1095  1  0.87000400  0.26833533  0.36245603  1.0
  Ni  Ni1096  1  0.87000400  0.60166867  0.36245603  1.0
  Ni  Ni1097  1  0.87000400  0.93500200  0.36245603  1.0
  Ni  Ni1098  1  0.12942167  0.06471083  0.35026408  1.0
  Ni  Ni1099  1  0.12942167  0.39804417  0.35026408  1.0
  Ni  Ni1100  1  0.12942167  0.73137750  0.35026408  1.0
  Ni  Ni1101  1  0.46275500  0.06471083  0.35026408  1.0
  Ni  Ni1102  1  0.46275500  0.39804417  0.35026408  1.0
  Ni  Ni1103  1  0.46275500  0.73137750  0.35026408  1.0
  Ni  Ni1104  1  0.79608833  0.06471083  0.35026408  1.0
  Ni  Ni1105  1  0.79608833  0.39804417  0.35026408  1.0
  Ni  Ni1106  1  0.79608833  0.73137750  0.35026408  1.0
  Ni  Ni1107  1  0.12942167  0.23137750  0.40581964  1.0
  Ni  Ni1108  1  0.12942167  0.56471083  0.40581964  1.0
  Ni  Ni1109  1  0.12942167  0.89804417  0.40581964  1.0
  Ni  Ni1110  1  0.46275500  0.23137750  0.40581964  1.0
  Ni  Ni1111  1  0.46275500  0.56471083  0.40581964  1.0
  Ni  Ni1112  1  0.46275500  0.89804417  0.40581964  1.0
  Ni  Ni1113  1  0.79608833  0.23137750  0.40581964  1.0
  Ni  Ni1114  1  0.79608833  0.56471083  0.40581964  1.0
  Ni  Ni1115  1  0.79608833  0.89804417  0.40581964  1.0
  Ni  Ni1116  1  0.16666667  0.33333333  0.38424936  1.0
  Ni  Ni1117  1  0.16666667  0.66666667  0.38424936  1.0
  Ni  Ni1118  1  0.16666667  0.00000000  0.38424936  1.0
  Ni  Ni1119  1  0.50000000  0.33333333  0.38424936  1.0
  Ni  Ni1120  1  0.50000000  0.66666667  0.38424936  1.0
  Ni  Ni1121  1  0.50000000  0.00000000  0.38424936  1.0
  Ni  Ni1122  1  0.83333333  0.33333333  0.38424936  1.0
  Ni  Ni1123  1  0.83333333  0.66666667  0.38424936  1.0
  Ni  Ni1124  1  0.83333333  0.00000000  0.38424936  1.0
  Ni  Ni1125  1  0.16666667  0.16666667  0.43980492  1.0
  Ni  Ni1126  1  0.16666667  0.50000000  0.43980492  1.0
  Ni  Ni1127  1  0.16666667  0.83333333  0.43980492  1.0
  Ni  Ni1128  1  0.50000000  0.16666667  0.43980492  1.0
  Ni  Ni1129  1  0.50000000  0.50000000  0.43980492  1.0
  Ni  Ni1130  1  0.50000000  0.83333333  0.43980492  1.0
  Ni  Ni1131  1  0.83333333  0.16666667  0.43980492  1.0
  Ni  Ni1132  1  0.83333333  0.50000000  0.43980492  1.0
  Ni  Ni1133  1  0.83333333  0.83333333  0.43980492  1.0
  Ni  Ni1134  1  0.29704467  0.06499800  0.35035981  1.0
  Ni  Ni1135  1  0.29704467  0.39833133  0.35035981  1.0
  Ni  Ni1136  1  0.29704467  0.73166467  0.35035981  1.0
  Ni  Ni1137  1  0.63037800  0.06499800  0.35035981  1.0
  Ni  Ni1138  1  0.63037800  0.39833133  0.35035981  1.0
  Ni  Ni1139  1  0.63037800  0.73166467  0.35035981  1.0
  Ni  Ni1140  1  0.96371133  0.06499800  0.35035981  1.0
  Ni  Ni1141  1  0.96371133  0.39833133  0.35035981  1.0
  Ni  Ni1142  1  0.96371133  0.73166467  0.35035981  1.0
  Ni  Ni1143  1  0.29704467  0.23166467  0.40591536  1.0
  Ni  Ni1144  1  0.29704467  0.56499800  0.40591536  1.0
  Ni  Ni1145  1  0.29704467  0.89833133  0.40591536  1.0
  Ni  Ni1146  1  0.63037800  0.23166467  0.40591536  1.0
  Ni  Ni1147  1  0.63037800  0.56499800  0.40591536  1.0
  Ni  Ni1148  1  0.63037800  0.89833133  0.40591536  1.0
  Ni  Ni1149  1  0.96371133  0.23166467  0.40591536  1.0
  Ni  Ni1150  1  0.96371133  0.56499800  0.40591536  1.0
  Ni  Ni1151  1  0.96371133  0.89833133  0.40591536  1.0
  Ni  Ni1152  1  0.16666667  0.08333333  0.35647158  1.0
  Ni  Ni1153  1  0.16666667  0.41666667  0.35647158  1.0
  Ni  Ni1154  1  0.16666667  0.75000000  0.35647158  1.0
  Ni  Ni1155  1  0.50000000  0.08333333  0.35647158  1.0
  Ni  Ni1156  1  0.50000000  0.41666667  0.35647158  1.0
  Ni  Ni1157  1  0.50000000  0.75000000  0.35647158  1.0
  Ni  Ni1158  1  0.83333333  0.08333333  0.35647158  1.0
  Ni  Ni1159  1  0.83333333  0.41666667  0.35647158  1.0
  Ni  Ni1160  1  0.83333333  0.75000000  0.35647158  1.0
  Ni  Ni1161  1  0.16666667  0.25000000  0.41202714  1.0
  Ni  Ni1162  1  0.16666667  0.58333333  0.41202714  1.0
  Ni  Ni1163  1  0.16666667  0.91666667  0.41202714  1.0
  Ni  Ni1164  1  0.50000000  0.25000000  0.41202714  1.0
  Ni  Ni1165  1  0.50000000  0.58333333  0.41202714  1.0
  Ni  Ni1166  1  0.50000000  0.91666667  0.41202714  1.0
  Ni  Ni1167  1  0.83333333  0.25000000  0.41202714  1.0
  Ni  Ni1168  1  0.83333333  0.58333333  0.41202714  1.0
  Ni  Ni1169  1  0.83333333  0.91666667  0.41202714  1.0
  Ni  Ni1170  1  0.03628867  0.10166867  0.36258336  1.0
  Ni  Ni1171  1  0.03628867  0.43500200  0.36258336  1.0
  Ni  Ni1172  1  0.03628867  0.76833533  0.36258336  1.0
  Ni  Ni1173  1  0.36962200  0.10166867  0.36258336  1.0
  Ni  Ni1174  1  0.36962200  0.43500200  0.36258336  1.0
  Ni  Ni1175  1  0.36962200  0.76833533  0.36258336  1.0
  Ni  Ni1176  1  0.70295533  0.10166867  0.36258336  1.0
  Ni  Ni1177  1  0.70295533  0.43500200  0.36258336  1.0
  Ni  Ni1178  1  0.70295533  0.76833533  0.36258336  1.0
  Ni  Ni1179  1  0.03628867  0.26833533  0.41813892  1.0
  Ni  Ni1180  1  0.03628867  0.60166867  0.41813892  1.0
  Ni  Ni1181  1  0.03628867  0.93500200  0.41813892  1.0
  Ni  Ni1182  1  0.36962200  0.26833533  0.41813892  1.0
  Ni  Ni1183  1  0.36962200  0.60166867  0.41813892  1.0
  Ni  Ni1184  1  0.36962200  0.93500200  0.41813892  1.0
  Ni  Ni1185  1  0.70295533  0.26833533  0.41813892  1.0
  Ni  Ni1186  1  0.70295533  0.60166867  0.41813892  1.0
  Ni  Ni1187  1  0.70295533  0.93500200  0.41813892  1.0
  Ni  Ni1188  1  0.24060633  0.12030317  0.36879486  1.0
  Ni  Ni1189  1  0.24060633  0.45363650  0.36879486  1.0
  Ni  Ni1190  1  0.24060633  0.78696983  0.36879486  1.0
  Ni  Ni1191  1  0.57393967  0.12030317  0.36879486  1.0
  Ni  Ni1192  1  0.57393967  0.45363650  0.36879486  1.0
  Ni  Ni1193  1  0.57393967  0.78696983  0.36879486  1.0
  Ni  Ni1194  1  0.90727300  0.12030317  0.36879486  1.0
  Ni  Ni1195  1  0.90727300  0.45363650  0.36879486  1.0
  Ni  Ni1196  1  0.90727300  0.78696983  0.36879486  1.0
  Ni  Ni1197  1  0.24060633  0.28696983  0.42435042  1.0
  Ni  Ni1198  1  0.24060633  0.62030317  0.42435042  1.0
  Ni  Ni1199  1  0.24060633  0.95363650  0.42435042  1.0
  Ni  Ni1200  1  0.57393967  0.28696983  0.42435042  1.0
  Ni  Ni1201  1  0.57393967  0.62030317  0.42435042  1.0
  Ni  Ni1202  1  0.57393967  0.95363650  0.42435042  1.0
  Ni  Ni1203  1  0.90727300  0.28696983  0.42435042  1.0
  Ni  Ni1204  1  0.90727300  0.62030317  0.42435042  1.0
  Ni  Ni1205  1  0.90727300  0.95363650  0.42435042  1.0
  Ni  Ni1206  1  0.12999600  0.06499800  0.40604269  1.0
  Ni  Ni1207  1  0.12999600  0.39833133  0.40604269  1.0
  Ni  Ni1208  1  0.12999600  0.73166467  0.40604269  1.0
  Ni  Ni1209  1  0.46332933  0.06499800  0.40604269  1.0
  Ni  Ni1210  1  0.46332933  0.39833133  0.40604269  1.0
  Ni  Ni1211  1  0.46332933  0.73166467  0.40604269  1.0
  Ni  Ni1212  1  0.79666267  0.06499800  0.40604269  1.0
  Ni  Ni1213  1  0.79666267  0.39833133  0.40604269  1.0
  Ni  Ni1214  1  0.79666267  0.73166467  0.40604269  1.0
  Ni  Ni1215  1  0.12999600  0.23166467  0.35048714  1.0
  Ni  Ni1216  1  0.12999600  0.56499800  0.35048714  1.0
  Ni  Ni1217  1  0.12999600  0.89833133  0.35048714  1.0
  Ni  Ni1218  1  0.46332933  0.23166467  0.35048714  1.0
  Ni  Ni1219  1  0.46332933  0.56499800  0.35048714  1.0
  Ni  Ni1220  1  0.46332933  0.89833133  0.35048714  1.0
  Ni  Ni1221  1  0.79666267  0.23166467  0.35048714  1.0
  Ni  Ni1222  1  0.79666267  0.56499800  0.35048714  1.0
  Ni  Ni1223  1  0.79666267  0.89833133  0.35048714  1.0
  Ni  Ni1224  1  0.20333733  0.01814433  0.39042481  1.0
  Ni  Ni1225  1  0.20333733  0.35147767  0.39042481  1.0
  Ni  Ni1226  1  0.20333733  0.68481100  0.39042481  1.0
  Ni  Ni1227  1  0.53667067  0.01814433  0.39042481  1.0
  Ni  Ni1228  1  0.53667067  0.35147767  0.39042481  1.0
  Ni  Ni1229  1  0.53667067  0.68481100  0.39042481  1.0
  Ni  Ni1230  1  0.87000400  0.01814433  0.39042481  1.0
  Ni  Ni1231  1  0.87000400  0.35147767  0.39042481  1.0
  Ni  Ni1232  1  0.87000400  0.68481100  0.39042481  1.0
  Ni  Ni1233  1  0.20333733  0.18481100  0.33486925  1.0
  Ni  Ni1234  1  0.20333733  0.51814433  0.33486925  1.0
  Ni  Ni1235  1  0.20333733  0.85147767  0.33486925  1.0
  Ni  Ni1236  1  0.53667067  0.18481100  0.33486925  1.0
  Ni  Ni1237  1  0.53667067  0.51814433  0.33486925  1.0
  Ni  Ni1238  1  0.53667067  0.85147767  0.33486925  1.0
  Ni  Ni1239  1  0.87000400  0.18481100  0.33486925  1.0
  Ni  Ni1240  1  0.87000400  0.51814433  0.33486925  1.0
  Ni  Ni1241  1  0.87000400  0.85147767  0.33486925  1.0
  Ni  Ni1242  1  0.16666667  0.08333333  0.41202714  1.0
  Ni  Ni1243  1  0.16666667  0.41666667  0.41202714  1.0
  Ni  Ni1244  1  0.16666667  0.75000000  0.41202714  1.0
  Ni  Ni1245  1  0.50000000  0.08333333  0.41202714  1.0
  Ni  Ni1246  1  0.50000000  0.41666667  0.41202714  1.0
  Ni  Ni1247  1  0.50000000  0.75000000  0.41202714  1.0
  Ni  Ni1248  1  0.83333333  0.08333333  0.41202714  1.0
  Ni  Ni1249  1  0.83333333  0.41666667  0.41202714  1.0
  Ni  Ni1250  1  0.83333333  0.75000000  0.41202714  1.0
  Ni  Ni1251  1  0.16666667  0.25000000  0.35647158  1.0
  Ni  Ni1252  1  0.16666667  0.58333333  0.35647158  1.0
  Ni  Ni1253  1  0.16666667  0.91666667  0.35647158  1.0
  Ni  Ni1254  1  0.50000000  0.25000000  0.35647158  1.0
  Ni  Ni1255  1  0.50000000  0.58333333  0.35647158  1.0
  Ni  Ni1256  1  0.50000000  0.91666667  0.35647158  1.0
  Ni  Ni1257  1  0.83333333  0.25000000  0.35647158  1.0
  Ni  Ni1258  1  0.83333333  0.58333333  0.35647158  1.0
  Ni  Ni1259  1  0.83333333  0.91666667  0.35647158  1.0
  Ni  Ni1260  1  0.00000000  0.08333333  0.35647158  1.0
  Ni  Ni1261  1  1.00000000  0.41666667  0.35647158  1.0
  Ni  Ni1262  1  1.00000000  0.75000000  0.35647158  1.0
  Ni  Ni1263  1  0.33333333  0.08333333  0.35647158  1.0
  Ni  Ni1264  1  0.33333333  0.41666667  0.35647158  1.0
  Ni  Ni1265  1  0.33333333  0.75000000  0.35647158  1.0
  Ni  Ni1266  1  0.66666667  0.08333333  0.35647158  1.0
  Ni  Ni1267  1  0.66666667  0.41666667  0.35647158  1.0
  Ni  Ni1268  1  0.66666667  0.75000000  0.35647158  1.0
  Ni  Ni1269  1  0.00000000  0.25000000  0.41202714  1.0
  Ni  Ni1270  1  0.00000000  0.58333333  0.41202714  1.0
  Ni  Ni1271  1  1.00000000  0.91666667  0.41202714  1.0
  Ni  Ni1272  1  0.33333333  0.25000000  0.41202714  1.0
  Ni  Ni1273  1  0.33333333  0.58333333  0.41202714  1.0
  Ni  Ni1274  1  0.33333333  0.91666667  0.41202714  1.0
  Ni  Ni1275  1  0.66666667  0.25000000  0.41202714  1.0
  Ni  Ni1276  1  0.66666667  0.58333333  0.41202714  1.0
  Ni  Ni1277  1  0.66666667  0.91666667  0.41202714  1.0
  Ni  Ni1278  1  0.12999600  0.14852233  0.43362947  1.0
  Ni  Ni1279  1  0.12999600  0.48185567  0.43362947  1.0
  Ni  Ni1280  1  0.12999600  0.81518900  0.43362947  1.0
  Ni  Ni1281  1  0.46332933  0.14852233  0.43362947  1.0
  Ni  Ni1282  1  0.46332933  0.48185567  0.43362947  1.0
  Ni  Ni1283  1  0.46332933  0.81518900  0.43362947  1.0
  Ni  Ni1284  1  0.79666267  0.14852233  0.43362947  1.0
  Ni  Ni1285  1  0.79666267  0.48185567  0.43362947  1.0
  Ni  Ni1286  1  0.79666267  0.81518900  0.43362947  1.0
  Ni  Ni1287  1  0.12999600  0.31518900  0.37807392  1.0
  Ni  Ni1288  1  0.12999600  0.64852233  0.37807392  1.0
  Ni  Ni1289  1  0.12999600  0.98185567  0.37807392  1.0
  Ni  Ni1290  1  0.46332933  0.31518900  0.37807392  1.0
  Ni  Ni1291  1  0.46332933  0.64852233  0.37807392  1.0
  Ni  Ni1292  1  0.46332933  0.98185567  0.37807392  1.0
  Ni  Ni1293  1  0.79666267  0.31518900  0.37807392  1.0
  Ni  Ni1294  1  0.79666267  0.64852233  0.37807392  1.0
  Ni  Ni1295  1  0.79666267  0.98185567  0.37807392  1.0
