# generated using pymatgen
data_Y2Ni7
_symmetry_space_group_name_H-M   'P 1'
_cell_length_a   39.19323946
_cell_length_b   39.95367990
_cell_length_c   29.62730419
_cell_angle_alpha   90.00000000
_cell_angle_beta   100.89339465
_cell_angle_gamma   114.86075347
_symmetry_Int_Tables_number   1
_chemical_formula_structural   Y2Ni7
_chemical_formula_sum   'Y288 Ni1008'
_cell_volume   41171.40504850
_cell_formula_units_Z   144
loop_
 _symmetry_equiv_pos_site_id
 _symmetry_equiv_pos_as_xyz
  1  'x, y, z'
loop_
 _atom_site_type_symbol
 _atom_site_label
 _atom_site_symmetry_multiplicity
 _atom_site_fract_x
 _atom_site_fract_y
 _atom_site_fract_z
 _atom_site_occupancy
  Ni  Ni0  1  0.23754911  0.28658700  0.97815544  1.0
  Ni  Ni1  1  0.23754911  0.61992033  0.97815544  1.0
  Ni  Ni2  1  0.23754911  0.95325367  0.97815544  1.0
  Ni  Ni3  1  0.57088244  0.28658700  0.97815544  1.0
  Ni  Ni4  1  0.57088244  0.61992033  0.97815544  1.0
  Ni  Ni5  1  0.57088244  0.95325367  0.97815544  1.0
  Ni  Ni6  1  0.90421578  0.28658700  0.97815544  1.0
  Ni  Ni7  1  0.90421578  0.61992033  0.97815544  1.0
  Ni  Ni8  1  0.90421578  0.95325367  0.97815544  1.0
  Ni  Ni9  1  0.01532689  0.28658700  0.92259989  1.0
  Ni  Ni10  1  0.01532689  0.61992033  0.92259989  1.0
  Ni  Ni11  1  0.01532689  0.95325367  0.92259989  1.0
  Ni  Ni12  1  0.34866022  0.28658700  0.92259989  1.0
  Ni  Ni13  1  0.34866022  0.61992033  0.92259989  1.0
  Ni  Ni14  1  0.34866022  0.95325367  0.92259989  1.0
  Ni  Ni15  1  0.68199356  0.28658700  0.92259989  1.0
  Ni  Ni16  1  0.68199356  0.61992033  0.92259989  1.0
  Ni  Ni17  1  0.68199356  0.95325367  0.92259989  1.0
  Ni  Ni18  1  0.27468422  0.28680767  0.90410589  1.0
  Ni  Ni19  1  0.27468422  0.62014100  0.90410589  1.0
  Ni  Ni20  1  0.27468422  0.95347433  0.90410589  1.0
  Ni  Ni21  1  0.60801756  0.28680767  0.90410589  1.0
  Ni  Ni22  1  0.60801756  0.62014100  0.90410589  1.0
  Ni  Ni23  1  0.60801756  0.95347433  0.90410589  1.0
  Ni  Ni24  1  0.94135089  0.28680767  0.90410589  1.0
  Ni  Ni25  1  0.94135089  0.62014100  0.90410589  1.0
  Ni  Ni26  1  0.94135089  0.95347433  0.90410589  1.0
  Ni  Ni27  1  0.16357311  0.28680767  0.95966144  1.0
  Ni  Ni28  1  0.16357311  0.62014100  0.95966144  1.0
  Ni  Ni29  1  0.16357311  0.95347433  0.95966144  1.0
  Ni  Ni30  1  0.49690644  0.28680767  0.95966144  1.0
  Ni  Ni31  1  0.49690644  0.62014100  0.95966144  1.0
  Ni  Ni32  1  0.49690644  0.95347433  0.95966144  1.0
  Ni  Ni33  1  0.83023978  0.28680767  0.95966144  1.0
  Ni  Ni34  1  0.83023978  0.62014100  0.95966144  1.0
  Ni  Ni35  1  0.83023978  0.95347433  0.95966144  1.0
  Ni  Ni36  1  0.32934667  0.11803600  0.95934267  1.0
  Ni  Ni37  1  0.32934667  0.45136933  0.95934267  1.0
  Ni  Ni38  1  0.32934667  0.78470267  0.95934267  1.0
  Ni  Ni39  1  0.66268000  0.11803600  0.95934267  1.0
  Ni  Ni40  1  0.66268000  0.45136933  0.95934267  1.0
  Ni  Ni41  1  0.66268000  0.78470267  0.95934267  1.0
  Ni  Ni42  1  0.99601333  0.11803600  0.95934267  1.0
  Ni  Ni43  1  0.99601333  0.45136933  0.95934267  1.0
  Ni  Ni44  1  0.99601333  0.78470267  0.95934267  1.0
  Ni  Ni45  1  0.10712444  0.11803600  0.90378711  1.0
  Ni  Ni46  1  0.10712444  0.45136933  0.90378711  1.0
  Ni  Ni47  1  0.10712444  0.78470267  0.90378711  1.0
  Ni  Ni48  1  0.44045778  0.11803600  0.90378711  1.0
  Ni  Ni49  1  0.44045778  0.45136933  0.90378711  1.0
  Ni  Ni50  1  0.44045778  0.78470267  0.90378711  1.0
  Ni  Ni51  1  0.77379111  0.11803600  0.90378711  1.0
  Ni  Ni52  1  0.77379111  0.45136933  0.90378711  1.0
  Ni  Ni53  1  0.77379111  0.78470267  0.90378711  1.0
  Ni  Ni54  1  0.28647533  0.06333767  0.99038700  1.0
  Ni  Ni55  1  0.28647533  0.39667100  0.99038700  1.0
  Ni  Ni56  1  0.28647533  0.73000433  0.99038700  1.0
  Ni  Ni57  1  0.61980867  0.06333767  0.99038700  1.0
  Ni  Ni58  1  0.61980867  0.39667100  0.99038700  1.0
  Ni  Ni59  1  0.61980867  0.73000433  0.99038700  1.0
  Ni  Ni60  1  0.95314200  0.06333767  0.99038700  1.0
  Ni  Ni61  1  0.95314200  0.39667100  0.99038700  1.0
  Ni  Ni62  1  0.95314200  0.73000433  0.99038700  1.0
  Ni  Ni63  1  0.06425311  0.06333767  0.93483144  1.0
  Ni  Ni64  1  0.06425311  0.39667100  0.93483144  1.0
  Ni  Ni65  1  0.06425311  0.73000433  0.93483144  1.0
  Ni  Ni66  1  0.39758644  0.06333767  0.93483144  1.0
  Ni  Ni67  1  0.39758644  0.39667100  0.93483144  1.0
  Ni  Ni68  1  0.39758644  0.73000433  0.93483144  1.0
  Ni  Ni69  1  0.73091978  0.06333767  0.93483144  1.0
  Ni  Ni70  1  0.73091978  0.39667100  0.93483144  1.0
  Ni  Ni71  1  0.73091978  0.73000433  0.93483144  1.0
  Ni  Ni72  1  0.16946867  0.00840600  0.91946867  1.0
  Ni  Ni73  1  0.16946867  0.34173933  0.91946867  1.0
  Ni  Ni74  1  0.16946867  0.67507267  0.91946867  1.0
  Ni  Ni75  1  0.50280200  0.00840600  0.91946867  1.0
  Ni  Ni76  1  0.50280200  0.34173933  0.91946867  1.0
  Ni  Ni77  1  0.50280200  0.67507267  0.91946867  1.0
  Ni  Ni78  1  0.83613533  0.00840600  0.91946867  1.0
  Ni  Ni79  1  0.83613533  0.34173933  0.91946867  1.0
  Ni  Ni80  1  0.83613533  0.67507267  0.91946867  1.0
  Ni  Ni81  1  0.05835756  0.00840600  0.97502422  1.0
  Ni  Ni82  1  0.05835756  0.34173933  0.97502422  1.0
  Ni  Ni83  1  0.05835756  0.67507267  0.97502422  1.0
  Ni  Ni84  1  0.39169089  0.00840600  0.97502422  1.0
  Ni  Ni85  1  0.39169089  0.34173933  0.97502422  1.0
  Ni  Ni86  1  0.39169089  0.67507267  0.97502422  1.0
  Ni  Ni87  1  0.72502422  0.00840600  0.97502422  1.0
  Ni  Ni88  1  0.72502422  0.34173933  0.97502422  1.0
  Ni  Ni89  1  0.72502422  0.67507267  0.97502422  1.0
  Ni  Ni90  1  0.28749578  0.23210933  0.90730878  1.0
  Ni  Ni91  1  0.28749578  0.56544267  0.90730878  1.0
  Ni  Ni92  1  0.28749578  0.89877600  0.90730878  1.0
  Ni  Ni93  1  0.62082911  0.23210933  0.90730878  1.0
  Ni  Ni94  1  0.62082911  0.56544267  0.90730878  1.0
  Ni  Ni95  1  0.62082911  0.89877600  0.90730878  1.0
  Ni  Ni96  1  0.95416244  0.23210933  0.90730878  1.0
  Ni  Ni97  1  0.95416244  0.56544267  0.90730878  1.0
  Ni  Ni98  1  0.95416244  0.89877600  0.90730878  1.0
  Ni  Ni99  1  0.17638467  0.23210933  0.96286433  1.0
  Ni  Ni100  1  0.17638467  0.56544267  0.96286433  1.0
  Ni  Ni101  1  0.17638467  0.89877600  0.96286433  1.0
  Ni  Ni102  1  0.50971800  0.23210933  0.96286433  1.0
  Ni  Ni103  1  0.50971800  0.56544267  0.96286433  1.0
  Ni  Ni104  1  0.50971800  0.89877600  0.96286433  1.0
  Ni  Ni105  1  0.84305133  0.23210933  0.96286433  1.0
  Ni  Ni106  1  0.84305133  0.56544267  0.96286433  1.0
  Ni  Ni107  1  0.84305133  0.89877600  0.96286433  1.0
  Ni  Ni108  1  0.22502422  0.17507267  0.89169089  1.0
  Ni  Ni109  1  0.22502422  0.50840600  0.89169089  1.0
  Ni  Ni110  1  0.22502422  0.84173933  0.89169089  1.0
  Ni  Ni111  1  0.55835756  0.17507267  0.89169089  1.0
  Ni  Ni112  1  0.55835756  0.50840600  0.89169089  1.0
  Ni  Ni113  1  0.55835756  0.84173933  0.89169089  1.0
  Ni  Ni114  1  0.89169089  0.17507267  0.89169089  1.0
  Ni  Ni115  1  0.89169089  0.50840600  0.89169089  1.0
  Ni  Ni116  1  0.89169089  0.84173933  0.89169089  1.0
  Ni  Ni117  1  0.11391311  0.17507267  0.94724644  1.0
  Ni  Ni118  1  0.11391311  0.50840600  0.94724644  1.0
  Ni  Ni119  1  0.11391311  0.84173933  0.94724644  1.0
  Ni  Ni120  1  0.44724644  0.17507267  0.94724644  1.0
  Ni  Ni121  1  0.44724644  0.50840600  0.94724644  1.0
  Ni  Ni122  1  0.44724644  0.84173933  0.94724644  1.0
  Ni  Ni123  1  0.78057978  0.17507267  0.94724644  1.0
  Ni  Ni124  1  0.78057978  0.50840600  0.94724644  1.0
  Ni  Ni125  1  0.78057978  0.84173933  0.94724644  1.0
  Ni  Ni126  1  0.27366378  0.11803600  0.98718411  1.0
  Ni  Ni127  1  0.27366378  0.45136933  0.98718411  1.0
  Ni  Ni128  1  0.27366378  0.78470267  0.98718411  1.0
  Ni  Ni129  1  0.60699711  0.11803600  0.98718411  1.0
  Ni  Ni130  1  0.60699711  0.45136933  0.98718411  1.0
  Ni  Ni131  1  0.60699711  0.78470267  0.98718411  1.0
  Ni  Ni132  1  0.94033044  0.11803600  0.98718411  1.0
  Ni  Ni133  1  0.94033044  0.45136933  0.98718411  1.0
  Ni  Ni134  1  0.94033044  0.78470267  0.98718411  1.0
  Ni  Ni135  1  0.05144156  0.11803600  0.93162856  1.0
  Ni  Ni136  1  0.05144156  0.45136933  0.93162856  1.0
  Ni  Ni137  1  0.05144156  0.78470267  0.93162856  1.0
  Ni  Ni138  1  0.38477489  0.11803600  0.93162856  1.0
  Ni  Ni139  1  0.38477489  0.45136933  0.93162856  1.0
  Ni  Ni140  1  0.38477489  0.78470267  0.93162856  1.0
  Ni  Ni141  1  0.71810822  0.11803600  0.93162856  1.0
  Ni  Ni142  1  0.71810822  0.45136933  0.93162856  1.0
  Ni  Ni143  1  0.71810822  0.78470267  0.93162856  1.0
  Ni  Ni144  1  0.32361044  0.06355833  0.91633744  1.0
  Ni  Ni145  1  0.32361044  0.39689167  0.91633744  1.0
  Ni  Ni146  1  0.32361044  0.73022500  0.91633744  1.0
  Ni  Ni147  1  0.65694378  0.06355833  0.91633744  1.0
  Ni  Ni148  1  0.65694378  0.39689167  0.91633744  1.0
  Ni  Ni149  1  0.65694378  0.73022500  0.91633744  1.0
  Ni  Ni150  1  0.99027711  0.06355833  0.91633744  1.0
  Ni  Ni151  1  0.99027711  0.39689167  0.91633744  1.0
  Ni  Ni152  1  0.99027711  0.73022500  0.91633744  1.0
  Ni  Ni153  1  0.21249933  0.06355833  0.97189300  1.0
  Ni  Ni154  1  0.21249933  0.39689167  0.97189300  1.0
  Ni  Ni155  1  0.21249933  0.73022500  0.97189300  1.0
  Ni  Ni156  1  0.54583267  0.06355833  0.97189300  1.0
  Ni  Ni157  1  0.54583267  0.39689167  0.97189300  1.0
  Ni  Ni158  1  0.54583267  0.73022500  0.97189300  1.0
  Ni  Ni159  1  0.87916600  0.06355833  0.97189300  1.0
  Ni  Ni160  1  0.87916600  0.39689167  0.97189300  1.0
  Ni  Ni161  1  0.87916600  0.73022500  0.97189300  1.0
  Ni  Ni162  1  0.23181289  0.23210933  0.93515022  1.0
  Ni  Ni163  1  0.23181289  0.56544267  0.93515022  1.0
  Ni  Ni164  1  0.23181289  0.89877600  0.93515022  1.0
  Ni  Ni165  1  0.56514622  0.23210933  0.93515022  1.0
  Ni  Ni166  1  0.56514622  0.56544267  0.93515022  1.0
  Ni  Ni167  1  0.56514622  0.89877600  0.93515022  1.0
  Ni  Ni168  1  0.89847956  0.23210933  0.93515022  1.0
  Ni  Ni169  1  0.89847956  0.56544267  0.93515022  1.0
  Ni  Ni170  1  0.89847956  0.89877600  0.93515022  1.0
  Ni  Ni171  1  0.12070178  0.23210933  0.99070578  1.0
  Ni  Ni172  1  0.12070178  0.56544267  0.99070578  1.0
  Ni  Ni173  1  0.12070178  0.89877600  0.99070578  1.0
  Ni  Ni174  1  0.45403511  0.23210933  0.99070578  1.0
  Ni  Ni175  1  0.45403511  0.56544267  0.99070578  1.0
  Ni  Ni176  1  0.45403511  0.89877600  0.99070578  1.0
  Ni  Ni177  1  0.78736844  0.23210933  0.99070578  1.0
  Ni  Ni178  1  0.78736844  0.56544267  0.99070578  1.0
  Ni  Ni179  1  0.78736844  0.89877600  0.99070578  1.0
  Ni  Ni180  1  0.21823556  0.11803600  0.93175589  1.0
  Ni  Ni181  1  0.21823556  0.45136933  0.93175589  1.0
  Ni  Ni182  1  0.21823556  0.78470267  0.93175589  1.0
  Ni  Ni183  1  0.55156889  0.11803600  0.93175589  1.0
  Ni  Ni184  1  0.55156889  0.45136933  0.93175589  1.0
  Ni  Ni185  1  0.55156889  0.78470267  0.93175589  1.0
  Ni  Ni186  1  0.88490222  0.11803600  0.93175589  1.0
  Ni  Ni187  1  0.88490222  0.45136933  0.93175589  1.0
  Ni  Ni188  1  0.88490222  0.78470267  0.93175589  1.0
  Ni  Ni189  1  0.10712444  0.11803600  0.98731144  1.0
  Ni  Ni190  1  0.10712444  0.45136933  0.98731144  1.0
  Ni  Ni191  1  0.10712444  0.78470267  0.98731144  1.0
  Ni  Ni192  1  0.44045778  0.11803600  0.98731144  1.0
  Ni  Ni193  1  0.44045778  0.45136933  0.98731144  1.0
  Ni  Ni194  1  0.44045778  0.78470267  0.98731144  1.0
  Ni  Ni195  1  0.77379111  0.11803600  0.98731144  1.0
  Ni  Ni196  1  0.77379111  0.45136933  0.98731144  1.0
  Ni  Ni197  1  0.77379111  0.78470267  0.98731144  1.0
  Ni  Ni198  1  0.28057978  0.00840600  0.94724644  1.0
  Ni  Ni199  1  0.28057978  0.34173933  0.94724644  1.0
  Ni  Ni200  1  0.28057978  0.67507267  0.94724644  1.0
  Ni  Ni201  1  0.61391311  0.00840600  0.94724644  1.0
  Ni  Ni202  1  0.61391311  0.34173933  0.94724644  1.0
  Ni  Ni203  1  0.61391311  0.67507267  0.94724644  1.0
  Ni  Ni204  1  0.94724644  0.00840600  0.94724644  1.0
  Ni  Ni205  1  0.94724644  0.34173933  0.94724644  1.0
  Ni  Ni206  1  0.94724644  0.67507267  0.94724644  1.0
  Ni  Ni207  1  0.05835756  0.00840600  0.89169089  1.0
  Ni  Ni208  1  0.05835756  0.34173933  0.89169089  1.0
  Ni  Ni209  1  0.05835756  0.67507267  0.89169089  1.0
  Ni  Ni210  1  0.39169089  0.00840600  0.89169089  1.0
  Ni  Ni211  1  0.39169089  0.34173933  0.89169089  1.0
  Ni  Ni212  1  0.39169089  0.67507267  0.89169089  1.0
  Ni  Ni213  1  0.72502422  0.00840600  0.89169089  1.0
  Ni  Ni214  1  0.72502422  0.34173933  0.89169089  1.0
  Ni  Ni215  1  0.72502422  0.67507267  0.89169089  1.0
  Ni  Ni216  1  0.22502422  0.00840600  0.97502422  1.0
  Ni  Ni217  1  0.22502422  0.34173933  0.97502422  1.0
  Ni  Ni218  1  0.22502422  0.67507267  0.97502422  1.0
  Ni  Ni219  1  0.55835756  0.00840600  0.97502422  1.0
  Ni  Ni220  1  0.55835756  0.34173933  0.97502422  1.0
  Ni  Ni221  1  0.55835756  0.67507267  0.97502422  1.0
  Ni  Ni222  1  0.89169089  0.00840600  0.97502422  1.0
  Ni  Ni223  1  0.89169089  0.34173933  0.97502422  1.0
  Ni  Ni224  1  0.89169089  0.67507267  0.97502422  1.0
  Ni  Ni225  1  0.00280200  0.00840600  0.91946867  1.0
  Ni  Ni226  1  0.00280200  0.34173933  0.91946867  1.0
  Ni  Ni227  1  0.00280200  0.67507267  0.91946867  1.0
  Ni  Ni228  1  0.33613533  0.00840600  0.91946867  1.0
  Ni  Ni229  1  0.33613533  0.34173933  0.91946867  1.0
  Ni  Ni230  1  0.33613533  0.67507267  0.91946867  1.0
  Ni  Ni231  1  0.66946867  0.00840600  0.91946867  1.0
  Ni  Ni232  1  0.66946867  0.34173933  0.91946867  1.0
  Ni  Ni233  1  0.66946867  0.67507267  0.91946867  1.0
  Ni  Ni234  1  0.00959067  0.23210933  0.96273700  1.0
  Ni  Ni235  1  0.00959067  0.56544267  0.96273700  1.0
  Ni  Ni236  1  0.00959067  0.89877600  0.96273700  1.0
  Ni  Ni237  1  0.34292400  0.23210933  0.96273700  1.0
  Ni  Ni238  1  0.34292400  0.56544267  0.96273700  1.0
  Ni  Ni239  1  0.34292400  0.89877600  0.96273700  1.0
  Ni  Ni240  1  0.67625733  0.23210933  0.96273700  1.0
  Ni  Ni241  1  0.67625733  0.56544267  0.96273700  1.0
  Ni  Ni242  1  0.67625733  0.89877600  0.96273700  1.0
  Ni  Ni243  1  0.12070178  0.23210933  0.90718144  1.0
  Ni  Ni244  1  0.12070178  0.56544267  0.90718144  1.0
  Ni  Ni245  1  0.12070178  0.89877600  0.90718144  1.0
  Ni  Ni246  1  0.45403511  0.23210933  0.90718144  1.0
  Ni  Ni247  1  0.45403511  0.56544267  0.90718144  1.0
  Ni  Ni248  1  0.45403511  0.89877600  0.90718144  1.0
  Ni  Ni249  1  0.78736844  0.23210933  0.90718144  1.0
  Ni  Ni250  1  0.78736844  0.56544267  0.90718144  1.0
  Ni  Ni251  1  0.78736844  0.89877600  0.90718144  1.0
  Ni  Ni252  1  0.12643800  0.28658700  0.86704433  1.0
  Ni  Ni253  1  0.12643800  0.61992033  0.86704433  1.0
  Ni  Ni254  1  0.12643800  0.95325367  0.86704433  1.0
  Ni  Ni255  1  0.45977133  0.28658700  0.86704433  1.0
  Ni  Ni256  1  0.45977133  0.61992033  0.86704433  1.0
  Ni  Ni257  1  0.45977133  0.95325367  0.86704433  1.0
  Ni  Ni258  1  0.79310467  0.28658700  0.86704433  1.0
  Ni  Ni259  1  0.79310467  0.61992033  0.86704433  1.0
  Ni  Ni260  1  0.79310467  0.95325367  0.86704433  1.0
  Ni  Ni261  1  0.23754911  0.28658700  0.81148878  1.0
  Ni  Ni262  1  0.23754911  0.61992033  0.81148878  1.0
  Ni  Ni263  1  0.23754911  0.95325367  0.81148878  1.0
  Ni  Ni264  1  0.57088244  0.28658700  0.81148878  1.0
  Ni  Ni265  1  0.57088244  0.61992033  0.81148878  1.0
  Ni  Ni266  1  0.57088244  0.95325367  0.81148878  1.0
  Ni  Ni267  1  0.90421578  0.28658700  0.81148878  1.0
  Ni  Ni268  1  0.90421578  0.61992033  0.81148878  1.0
  Ni  Ni269  1  0.90421578  0.95325367  0.81148878  1.0
  Ni  Ni270  1  0.16357311  0.28680767  0.79299478  1.0
  Ni  Ni271  1  0.16357311  0.62014100  0.79299478  1.0
  Ni  Ni272  1  0.16357311  0.95347433  0.79299478  1.0
  Ni  Ni273  1  0.49690644  0.28680767  0.79299478  1.0
  Ni  Ni274  1  0.49690644  0.62014100  0.79299478  1.0
  Ni  Ni275  1  0.49690644  0.95347433  0.79299478  1.0
  Ni  Ni276  1  0.83023978  0.28680767  0.79299478  1.0
  Ni  Ni277  1  0.83023978  0.62014100  0.79299478  1.0
  Ni  Ni278  1  0.83023978  0.95347433  0.79299478  1.0
  Ni  Ni279  1  0.05246200  0.28680767  0.84855033  1.0
  Ni  Ni280  1  0.05246200  0.62014100  0.84855033  1.0
  Ni  Ni281  1  0.05246200  0.95347433  0.84855033  1.0
  Ni  Ni282  1  0.38579533  0.28680767  0.84855033  1.0
  Ni  Ni283  1  0.38579533  0.62014100  0.84855033  1.0
  Ni  Ni284  1  0.38579533  0.95347433  0.84855033  1.0
  Ni  Ni285  1  0.71912867  0.28680767  0.84855033  1.0
  Ni  Ni286  1  0.71912867  0.62014100  0.84855033  1.0
  Ni  Ni287  1  0.71912867  0.95347433  0.84855033  1.0
  Ni  Ni288  1  0.21823556  0.11803600  0.84823156  1.0
  Ni  Ni289  1  0.21823556  0.45136933  0.84823156  1.0
  Ni  Ni290  1  0.21823556  0.78470267  0.84823156  1.0
  Ni  Ni291  1  0.55156889  0.11803600  0.84823156  1.0
  Ni  Ni292  1  0.55156889  0.45136933  0.84823156  1.0
  Ni  Ni293  1  0.55156889  0.78470267  0.84823156  1.0
  Ni  Ni294  1  0.88490222  0.11803600  0.84823156  1.0
  Ni  Ni295  1  0.88490222  0.45136933  0.84823156  1.0
  Ni  Ni296  1  0.88490222  0.78470267  0.84823156  1.0
  Ni  Ni297  1  0.32934667  0.11803600  0.79267600  1.0
  Ni  Ni298  1  0.32934667  0.45136933  0.79267600  1.0
  Ni  Ni299  1  0.32934667  0.78470267  0.79267600  1.0
  Ni  Ni300  1  0.66268000  0.11803600  0.79267600  1.0
  Ni  Ni301  1  0.66268000  0.45136933  0.79267600  1.0
  Ni  Ni302  1  0.66268000  0.78470267  0.79267600  1.0
  Ni  Ni303  1  0.99601333  0.11803600  0.79267600  1.0
  Ni  Ni304  1  0.99601333  0.45136933  0.79267600  1.0
  Ni  Ni305  1  0.99601333  0.78470267  0.79267600  1.0
  Ni  Ni306  1  0.17536422  0.06333767  0.87927589  1.0
  Ni  Ni307  1  0.17536422  0.39667100  0.87927589  1.0
  Ni  Ni308  1  0.17536422  0.73000433  0.87927589  1.0
  Ni  Ni309  1  0.50869756  0.06333767  0.87927589  1.0
  Ni  Ni310  1  0.50869756  0.39667100  0.87927589  1.0
  Ni  Ni311  1  0.50869756  0.73000433  0.87927589  1.0
  Ni  Ni312  1  0.84203089  0.06333767  0.87927589  1.0
  Ni  Ni313  1  0.84203089  0.39667100  0.87927589  1.0
  Ni  Ni314  1  0.84203089  0.73000433  0.87927589  1.0
  Ni  Ni315  1  0.28647533  0.06333767  0.82372033  1.0
  Ni  Ni316  1  0.28647533  0.39667100  0.82372033  1.0
  Ni  Ni317  1  0.28647533  0.73000433  0.82372033  1.0
  Ni  Ni318  1  0.61980867  0.06333767  0.82372033  1.0
  Ni  Ni319  1  0.61980867  0.39667100  0.82372033  1.0
  Ni  Ni320  1  0.61980867  0.73000433  0.82372033  1.0
  Ni  Ni321  1  0.95314200  0.06333767  0.82372033  1.0
  Ni  Ni322  1  0.95314200  0.39667100  0.82372033  1.0
  Ni  Ni323  1  0.95314200  0.73000433  0.82372033  1.0
  Ni  Ni324  1  0.05835756  0.00840600  0.80835756  1.0
  Ni  Ni325  1  0.05835756  0.34173933  0.80835756  1.0
  Ni  Ni326  1  0.05835756  0.67507267  0.80835756  1.0
  Ni  Ni327  1  0.39169089  0.00840600  0.80835756  1.0
  Ni  Ni328  1  0.39169089  0.34173933  0.80835756  1.0
  Ni  Ni329  1  0.39169089  0.67507267  0.80835756  1.0
  Ni  Ni330  1  0.72502422  0.00840600  0.80835756  1.0
  Ni  Ni331  1  0.72502422  0.34173933  0.80835756  1.0
  Ni  Ni332  1  0.72502422  0.67507267  0.80835756  1.0
  Ni  Ni333  1  0.28057978  0.00840600  0.86391311  1.0
  Ni  Ni334  1  0.28057978  0.34173933  0.86391311  1.0
  Ni  Ni335  1  0.28057978  0.67507267  0.86391311  1.0
  Ni  Ni336  1  0.61391311  0.00840600  0.86391311  1.0
  Ni  Ni337  1  0.61391311  0.34173933  0.86391311  1.0
  Ni  Ni338  1  0.61391311  0.67507267  0.86391311  1.0
  Ni  Ni339  1  0.94724644  0.00840600  0.86391311  1.0
  Ni  Ni340  1  0.94724644  0.34173933  0.86391311  1.0
  Ni  Ni341  1  0.94724644  0.67507267  0.86391311  1.0
  Ni  Ni342  1  0.17638467  0.23210933  0.79619767  1.0
  Ni  Ni343  1  0.17638467  0.56544267  0.79619767  1.0
  Ni  Ni344  1  0.17638467  0.89877600  0.79619767  1.0
  Ni  Ni345  1  0.50971800  0.23210933  0.79619767  1.0
  Ni  Ni346  1  0.50971800  0.56544267  0.79619767  1.0
  Ni  Ni347  1  0.50971800  0.89877600  0.79619767  1.0
  Ni  Ni348  1  0.84305133  0.23210933  0.79619767  1.0
  Ni  Ni349  1  0.84305133  0.56544267  0.79619767  1.0
  Ni  Ni350  1  0.84305133  0.89877600  0.79619767  1.0
  Ni  Ni351  1  0.06527356  0.23210933  0.85175322  1.0
  Ni  Ni352  1  0.06527356  0.56544267  0.85175322  1.0
  Ni  Ni353  1  0.06527356  0.89877600  0.85175322  1.0
  Ni  Ni354  1  0.39860689  0.23210933  0.85175322  1.0
  Ni  Ni355  1  0.39860689  0.56544267  0.85175322  1.0
  Ni  Ni356  1  0.39860689  0.89877600  0.85175322  1.0
  Ni  Ni357  1  0.73194022  0.23210933  0.85175322  1.0
  Ni  Ni358  1  0.73194022  0.56544267  0.85175322  1.0
  Ni  Ni359  1  0.73194022  0.89877600  0.85175322  1.0
  Ni  Ni360  1  0.11391311  0.17507267  0.78057978  1.0
  Ni  Ni361  1  0.11391311  0.50840600  0.78057978  1.0
  Ni  Ni362  1  0.11391311  0.84173933  0.78057978  1.0
  Ni  Ni363  1  0.44724644  0.17507267  0.78057978  1.0
  Ni  Ni364  1  0.44724644  0.50840600  0.78057978  1.0
  Ni  Ni365  1  0.44724644  0.84173933  0.78057978  1.0
  Ni  Ni366  1  0.78057978  0.17507267  0.78057978  1.0
  Ni  Ni367  1  0.78057978  0.50840600  0.78057978  1.0
  Ni  Ni368  1  0.78057978  0.84173933  0.78057978  1.0
  Ni  Ni369  1  0.00280200  0.17507267  0.83613533  1.0
  Ni  Ni370  1  0.00280200  0.50840600  0.83613533  1.0
  Ni  Ni371  1  0.00280200  0.84173933  0.83613533  1.0
  Ni  Ni372  1  0.33613533  0.17507267  0.83613533  1.0
  Ni  Ni373  1  0.33613533  0.50840600  0.83613533  1.0
  Ni  Ni374  1  0.33613533  0.84173933  0.83613533  1.0
  Ni  Ni375  1  0.66946867  0.17507267  0.83613533  1.0
  Ni  Ni376  1  0.66946867  0.50840600  0.83613533  1.0
  Ni  Ni377  1  0.66946867  0.84173933  0.83613533  1.0
  Ni  Ni378  1  0.16255267  0.11803600  0.87607300  1.0
  Ni  Ni379  1  0.16255267  0.45136933  0.87607300  1.0
  Ni  Ni380  1  0.16255267  0.78470267  0.87607300  1.0
  Ni  Ni381  1  0.49588600  0.11803600  0.87607300  1.0
  Ni  Ni382  1  0.49588600  0.45136933  0.87607300  1.0
  Ni  Ni383  1  0.49588600  0.78470267  0.87607300  1.0
  Ni  Ni384  1  0.82921933  0.11803600  0.87607300  1.0
  Ni  Ni385  1  0.82921933  0.45136933  0.87607300  1.0
  Ni  Ni386  1  0.82921933  0.78470267  0.87607300  1.0
  Ni  Ni387  1  0.27366378  0.11803600  0.82051744  1.0
  Ni  Ni388  1  0.27366378  0.45136933  0.82051744  1.0
  Ni  Ni389  1  0.27366378  0.78470267  0.82051744  1.0
  Ni  Ni390  1  0.60699711  0.11803600  0.82051744  1.0
  Ni  Ni391  1  0.60699711  0.45136933  0.82051744  1.0
  Ni  Ni392  1  0.60699711  0.78470267  0.82051744  1.0
  Ni  Ni393  1  0.94033044  0.11803600  0.82051744  1.0
  Ni  Ni394  1  0.94033044  0.45136933  0.82051744  1.0
  Ni  Ni395  1  0.94033044  0.78470267  0.82051744  1.0
  Ni  Ni396  1  0.21249933  0.06355833  0.80522633  1.0
  Ni  Ni397  1  0.21249933  0.39689167  0.80522633  1.0
  Ni  Ni398  1  0.21249933  0.73022500  0.80522633  1.0
  Ni  Ni399  1  0.54583267  0.06355833  0.80522633  1.0
  Ni  Ni400  1  0.54583267  0.39689167  0.80522633  1.0
  Ni  Ni401  1  0.54583267  0.73022500  0.80522633  1.0
  Ni  Ni402  1  0.87916600  0.06355833  0.80522633  1.0
  Ni  Ni403  1  0.87916600  0.39689167  0.80522633  1.0
  Ni  Ni404  1  0.87916600  0.73022500  0.80522633  1.0
  Ni  Ni405  1  0.10138822  0.06355833  0.86078189  1.0
  Ni  Ni406  1  0.10138822  0.39689167  0.86078189  1.0
  Ni  Ni407  1  0.10138822  0.73022500  0.86078189  1.0
  Ni  Ni408  1  0.43472156  0.06355833  0.86078189  1.0
  Ni  Ni409  1  0.43472156  0.39689167  0.86078189  1.0
  Ni  Ni410  1  0.43472156  0.73022500  0.86078189  1.0
  Ni  Ni411  1  0.76805489  0.06355833  0.86078189  1.0
  Ni  Ni412  1  0.76805489  0.39689167  0.86078189  1.0
  Ni  Ni413  1  0.76805489  0.73022500  0.86078189  1.0
  Ni  Ni414  1  0.12070178  0.23210933  0.82403911  1.0
  Ni  Ni415  1  0.12070178  0.56544267  0.82403911  1.0
  Ni  Ni416  1  0.12070178  0.89877600  0.82403911  1.0
  Ni  Ni417  1  0.45403511  0.23210933  0.82403911  1.0
  Ni  Ni418  1  0.45403511  0.56544267  0.82403911  1.0
  Ni  Ni419  1  0.45403511  0.89877600  0.82403911  1.0
  Ni  Ni420  1  0.78736844  0.23210933  0.82403911  1.0
  Ni  Ni421  1  0.78736844  0.56544267  0.82403911  1.0
  Ni  Ni422  1  0.78736844  0.89877600  0.82403911  1.0
  Ni  Ni423  1  0.00959067  0.23210933  0.87959467  1.0
  Ni  Ni424  1  0.00959067  0.56544267  0.87959467  1.0
  Ni  Ni425  1  0.00959067  0.89877600  0.87959467  1.0
  Ni  Ni426  1  0.34292400  0.23210933  0.87959467  1.0
  Ni  Ni427  1  0.34292400  0.56544267  0.87959467  1.0
  Ni  Ni428  1  0.34292400  0.89877600  0.87959467  1.0
  Ni  Ni429  1  0.67625733  0.23210933  0.87959467  1.0
  Ni  Ni430  1  0.67625733  0.56544267  0.87959467  1.0
  Ni  Ni431  1  0.67625733  0.89877600  0.87959467  1.0
  Ni  Ni432  1  0.10712444  0.11803600  0.82064478  1.0
  Ni  Ni433  1  0.10712444  0.45136933  0.82064478  1.0
  Ni  Ni434  1  0.10712444  0.78470267  0.82064478  1.0
  Ni  Ni435  1  0.44045778  0.11803600  0.82064478  1.0
  Ni  Ni436  1  0.44045778  0.45136933  0.82064478  1.0
  Ni  Ni437  1  0.44045778  0.78470267  0.82064478  1.0
  Ni  Ni438  1  0.77379111  0.11803600  0.82064478  1.0
  Ni  Ni439  1  0.77379111  0.45136933  0.82064478  1.0
  Ni  Ni440  1  0.77379111  0.78470267  0.82064478  1.0
  Ni  Ni441  1  0.32934667  0.11803600  0.87620033  1.0
  Ni  Ni442  1  0.32934667  0.45136933  0.87620033  1.0
  Ni  Ni443  1  0.32934667  0.78470267  0.87620033  1.0
  Ni  Ni444  1  0.66268000  0.11803600  0.87620033  1.0
  Ni  Ni445  1  0.66268000  0.45136933  0.87620033  1.0
  Ni  Ni446  1  0.66268000  0.78470267  0.87620033  1.0
  Ni  Ni447  1  0.99601333  0.11803600  0.87620033  1.0
  Ni  Ni448  1  0.99601333  0.45136933  0.87620033  1.0
  Ni  Ni449  1  0.99601333  0.78470267  0.87620033  1.0
  Ni  Ni450  1  0.16946867  0.00840600  0.83613533  1.0
  Ni  Ni451  1  0.16946867  0.34173933  0.83613533  1.0
  Ni  Ni452  1  0.16946867  0.67507267  0.83613533  1.0
  Ni  Ni453  1  0.50280200  0.00840600  0.83613533  1.0
  Ni  Ni454  1  0.50280200  0.34173933  0.83613533  1.0
  Ni  Ni455  1  0.50280200  0.67507267  0.83613533  1.0
  Ni  Ni456  1  0.83613533  0.00840600  0.83613533  1.0
  Ni  Ni457  1  0.83613533  0.34173933  0.83613533  1.0
  Ni  Ni458  1  0.83613533  0.67507267  0.83613533  1.0
  Ni  Ni459  1  0.28057978  0.00840600  0.78057978  1.0
  Ni  Ni460  1  0.28057978  0.34173933  0.78057978  1.0
  Ni  Ni461  1  0.28057978  0.67507267  0.78057978  1.0
  Ni  Ni462  1  0.61391311  0.00840600  0.78057978  1.0
  Ni  Ni463  1  0.61391311  0.34173933  0.78057978  1.0
  Ni  Ni464  1  0.61391311  0.67507267  0.78057978  1.0
  Ni  Ni465  1  0.94724644  0.00840600  0.78057978  1.0
  Ni  Ni466  1  0.94724644  0.34173933  0.78057978  1.0
  Ni  Ni467  1  0.94724644  0.67507267  0.78057978  1.0
  Ni  Ni468  1  0.11391311  0.00840600  0.86391311  1.0
  Ni  Ni469  1  0.11391311  0.34173933  0.86391311  1.0
  Ni  Ni470  1  0.11391311  0.67507267  0.86391311  1.0
  Ni  Ni471  1  0.44724644  0.00840600  0.86391311  1.0
  Ni  Ni472  1  0.44724644  0.34173933  0.86391311  1.0
  Ni  Ni473  1  0.44724644  0.67507267  0.86391311  1.0
  Ni  Ni474  1  0.78057978  0.00840600  0.86391311  1.0
  Ni  Ni475  1  0.78057978  0.34173933  0.86391311  1.0
  Ni  Ni476  1  0.78057978  0.67507267  0.86391311  1.0
  Ni  Ni477  1  0.22502422  0.00840600  0.80835756  1.0
  Ni  Ni478  1  0.22502422  0.34173933  0.80835756  1.0
  Ni  Ni479  1  0.22502422  0.67507267  0.80835756  1.0
  Ni  Ni480  1  0.55835756  0.00840600  0.80835756  1.0
  Ni  Ni481  1  0.55835756  0.34173933  0.80835756  1.0
  Ni  Ni482  1  0.55835756  0.67507267  0.80835756  1.0
  Ni  Ni483  1  0.89169089  0.00840600  0.80835756  1.0
  Ni  Ni484  1  0.89169089  0.34173933  0.80835756  1.0
  Ni  Ni485  1  0.89169089  0.67507267  0.80835756  1.0
  Ni  Ni486  1  0.23181289  0.23210933  0.85162589  1.0
  Ni  Ni487  1  0.23181289  0.56544267  0.85162589  1.0
  Ni  Ni488  1  0.23181289  0.89877600  0.85162589  1.0
  Ni  Ni489  1  0.56514622  0.23210933  0.85162589  1.0
  Ni  Ni490  1  0.56514622  0.56544267  0.85162589  1.0
  Ni  Ni491  1  0.56514622  0.89877600  0.85162589  1.0
  Ni  Ni492  1  0.89847956  0.23210933  0.85162589  1.0
  Ni  Ni493  1  0.89847956  0.56544267  0.85162589  1.0
  Ni  Ni494  1  0.89847956  0.89877600  0.85162589  1.0
  Ni  Ni495  1  0.00959067  0.23210933  0.79607033  1.0
  Ni  Ni496  1  0.00959067  0.56544267  0.79607033  1.0
  Ni  Ni497  1  0.00959067  0.89877600  0.79607033  1.0
  Ni  Ni498  1  0.34292400  0.23210933  0.79607033  1.0
  Ni  Ni499  1  0.34292400  0.56544267  0.79607033  1.0
  Ni  Ni500  1  0.34292400  0.89877600  0.79607033  1.0
  Ni  Ni501  1  0.67625733  0.23210933  0.79607033  1.0
  Ni  Ni502  1  0.67625733  0.56544267  0.79607033  1.0
  Ni  Ni503  1  0.67625733  0.89877600  0.79607033  1.0
  Ni  Ni504  1  0.01532689  0.28658700  0.75593322  1.0
  Ni  Ni505  1  0.01532689  0.61992033  0.75593322  1.0
  Ni  Ni506  1  0.01532689  0.95325367  0.75593322  1.0
  Ni  Ni507  1  0.34866022  0.28658700  0.75593322  1.0
  Ni  Ni508  1  0.34866022  0.61992033  0.75593322  1.0
  Ni  Ni509  1  0.34866022  0.95325367  0.75593322  1.0
  Ni  Ni510  1  0.68199356  0.28658700  0.75593322  1.0
  Ni  Ni511  1  0.68199356  0.61992033  0.75593322  1.0
  Ni  Ni512  1  0.68199356  0.95325367  0.75593322  1.0
  Ni  Ni513  1  0.12643800  0.28658700  0.70037767  1.0
  Ni  Ni514  1  0.12643800  0.61992033  0.70037767  1.0
  Ni  Ni515  1  0.12643800  0.95325367  0.70037767  1.0
  Ni  Ni516  1  0.45977133  0.28658700  0.70037767  1.0
  Ni  Ni517  1  0.45977133  0.61992033  0.70037767  1.0
  Ni  Ni518  1  0.45977133  0.95325367  0.70037767  1.0
  Ni  Ni519  1  0.79310467  0.28658700  0.70037767  1.0
  Ni  Ni520  1  0.79310467  0.61992033  0.70037767  1.0
  Ni  Ni521  1  0.79310467  0.95325367  0.70037767  1.0
  Ni  Ni522  1  0.05246200  0.28680767  0.68188367  1.0
  Ni  Ni523  1  0.05246200  0.62014100  0.68188367  1.0
  Ni  Ni524  1  0.05246200  0.95347433  0.68188367  1.0
  Ni  Ni525  1  0.38579533  0.28680767  0.68188367  1.0
  Ni  Ni526  1  0.38579533  0.62014100  0.68188367  1.0
  Ni  Ni527  1  0.38579533  0.95347433  0.68188367  1.0
  Ni  Ni528  1  0.71912867  0.28680767  0.68188367  1.0
  Ni  Ni529  1  0.71912867  0.62014100  0.68188367  1.0
  Ni  Ni530  1  0.71912867  0.95347433  0.68188367  1.0
  Ni  Ni531  1  0.27468422  0.28680767  0.73743922  1.0
  Ni  Ni532  1  0.27468422  0.62014100  0.73743922  1.0
  Ni  Ni533  1  0.27468422  0.95347433  0.73743922  1.0
  Ni  Ni534  1  0.60801756  0.28680767  0.73743922  1.0
  Ni  Ni535  1  0.60801756  0.62014100  0.73743922  1.0
  Ni  Ni536  1  0.60801756  0.95347433  0.73743922  1.0
  Ni  Ni537  1  0.94135089  0.28680767  0.73743922  1.0
  Ni  Ni538  1  0.94135089  0.62014100  0.73743922  1.0
  Ni  Ni539  1  0.94135089  0.95347433  0.73743922  1.0
  Ni  Ni540  1  0.10712444  0.11803600  0.73712044  1.0
  Ni  Ni541  1  0.10712444  0.45136933  0.73712044  1.0
  Ni  Ni542  1  0.10712444  0.78470267  0.73712044  1.0
  Ni  Ni543  1  0.44045778  0.11803600  0.73712044  1.0
  Ni  Ni544  1  0.44045778  0.45136933  0.73712044  1.0
  Ni  Ni545  1  0.44045778  0.78470267  0.73712044  1.0
  Ni  Ni546  1  0.77379111  0.11803600  0.73712044  1.0
  Ni  Ni547  1  0.77379111  0.45136933  0.73712044  1.0
  Ni  Ni548  1  0.77379111  0.78470267  0.73712044  1.0
  Ni  Ni549  1  0.21823556  0.11803600  0.68156489  1.0
  Ni  Ni550  1  0.21823556  0.45136933  0.68156489  1.0
  Ni  Ni551  1  0.21823556  0.78470267  0.68156489  1.0
  Ni  Ni552  1  0.55156889  0.11803600  0.68156489  1.0
  Ni  Ni553  1  0.55156889  0.45136933  0.68156489  1.0
  Ni  Ni554  1  0.55156889  0.78470267  0.68156489  1.0
  Ni  Ni555  1  0.88490222  0.11803600  0.68156489  1.0
  Ni  Ni556  1  0.88490222  0.45136933  0.68156489  1.0
  Ni  Ni557  1  0.88490222  0.78470267  0.68156489  1.0
  Ni  Ni558  1  0.06425311  0.06333767  0.76816478  1.0
  Ni  Ni559  1  0.06425311  0.39667100  0.76816478  1.0
  Ni  Ni560  1  0.06425311  0.73000433  0.76816478  1.0
  Ni  Ni561  1  0.39758644  0.06333767  0.76816478  1.0
  Ni  Ni562  1  0.39758644  0.39667100  0.76816478  1.0
  Ni  Ni563  1  0.39758644  0.73000433  0.76816478  1.0
  Ni  Ni564  1  0.73091978  0.06333767  0.76816478  1.0
  Ni  Ni565  1  0.73091978  0.39667100  0.76816478  1.0
  Ni  Ni566  1  0.73091978  0.73000433  0.76816478  1.0
  Ni  Ni567  1  0.17536422  0.06333767  0.71260922  1.0
  Ni  Ni568  1  0.17536422  0.39667100  0.71260922  1.0
  Ni  Ni569  1  0.17536422  0.73000433  0.71260922  1.0
  Ni  Ni570  1  0.50869756  0.06333767  0.71260922  1.0
  Ni  Ni571  1  0.50869756  0.39667100  0.71260922  1.0
  Ni  Ni572  1  0.50869756  0.73000433  0.71260922  1.0
  Ni  Ni573  1  0.84203089  0.06333767  0.71260922  1.0
  Ni  Ni574  1  0.84203089  0.39667100  0.71260922  1.0
  Ni  Ni575  1  0.84203089  0.73000433  0.71260922  1.0
  Ni  Ni576  1  0.28057978  0.00840600  0.69724644  1.0
  Ni  Ni577  1  0.28057978  0.34173933  0.69724644  1.0
  Ni  Ni578  1  0.28057978  0.67507267  0.69724644  1.0
  Ni  Ni579  1  0.61391311  0.00840600  0.69724644  1.0
  Ni  Ni580  1  0.61391311  0.34173933  0.69724644  1.0
  Ni  Ni581  1  0.61391311  0.67507267  0.69724644  1.0
  Ni  Ni582  1  0.94724644  0.00840600  0.69724644  1.0
  Ni  Ni583  1  0.94724644  0.34173933  0.69724644  1.0
  Ni  Ni584  1  0.94724644  0.67507267  0.69724644  1.0
  Ni  Ni585  1  0.16946867  0.00840600  0.75280200  1.0
  Ni  Ni586  1  0.16946867  0.34173933  0.75280200  1.0
  Ni  Ni587  1  0.16946867  0.67507267  0.75280200  1.0
  Ni  Ni588  1  0.50280200  0.00840600  0.75280200  1.0
  Ni  Ni589  1  0.50280200  0.34173933  0.75280200  1.0
  Ni  Ni590  1  0.50280200  0.67507267  0.75280200  1.0
  Ni  Ni591  1  0.83613533  0.00840600  0.75280200  1.0
  Ni  Ni592  1  0.83613533  0.34173933  0.75280200  1.0
  Ni  Ni593  1  0.83613533  0.67507267  0.75280200  1.0
  Ni  Ni594  1  0.06527356  0.23210933  0.68508656  1.0
  Ni  Ni595  1  0.06527356  0.56544267  0.68508656  1.0
  Ni  Ni596  1  0.06527356  0.89877600  0.68508656  1.0
  Ni  Ni597  1  0.39860689  0.23210933  0.68508656  1.0
  Ni  Ni598  1  0.39860689  0.56544267  0.68508656  1.0
  Ni  Ni599  1  0.39860689  0.89877600  0.68508656  1.0
  Ni  Ni600  1  0.73194022  0.23210933  0.68508656  1.0
  Ni  Ni601  1  0.73194022  0.56544267  0.68508656  1.0
  Ni  Ni602  1  0.73194022  0.89877600  0.68508656  1.0
  Ni  Ni603  1  0.28749578  0.23210933  0.74064211  1.0
  Ni  Ni604  1  0.28749578  0.56544267  0.74064211  1.0
  Ni  Ni605  1  0.28749578  0.89877600  0.74064211  1.0
  Ni  Ni606  1  0.62082911  0.23210933  0.74064211  1.0
  Ni  Ni607  1  0.62082911  0.56544267  0.74064211  1.0
  Ni  Ni608  1  0.62082911  0.89877600  0.74064211  1.0
  Ni  Ni609  1  0.95416244  0.23210933  0.74064211  1.0
  Ni  Ni610  1  0.95416244  0.56544267  0.74064211  1.0
  Ni  Ni611  1  0.95416244  0.89877600  0.74064211  1.0
  Ni  Ni612  1  0.00280200  0.17507267  0.66946867  1.0
  Ni  Ni613  1  0.00280200  0.50840600  0.66946867  1.0
  Ni  Ni614  1  0.00280200  0.84173933  0.66946867  1.0
  Ni  Ni615  1  0.33613533  0.17507267  0.66946867  1.0
  Ni  Ni616  1  0.33613533  0.50840600  0.66946867  1.0
  Ni  Ni617  1  0.33613533  0.84173933  0.66946867  1.0
  Ni  Ni618  1  0.66946867  0.17507267  0.66946867  1.0
  Ni  Ni619  1  0.66946867  0.50840600  0.66946867  1.0
  Ni  Ni620  1  0.66946867  0.84173933  0.66946867  1.0
  Ni  Ni621  1  0.22502422  0.17507267  0.72502422  1.0
  Ni  Ni622  1  0.22502422  0.50840600  0.72502422  1.0
  Ni  Ni623  1  0.22502422  0.84173933  0.72502422  1.0
  Ni  Ni624  1  0.55835756  0.17507267  0.72502422  1.0
  Ni  Ni625  1  0.55835756  0.50840600  0.72502422  1.0
  Ni  Ni626  1  0.55835756  0.84173933  0.72502422  1.0
  Ni  Ni627  1  0.89169089  0.17507267  0.72502422  1.0
  Ni  Ni628  1  0.89169089  0.50840600  0.72502422  1.0
  Ni  Ni629  1  0.89169089  0.84173933  0.72502422  1.0
  Ni  Ni630  1  0.05144156  0.11803600  0.76496189  1.0
  Ni  Ni631  1  0.05144156  0.45136933  0.76496189  1.0
  Ni  Ni632  1  0.05144156  0.78470267  0.76496189  1.0
  Ni  Ni633  1  0.38477489  0.11803600  0.76496189  1.0
  Ni  Ni634  1  0.38477489  0.45136933  0.76496189  1.0
  Ni  Ni635  1  0.38477489  0.78470267  0.76496189  1.0
  Ni  Ni636  1  0.71810822  0.11803600  0.76496189  1.0
  Ni  Ni637  1  0.71810822  0.45136933  0.76496189  1.0
  Ni  Ni638  1  0.71810822  0.78470267  0.76496189  1.0
  Ni  Ni639  1  0.16255267  0.11803600  0.70940633  1.0
  Ni  Ni640  1  0.16255267  0.45136933  0.70940633  1.0
  Ni  Ni641  1  0.16255267  0.78470267  0.70940633  1.0
  Ni  Ni642  1  0.49588600  0.11803600  0.70940633  1.0
  Ni  Ni643  1  0.49588600  0.45136933  0.70940633  1.0
  Ni  Ni644  1  0.49588600  0.78470267  0.70940633  1.0
  Ni  Ni645  1  0.82921933  0.11803600  0.70940633  1.0
  Ni  Ni646  1  0.82921933  0.45136933  0.70940633  1.0
  Ni  Ni647  1  0.82921933  0.78470267  0.70940633  1.0
  Ni  Ni648  1  0.10138822  0.06355833  0.69411522  1.0
  Ni  Ni649  1  0.10138822  0.39689167  0.69411522  1.0
  Ni  Ni650  1  0.10138822  0.73022500  0.69411522  1.0
  Ni  Ni651  1  0.43472156  0.06355833  0.69411522  1.0
  Ni  Ni652  1  0.43472156  0.39689167  0.69411522  1.0
  Ni  Ni653  1  0.43472156  0.73022500  0.69411522  1.0
  Ni  Ni654  1  0.76805489  0.06355833  0.69411522  1.0
  Ni  Ni655  1  0.76805489  0.39689167  0.69411522  1.0
  Ni  Ni656  1  0.76805489  0.73022500  0.69411522  1.0
  Ni  Ni657  1  0.32361044  0.06355833  0.74967078  1.0
  Ni  Ni658  1  0.32361044  0.39689167  0.74967078  1.0
  Ni  Ni659  1  0.32361044  0.73022500  0.74967078  1.0
  Ni  Ni660  1  0.65694378  0.06355833  0.74967078  1.0
  Ni  Ni661  1  0.65694378  0.39689167  0.74967078  1.0
  Ni  Ni662  1  0.65694378  0.73022500  0.74967078  1.0
  Ni  Ni663  1  0.99027711  0.06355833  0.74967078  1.0
  Ni  Ni664  1  0.99027711  0.39689167  0.74967078  1.0
  Ni  Ni665  1  0.99027711  0.73022500  0.74967078  1.0
  Ni  Ni666  1  0.00959067  0.23210933  0.71292800  1.0
  Ni  Ni667  1  0.00959067  0.56544267  0.71292800  1.0
  Ni  Ni668  1  0.00959067  0.89877600  0.71292800  1.0
  Ni  Ni669  1  0.34292400  0.23210933  0.71292800  1.0
  Ni  Ni670  1  0.34292400  0.56544267  0.71292800  1.0
  Ni  Ni671  1  0.34292400  0.89877600  0.71292800  1.0
  Ni  Ni672  1  0.67625733  0.23210933  0.71292800  1.0
  Ni  Ni673  1  0.67625733  0.56544267  0.71292800  1.0
  Ni  Ni674  1  0.67625733  0.89877600  0.71292800  1.0
  Ni  Ni675  1  0.23181289  0.23210933  0.76848356  1.0
  Ni  Ni676  1  0.23181289  0.56544267  0.76848356  1.0
  Ni  Ni677  1  0.23181289  0.89877600  0.76848356  1.0
  Ni  Ni678  1  0.56514622  0.23210933  0.76848356  1.0
  Ni  Ni679  1  0.56514622  0.56544267  0.76848356  1.0
  Ni  Ni680  1  0.56514622  0.89877600  0.76848356  1.0
  Ni  Ni681  1  0.89847956  0.23210933  0.76848356  1.0
  Ni  Ni682  1  0.89847956  0.56544267  0.76848356  1.0
  Ni  Ni683  1  0.89847956  0.89877600  0.76848356  1.0
  Ni  Ni684  1  0.32934667  0.11803600  0.70953367  1.0
  Ni  Ni685  1  0.32934667  0.45136933  0.70953367  1.0
  Ni  Ni686  1  0.32934667  0.78470267  0.70953367  1.0
  Ni  Ni687  1  0.66268000  0.11803600  0.70953367  1.0
  Ni  Ni688  1  0.66268000  0.45136933  0.70953367  1.0
  Ni  Ni689  1  0.66268000  0.78470267  0.70953367  1.0
  Ni  Ni690  1  0.99601333  0.11803600  0.70953367  1.0
  Ni  Ni691  1  0.99601333  0.45136933  0.70953367  1.0
  Ni  Ni692  1  0.99601333  0.78470267  0.70953367  1.0
  Ni  Ni693  1  0.21823556  0.11803600  0.76508922  1.0
  Ni  Ni694  1  0.21823556  0.45136933  0.76508922  1.0
  Ni  Ni695  1  0.21823556  0.78470267  0.76508922  1.0
  Ni  Ni696  1  0.55156889  0.11803600  0.76508922  1.0
  Ni  Ni697  1  0.55156889  0.45136933  0.76508922  1.0
  Ni  Ni698  1  0.55156889  0.78470267  0.76508922  1.0
  Ni  Ni699  1  0.88490222  0.11803600  0.76508922  1.0
  Ni  Ni700  1  0.88490222  0.45136933  0.76508922  1.0
  Ni  Ni701  1  0.88490222  0.78470267  0.76508922  1.0
  Ni  Ni702  1  0.05835756  0.00840600  0.72502422  1.0
  Ni  Ni703  1  0.05835756  0.34173933  0.72502422  1.0
  Ni  Ni704  1  0.05835756  0.67507267  0.72502422  1.0
  Ni  Ni705  1  0.39169089  0.00840600  0.72502422  1.0
  Ni  Ni706  1  0.39169089  0.34173933  0.72502422  1.0
  Ni  Ni707  1  0.39169089  0.67507267  0.72502422  1.0
  Ni  Ni708  1  0.72502422  0.00840600  0.72502422  1.0
  Ni  Ni709  1  0.72502422  0.34173933  0.72502422  1.0
  Ni  Ni710  1  0.72502422  0.67507267  0.72502422  1.0
  Ni  Ni711  1  0.16946867  0.00840600  0.66946867  1.0
  Ni  Ni712  1  0.16946867  0.34173933  0.66946867  1.0
  Ni  Ni713  1  0.16946867  0.67507267  0.66946867  1.0
  Ni  Ni714  1  0.50280200  0.00840600  0.66946867  1.0
  Ni  Ni715  1  0.50280200  0.34173933  0.66946867  1.0
  Ni  Ni716  1  0.50280200  0.67507267  0.66946867  1.0
  Ni  Ni717  1  0.83613533  0.00840600  0.66946867  1.0
  Ni  Ni718  1  0.83613533  0.34173933  0.66946867  1.0
  Ni  Ni719  1  0.83613533  0.67507267  0.66946867  1.0
  Ni  Ni720  1  0.00280200  0.00840600  0.75280200  1.0
  Ni  Ni721  1  0.00280200  0.34173933  0.75280200  1.0
  Ni  Ni722  1  0.00280200  0.67507267  0.75280200  1.0
  Ni  Ni723  1  0.33613533  0.00840600  0.75280200  1.0
  Ni  Ni724  1  0.33613533  0.34173933  0.75280200  1.0
  Ni  Ni725  1  0.33613533  0.67507267  0.75280200  1.0
  Ni  Ni726  1  0.66946867  0.00840600  0.75280200  1.0
  Ni  Ni727  1  0.66946867  0.34173933  0.75280200  1.0
  Ni  Ni728  1  0.66946867  0.67507267  0.75280200  1.0
  Ni  Ni729  1  0.11391311  0.00840600  0.69724644  1.0
  Ni  Ni730  1  0.11391311  0.34173933  0.69724644  1.0
  Ni  Ni731  1  0.11391311  0.67507267  0.69724644  1.0
  Ni  Ni732  1  0.44724644  0.00840600  0.69724644  1.0
  Ni  Ni733  1  0.44724644  0.34173933  0.69724644  1.0
  Ni  Ni734  1  0.44724644  0.67507267  0.69724644  1.0
  Ni  Ni735  1  0.78057978  0.00840600  0.69724644  1.0
  Ni  Ni736  1  0.78057978  0.34173933  0.69724644  1.0
  Ni  Ni737  1  0.78057978  0.67507267  0.69724644  1.0
  Ni  Ni738  1  0.12070178  0.23210933  0.74051478  1.0
  Ni  Ni739  1  0.12070178  0.56544267  0.74051478  1.0
  Ni  Ni740  1  0.12070178  0.89877600  0.74051478  1.0
  Ni  Ni741  1  0.45403511  0.23210933  0.74051478  1.0
  Ni  Ni742  1  0.45403511  0.56544267  0.74051478  1.0
  Ni  Ni743  1  0.45403511  0.89877600  0.74051478  1.0
  Ni  Ni744  1  0.78736844  0.23210933  0.74051478  1.0
  Ni  Ni745  1  0.78736844  0.56544267  0.74051478  1.0
  Ni  Ni746  1  0.78736844  0.89877600  0.74051478  1.0
  Ni  Ni747  1  0.23181289  0.23210933  0.68495922  1.0
  Ni  Ni748  1  0.23181289  0.56544267  0.68495922  1.0
  Ni  Ni749  1  0.23181289  0.89877600  0.68495922  1.0
  Ni  Ni750  1  0.56514622  0.23210933  0.68495922  1.0
  Ni  Ni751  1  0.56514622  0.56544267  0.68495922  1.0
  Ni  Ni752  1  0.56514622  0.89877600  0.68495922  1.0
  Ni  Ni753  1  0.89847956  0.23210933  0.68495922  1.0
  Ni  Ni754  1  0.89847956  0.56544267  0.68495922  1.0
  Ni  Ni755  1  0.89847956  0.89877600  0.68495922  1.0
  Ni  Ni756  1  0.23754911  0.28658700  0.64482211  1.0
  Ni  Ni757  1  0.23754911  0.61992033  0.64482211  1.0
  Ni  Ni758  1  0.23754911  0.95325367  0.64482211  1.0
  Ni  Ni759  1  0.57088244  0.28658700  0.64482211  1.0
  Ni  Ni760  1  0.57088244  0.61992033  0.64482211  1.0
  Ni  Ni761  1  0.57088244  0.95325367  0.64482211  1.0
  Ni  Ni762  1  0.90421578  0.28658700  0.64482211  1.0
  Ni  Ni763  1  0.90421578  0.61992033  0.64482211  1.0
  Ni  Ni764  1  0.90421578  0.95325367  0.64482211  1.0
  Ni  Ni765  1  0.01532689  0.28658700  0.58926656  1.0
  Ni  Ni766  1  0.01532689  0.61992033  0.58926656  1.0
  Ni  Ni767  1  0.01532689  0.95325367  0.58926656  1.0
  Ni  Ni768  1  0.34866022  0.28658700  0.58926656  1.0
  Ni  Ni769  1  0.34866022  0.61992033  0.58926656  1.0
  Ni  Ni770  1  0.34866022  0.95325367  0.58926656  1.0
  Ni  Ni771  1  0.68199356  0.28658700  0.58926656  1.0
  Ni  Ni772  1  0.68199356  0.61992033  0.58926656  1.0
  Ni  Ni773  1  0.68199356  0.95325367  0.58926656  1.0
  Ni  Ni774  1  0.27468422  0.28680767  0.57077256  1.0
  Ni  Ni775  1  0.27468422  0.62014100  0.57077256  1.0
  Ni  Ni776  1  0.27468422  0.95347433  0.57077256  1.0
  Ni  Ni777  1  0.60801756  0.28680767  0.57077256  1.0
  Ni  Ni778  1  0.60801756  0.62014100  0.57077256  1.0
  Ni  Ni779  1  0.60801756  0.95347433  0.57077256  1.0
  Ni  Ni780  1  0.94135089  0.28680767  0.57077256  1.0
  Ni  Ni781  1  0.94135089  0.62014100  0.57077256  1.0
  Ni  Ni782  1  0.94135089  0.95347433  0.57077256  1.0
  Ni  Ni783  1  0.16357311  0.28680767  0.62632811  1.0
  Ni  Ni784  1  0.16357311  0.62014100  0.62632811  1.0
  Ni  Ni785  1  0.16357311  0.95347433  0.62632811  1.0
  Ni  Ni786  1  0.49690644  0.28680767  0.62632811  1.0
  Ni  Ni787  1  0.49690644  0.62014100  0.62632811  1.0
  Ni  Ni788  1  0.49690644  0.95347433  0.62632811  1.0
  Ni  Ni789  1  0.83023978  0.28680767  0.62632811  1.0
  Ni  Ni790  1  0.83023978  0.62014100  0.62632811  1.0
  Ni  Ni791  1  0.83023978  0.95347433  0.62632811  1.0
  Ni  Ni792  1  0.32934667  0.11803600  0.62600933  1.0
  Ni  Ni793  1  0.32934667  0.45136933  0.62600933  1.0
  Ni  Ni794  1  0.32934667  0.78470267  0.62600933  1.0
  Ni  Ni795  1  0.66268000  0.11803600  0.62600933  1.0
  Ni  Ni796  1  0.66268000  0.45136933  0.62600933  1.0
  Ni  Ni797  1  0.66268000  0.78470267  0.62600933  1.0
  Ni  Ni798  1  0.99601333  0.11803600  0.62600933  1.0
  Ni  Ni799  1  0.99601333  0.45136933  0.62600933  1.0
  Ni  Ni800  1  0.99601333  0.78470267  0.62600933  1.0
  Ni  Ni801  1  0.10712444  0.11803600  0.57045378  1.0
  Ni  Ni802  1  0.10712444  0.45136933  0.57045378  1.0
  Ni  Ni803  1  0.10712444  0.78470267  0.57045378  1.0
  Ni  Ni804  1  0.44045778  0.11803600  0.57045378  1.0
  Ni  Ni805  1  0.44045778  0.45136933  0.57045378  1.0
  Ni  Ni806  1  0.44045778  0.78470267  0.57045378  1.0
  Ni  Ni807  1  0.77379111  0.11803600  0.57045378  1.0
  Ni  Ni808  1  0.77379111  0.45136933  0.57045378  1.0
  Ni  Ni809  1  0.77379111  0.78470267  0.57045378  1.0
  Ni  Ni810  1  0.28647533  0.06333767  0.65705367  1.0
  Ni  Ni811  1  0.28647533  0.39667100  0.65705367  1.0
  Ni  Ni812  1  0.28647533  0.73000433  0.65705367  1.0
  Ni  Ni813  1  0.61980867  0.06333767  0.65705367  1.0
  Ni  Ni814  1  0.61980867  0.39667100  0.65705367  1.0
  Ni  Ni815  1  0.61980867  0.73000433  0.65705367  1.0
  Ni  Ni816  1  0.95314200  0.06333767  0.65705367  1.0
  Ni  Ni817  1  0.95314200  0.39667100  0.65705367  1.0
  Ni  Ni818  1  0.95314200  0.73000433  0.65705367  1.0
  Ni  Ni819  1  0.06425311  0.06333767  0.60149811  1.0
  Ni  Ni820  1  0.06425311  0.39667100  0.60149811  1.0
  Ni  Ni821  1  0.06425311  0.73000433  0.60149811  1.0
  Ni  Ni822  1  0.39758644  0.06333767  0.60149811  1.0
  Ni  Ni823  1  0.39758644  0.39667100  0.60149811  1.0
  Ni  Ni824  1  0.39758644  0.73000433  0.60149811  1.0
  Ni  Ni825  1  0.73091978  0.06333767  0.60149811  1.0
  Ni  Ni826  1  0.73091978  0.39667100  0.60149811  1.0
  Ni  Ni827  1  0.73091978  0.73000433  0.60149811  1.0
  Ni  Ni828  1  0.16946867  0.00840600  0.58613533  1.0
  Ni  Ni829  1  0.16946867  0.34173933  0.58613533  1.0
  Ni  Ni830  1  0.16946867  0.67507267  0.58613533  1.0
  Ni  Ni831  1  0.50280200  0.00840600  0.58613533  1.0
  Ni  Ni832  1  0.50280200  0.34173933  0.58613533  1.0
  Ni  Ni833  1  0.50280200  0.67507267  0.58613533  1.0
  Ni  Ni834  1  0.83613533  0.00840600  0.58613533  1.0
  Ni  Ni835  1  0.83613533  0.34173933  0.58613533  1.0
  Ni  Ni836  1  0.83613533  0.67507267  0.58613533  1.0
  Ni  Ni837  1  0.05835756  0.00840600  0.64169089  1.0
  Ni  Ni838  1  0.05835756  0.34173933  0.64169089  1.0
  Ni  Ni839  1  0.05835756  0.67507267  0.64169089  1.0
  Ni  Ni840  1  0.39169089  0.00840600  0.64169089  1.0
  Ni  Ni841  1  0.39169089  0.34173933  0.64169089  1.0
  Ni  Ni842  1  0.39169089  0.67507267  0.64169089  1.0
  Ni  Ni843  1  0.72502422  0.00840600  0.64169089  1.0
  Ni  Ni844  1  0.72502422  0.34173933  0.64169089  1.0
  Ni  Ni845  1  0.72502422  0.67507267  0.64169089  1.0
  Ni  Ni846  1  0.28749578  0.23210933  0.57397544  1.0
  Ni  Ni847  1  0.28749578  0.56544267  0.57397544  1.0
  Ni  Ni848  1  0.28749578  0.89877600  0.57397544  1.0
  Ni  Ni849  1  0.62082911  0.23210933  0.57397544  1.0
  Ni  Ni850  1  0.62082911  0.56544267  0.57397544  1.0
  Ni  Ni851  1  0.62082911  0.89877600  0.57397544  1.0
  Ni  Ni852  1  0.95416244  0.23210933  0.57397544  1.0
  Ni  Ni853  1  0.95416244  0.56544267  0.57397544  1.0
  Ni  Ni854  1  0.95416244  0.89877600  0.57397544  1.0
  Ni  Ni855  1  0.17638467  0.23210933  0.62953100  1.0
  Ni  Ni856  1  0.17638467  0.56544267  0.62953100  1.0
  Ni  Ni857  1  0.17638467  0.89877600  0.62953100  1.0
  Ni  Ni858  1  0.50971800  0.23210933  0.62953100  1.0
  Ni  Ni859  1  0.50971800  0.56544267  0.62953100  1.0
  Ni  Ni860  1  0.50971800  0.89877600  0.62953100  1.0
  Ni  Ni861  1  0.84305133  0.23210933  0.62953100  1.0
  Ni  Ni862  1  0.84305133  0.56544267  0.62953100  1.0
  Ni  Ni863  1  0.84305133  0.89877600  0.62953100  1.0
  Ni  Ni864  1  0.22502422  0.17507267  0.55835756  1.0
  Ni  Ni865  1  0.22502422  0.50840600  0.55835756  1.0
  Ni  Ni866  1  0.22502422  0.84173933  0.55835756  1.0
  Ni  Ni867  1  0.55835756  0.17507267  0.55835756  1.0
  Ni  Ni868  1  0.55835756  0.50840600  0.55835756  1.0
  Ni  Ni869  1  0.55835756  0.84173933  0.55835756  1.0
  Ni  Ni870  1  0.89169089  0.17507267  0.55835756  1.0
  Ni  Ni871  1  0.89169089  0.50840600  0.55835756  1.0
  Ni  Ni872  1  0.89169089  0.84173933  0.55835756  1.0
  Ni  Ni873  1  0.11391311  0.17507267  0.61391311  1.0
  Ni  Ni874  1  0.11391311  0.50840600  0.61391311  1.0
  Ni  Ni875  1  0.11391311  0.84173933  0.61391311  1.0
  Ni  Ni876  1  0.44724644  0.17507267  0.61391311  1.0
  Ni  Ni877  1  0.44724644  0.50840600  0.61391311  1.0
  Ni  Ni878  1  0.44724644  0.84173933  0.61391311  1.0
  Ni  Ni879  1  0.78057978  0.17507267  0.61391311  1.0
  Ni  Ni880  1  0.78057978  0.50840600  0.61391311  1.0
  Ni  Ni881  1  0.78057978  0.84173933  0.61391311  1.0
  Ni  Ni882  1  0.27366378  0.11803600  0.65385078  1.0
  Ni  Ni883  1  0.27366378  0.45136933  0.65385078  1.0
  Ni  Ni884  1  0.27366378  0.78470267  0.65385078  1.0
  Ni  Ni885  1  0.60699711  0.11803600  0.65385078  1.0
  Ni  Ni886  1  0.60699711  0.45136933  0.65385078  1.0
  Ni  Ni887  1  0.60699711  0.78470267  0.65385078  1.0
  Ni  Ni888  1  0.94033044  0.11803600  0.65385078  1.0
  Ni  Ni889  1  0.94033044  0.45136933  0.65385078  1.0
  Ni  Ni890  1  0.94033044  0.78470267  0.65385078  1.0
  Ni  Ni891  1  0.05144156  0.11803600  0.59829522  1.0
  Ni  Ni892  1  0.05144156  0.45136933  0.59829522  1.0
  Ni  Ni893  1  0.05144156  0.78470267  0.59829522  1.0
  Ni  Ni894  1  0.38477489  0.11803600  0.59829522  1.0
  Ni  Ni895  1  0.38477489  0.45136933  0.59829522  1.0
  Ni  Ni896  1  0.38477489  0.78470267  0.59829522  1.0
  Ni  Ni897  1  0.71810822  0.11803600  0.59829522  1.0
  Ni  Ni898  1  0.71810822  0.45136933  0.59829522  1.0
  Ni  Ni899  1  0.71810822  0.78470267  0.59829522  1.0
  Ni  Ni900  1  0.32361044  0.06355833  0.58300411  1.0
  Ni  Ni901  1  0.32361044  0.39689167  0.58300411  1.0
  Ni  Ni902  1  0.32361044  0.73022500  0.58300411  1.0
  Ni  Ni903  1  0.65694378  0.06355833  0.58300411  1.0
  Ni  Ni904  1  0.65694378  0.39689167  0.58300411  1.0
  Ni  Ni905  1  0.65694378  0.73022500  0.58300411  1.0
  Ni  Ni906  1  0.99027711  0.06355833  0.58300411  1.0
  Ni  Ni907  1  0.99027711  0.39689167  0.58300411  1.0
  Ni  Ni908  1  0.99027711  0.73022500  0.58300411  1.0
  Ni  Ni909  1  0.21249933  0.06355833  0.63855967  1.0
  Ni  Ni910  1  0.21249933  0.39689167  0.63855967  1.0
  Ni  Ni911  1  0.21249933  0.73022500  0.63855967  1.0
  Ni  Ni912  1  0.54583267  0.06355833  0.63855967  1.0
  Ni  Ni913  1  0.54583267  0.39689167  0.63855967  1.0
  Ni  Ni914  1  0.54583267  0.73022500  0.63855967  1.0
  Ni  Ni915  1  0.87916600  0.06355833  0.63855967  1.0
  Ni  Ni916  1  0.87916600  0.39689167  0.63855967  1.0
  Ni  Ni917  1  0.87916600  0.73022500  0.63855967  1.0
  Ni  Ni918  1  0.23181289  0.23210933  0.60181689  1.0
  Ni  Ni919  1  0.23181289  0.56544267  0.60181689  1.0
  Ni  Ni920  1  0.23181289  0.89877600  0.60181689  1.0
  Ni  Ni921  1  0.56514622  0.23210933  0.60181689  1.0
  Ni  Ni922  1  0.56514622  0.56544267  0.60181689  1.0
  Ni  Ni923  1  0.56514622  0.89877600  0.60181689  1.0
  Ni  Ni924  1  0.89847956  0.23210933  0.60181689  1.0
  Ni  Ni925  1  0.89847956  0.56544267  0.60181689  1.0
  Ni  Ni926  1  0.89847956  0.89877600  0.60181689  1.0
  Ni  Ni927  1  0.12070178  0.23210933  0.65737244  1.0
  Ni  Ni928  1  0.12070178  0.56544267  0.65737244  1.0
  Ni  Ni929  1  0.12070178  0.89877600  0.65737244  1.0
  Ni  Ni930  1  0.45403511  0.23210933  0.65737244  1.0
  Ni  Ni931  1  0.45403511  0.56544267  0.65737244  1.0
  Ni  Ni932  1  0.45403511  0.89877600  0.65737244  1.0
  Ni  Ni933  1  0.78736844  0.23210933  0.65737244  1.0
  Ni  Ni934  1  0.78736844  0.56544267  0.65737244  1.0
  Ni  Ni935  1  0.78736844  0.89877600  0.65737244  1.0
  Ni  Ni936  1  0.21823556  0.11803600  0.59842256  1.0
  Ni  Ni937  1  0.21823556  0.45136933  0.59842256  1.0
  Ni  Ni938  1  0.21823556  0.78470267  0.59842256  1.0
  Ni  Ni939  1  0.55156889  0.11803600  0.59842256  1.0
  Ni  Ni940  1  0.55156889  0.45136933  0.59842256  1.0
  Ni  Ni941  1  0.55156889  0.78470267  0.59842256  1.0
  Ni  Ni942  1  0.88490222  0.11803600  0.59842256  1.0
  Ni  Ni943  1  0.88490222  0.45136933  0.59842256  1.0
  Ni  Ni944  1  0.88490222  0.78470267  0.59842256  1.0
  Ni  Ni945  1  0.10712444  0.11803600  0.65397811  1.0
  Ni  Ni946  1  0.10712444  0.45136933  0.65397811  1.0
  Ni  Ni947  1  0.10712444  0.78470267  0.65397811  1.0
  Ni  Ni948  1  0.44045778  0.11803600  0.65397811  1.0
  Ni  Ni949  1  0.44045778  0.45136933  0.65397811  1.0
  Ni  Ni950  1  0.44045778  0.78470267  0.65397811  1.0
  Ni  Ni951  1  0.77379111  0.11803600  0.65397811  1.0
  Ni  Ni952  1  0.77379111  0.45136933  0.65397811  1.0
  Ni  Ni953  1  0.77379111  0.78470267  0.65397811  1.0
  Ni  Ni954  1  0.28057978  0.00840600  0.61391311  1.0
  Ni  Ni955  1  0.28057978  0.34173933  0.61391311  1.0
  Ni  Ni956  1  0.28057978  0.67507267  0.61391311  1.0
  Ni  Ni957  1  0.61391311  0.00840600  0.61391311  1.0
  Ni  Ni958  1  0.61391311  0.34173933  0.61391311  1.0
  Ni  Ni959  1  0.61391311  0.67507267  0.61391311  1.0
  Ni  Ni960  1  0.94724644  0.00840600  0.61391311  1.0
  Ni  Ni961  1  0.94724644  0.34173933  0.61391311  1.0
  Ni  Ni962  1  0.94724644  0.67507267  0.61391311  1.0
  Ni  Ni963  1  0.05835756  0.00840600  0.55835756  1.0
  Ni  Ni964  1  0.05835756  0.34173933  0.55835756  1.0
  Ni  Ni965  1  0.05835756  0.67507267  0.55835756  1.0
  Ni  Ni966  1  0.39169089  0.00840600  0.55835756  1.0
  Ni  Ni967  1  0.39169089  0.34173933  0.55835756  1.0
  Ni  Ni968  1  0.39169089  0.67507267  0.55835756  1.0
  Ni  Ni969  1  0.72502422  0.00840600  0.55835756  1.0
  Ni  Ni970  1  0.72502422  0.34173933  0.55835756  1.0
  Ni  Ni971  1  0.72502422  0.67507267  0.55835756  1.0
  Ni  Ni972  1  0.22502422  0.00840600  0.64169089  1.0
  Ni  Ni973  1  0.22502422  0.34173933  0.64169089  1.0
  Ni  Ni974  1  0.22502422  0.67507267  0.64169089  1.0
  Ni  Ni975  1  0.55835756  0.00840600  0.64169089  1.0
  Ni  Ni976  1  0.55835756  0.34173933  0.64169089  1.0
  Ni  Ni977  1  0.55835756  0.67507267  0.64169089  1.0
  Ni  Ni978  1  0.89169089  0.00840600  0.64169089  1.0
  Ni  Ni979  1  0.89169089  0.34173933  0.64169089  1.0
  Ni  Ni980  1  0.89169089  0.67507267  0.64169089  1.0
  Ni  Ni981  1  0.00280200  0.00840600  0.58613533  1.0
  Ni  Ni982  1  0.00280200  0.34173933  0.58613533  1.0
  Ni  Ni983  1  0.00280200  0.67507267  0.58613533  1.0
  Ni  Ni984  1  0.33613533  0.00840600  0.58613533  1.0
  Ni  Ni985  1  0.33613533  0.34173933  0.58613533  1.0
  Ni  Ni986  1  0.33613533  0.67507267  0.58613533  1.0
  Ni  Ni987  1  0.66946867  0.00840600  0.58613533  1.0
  Ni  Ni988  1  0.66946867  0.34173933  0.58613533  1.0
  Ni  Ni989  1  0.66946867  0.67507267  0.58613533  1.0
  Ni  Ni990  1  0.00959067  0.23210933  0.62940367  1.0
  Ni  Ni991  1  0.00959067  0.56544267  0.62940367  1.0
  Ni  Ni992  1  0.00959067  0.89877600  0.62940367  1.0
  Ni  Ni993  1  0.34292400  0.23210933  0.62940367  1.0
  Ni  Ni994  1  0.34292400  0.56544267  0.62940367  1.0
  Ni  Ni995  1  0.34292400  0.89877600  0.62940367  1.0
  Ni  Ni996  1  0.67625733  0.23210933  0.62940367  1.0
  Ni  Ni997  1  0.67625733  0.56544267  0.62940367  1.0
  Ni  Ni998  1  0.67625733  0.89877600  0.62940367  1.0
  Ni  Ni999  1  0.12070178  0.23210933  0.57384811  1.0
  Ni  Ni1000  1  0.12070178  0.56544267  0.57384811  1.0
  Ni  Ni1001  1  0.12070178  0.89877600  0.57384811  1.0
  Ni  Ni1002  1  0.45403511  0.23210933  0.57384811  1.0
  Ni  Ni1003  1  0.45403511  0.56544267  0.57384811  1.0
  Ni  Ni1004  1  0.45403511  0.89877600  0.57384811  1.0
  Ni  Ni1005  1  0.78736844  0.23210933  0.57384811  1.0
  Ni  Ni1006  1  0.78736844  0.56544267  0.57384811  1.0
  Ni  Ni1007  1  0.78736844  0.89877600  0.57384811  1.0
  Y  Y1008  1  0.13632911  0.05884200  0.95285044  1.0
  Y  Y1009  1  0.13632911  0.39217533  0.95285044  1.0
  Y  Y1010  1  0.13632911  0.72550867  0.95285044  1.0
  Y  Y1011  1  0.46966244  0.05884200  0.95285044  1.0
  Y  Y1012  1  0.46966244  0.39217533  0.95285044  1.0
  Y  Y1013  1  0.46966244  0.72550867  0.95285044  1.0
  Y  Y1014  1  0.80299578  0.05884200  0.95285044  1.0
  Y  Y1015  1  0.80299578  0.39217533  0.95285044  1.0
  Y  Y1016  1  0.80299578  0.72550867  0.95285044  1.0
  Y  Y1017  1  0.24744022  0.05884200  0.89729489  1.0
  Y  Y1018  1  0.24744022  0.39217533  0.89729489  1.0
  Y  Y1019  1  0.24744022  0.72550867  0.89729489  1.0
  Y  Y1020  1  0.58077356  0.05884200  0.89729489  1.0
  Y  Y1021  1  0.58077356  0.39217533  0.89729489  1.0
  Y  Y1022  1  0.58077356  0.72550867  0.89729489  1.0
  Y  Y1023  1  0.91410689  0.05884200  0.89729489  1.0
  Y  Y1024  1  0.91410689  0.39217533  0.89729489  1.0
  Y  Y1025  1  0.91410689  0.72550867  0.89729489  1.0
  Y  Y1026  1  0.04850778  0.19457733  0.93089511  1.0
  Y  Y1027  1  0.04850778  0.52791067  0.93089511  1.0
  Y  Y1028  1  0.04850778  0.86124400  0.93089511  1.0
  Y  Y1029  1  0.38184111  0.19457733  0.93089511  1.0
  Y  Y1030  1  0.38184111  0.52791067  0.93089511  1.0
  Y  Y1031  1  0.38184111  0.86124400  0.93089511  1.0
  Y  Y1032  1  0.71517444  0.19457733  0.93089511  1.0
  Y  Y1033  1  0.71517444  0.52791067  0.93089511  1.0
  Y  Y1034  1  0.71517444  0.86124400  0.93089511  1.0
  Y  Y1035  1  0.27073000  0.19457733  0.98645067  1.0
  Y  Y1036  1  0.27073000  0.52791067  0.98645067  1.0
  Y  Y1037  1  0.27073000  0.86124400  0.98645067  1.0
  Y  Y1038  1  0.60406333  0.19457733  0.98645067  1.0
  Y  Y1039  1  0.60406333  0.52791067  0.98645067  1.0
  Y  Y1040  1  0.60406333  0.86124400  0.98645067  1.0
  Y  Y1041  1  0.93739667  0.19457733  0.98645067  1.0
  Y  Y1042  1  0.93739667  0.52791067  0.98645067  1.0
  Y  Y1043  1  0.93739667  0.86124400  0.98645067  1.0
  Y  Y1044  1  0.09149711  0.29130333  0.94164244  1.0
  Y  Y1045  1  0.09149711  0.62463667  0.94164244  1.0
  Y  Y1046  1  0.09149711  0.95797000  0.94164244  1.0
  Y  Y1047  1  0.42483044  0.29130333  0.94164244  1.0
  Y  Y1048  1  0.42483044  0.62463667  0.94164244  1.0
  Y  Y1049  1  0.42483044  0.95797000  0.94164244  1.0
  Y  Y1050  1  0.75816378  0.29130333  0.94164244  1.0
  Y  Y1051  1  0.75816378  0.62463667  0.94164244  1.0
  Y  Y1052  1  0.75816378  0.95797000  0.94164244  1.0
  Y  Y1053  1  0.31371933  0.29130333  0.99719800  1.0
  Y  Y1054  1  0.31371933  0.62463667  0.99719800  1.0
  Y  Y1055  1  0.31371933  0.95797000  0.99719800  1.0
  Y  Y1056  1  0.64705267  0.29130333  0.99719800  1.0
  Y  Y1057  1  0.64705267  0.62463667  0.99719800  1.0
  Y  Y1058  1  0.64705267  0.95797000  0.99719800  1.0
  Y  Y1059  1  0.98038600  0.29130333  0.99719800  1.0
  Y  Y1060  1  0.98038600  0.62463667  0.99719800  1.0
  Y  Y1061  1  0.98038600  0.95797000  0.99719800  1.0
  Y  Y1062  1  0.17931844  0.15556800  0.96359778  1.0
  Y  Y1063  1  0.17931844  0.48890133  0.96359778  1.0
  Y  Y1064  1  0.17931844  0.82223467  0.96359778  1.0
  Y  Y1065  1  0.51265178  0.15556800  0.96359778  1.0
  Y  Y1066  1  0.51265178  0.48890133  0.96359778  1.0
  Y  Y1067  1  0.51265178  0.82223467  0.96359778  1.0
  Y  Y1068  1  0.84598511  0.15556800  0.96359778  1.0
  Y  Y1069  1  0.84598511  0.48890133  0.96359778  1.0
  Y  Y1070  1  0.84598511  0.82223467  0.96359778  1.0
  Y  Y1071  1  0.29042956  0.15556800  0.90804222  1.0
  Y  Y1072  1  0.29042956  0.48890133  0.90804222  1.0
  Y  Y1073  1  0.29042956  0.82223467  0.90804222  1.0
  Y  Y1074  1  0.62376289  0.15556800  0.90804222  1.0
  Y  Y1075  1  0.62376289  0.48890133  0.90804222  1.0
  Y  Y1076  1  0.62376289  0.82223467  0.90804222  1.0
  Y  Y1077  1  0.95709622  0.15556800  0.90804222  1.0
  Y  Y1078  1  0.95709622  0.48890133  0.90804222  1.0
  Y  Y1079  1  0.95709622  0.82223467  0.90804222  1.0
  Y  Y1080  1  0.02521800  0.05884200  0.84173933  1.0
  Y  Y1081  1  0.02521800  0.39217533  0.84173933  1.0
  Y  Y1082  1  0.02521800  0.72550867  0.84173933  1.0
  Y  Y1083  1  0.35855133  0.05884200  0.84173933  1.0
  Y  Y1084  1  0.35855133  0.39217533  0.84173933  1.0
  Y  Y1085  1  0.35855133  0.72550867  0.84173933  1.0
  Y  Y1086  1  0.69188467  0.05884200  0.84173933  1.0
  Y  Y1087  1  0.69188467  0.39217533  0.84173933  1.0
  Y  Y1088  1  0.69188467  0.72550867  0.84173933  1.0
  Y  Y1089  1  0.13632911  0.05884200  0.78618378  1.0
  Y  Y1090  1  0.13632911  0.39217533  0.78618378  1.0
  Y  Y1091  1  0.13632911  0.72550867  0.78618378  1.0
  Y  Y1092  1  0.46966244  0.05884200  0.78618378  1.0
  Y  Y1093  1  0.46966244  0.39217533  0.78618378  1.0
  Y  Y1094  1  0.46966244  0.72550867  0.78618378  1.0
  Y  Y1095  1  0.80299578  0.05884200  0.78618378  1.0
  Y  Y1096  1  0.80299578  0.39217533  0.78618378  1.0
  Y  Y1097  1  0.80299578  0.72550867  0.78618378  1.0
  Y  Y1098  1  0.27073000  0.19457733  0.81978400  1.0
  Y  Y1099  1  0.27073000  0.52791067  0.81978400  1.0
  Y  Y1100  1  0.27073000  0.86124400  0.81978400  1.0
  Y  Y1101  1  0.60406333  0.19457733  0.81978400  1.0
  Y  Y1102  1  0.60406333  0.52791067  0.81978400  1.0
  Y  Y1103  1  0.60406333  0.86124400  0.81978400  1.0
  Y  Y1104  1  0.93739667  0.19457733  0.81978400  1.0
  Y  Y1105  1  0.93739667  0.52791067  0.81978400  1.0
  Y  Y1106  1  0.93739667  0.86124400  0.81978400  1.0
  Y  Y1107  1  0.15961889  0.19457733  0.87533956  1.0
  Y  Y1108  1  0.15961889  0.52791067  0.87533956  1.0
  Y  Y1109  1  0.15961889  0.86124400  0.87533956  1.0
  Y  Y1110  1  0.49295222  0.19457733  0.87533956  1.0
  Y  Y1111  1  0.49295222  0.52791067  0.87533956  1.0
  Y  Y1112  1  0.49295222  0.86124400  0.87533956  1.0
  Y  Y1113  1  0.82628556  0.19457733  0.87533956  1.0
  Y  Y1114  1  0.82628556  0.52791067  0.87533956  1.0
  Y  Y1115  1  0.82628556  0.86124400  0.87533956  1.0
  Y  Y1116  1  0.31371933  0.29130333  0.83053133  1.0
  Y  Y1117  1  0.31371933  0.62463667  0.83053133  1.0
  Y  Y1118  1  0.31371933  0.95797000  0.83053133  1.0
  Y  Y1119  1  0.64705267  0.29130333  0.83053133  1.0
  Y  Y1120  1  0.64705267  0.62463667  0.83053133  1.0
  Y  Y1121  1  0.64705267  0.95797000  0.83053133  1.0
  Y  Y1122  1  0.98038600  0.29130333  0.83053133  1.0
  Y  Y1123  1  0.98038600  0.62463667  0.83053133  1.0
  Y  Y1124  1  0.98038600  0.95797000  0.83053133  1.0
  Y  Y1125  1  0.20260822  0.29130333  0.88608689  1.0
  Y  Y1126  1  0.20260822  0.62463667  0.88608689  1.0
  Y  Y1127  1  0.20260822  0.95797000  0.88608689  1.0
  Y  Y1128  1  0.53594156  0.29130333  0.88608689  1.0
  Y  Y1129  1  0.53594156  0.62463667  0.88608689  1.0
  Y  Y1130  1  0.53594156  0.95797000  0.88608689  1.0
  Y  Y1131  1  0.86927489  0.29130333  0.88608689  1.0
  Y  Y1132  1  0.86927489  0.62463667  0.88608689  1.0
  Y  Y1133  1  0.86927489  0.95797000  0.88608689  1.0
  Y  Y1134  1  0.06820733  0.15556800  0.85248667  1.0
  Y  Y1135  1  0.06820733  0.48890133  0.85248667  1.0
  Y  Y1136  1  0.06820733  0.82223467  0.85248667  1.0
  Y  Y1137  1  0.40154067  0.15556800  0.85248667  1.0
  Y  Y1138  1  0.40154067  0.48890133  0.85248667  1.0
  Y  Y1139  1  0.40154067  0.82223467  0.85248667  1.0
  Y  Y1140  1  0.73487400  0.15556800  0.85248667  1.0
  Y  Y1141  1  0.73487400  0.48890133  0.85248667  1.0
  Y  Y1142  1  0.73487400  0.82223467  0.85248667  1.0
  Y  Y1143  1  0.17931844  0.15556800  0.79693111  1.0
  Y  Y1144  1  0.17931844  0.48890133  0.79693111  1.0
  Y  Y1145  1  0.17931844  0.82223467  0.79693111  1.0
  Y  Y1146  1  0.51265178  0.15556800  0.79693111  1.0
  Y  Y1147  1  0.51265178  0.48890133  0.79693111  1.0
  Y  Y1148  1  0.51265178  0.82223467  0.79693111  1.0
  Y  Y1149  1  0.84598511  0.15556800  0.79693111  1.0
  Y  Y1150  1  0.84598511  0.48890133  0.79693111  1.0
  Y  Y1151  1  0.84598511  0.82223467  0.79693111  1.0
  Y  Y1152  1  0.24744022  0.05884200  0.73062822  1.0
  Y  Y1153  1  0.24744022  0.39217533  0.73062822  1.0
  Y  Y1154  1  0.24744022  0.72550867  0.73062822  1.0
  Y  Y1155  1  0.58077356  0.05884200  0.73062822  1.0
  Y  Y1156  1  0.58077356  0.39217533  0.73062822  1.0
  Y  Y1157  1  0.58077356  0.72550867  0.73062822  1.0
  Y  Y1158  1  0.91410689  0.05884200  0.73062822  1.0
  Y  Y1159  1  0.91410689  0.39217533  0.73062822  1.0
  Y  Y1160  1  0.91410689  0.72550867  0.73062822  1.0
  Y  Y1161  1  0.02521800  0.05884200  0.67507267  1.0
  Y  Y1162  1  0.02521800  0.39217533  0.67507267  1.0
  Y  Y1163  1  0.02521800  0.72550867  0.67507267  1.0
  Y  Y1164  1  0.35855133  0.05884200  0.67507267  1.0
  Y  Y1165  1  0.35855133  0.39217533  0.67507267  1.0
  Y  Y1166  1  0.35855133  0.72550867  0.67507267  1.0
  Y  Y1167  1  0.69188467  0.05884200  0.67507267  1.0
  Y  Y1168  1  0.69188467  0.39217533  0.67507267  1.0
  Y  Y1169  1  0.69188467  0.72550867  0.67507267  1.0
  Y  Y1170  1  0.15961889  0.19457733  0.70867289  1.0
  Y  Y1171  1  0.15961889  0.52791067  0.70867289  1.0
  Y  Y1172  1  0.15961889  0.86124400  0.70867289  1.0
  Y  Y1173  1  0.49295222  0.19457733  0.70867289  1.0
  Y  Y1174  1  0.49295222  0.52791067  0.70867289  1.0
  Y  Y1175  1  0.49295222  0.86124400  0.70867289  1.0
  Y  Y1176  1  0.82628556  0.19457733  0.70867289  1.0
  Y  Y1177  1  0.82628556  0.52791067  0.70867289  1.0
  Y  Y1178  1  0.82628556  0.86124400  0.70867289  1.0
  Y  Y1179  1  0.04850778  0.19457733  0.76422844  1.0
  Y  Y1180  1  0.04850778  0.52791067  0.76422844  1.0
  Y  Y1181  1  0.04850778  0.86124400  0.76422844  1.0
  Y  Y1182  1  0.38184111  0.19457733  0.76422844  1.0
  Y  Y1183  1  0.38184111  0.52791067  0.76422844  1.0
  Y  Y1184  1  0.38184111  0.86124400  0.76422844  1.0
  Y  Y1185  1  0.71517444  0.19457733  0.76422844  1.0
  Y  Y1186  1  0.71517444  0.52791067  0.76422844  1.0
  Y  Y1187  1  0.71517444  0.86124400  0.76422844  1.0
  Y  Y1188  1  0.20260822  0.29130333  0.71942022  1.0
  Y  Y1189  1  0.20260822  0.62463667  0.71942022  1.0
  Y  Y1190  1  0.20260822  0.95797000  0.71942022  1.0
  Y  Y1191  1  0.53594156  0.29130333  0.71942022  1.0
  Y  Y1192  1  0.53594156  0.62463667  0.71942022  1.0
  Y  Y1193  1  0.53594156  0.95797000  0.71942022  1.0
  Y  Y1194  1  0.86927489  0.29130333  0.71942022  1.0
  Y  Y1195  1  0.86927489  0.62463667  0.71942022  1.0
  Y  Y1196  1  0.86927489  0.95797000  0.71942022  1.0
  Y  Y1197  1  0.09149711  0.29130333  0.77497578  1.0
  Y  Y1198  1  0.09149711  0.62463667  0.77497578  1.0
  Y  Y1199  1  0.09149711  0.95797000  0.77497578  1.0
  Y  Y1200  1  0.42483044  0.29130333  0.77497578  1.0
  Y  Y1201  1  0.42483044  0.62463667  0.77497578  1.0
  Y  Y1202  1  0.42483044  0.95797000  0.77497578  1.0
  Y  Y1203  1  0.75816378  0.29130333  0.77497578  1.0
  Y  Y1204  1  0.75816378  0.62463667  0.77497578  1.0
  Y  Y1205  1  0.75816378  0.95797000  0.77497578  1.0
  Y  Y1206  1  0.29042956  0.15556800  0.74137556  1.0
  Y  Y1207  1  0.29042956  0.48890133  0.74137556  1.0
  Y  Y1208  1  0.29042956  0.82223467  0.74137556  1.0
  Y  Y1209  1  0.62376289  0.15556800  0.74137556  1.0
  Y  Y1210  1  0.62376289  0.48890133  0.74137556  1.0
  Y  Y1211  1  0.62376289  0.82223467  0.74137556  1.0
  Y  Y1212  1  0.95709622  0.15556800  0.74137556  1.0
  Y  Y1213  1  0.95709622  0.48890133  0.74137556  1.0
  Y  Y1214  1  0.95709622  0.82223467  0.74137556  1.0
  Y  Y1215  1  0.06820733  0.15556800  0.68582000  1.0
  Y  Y1216  1  0.06820733  0.48890133  0.68582000  1.0
  Y  Y1217  1  0.06820733  0.82223467  0.68582000  1.0
  Y  Y1218  1  0.40154067  0.15556800  0.68582000  1.0
  Y  Y1219  1  0.40154067  0.48890133  0.68582000  1.0
  Y  Y1220  1  0.40154067  0.82223467  0.68582000  1.0
  Y  Y1221  1  0.73487400  0.15556800  0.68582000  1.0
  Y  Y1222  1  0.73487400  0.48890133  0.68582000  1.0
  Y  Y1223  1  0.73487400  0.82223467  0.68582000  1.0
  Y  Y1224  1  0.13632911  0.05884200  0.61951711  1.0
  Y  Y1225  1  0.13632911  0.39217533  0.61951711  1.0
  Y  Y1226  1  0.13632911  0.72550867  0.61951711  1.0
  Y  Y1227  1  0.46966244  0.05884200  0.61951711  1.0
  Y  Y1228  1  0.46966244  0.39217533  0.61951711  1.0
  Y  Y1229  1  0.46966244  0.72550867  0.61951711  1.0
  Y  Y1230  1  0.80299578  0.05884200  0.61951711  1.0
  Y  Y1231  1  0.80299578  0.39217533  0.61951711  1.0
  Y  Y1232  1  0.80299578  0.72550867  0.61951711  1.0
  Y  Y1233  1  0.24744022  0.05884200  0.56396156  1.0
  Y  Y1234  1  0.24744022  0.39217533  0.56396156  1.0
  Y  Y1235  1  0.24744022  0.72550867  0.56396156  1.0
  Y  Y1236  1  0.58077356  0.05884200  0.56396156  1.0
  Y  Y1237  1  0.58077356  0.39217533  0.56396156  1.0
  Y  Y1238  1  0.58077356  0.72550867  0.56396156  1.0
  Y  Y1239  1  0.91410689  0.05884200  0.56396156  1.0
  Y  Y1240  1  0.91410689  0.39217533  0.56396156  1.0
  Y  Y1241  1  0.91410689  0.72550867  0.56396156  1.0
  Y  Y1242  1  0.04850778  0.19457733  0.59756178  1.0
  Y  Y1243  1  0.04850778  0.52791067  0.59756178  1.0
  Y  Y1244  1  0.04850778  0.86124400  0.59756178  1.0
  Y  Y1245  1  0.38184111  0.19457733  0.59756178  1.0
  Y  Y1246  1  0.38184111  0.52791067  0.59756178  1.0
  Y  Y1247  1  0.38184111  0.86124400  0.59756178  1.0
  Y  Y1248  1  0.71517444  0.19457733  0.59756178  1.0
  Y  Y1249  1  0.71517444  0.52791067  0.59756178  1.0
  Y  Y1250  1  0.71517444  0.86124400  0.59756178  1.0
  Y  Y1251  1  0.27073000  0.19457733  0.65311733  1.0
  Y  Y1252  1  0.27073000  0.52791067  0.65311733  1.0
  Y  Y1253  1  0.27073000  0.86124400  0.65311733  1.0
  Y  Y1254  1  0.60406333  0.19457733  0.65311733  1.0
  Y  Y1255  1  0.60406333  0.52791067  0.65311733  1.0
  Y  Y1256  1  0.60406333  0.86124400  0.65311733  1.0
  Y  Y1257  1  0.93739667  0.19457733  0.65311733  1.0
  Y  Y1258  1  0.93739667  0.52791067  0.65311733  1.0
  Y  Y1259  1  0.93739667  0.86124400  0.65311733  1.0
  Y  Y1260  1  0.09149711  0.29130333  0.60830911  1.0
  Y  Y1261  1  0.09149711  0.62463667  0.60830911  1.0
  Y  Y1262  1  0.09149711  0.95797000  0.60830911  1.0
  Y  Y1263  1  0.42483044  0.29130333  0.60830911  1.0
  Y  Y1264  1  0.42483044  0.62463667  0.60830911  1.0
  Y  Y1265  1  0.42483044  0.95797000  0.60830911  1.0
  Y  Y1266  1  0.75816378  0.29130333  0.60830911  1.0
  Y  Y1267  1  0.75816378  0.62463667  0.60830911  1.0
  Y  Y1268  1  0.75816378  0.95797000  0.60830911  1.0
  Y  Y1269  1  0.31371933  0.29130333  0.66386467  1.0
  Y  Y1270  1  0.31371933  0.62463667  0.66386467  1.0
  Y  Y1271  1  0.31371933  0.95797000  0.66386467  1.0
  Y  Y1272  1  0.64705267  0.29130333  0.66386467  1.0
  Y  Y1273  1  0.64705267  0.62463667  0.66386467  1.0
  Y  Y1274  1  0.64705267  0.95797000  0.66386467  1.0
  Y  Y1275  1  0.98038600  0.29130333  0.66386467  1.0
  Y  Y1276  1  0.98038600  0.62463667  0.66386467  1.0
  Y  Y1277  1  0.98038600  0.95797000  0.66386467  1.0
  Y  Y1278  1  0.17931844  0.15556800  0.63026444  1.0
  Y  Y1279  1  0.17931844  0.48890133  0.63026444  1.0
  Y  Y1280  1  0.17931844  0.82223467  0.63026444  1.0
  Y  Y1281  1  0.51265178  0.15556800  0.63026444  1.0
  Y  Y1282  1  0.51265178  0.48890133  0.63026444  1.0
  Y  Y1283  1  0.51265178  0.82223467  0.63026444  1.0
  Y  Y1284  1  0.84598511  0.15556800  0.63026444  1.0
  Y  Y1285  1  0.84598511  0.48890133  0.63026444  1.0
  Y  Y1286  1  0.84598511  0.82223467  0.63026444  1.0
  Y  Y1287  1  0.29042956  0.15556800  0.57470889  1.0
  Y  Y1288  1  0.29042956  0.48890133  0.57470889  1.0
  Y  Y1289  1  0.29042956  0.82223467  0.57470889  1.0
  Y  Y1290  1  0.62376289  0.15556800  0.57470889  1.0
  Y  Y1291  1  0.62376289  0.48890133  0.57470889  1.0
  Y  Y1292  1  0.62376289  0.82223467  0.57470889  1.0
  Y  Y1293  1  0.95709622  0.15556800  0.57470889  1.0
  Y  Y1294  1  0.95709622  0.48890133  0.57470889  1.0
  Y  Y1295  1  0.95709622  0.82223467  0.57470889  1.0
