# generated using pymatgen
data_Y2Ni7
_symmetry_space_group_name_H-M   'P 1'
_cell_length_a   25.59256796
_cell_length_b   145.40817878
_cell_length_c   59.10350400
_cell_angle_alpha   95.83226564
_cell_angle_beta   150.00000000
_cell_angle_gamma   84.95129696
_symmetry_Int_Tables_number   1
_chemical_formula_structural   Y2Ni7
_chemical_formula_sum   'Y720 Ni2520'
_cell_volume   109403.70540887
_cell_formula_units_Z   360
loop_
 _symmetry_equiv_pos_site_id
 _symmetry_equiv_pos_as_xyz
  1  'x, y, z'
loop_
 _atom_site_type_symbol
 _atom_site_label
 _atom_site_symmetry_multiplicity
 _atom_site_fract_x
 _atom_site_fract_y
 _atom_site_fract_z
 _atom_site_occupancy
  Y  Y0  1  0.11111111  0.16166850  0.02655625  1.0
  Y  Y1  1  0.11111111  0.49500183  0.02655625  1.0
  Y  Y2  1  0.11111111  0.82833517  0.02655625  1.0
  Y  Y3  1  0.44444444  0.16166850  0.02655625  1.0
  Y  Y4  1  0.44444444  0.49500183  0.02655625  1.0
  Y  Y5  1  0.44444444  0.82833517  0.02655625  1.0
  Y  Y6  1  0.77777778  0.16166850  0.02655625  1.0
  Y  Y7  1  0.77777778  0.49500183  0.02655625  1.0
  Y  Y8  1  0.77777778  0.82833517  0.02655625  1.0
  Y  Y9  1  0.11111111  0.32833517  0.06822292  1.0
  Y  Y10  1  0.11111111  0.66166850  0.06822292  1.0
  Y  Y11  1  0.11111111  0.99500183  0.06822292  1.0
  Y  Y12  1  0.44444444  0.32833517  0.06822292  1.0
  Y  Y13  1  0.44444444  0.66166850  0.06822292  1.0
  Y  Y14  1  0.44444444  0.99500183  0.06822292  1.0
  Y  Y15  1  0.77777778  0.32833517  0.06822292  1.0
  Y  Y16  1  0.77777778  0.66166850  0.06822292  1.0
  Y  Y17  1  0.77777778  0.99500183  0.06822292  1.0
  Y  Y18  1  0.22222222  0.00499817  0.07072200  1.0
  Y  Y19  1  0.22222222  0.33833150  0.07072200  1.0
  Y  Y20  1  0.22222222  0.67166483  0.07072200  1.0
  Y  Y21  1  0.55555556  0.00499817  0.07072200  1.0
  Y  Y22  1  0.55555556  0.33833150  0.07072200  1.0
  Y  Y23  1  0.55555556  0.67166483  0.07072200  1.0
  Y  Y24  1  0.88888889  0.00499817  0.07072200  1.0
  Y  Y25  1  0.88888889  0.33833150  0.07072200  1.0
  Y  Y26  1  0.88888889  0.67166483  0.07072200  1.0
  Y  Y27  1  0.22222222  0.17166483  0.02905533  1.0
  Y  Y28  1  0.22222222  0.50499817  0.02905533  1.0
  Y  Y29  1  0.22222222  0.83833150  0.02905533  1.0
  Y  Y30  1  0.55555556  0.17166483  0.02905533  1.0
  Y  Y31  1  0.55555556  0.50499817  0.02905533  1.0
  Y  Y32  1  0.55555556  0.83833150  0.02905533  1.0
  Y  Y33  1  0.88888889  0.17166483  0.02905533  1.0
  Y  Y34  1  0.88888889  0.50499817  0.02905533  1.0
  Y  Y35  1  0.88888889  0.83833150  0.02905533  1.0
  Y  Y36  1  0.22222222  0.07833517  0.00572292  1.0
  Y  Y37  1  0.22222222  0.41166850  0.00572292  1.0
  Y  Y38  1  0.22222222  0.74500183  0.00572292  1.0
  Y  Y39  1  0.55555556  0.07833517  0.00572292  1.0
  Y  Y40  1  0.55555556  0.41166850  0.00572292  1.0
  Y  Y41  1  0.55555556  0.74500183  0.00572292  1.0
  Y  Y42  1  0.88888889  0.07833517  0.00572292  1.0
  Y  Y43  1  0.88888889  0.41166850  0.00572292  1.0
  Y  Y44  1  0.88888889  0.74500183  0.00572292  1.0
  Y  Y45  1  0.22222222  0.24500183  0.04738958  1.0
  Y  Y46  1  0.22222222  0.57833517  0.04738958  1.0
  Y  Y47  1  0.22222222  0.91166850  0.04738958  1.0
  Y  Y48  1  0.55555556  0.24500183  0.04738958  1.0
  Y  Y49  1  0.55555556  0.57833517  0.04738958  1.0
  Y  Y50  1  0.55555556  0.91166850  0.04738958  1.0
  Y  Y51  1  0.88888889  0.24500183  0.04738958  1.0
  Y  Y52  1  0.88888889  0.57833517  0.04738958  1.0
  Y  Y53  1  0.88888889  0.91166850  0.04738958  1.0
  Y  Y54  1  0.11111111  0.08833150  0.00822200  1.0
  Y  Y55  1  0.11111111  0.42166483  0.00822200  1.0
  Y  Y56  1  0.11111111  0.75499817  0.00822200  1.0
  Y  Y57  1  0.44444444  0.08833150  0.00822200  1.0
  Y  Y58  1  0.44444444  0.42166483  0.00822200  1.0
  Y  Y59  1  0.44444444  0.75499817  0.00822200  1.0
  Y  Y60  1  0.77777778  0.08833150  0.00822200  1.0
  Y  Y61  1  0.77777778  0.42166483  0.00822200  1.0
  Y  Y62  1  0.77777778  0.75499817  0.00822200  1.0
  Y  Y63  1  0.11111111  0.25499817  0.04988867  1.0
  Y  Y64  1  0.11111111  0.58833150  0.04988867  1.0
  Y  Y65  1  0.11111111  0.92166483  0.04988867  1.0
  Y  Y66  1  0.44444444  0.25499817  0.04988867  1.0
  Y  Y67  1  0.44444444  0.58833150  0.04988867  1.0
  Y  Y68  1  0.44444444  0.92166483  0.04988867  1.0
  Y  Y69  1  0.77777778  0.25499817  0.04988867  1.0
  Y  Y70  1  0.77777778  0.58833150  0.04988867  1.0
  Y  Y71  1  0.77777778  0.92166483  0.04988867  1.0
  Y  Y72  1  0.11111111  0.13761583  0.02054308  1.0
  Y  Y73  1  0.11111111  0.47094917  0.02054308  1.0
  Y  Y74  1  0.11111111  0.80428250  0.02054308  1.0
  Y  Y75  1  0.44444444  0.13761583  0.02054308  1.0
  Y  Y76  1  0.44444444  0.47094917  0.02054308  1.0
  Y  Y77  1  0.44444444  0.80428250  0.02054308  1.0
  Y  Y78  1  0.77777778  0.13761583  0.02054308  1.0
  Y  Y79  1  0.77777778  0.47094917  0.02054308  1.0
  Y  Y80  1  0.77777778  0.80428250  0.02054308  1.0
  Y  Y81  1  0.11111111  0.30428250  0.06220975  1.0
  Y  Y82  1  0.11111111  0.63761583  0.06220975  1.0
  Y  Y83  1  0.11111111  0.97094917  0.06220975  1.0
  Y  Y84  1  0.44444444  0.30428250  0.06220975  1.0
  Y  Y85  1  0.44444444  0.63761583  0.06220975  1.0
  Y  Y86  1  0.44444444  0.97094917  0.06220975  1.0
  Y  Y87  1  0.77777778  0.30428250  0.06220975  1.0
  Y  Y88  1  0.77777778  0.63761583  0.06220975  1.0
  Y  Y89  1  0.77777778  0.97094917  0.06220975  1.0
  Y  Y90  1  0.22222222  0.02905083  0.07673517  1.0
  Y  Y91  1  0.22222222  0.36238417  0.07673517  1.0
  Y  Y92  1  0.22222222  0.69571750  0.07673517  1.0
  Y  Y93  1  0.55555556  0.02905083  0.07673517  1.0
  Y  Y94  1  0.55555556  0.36238417  0.07673517  1.0
  Y  Y95  1  0.55555556  0.69571750  0.07673517  1.0
  Y  Y96  1  0.88888889  0.02905083  0.07673517  1.0
  Y  Y97  1  0.88888889  0.36238417  0.07673517  1.0
  Y  Y98  1  0.88888889  0.69571750  0.07673517  1.0
  Y  Y99  1  0.22222222  0.19571750  0.03506850  1.0
  Y  Y100  1  0.22222222  0.52905083  0.03506850  1.0
  Y  Y101  1  0.22222222  0.86238417  0.03506850  1.0
  Y  Y102  1  0.55555556  0.19571750  0.03506850  1.0
  Y  Y103  1  0.55555556  0.52905083  0.03506850  1.0
  Y  Y104  1  0.55555556  0.86238417  0.03506850  1.0
  Y  Y105  1  0.88888889  0.19571750  0.03506850  1.0
  Y  Y106  1  0.88888889  0.52905083  0.03506850  1.0
  Y  Y107  1  0.88888889  0.86238417  0.03506850  1.0
  Y  Y108  1  0.22222222  0.05428250  0.08304308  1.0
  Y  Y109  1  0.22222222  0.38761583  0.08304308  1.0
  Y  Y110  1  0.22222222  0.72094917  0.08304308  1.0
  Y  Y111  1  0.55555556  0.05428250  0.08304308  1.0
  Y  Y112  1  0.55555556  0.38761583  0.08304308  1.0
  Y  Y113  1  0.55555556  0.72094917  0.08304308  1.0
  Y  Y114  1  0.88888889  0.05428250  0.08304308  1.0
  Y  Y115  1  0.88888889  0.38761583  0.08304308  1.0
  Y  Y116  1  0.88888889  0.72094917  0.08304308  1.0
  Y  Y117  1  0.22222222  0.22094917  0.04137642  1.0
  Y  Y118  1  0.22222222  0.55428250  0.04137642  1.0
  Y  Y119  1  0.22222222  0.88761583  0.04137642  1.0
  Y  Y120  1  0.55555556  0.22094917  0.04137642  1.0
  Y  Y121  1  0.55555556  0.55428250  0.04137642  1.0
  Y  Y122  1  0.55555556  0.88761583  0.04137642  1.0
  Y  Y123  1  0.88888889  0.22094917  0.04137642  1.0
  Y  Y124  1  0.88888889  0.55428250  0.04137642  1.0
  Y  Y125  1  0.88888889  0.88761583  0.04137642  1.0
  Y  Y126  1  0.11111111  0.11238417  0.01423517  1.0
  Y  Y127  1  0.11111111  0.44571750  0.01423517  1.0
  Y  Y128  1  0.11111111  0.77905083  0.01423517  1.0
  Y  Y129  1  0.44444444  0.11238417  0.01423517  1.0
  Y  Y130  1  0.44444444  0.44571750  0.01423517  1.0
  Y  Y131  1  0.44444444  0.77905083  0.01423517  1.0
  Y  Y132  1  0.77777778  0.11238417  0.01423517  1.0
  Y  Y133  1  0.77777778  0.44571750  0.01423517  1.0
  Y  Y134  1  0.77777778  0.77905083  0.01423517  1.0
  Y  Y135  1  0.11111111  0.27905083  0.05590183  1.0
  Y  Y136  1  0.11111111  0.61238417  0.05590183  1.0
  Y  Y137  1  0.11111111  0.94571750  0.05590183  1.0
  Y  Y138  1  0.44444444  0.27905083  0.05590183  1.0
  Y  Y139  1  0.44444444  0.61238417  0.05590183  1.0
  Y  Y140  1  0.44444444  0.94571750  0.05590183  1.0
  Y  Y141  1  0.77777778  0.27905083  0.05590183  1.0
  Y  Y142  1  0.77777778  0.61238417  0.05590183  1.0
  Y  Y143  1  0.77777778  0.94571750  0.05590183  1.0
  Ni  Ni144  1  0.00000000  0.00000000  0.06947246  1.0
  Ni  Ni145  1  0.00000000  0.33333333  0.06947246  1.0
  Ni  Ni146  1  0.00000000  0.66666667  0.06947246  1.0
  Ni  Ni147  1  0.33333333  0.00000000  0.06947246  1.0
  Ni  Ni148  1  0.33333333  0.33333333  0.06947246  1.0
  Ni  Ni149  1  0.33333333  0.66666667  0.06947246  1.0
  Ni  Ni150  1  0.66666667  0.00000000  0.06947246  1.0
  Ni  Ni151  1  0.66666667  0.33333333  0.06947246  1.0
  Ni  Ni152  1  0.66666667  0.66666667  0.06947246  1.0
  Ni  Ni153  1  0.00000000  0.16666667  0.02780579  1.0
  Ni  Ni154  1  0.00000000  0.50000000  0.02780579  1.0
  Ni  Ni155  1  0.00000000  0.83333333  0.02780579  1.0
  Ni  Ni156  1  0.33333333  0.16666667  0.02780579  1.0
  Ni  Ni157  1  0.33333333  0.50000000  0.02780579  1.0
  Ni  Ni158  1  0.33333333  0.83333333  0.02780579  1.0
  Ni  Ni159  1  0.66666667  0.16666667  0.02780579  1.0
  Ni  Ni160  1  0.66666667  0.50000000  0.02780579  1.0
  Ni  Ni161  1  0.66666667  0.83333333  0.02780579  1.0
  Ni  Ni162  1  0.00000000  0.08333333  0.00697246  1.0
  Ni  Ni163  1  0.00000000  0.41666667  0.00697246  1.0
  Ni  Ni164  1  0.00000000  0.75000000  0.00697246  1.0
  Ni  Ni165  1  0.33333333  0.08333333  0.00697246  1.0
  Ni  Ni166  1  0.33333333  0.41666667  0.00697246  1.0
  Ni  Ni167  1  0.33333333  0.75000000  0.00697246  1.0
  Ni  Ni168  1  0.66666667  0.08333333  0.00697246  1.0
  Ni  Ni169  1  0.66666667  0.41666667  0.00697246  1.0
  Ni  Ni170  1  0.66666667  0.75000000  0.00697246  1.0
  Ni  Ni171  1  0.00000000  0.25000000  0.04863913  1.0
  Ni  Ni172  1  0.00000000  0.58333333  0.04863912  1.0
  Ni  Ni173  1  0.00000000  0.91666667  0.04863913  1.0
  Ni  Ni174  1  0.33333333  0.25000000  0.04863913  1.0
  Ni  Ni175  1  0.33333333  0.58333333  0.04863913  1.0
  Ni  Ni176  1  0.33333333  0.91666667  0.04863913  1.0
  Ni  Ni177  1  0.66666667  0.25000000  0.04863913  1.0
  Ni  Ni178  1  0.66666667  0.58333333  0.04863913  1.0
  Ni  Ni179  1  0.66666667  0.91666667  0.04863913  1.0
  Ni  Ni180  1  0.11169133  0.12500000  0.05927337  1.0
  Ni  Ni181  1  0.11169133  0.45833333  0.05927337  1.0
  Ni  Ni182  1  0.11169133  0.79166667  0.05927337  1.0
  Ni  Ni183  1  0.44502467  0.12500000  0.05927338  1.0
  Ni  Ni184  1  0.44502467  0.45833333  0.05927337  1.0
  Ni  Ni185  1  0.44502467  0.79166667  0.05927337  1.0
  Ni  Ni186  1  0.77835800  0.12500000  0.05927337  1.0
  Ni  Ni187  1  0.77835800  0.45833333  0.05927337  1.0
  Ni  Ni188  1  0.77835800  0.79166667  0.05927337  1.0
  Ni  Ni189  1  0.11169133  0.29166667  0.01760671  1.0
  Ni  Ni190  1  0.11169133  0.62500000  0.01760671  1.0
  Ni  Ni191  1  0.11169133  0.95833333  0.01760671  1.0
  Ni  Ni192  1  0.44502467  0.29166667  0.01760671  1.0
  Ni  Ni193  1  0.44502467  0.62500000  0.01760671  1.0
  Ni  Ni194  1  0.44502467  0.95833333  0.01760671  1.0
  Ni  Ni195  1  0.77835800  0.29166667  0.01760671  1.0
  Ni  Ni196  1  0.77835800  0.62500000  0.01760671  1.0
  Ni  Ni197  1  0.77835800  0.95833333  0.01760671  1.0
  Ni  Ni198  1  0.27748767  0.12500000  0.05883821  1.0
  Ni  Ni199  1  0.27748767  0.45833333  0.05883821  1.0
  Ni  Ni200  1  0.27748767  0.79166667  0.05883821  1.0
  Ni  Ni201  1  0.61082100  0.12500000  0.05883821  1.0
  Ni  Ni202  1  0.61082100  0.45833333  0.05883821  1.0
  Ni  Ni203  1  0.61082100  0.79166667  0.05883821  1.0
  Ni  Ni204  1  0.94415433  0.12500000  0.05883821  1.0
  Ni  Ni205  1  0.94415433  0.45833333  0.05883821  1.0
  Ni  Ni206  1  0.94415433  0.79166667  0.05883821  1.0
  Ni  Ni207  1  0.27748767  0.29166667  0.01717154  1.0
  Ni  Ni208  1  0.27748767  0.62500000  0.01717154  1.0
  Ni  Ni209  1  0.27748767  0.95833333  0.01717154  1.0
  Ni  Ni210  1  0.61082100  0.29166667  0.01717154  1.0
  Ni  Ni211  1  0.61082100  0.62500000  0.01717154  1.0
  Ni  Ni212  1  0.61082100  0.95833333  0.01717154  1.0
  Ni  Ni213  1  0.94415433  0.29166667  0.01717154  1.0
  Ni  Ni214  1  0.94415433  0.62500000  0.01717154  1.0
  Ni  Ni215  1  0.94415433  0.95833333  0.01717154  1.0
  Ni  Ni216  1  0.27748767  0.12500000  0.01738913  1.0
  Ni  Ni217  1  0.27748767  0.45833333  0.01738913  1.0
  Ni  Ni218  1  0.27748767  0.79166667  0.01738913  1.0
  Ni  Ni219  1  0.61082100  0.12500000  0.01738913  1.0
  Ni  Ni220  1  0.61082100  0.45833333  0.01738913  1.0
  Ni  Ni221  1  0.61082100  0.79166667  0.01738913  1.0
  Ni  Ni222  1  0.94415433  0.12500000  0.01738913  1.0
  Ni  Ni223  1  0.94415433  0.45833333  0.01738913  1.0
  Ni  Ni224  1  0.94415433  0.79166667  0.01738913  1.0
  Ni  Ni225  1  0.27748767  0.29166667  0.05905579  1.0
  Ni  Ni226  1  0.27748767  0.62500000  0.05905579  1.0
  Ni  Ni227  1  0.27748767  0.95833333  0.05905579  1.0
  Ni  Ni228  1  0.61082100  0.29166667  0.05905579  1.0
  Ni  Ni229  1  0.61082100  0.62500000  0.05905579  1.0
  Ni  Ni230  1  0.61082100  0.95833333  0.05905579  1.0
  Ni  Ni231  1  0.94415433  0.29166667  0.05905579  1.0
  Ni  Ni232  1  0.94415433  0.62500000  0.05905579  1.0
  Ni  Ni233  1  0.94415433  0.95833333  0.05905579  1.0
  Ni  Ni234  1  0.22164200  0.04166667  0.03800487  1.0
  Ni  Ni235  1  0.22164200  0.37500000  0.03800487  1.0
  Ni  Ni236  1  0.22164200  0.70833333  0.03800487  1.0
  Ni  Ni237  1  0.55497533  0.04166667  0.03800487  1.0
  Ni  Ni238  1  0.55497533  0.37500000  0.03800487  1.0
  Ni  Ni239  1  0.55497533  0.70833333  0.03800487  1.0
  Ni  Ni240  1  0.88830867  0.04166667  0.03800487  1.0
  Ni  Ni241  1  0.88830867  0.37500000  0.03800487  1.0
  Ni  Ni242  1  0.88830867  0.70833333  0.03800487  1.0
  Ni  Ni243  1  0.22164200  0.20833333  0.07967154  1.0
  Ni  Ni244  1  0.22164200  0.54166667  0.07967154  1.0
  Ni  Ni245  1  0.22164200  0.87500000  0.07967154  1.0
  Ni  Ni246  1  0.55497533  0.20833333  0.07967154  1.0
  Ni  Ni247  1  0.55497533  0.54166667  0.07967154  1.0
  Ni  Ni248  1  0.55497533  0.87500000  0.07967154  1.0
  Ni  Ni249  1  0.88830867  0.20833333  0.07967154  1.0
  Ni  Ni250  1  0.88830867  0.54166667  0.07967154  1.0
  Ni  Ni251  1  0.88830867  0.87500000  0.07967154  1.0
  Ni  Ni252  1  0.05584567  0.04166667  0.03844004  1.0
  Ni  Ni253  1  0.05584567  0.37500000  0.03844004  1.0
  Ni  Ni254  1  0.05584567  0.70833333  0.03844004  1.0
  Ni  Ni255  1  0.38917900  0.04166667  0.03844004  1.0
  Ni  Ni256  1  0.38917900  0.37500000  0.03844004  1.0
  Ni  Ni257  1  0.38917900  0.70833333  0.03844004  1.0
  Ni  Ni258  1  0.72251233  0.04166667  0.03844004  1.0
  Ni  Ni259  1  0.72251233  0.37500000  0.03844004  1.0
  Ni  Ni260  1  0.72251233  0.70833333  0.03844004  1.0
  Ni  Ni261  1  0.05584567  0.20833333  0.08010671  1.0
  Ni  Ni262  1  0.05584567  0.54166667  0.08010671  1.0
  Ni  Ni263  1  0.05584567  0.87500000  0.08010671  1.0
  Ni  Ni264  1  0.38917900  0.20833333  0.08010671  1.0
  Ni  Ni265  1  0.38917900  0.54166667  0.08010671  1.0
  Ni  Ni266  1  0.38917900  0.87500000  0.08010671  1.0
  Ni  Ni267  1  0.72251233  0.20833333  0.08010671  1.0
  Ni  Ni268  1  0.72251233  0.54166667  0.08010671  1.0
  Ni  Ni269  1  0.72251233  0.87500000  0.08010671  1.0
  Ni  Ni270  1  0.05584567  0.04166667  0.07988912  1.0
  Ni  Ni271  1  0.05584567  0.37500000  0.07988912  1.0
  Ni  Ni272  1  0.05584567  0.70833333  0.07988912  1.0
  Ni  Ni273  1  0.38917900  0.04166667  0.07988912  1.0
  Ni  Ni274  1  0.38917900  0.37500000  0.07988912  1.0
  Ni  Ni275  1  0.38917900  0.70833333  0.07988912  1.0
  Ni  Ni276  1  0.72251233  0.04166667  0.07988912  1.0
  Ni  Ni277  1  0.72251233  0.37500000  0.07988912  1.0
  Ni  Ni278  1  0.72251233  0.70833333  0.07988912  1.0
  Ni  Ni279  1  0.05584567  0.20833333  0.03822246  1.0
  Ni  Ni280  1  0.05584567  0.54166667  0.03822246  1.0
  Ni  Ni281  1  0.05584567  0.87500000  0.03822246  1.0
  Ni  Ni282  1  0.38917900  0.20833333  0.03822246  1.0
  Ni  Ni283  1  0.38917900  0.54166667  0.03822246  1.0
  Ni  Ni284  1  0.38917900  0.87500000  0.03822246  1.0
  Ni  Ni285  1  0.72251233  0.20833333  0.03822246  1.0
  Ni  Ni286  1  0.72251233  0.54166667  0.03822246  1.0
  Ni  Ni287  1  0.72251233  0.87500000  0.03822246  1.0
  Ni  Ni288  1  0.11093733  0.15224517  0.06580192  1.0
  Ni  Ni289  1  0.11093733  0.48557850  0.06580192  1.0
  Ni  Ni290  1  0.11093733  0.81891183  0.06580192  1.0
  Ni  Ni291  1  0.44427067  0.15224517  0.06580192  1.0
  Ni  Ni292  1  0.44427067  0.48557850  0.06580192  1.0
  Ni  Ni293  1  0.44427067  0.81891183  0.06580192  1.0
  Ni  Ni294  1  0.77760400  0.15224517  0.06580192  1.0
  Ni  Ni295  1  0.77760400  0.48557850  0.06580192  1.0
  Ni  Ni296  1  0.77760400  0.81891183  0.06580192  1.0
  Ni  Ni297  1  0.11093733  0.31891183  0.02413525  1.0
  Ni  Ni298  1  0.11093733  0.65224517  0.02413525  1.0
  Ni  Ni299  1  0.11093733  0.98557850  0.02413525  1.0
  Ni  Ni300  1  0.44427067  0.31891183  0.02413525  1.0
  Ni  Ni301  1  0.44427067  0.65224517  0.02413525  1.0
  Ni  Ni302  1  0.44427067  0.98557850  0.02413525  1.0
  Ni  Ni303  1  0.77760400  0.31891183  0.02413525  1.0
  Ni  Ni304  1  0.77760400  0.65224517  0.02413525  1.0
  Ni  Ni305  1  0.77760400  0.98557850  0.02413525  1.0
  Ni  Ni306  1  0.27786467  0.15224517  0.06593225  1.0
  Ni  Ni307  1  0.27786467  0.48557850  0.06593225  1.0
  Ni  Ni308  1  0.27786467  0.81891183  0.06593225  1.0
  Ni  Ni309  1  0.61119800  0.15224517  0.06593225  1.0
  Ni  Ni310  1  0.61119800  0.48557850  0.06593225  1.0
  Ni  Ni311  1  0.61119800  0.81891183  0.06593225  1.0
  Ni  Ni312  1  0.94453133  0.15224517  0.06593225  1.0
  Ni  Ni313  1  0.94453133  0.48557850  0.06593225  1.0
  Ni  Ni314  1  0.94453133  0.81891183  0.06593225  1.0
  Ni  Ni315  1  0.27786467  0.31891183  0.02426558  1.0
  Ni  Ni316  1  0.27786467  0.65224517  0.02426558  1.0
  Ni  Ni317  1  0.27786467  0.98557850  0.02426558  1.0
  Ni  Ni318  1  0.61119800  0.31891183  0.02426558  1.0
  Ni  Ni319  1  0.61119800  0.65224517  0.02426558  1.0
  Ni  Ni320  1  0.61119800  0.98557850  0.02426558  1.0
  Ni  Ni321  1  0.94453133  0.31891183  0.02426558  1.0
  Ni  Ni322  1  0.94453133  0.65224517  0.02426558  1.0
  Ni  Ni323  1  0.94453133  0.98557850  0.02426558  1.0
  Ni  Ni324  1  0.27786467  0.15224517  0.02420042  1.0
  Ni  Ni325  1  0.27786467  0.48557850  0.02420042  1.0
  Ni  Ni326  1  0.27786467  0.81891183  0.02420042  1.0
  Ni  Ni327  1  0.61119800  0.15224517  0.02420042  1.0
  Ni  Ni328  1  0.61119800  0.48557850  0.02420042  1.0
  Ni  Ni329  1  0.61119800  0.81891183  0.02420042  1.0
  Ni  Ni330  1  0.94453133  0.15224517  0.02420042  1.0
  Ni  Ni331  1  0.94453133  0.48557850  0.02420042  1.0
  Ni  Ni332  1  0.94453133  0.81891183  0.02420042  1.0
  Ni  Ni333  1  0.27786467  0.31891183  0.06586708  1.0
  Ni  Ni334  1  0.27786467  0.65224517  0.06586708  1.0
  Ni  Ni335  1  0.27786467  0.98557850  0.06586708  1.0
  Ni  Ni336  1  0.61119800  0.31891183  0.06586708  1.0
  Ni  Ni337  1  0.61119800  0.65224517  0.06586708  1.0
  Ni  Ni338  1  0.61119800  0.98557850  0.06586708  1.0
  Ni  Ni339  1  0.94453133  0.31891183  0.06586708  1.0
  Ni  Ni340  1  0.94453133  0.65224517  0.06586708  1.0
  Ni  Ni341  1  0.94453133  0.98557850  0.06586708  1.0
  Ni  Ni342  1  0.22239600  0.01442150  0.03147633  1.0
  Ni  Ni343  1  0.22239600  0.34775483  0.03147633  1.0
  Ni  Ni344  1  0.22239600  0.68108817  0.03147633  1.0
  Ni  Ni345  1  0.55572933  0.01442150  0.03147633  1.0
  Ni  Ni346  1  0.55572933  0.34775483  0.03147633  1.0
  Ni  Ni347  1  0.55572933  0.68108817  0.03147633  1.0
  Ni  Ni348  1  0.88906267  0.01442150  0.03147633  1.0
  Ni  Ni349  1  0.88906267  0.34775483  0.03147633  1.0
  Ni  Ni350  1  0.88906267  0.68108817  0.03147633  1.0
  Ni  Ni351  1  0.22239600  0.18108817  0.07314300  1.0
  Ni  Ni352  1  0.22239600  0.51442150  0.07314300  1.0
  Ni  Ni353  1  0.22239600  0.84775483  0.07314300  1.0
  Ni  Ni354  1  0.55572933  0.18108817  0.07314300  1.0
  Ni  Ni355  1  0.55572933  0.51442150  0.07314300  1.0
  Ni  Ni356  1  0.55572933  0.84775483  0.07314300  1.0
  Ni  Ni357  1  0.88906267  0.18108817  0.07314300  1.0
  Ni  Ni358  1  0.88906267  0.51442150  0.07314300  1.0
  Ni  Ni359  1  0.88906267  0.84775483  0.07314300  1.0
  Ni  Ni360  1  0.05546867  0.01442150  0.03134600  1.0
  Ni  Ni361  1  0.05546867  0.34775483  0.03134600  1.0
  Ni  Ni362  1  0.05546867  0.68108817  0.03134600  1.0
  Ni  Ni363  1  0.38880200  0.01442150  0.03134600  1.0
  Ni  Ni364  1  0.38880200  0.34775483  0.03134600  1.0
  Ni  Ni365  1  0.38880200  0.68108817  0.03134600  1.0
  Ni  Ni366  1  0.72213533  0.01442150  0.03134600  1.0
  Ni  Ni367  1  0.72213533  0.34775483  0.03134600  1.0
  Ni  Ni368  1  0.72213533  0.68108817  0.03134600  1.0
  Ni  Ni369  1  0.05546867  0.18108817  0.07301267  1.0
  Ni  Ni370  1  0.05546867  0.51442150  0.07301267  1.0
  Ni  Ni371  1  0.05546867  0.84775483  0.07301267  1.0
  Ni  Ni372  1  0.38880200  0.18108817  0.07301267  1.0
  Ni  Ni373  1  0.38880200  0.51442150  0.07301267  1.0
  Ni  Ni374  1  0.38880200  0.84775483  0.07301267  1.0
  Ni  Ni375  1  0.72213533  0.18108817  0.07301267  1.0
  Ni  Ni376  1  0.72213533  0.51442150  0.07301267  1.0
  Ni  Ni377  1  0.72213533  0.84775483  0.07301267  1.0
  Ni  Ni378  1  0.05546867  0.01442150  0.07307783  1.0
  Ni  Ni379  1  0.05546867  0.34775483  0.07307783  1.0
  Ni  Ni380  1  0.05546867  0.68108817  0.07307783  1.0
  Ni  Ni381  1  0.38880200  0.01442150  0.07307783  1.0
  Ni  Ni382  1  0.38880200  0.34775483  0.07307783  1.0
  Ni  Ni383  1  0.38880200  0.68108817  0.07307783  1.0
  Ni  Ni384  1  0.72213533  0.01442150  0.07307783  1.0
  Ni  Ni385  1  0.72213533  0.34775483  0.07307783  1.0
  Ni  Ni386  1  0.72213533  0.68108817  0.07307783  1.0
  Ni  Ni387  1  0.05546867  0.18108817  0.03141117  1.0
  Ni  Ni388  1  0.05546867  0.51442150  0.03141117  1.0
  Ni  Ni389  1  0.05546867  0.84775483  0.03141117  1.0
  Ni  Ni390  1  0.38880200  0.18108817  0.03141117  1.0
  Ni  Ni391  1  0.38880200  0.51442150  0.03141117  1.0
  Ni  Ni392  1  0.38880200  0.84775483  0.03141117  1.0
  Ni  Ni393  1  0.72213533  0.18108817  0.03141117  1.0
  Ni  Ni394  1  0.72213533  0.51442150  0.03141117  1.0
  Ni  Ni395  1  0.72213533  0.84775483  0.03141117  1.0
  Ni  Ni396  1  0.22239600  0.06891183  0.04509892  1.0
  Ni  Ni397  1  0.22239600  0.40224517  0.04509892  1.0
  Ni  Ni398  1  0.22239600  0.73557850  0.04509892  1.0
  Ni  Ni399  1  0.55572933  0.06891183  0.04509892  1.0
  Ni  Ni400  1  0.55572933  0.40224517  0.04509892  1.0
  Ni  Ni401  1  0.55572933  0.73557850  0.04509892  1.0
  Ni  Ni402  1  0.88906267  0.06891183  0.04509892  1.0
  Ni  Ni403  1  0.88906267  0.40224517  0.04509892  1.0
  Ni  Ni404  1  0.88906267  0.73557850  0.04509892  1.0
  Ni  Ni405  1  0.22239600  0.23557850  0.00343225  1.0
  Ni  Ni406  1  0.22239600  0.56891183  0.00343225  1.0
  Ni  Ni407  1  0.22239600  0.90224517  0.00343225  1.0
  Ni  Ni408  1  0.55572933  0.23557850  0.00343225  1.0
  Ni  Ni409  1  0.55572933  0.56891183  0.00343225  1.0
  Ni  Ni410  1  0.55572933  0.90224517  0.00343225  1.0
  Ni  Ni411  1  0.88906267  0.23557850  0.00343225  1.0
  Ni  Ni412  1  0.88906267  0.56891183  0.00343225  1.0
  Ni  Ni413  1  0.88906267  0.90224517  0.00343225  1.0
  Ni  Ni414  1  0.05546867  0.06891183  0.04496858  1.0
  Ni  Ni415  1  0.05546867  0.40224517  0.04496858  1.0
  Ni  Ni416  1  0.05546867  0.73557850  0.04496858  1.0
  Ni  Ni417  1  0.38880200  0.06891183  0.04496858  1.0
  Ni  Ni418  1  0.38880200  0.40224517  0.04496858  1.0
  Ni  Ni419  1  0.38880200  0.73557850  0.04496858  1.0
  Ni  Ni420  1  0.72213533  0.06891183  0.04496858  1.0
  Ni  Ni421  1  0.72213533  0.40224517  0.04496858  1.0
  Ni  Ni422  1  0.72213533  0.73557850  0.04496858  1.0
  Ni  Ni423  1  0.05546867  0.23557850  0.00330192  1.0
  Ni  Ni424  1  0.05546867  0.56891183  0.00330192  1.0
  Ni  Ni425  1  0.05546867  0.90224517  0.00330192  1.0
  Ni  Ni426  1  0.38880200  0.23557850  0.00330192  1.0
  Ni  Ni427  1  0.38880200  0.56891183  0.00330192  1.0
  Ni  Ni428  1  0.38880200  0.90224517  0.00330192  1.0
  Ni  Ni429  1  0.72213533  0.23557850  0.00330192  1.0
  Ni  Ni430  1  0.72213533  0.56891183  0.00330192  1.0
  Ni  Ni431  1  0.72213533  0.90224517  0.00330192  1.0
  Ni  Ni432  1  0.05546867  0.06891183  0.00336708  1.0
  Ni  Ni433  1  0.05546867  0.40224517  0.00336708  1.0
  Ni  Ni434  1  0.05546867  0.73557850  0.00336708  1.0
  Ni  Ni435  1  0.38880200  0.06891183  0.00336708  1.0
  Ni  Ni436  1  0.38880200  0.40224517  0.00336708  1.0
  Ni  Ni437  1  0.38880200  0.73557850  0.00336708  1.0
  Ni  Ni438  1  0.72213533  0.06891183  0.00336708  1.0
  Ni  Ni439  1  0.72213533  0.40224517  0.00336708  1.0
  Ni  Ni440  1  0.72213533  0.73557850  0.00336708  1.0
  Ni  Ni441  1  0.05546867  0.23557850  0.04503375  1.0
  Ni  Ni442  1  0.05546867  0.56891183  0.04503375  1.0
  Ni  Ni443  1  0.05546867  0.90224517  0.04503375  1.0
  Ni  Ni444  1  0.38880200  0.23557850  0.04503375  1.0
  Ni  Ni445  1  0.38880200  0.56891183  0.04503375  1.0
  Ni  Ni446  1  0.38880200  0.90224517  0.04503375  1.0
  Ni  Ni447  1  0.72213533  0.23557850  0.04503375  1.0
  Ni  Ni448  1  0.72213533  0.56891183  0.04503375  1.0
  Ni  Ni449  1  0.72213533  0.90224517  0.04503375  1.0
  Ni  Ni450  1  0.11093733  0.09775483  0.05217933  1.0
  Ni  Ni451  1  0.11093733  0.43108817  0.05217933  1.0
  Ni  Ni452  1  0.11093733  0.76442150  0.05217933  1.0
  Ni  Ni453  1  0.44427067  0.09775483  0.05217933  1.0
  Ni  Ni454  1  0.44427067  0.43108817  0.05217933  1.0
  Ni  Ni455  1  0.44427067  0.76442150  0.05217933  1.0
  Ni  Ni456  1  0.77760400  0.09775483  0.05217933  1.0
  Ni  Ni457  1  0.77760400  0.43108817  0.05217933  1.0
  Ni  Ni458  1  0.77760400  0.76442150  0.05217933  1.0
  Ni  Ni459  1  0.11093733  0.26442150  0.01051267  1.0
  Ni  Ni460  1  0.11093733  0.59775483  0.01051267  1.0
  Ni  Ni461  1  0.11093733  0.93108817  0.01051267  1.0
  Ni  Ni462  1  0.44427067  0.26442150  0.01051267  1.0
  Ni  Ni463  1  0.44427067  0.59775483  0.01051267  1.0
  Ni  Ni464  1  0.44427067  0.93108817  0.01051267  1.0
  Ni  Ni465  1  0.77760400  0.26442150  0.01051267  1.0
  Ni  Ni466  1  0.77760400  0.59775483  0.01051267  1.0
  Ni  Ni467  1  0.77760400  0.93108817  0.01051267  1.0
  Ni  Ni468  1  0.27786467  0.09775483  0.05230967  1.0
  Ni  Ni469  1  0.27786467  0.43108817  0.05230967  1.0
  Ni  Ni470  1  0.27786467  0.76442150  0.05230967  1.0
  Ni  Ni471  1  0.61119800  0.09775483  0.05230967  1.0
  Ni  Ni472  1  0.61119800  0.43108817  0.05230967  1.0
  Ni  Ni473  1  0.61119800  0.76442150  0.05230967  1.0
  Ni  Ni474  1  0.94453133  0.09775483  0.05230967  1.0
  Ni  Ni475  1  0.94453133  0.43108817  0.05230967  1.0
  Ni  Ni476  1  0.94453133  0.76442150  0.05230967  1.0
  Ni  Ni477  1  0.27786467  0.26442150  0.01064300  1.0
  Ni  Ni478  1  0.27786467  0.59775483  0.01064300  1.0
  Ni  Ni479  1  0.27786467  0.93108817  0.01064300  1.0
  Ni  Ni480  1  0.61119800  0.26442150  0.01064300  1.0
  Ni  Ni481  1  0.61119800  0.59775483  0.01064300  1.0
  Ni  Ni482  1  0.61119800  0.93108817  0.01064300  1.0
  Ni  Ni483  1  0.94453133  0.26442150  0.01064300  1.0
  Ni  Ni484  1  0.94453133  0.59775483  0.01064300  1.0
  Ni  Ni485  1  0.94453133  0.93108817  0.01064300  1.0
  Ni  Ni486  1  0.27786467  0.09775483  0.01057783  1.0
  Ni  Ni487  1  0.27786467  0.43108817  0.01057783  1.0
  Ni  Ni488  1  0.27786467  0.76442150  0.01057783  1.0
  Ni  Ni489  1  0.61119800  0.09775483  0.01057783  1.0
  Ni  Ni490  1  0.61119800  0.43108817  0.01057783  1.0
  Ni  Ni491  1  0.61119800  0.76442150  0.01057783  1.0
  Ni  Ni492  1  0.94453133  0.09775483  0.01057783  1.0
  Ni  Ni493  1  0.94453133  0.43108817  0.01057783  1.0
  Ni  Ni494  1  0.94453133  0.76442150  0.01057783  1.0
  Ni  Ni495  1  0.27786467  0.26442150  0.05224450  1.0
  Ni  Ni496  1  0.27786467  0.59775483  0.05224450  1.0
  Ni  Ni497  1  0.27786467  0.93108817  0.05224450  1.0
  Ni  Ni498  1  0.61119800  0.26442150  0.05224450  1.0
  Ni  Ni499  1  0.61119800  0.59775483  0.05224450  1.0
  Ni  Ni500  1  0.61119800  0.93108817  0.05224450  1.0
  Ni  Ni501  1  0.94453133  0.26442150  0.05224450  1.0
  Ni  Ni502  1  0.94453133  0.59775483  0.05224450  1.0
  Ni  Ni503  1  0.94453133  0.93108817  0.05224450  1.0
  Ni  Ni504  1  0.00000000  0.13856767  0.02078104  1.0
  Ni  Ni505  1  0.00000000  0.47190100  0.02078104  1.0
  Ni  Ni506  1  0.00000000  0.80523433  0.02078104  1.0
  Ni  Ni507  1  0.33333333  0.13856767  0.02078104  1.0
  Ni  Ni508  1  0.33333333  0.47190100  0.02078104  1.0
  Ni  Ni509  1  0.33333333  0.80523433  0.02078104  1.0
  Ni  Ni510  1  0.66666667  0.13856767  0.02078104  1.0
  Ni  Ni511  1  0.66666667  0.47190100  0.02078104  1.0
  Ni  Ni512  1  0.66666667  0.80523433  0.02078104  1.0
  Ni  Ni513  1  0.00000000  0.30523433  0.06244771  1.0
  Ni  Ni514  1  0.00000000  0.63856767  0.06244771  1.0
  Ni  Ni515  1  0.00000000  0.97190100  0.06244771  1.0
  Ni  Ni516  1  0.33333333  0.30523433  0.06244771  1.0
  Ni  Ni517  1  0.33333333  0.63856767  0.06244771  1.0
  Ni  Ni518  1  0.33333333  0.97190100  0.06244771  1.0
  Ni  Ni519  1  0.66666667  0.30523433  0.06244771  1.0
  Ni  Ni520  1  0.66666667  0.63856767  0.06244771  1.0
  Ni  Ni521  1  0.66666667  0.97190100  0.06244771  1.0
  Ni  Ni522  1  0.00000000  0.02809900  0.07649721  1.0
  Ni  Ni523  1  0.00000000  0.36143233  0.07649721  1.0
  Ni  Ni524  1  0.00000000  0.69476567  0.07649721  1.0
  Ni  Ni525  1  0.33333333  0.02809900  0.07649721  1.0
  Ni  Ni526  1  0.33333333  0.36143233  0.07649721  1.0
  Ni  Ni527  1  0.33333333  0.69476567  0.07649721  1.0
  Ni  Ni528  1  0.66666667  0.02809900  0.07649721  1.0
  Ni  Ni529  1  0.66666667  0.36143233  0.07649721  1.0
  Ni  Ni530  1  0.66666667  0.69476567  0.07649721  1.0
  Ni  Ni531  1  0.00000000  0.19476567  0.03483054  1.0
  Ni  Ni532  1  0.00000000  0.52809900  0.03483054  1.0
  Ni  Ni533  1  0.00000000  0.86143233  0.03483054  1.0
  Ni  Ni534  1  0.33333333  0.19476567  0.03483054  1.0
  Ni  Ni535  1  0.33333333  0.52809900  0.03483054  1.0
  Ni  Ni536  1  0.33333333  0.86143233  0.03483054  1.0
  Ni  Ni537  1  0.66666667  0.19476567  0.03483054  1.0
  Ni  Ni538  1  0.66666667  0.52809900  0.03483054  1.0
  Ni  Ni539  1  0.66666667  0.86143233  0.03483054  1.0
  Ni  Ni540  1  0.00000000  0.05523433  0.08328104  1.0
  Ni  Ni541  1  0.00000000  0.38856767  0.08328104  1.0
  Ni  Ni542  1  0.00000000  0.72190100  0.08328104  1.0
  Ni  Ni543  1  0.33333333  0.05523433  0.08328104  1.0
  Ni  Ni544  1  0.33333333  0.38856767  0.08328104  1.0
  Ni  Ni545  1  0.33333333  0.72190100  0.08328104  1.0
  Ni  Ni546  1  0.66666667  0.05523433  0.08328104  1.0
  Ni  Ni547  1  0.66666667  0.38856767  0.08328104  1.0
  Ni  Ni548  1  0.66666667  0.72190100  0.08328104  1.0
  Ni  Ni549  1  0.00000000  0.22190100  0.04161438  1.0
  Ni  Ni550  1  0.00000000  0.55523433  0.04161438  1.0
  Ni  Ni551  1  0.00000000  0.88856767  0.04161438  1.0
  Ni  Ni552  1  0.33333333  0.22190100  0.04161438  1.0
  Ni  Ni553  1  0.33333333  0.55523433  0.04161438  1.0
  Ni  Ni554  1  0.33333333  0.88856767  0.04161438  1.0
  Ni  Ni555  1  0.66666667  0.22190100  0.04161438  1.0
  Ni  Ni556  1  0.66666667  0.55523433  0.04161438  1.0
  Ni  Ni557  1  0.66666667  0.88856767  0.04161438  1.0
  Ni  Ni558  1  0.00000000  0.11143233  0.01399721  1.0
  Ni  Ni559  1  0.00000000  0.44476567  0.01399721  1.0
  Ni  Ni560  1  0.00000000  0.77809900  0.01399721  1.0
  Ni  Ni561  1  0.33333333  0.11143233  0.01399721  1.0
  Ni  Ni562  1  0.33333333  0.44476567  0.01399721  1.0
  Ni  Ni563  1  0.33333333  0.77809900  0.01399721  1.0
  Ni  Ni564  1  0.66666667  0.11143233  0.01399721  1.0
  Ni  Ni565  1  0.66666667  0.44476567  0.01399721  1.0
  Ni  Ni566  1  0.66666667  0.77809900  0.01399721  1.0
  Ni  Ni567  1  0.00000000  0.27809900  0.05566388  1.0
  Ni  Ni568  1  0.00000000  0.61143233  0.05566388  1.0
  Ni  Ni569  1  0.00000000  0.94476567  0.05566388  1.0
  Ni  Ni570  1  0.33333333  0.27809900  0.05566387  1.0
  Ni  Ni571  1  0.33333333  0.61143233  0.05566387  1.0
  Ni  Ni572  1  0.33333333  0.94476567  0.05566387  1.0
  Ni  Ni573  1  0.66666667  0.27809900  0.05566388  1.0
  Ni  Ni574  1  0.66666667  0.61143233  0.05566388  1.0
  Ni  Ni575  1  0.66666667  0.94476567  0.05566388  1.0
  Ni  Ni576  1  0.11111111  0.02788983  0.07644492  1.0
  Ni  Ni577  1  0.11111111  0.36122317  0.07644492  1.0
  Ni  Ni578  1  0.11111111  0.69455650  0.07644492  1.0
  Ni  Ni579  1  0.44444444  0.02788983  0.07644492  1.0
  Ni  Ni580  1  0.44444444  0.36122317  0.07644492  1.0
  Ni  Ni581  1  0.44444444  0.69455650  0.07644492  1.0
  Ni  Ni582  1  0.77777778  0.02788983  0.07644492  1.0
  Ni  Ni583  1  0.77777778  0.36122317  0.07644492  1.0
  Ni  Ni584  1  0.77777778  0.69455650  0.07644492  1.0
  Ni  Ni585  1  0.11111111  0.19455650  0.03477825  1.0
  Ni  Ni586  1  0.11111111  0.52788983  0.03477825  1.0
  Ni  Ni587  1  0.11111111  0.86122317  0.03477825  1.0
  Ni  Ni588  1  0.44444444  0.19455650  0.03477825  1.0
  Ni  Ni589  1  0.44444444  0.52788983  0.03477825  1.0
  Ni  Ni590  1  0.44444444  0.86122317  0.03477825  1.0
  Ni  Ni591  1  0.77777778  0.19455650  0.03477825  1.0
  Ni  Ni592  1  0.77777778  0.52788983  0.03477825  1.0
  Ni  Ni593  1  0.77777778  0.86122317  0.03477825  1.0
  Ni  Ni594  1  0.22222222  0.13877683  0.02083333  1.0
  Ni  Ni595  1  0.22222222  0.47211017  0.02083333  1.0
  Ni  Ni596  1  0.22222222  0.80544350  0.02083333  1.0
  Ni  Ni597  1  0.55555556  0.13877683  0.02083333  1.0
  Ni  Ni598  1  0.55555556  0.47211017  0.02083333  1.0
  Ni  Ni599  1  0.55555556  0.80544350  0.02083333  1.0
  Ni  Ni600  1  0.88888889  0.13877683  0.02083333  1.0
  Ni  Ni601  1  0.88888889  0.47211017  0.02083333  1.0
  Ni  Ni602  1  0.88888889  0.80544350  0.02083333  1.0
  Ni  Ni603  1  0.22222222  0.30544350  0.06250000  1.0
  Ni  Ni604  1  0.22222222  0.63877683  0.06250000  1.0
  Ni  Ni605  1  0.22222222  0.97211017  0.06250000  1.0
  Ni  Ni606  1  0.55555556  0.30544350  0.06250000  1.0
  Ni  Ni607  1  0.55555556  0.63877683  0.06250000  1.0
  Ni  Ni608  1  0.55555556  0.97211017  0.06250000  1.0
  Ni  Ni609  1  0.88888889  0.30544350  0.06250000  1.0
  Ni  Ni610  1  0.88888889  0.63877683  0.06250000  1.0
  Ni  Ni611  1  0.88888889  0.97211017  0.06250000  1.0
  Ni  Ni612  1  0.22222222  0.11122317  0.01394492  1.0
  Ni  Ni613  1  0.22222222  0.44455650  0.01394492  1.0
  Ni  Ni614  1  0.22222222  0.77788983  0.01394492  1.0
  Ni  Ni615  1  0.55555556  0.11122317  0.01394492  1.0
  Ni  Ni616  1  0.55555556  0.44455650  0.01394492  1.0
  Ni  Ni617  1  0.55555556  0.77788983  0.01394492  1.0
  Ni  Ni618  1  0.88888889  0.11122317  0.01394492  1.0
  Ni  Ni619  1  0.88888889  0.44455650  0.01394492  1.0
  Ni  Ni620  1  0.88888889  0.77788983  0.01394492  1.0
  Ni  Ni621  1  0.22222222  0.27788983  0.05561158  1.0
  Ni  Ni622  1  0.22222222  0.61122317  0.05561158  1.0
  Ni  Ni623  1  0.22222222  0.94455650  0.05561158  1.0
  Ni  Ni624  1  0.55555556  0.27788983  0.05561158  1.0
  Ni  Ni625  1  0.55555556  0.61122317  0.05561158  1.0
  Ni  Ni626  1  0.55555556  0.94455650  0.05561158  1.0
  Ni  Ni627  1  0.88888889  0.27788983  0.05561158  1.0
  Ni  Ni628  1  0.88888889  0.61122317  0.05561158  1.0
  Ni  Ni629  1  0.88888889  0.94455650  0.05561158  1.0
  Ni  Ni630  1  0.11111111  0.05544350  0.00000000  1.0
  Ni  Ni631  1  0.11111111  0.38877683  0.00000000  1.0
  Ni  Ni632  1  0.11111111  0.72211017  0.00000000  1.0
  Ni  Ni633  1  0.44444444  0.05544350  0.00000000  1.0
  Ni  Ni634  1  0.44444444  0.38877683  0.00000000  1.0
  Ni  Ni635  1  0.44444444  0.72211017  0.00000000  1.0
  Ni  Ni636  1  0.77777778  0.05544350  0.00000000  1.0
  Ni  Ni637  1  0.77777778  0.38877683  0.00000000  1.0
  Ni  Ni638  1  0.77777778  0.72211017  0.00000000  1.0
  Ni  Ni639  1  0.11111111  0.22211017  0.04166667  1.0
  Ni  Ni640  1  0.11111111  0.55544350  0.04166667  1.0
  Ni  Ni641  1  0.11111111  0.88877683  0.04166667  1.0
  Ni  Ni642  1  0.44444444  0.22211017  0.04166667  1.0
  Ni  Ni643  1  0.44444444  0.55544350  0.04166667  1.0
  Ni  Ni644  1  0.44444444  0.88877683  0.04166667  1.0
  Ni  Ni645  1  0.77777778  0.22211017  0.04166667  1.0
  Ni  Ni646  1  0.77777778  0.55544350  0.04166667  1.0
  Ni  Ni647  1  0.77777778  0.88877683  0.04166667  1.0
  Y  Y648  1  0.11111111  0.16166850  0.10988958  1.0
  Y  Y649  1  0.11111111  0.49500183  0.10988958  1.0
  Y  Y650  1  0.11111111  0.82833517  0.10988958  1.0
  Y  Y651  1  0.44444444  0.16166850  0.10988958  1.0
  Y  Y652  1  0.44444444  0.49500183  0.10988958  1.0
  Y  Y653  1  0.44444444  0.82833517  0.10988958  1.0
  Y  Y654  1  0.77777778  0.16166850  0.10988958  1.0
  Y  Y655  1  0.77777778  0.49500183  0.10988958  1.0
  Y  Y656  1  0.77777778  0.82833517  0.10988958  1.0
  Y  Y657  1  0.11111111  0.32833517  0.15155625  1.0
  Y  Y658  1  0.11111111  0.66166850  0.15155625  1.0
  Y  Y659  1  0.11111111  0.99500183  0.15155625  1.0
  Y  Y660  1  0.44444444  0.32833517  0.15155625  1.0
  Y  Y661  1  0.44444444  0.66166850  0.15155625  1.0
  Y  Y662  1  0.44444444  0.99500183  0.15155625  1.0
  Y  Y663  1  0.77777778  0.32833517  0.15155625  1.0
  Y  Y664  1  0.77777778  0.66166850  0.15155625  1.0
  Y  Y665  1  0.77777778  0.99500183  0.15155625  1.0
  Y  Y666  1  0.22222222  0.00499817  0.15405533  1.0
  Y  Y667  1  0.22222222  0.33833150  0.15405533  1.0
  Y  Y668  1  0.22222222  0.67166483  0.15405533  1.0
  Y  Y669  1  0.55555556  0.00499817  0.15405533  1.0
  Y  Y670  1  0.55555556  0.33833150  0.15405533  1.0
  Y  Y671  1  0.55555556  0.67166483  0.15405533  1.0
  Y  Y672  1  0.88888889  0.00499817  0.15405533  1.0
  Y  Y673  1  0.88888889  0.33833150  0.15405533  1.0
  Y  Y674  1  0.88888889  0.67166483  0.15405533  1.0
  Y  Y675  1  0.22222222  0.17166483  0.11238867  1.0
  Y  Y676  1  0.22222222  0.50499817  0.11238867  1.0
  Y  Y677  1  0.22222222  0.83833150  0.11238867  1.0
  Y  Y678  1  0.55555556  0.17166483  0.11238867  1.0
  Y  Y679  1  0.55555556  0.50499817  0.11238867  1.0
  Y  Y680  1  0.55555556  0.83833150  0.11238867  1.0
  Y  Y681  1  0.88888889  0.17166483  0.11238867  1.0
  Y  Y682  1  0.88888889  0.50499817  0.11238867  1.0
  Y  Y683  1  0.88888889  0.83833150  0.11238867  1.0
  Y  Y684  1  0.22222222  0.07833517  0.08905625  1.0
  Y  Y685  1  0.22222222  0.41166850  0.08905625  1.0
  Y  Y686  1  0.22222222  0.74500183  0.08905625  1.0
  Y  Y687  1  0.55555556  0.07833517  0.08905625  1.0
  Y  Y688  1  0.55555556  0.41166850  0.08905625  1.0
  Y  Y689  1  0.55555556  0.74500183  0.08905625  1.0
  Y  Y690  1  0.88888889  0.07833517  0.08905625  1.0
  Y  Y691  1  0.88888889  0.41166850  0.08905625  1.0
  Y  Y692  1  0.88888889  0.74500183  0.08905625  1.0
  Y  Y693  1  0.22222222  0.24500183  0.13072292  1.0
  Y  Y694  1  0.22222222  0.57833517  0.13072292  1.0
  Y  Y695  1  0.22222222  0.91166850  0.13072292  1.0
  Y  Y696  1  0.55555556  0.24500183  0.13072292  1.0
  Y  Y697  1  0.55555556  0.57833517  0.13072292  1.0
  Y  Y698  1  0.55555556  0.91166850  0.13072292  1.0
  Y  Y699  1  0.88888889  0.24500183  0.13072292  1.0
  Y  Y700  1  0.88888889  0.57833517  0.13072292  1.0
  Y  Y701  1  0.88888889  0.91166850  0.13072292  1.0
  Y  Y702  1  0.11111111  0.08833150  0.09155533  1.0
  Y  Y703  1  0.11111111  0.42166483  0.09155533  1.0
  Y  Y704  1  0.11111111  0.75499817  0.09155533  1.0
  Y  Y705  1  0.44444444  0.08833150  0.09155533  1.0
  Y  Y706  1  0.44444444  0.42166483  0.09155533  1.0
  Y  Y707  1  0.44444444  0.75499817  0.09155533  1.0
  Y  Y708  1  0.77777778  0.08833150  0.09155533  1.0
  Y  Y709  1  0.77777778  0.42166483  0.09155533  1.0
  Y  Y710  1  0.77777778  0.75499817  0.09155533  1.0
  Y  Y711  1  0.11111111  0.25499817  0.13322200  1.0
  Y  Y712  1  0.11111111  0.58833150  0.13322200  1.0
  Y  Y713  1  0.11111111  0.92166483  0.13322200  1.0
  Y  Y714  1  0.44444444  0.25499817  0.13322200  1.0
  Y  Y715  1  0.44444444  0.58833150  0.13322200  1.0
  Y  Y716  1  0.44444444  0.92166483  0.13322200  1.0
  Y  Y717  1  0.77777778  0.25499817  0.13322200  1.0
  Y  Y718  1  0.77777778  0.58833150  0.13322200  1.0
  Y  Y719  1  0.77777778  0.92166483  0.13322200  1.0
  Y  Y720  1  0.11111111  0.13761583  0.10387642  1.0
  Y  Y721  1  0.11111111  0.47094917  0.10387642  1.0
  Y  Y722  1  0.11111111  0.80428250  0.10387642  1.0
  Y  Y723  1  0.44444444  0.13761583  0.10387642  1.0
  Y  Y724  1  0.44444444  0.47094917  0.10387642  1.0
  Y  Y725  1  0.44444444  0.80428250  0.10387642  1.0
  Y  Y726  1  0.77777778  0.13761583  0.10387642  1.0
  Y  Y727  1  0.77777778  0.47094917  0.10387642  1.0
  Y  Y728  1  0.77777778  0.80428250  0.10387642  1.0
  Y  Y729  1  0.11111111  0.30428250  0.14554308  1.0
  Y  Y730  1  0.11111111  0.63761583  0.14554308  1.0
  Y  Y731  1  0.11111111  0.97094917  0.14554308  1.0
  Y  Y732  1  0.44444444  0.30428250  0.14554308  1.0
  Y  Y733  1  0.44444444  0.63761583  0.14554308  1.0
  Y  Y734  1  0.44444444  0.97094917  0.14554308  1.0
  Y  Y735  1  0.77777778  0.30428250  0.14554308  1.0
  Y  Y736  1  0.77777778  0.63761583  0.14554308  1.0
  Y  Y737  1  0.77777778  0.97094917  0.14554308  1.0
  Y  Y738  1  0.22222222  0.02905083  0.16006850  1.0
  Y  Y739  1  0.22222222  0.36238417  0.16006850  1.0
  Y  Y740  1  0.22222222  0.69571750  0.16006850  1.0
  Y  Y741  1  0.55555556  0.02905083  0.16006850  1.0
  Y  Y742  1  0.55555556  0.36238417  0.16006850  1.0
  Y  Y743  1  0.55555556  0.69571750  0.16006850  1.0
  Y  Y744  1  0.88888889  0.02905083  0.16006850  1.0
  Y  Y745  1  0.88888889  0.36238417  0.16006850  1.0
  Y  Y746  1  0.88888889  0.69571750  0.16006850  1.0
  Y  Y747  1  0.22222222  0.19571750  0.11840183  1.0
  Y  Y748  1  0.22222222  0.52905083  0.11840183  1.0
  Y  Y749  1  0.22222222  0.86238417  0.11840183  1.0
  Y  Y750  1  0.55555556  0.19571750  0.11840183  1.0
  Y  Y751  1  0.55555556  0.52905083  0.11840183  1.0
  Y  Y752  1  0.55555556  0.86238417  0.11840183  1.0
  Y  Y753  1  0.88888889  0.19571750  0.11840183  1.0
  Y  Y754  1  0.88888889  0.52905083  0.11840183  1.0
  Y  Y755  1  0.88888889  0.86238417  0.11840183  1.0
  Y  Y756  1  0.22222222  0.05428250  0.16637642  1.0
  Y  Y757  1  0.22222222  0.38761583  0.16637642  1.0
  Y  Y758  1  0.22222222  0.72094917  0.16637642  1.0
  Y  Y759  1  0.55555556  0.05428250  0.16637642  1.0
  Y  Y760  1  0.55555556  0.38761583  0.16637642  1.0
  Y  Y761  1  0.55555556  0.72094917  0.16637642  1.0
  Y  Y762  1  0.88888889  0.05428250  0.16637642  1.0
  Y  Y763  1  0.88888889  0.38761583  0.16637642  1.0
  Y  Y764  1  0.88888889  0.72094917  0.16637642  1.0
  Y  Y765  1  0.22222222  0.22094917  0.12470975  1.0
  Y  Y766  1  0.22222222  0.55428250  0.12470975  1.0
  Y  Y767  1  0.22222222  0.88761583  0.12470975  1.0
  Y  Y768  1  0.55555556  0.22094917  0.12470975  1.0
  Y  Y769  1  0.55555556  0.55428250  0.12470975  1.0
  Y  Y770  1  0.55555556  0.88761583  0.12470975  1.0
  Y  Y771  1  0.88888889  0.22094917  0.12470975  1.0
  Y  Y772  1  0.88888889  0.55428250  0.12470975  1.0
  Y  Y773  1  0.88888889  0.88761583  0.12470975  1.0
  Y  Y774  1  0.11111111  0.11238417  0.09756850  1.0
  Y  Y775  1  0.11111111  0.44571750  0.09756850  1.0
  Y  Y776  1  0.11111111  0.77905083  0.09756850  1.0
  Y  Y777  1  0.44444444  0.11238417  0.09756850  1.0
  Y  Y778  1  0.44444444  0.44571750  0.09756850  1.0
  Y  Y779  1  0.44444444  0.77905083  0.09756850  1.0
  Y  Y780  1  0.77777778  0.11238417  0.09756850  1.0
  Y  Y781  1  0.77777778  0.44571750  0.09756850  1.0
  Y  Y782  1  0.77777778  0.77905083  0.09756850  1.0
  Y  Y783  1  0.11111111  0.27905083  0.13923517  1.0
  Y  Y784  1  0.11111111  0.61238417  0.13923517  1.0
  Y  Y785  1  0.11111111  0.94571750  0.13923517  1.0
  Y  Y786  1  0.44444444  0.27905083  0.13923517  1.0
  Y  Y787  1  0.44444444  0.61238417  0.13923517  1.0
  Y  Y788  1  0.44444444  0.94571750  0.13923517  1.0
  Y  Y789  1  0.77777778  0.27905083  0.13923517  1.0
  Y  Y790  1  0.77777778  0.61238417  0.13923517  1.0
  Y  Y791  1  0.77777778  0.94571750  0.13923517  1.0
  Ni  Ni792  1  0.00000000  0.00000000  0.15280579  1.0
  Ni  Ni793  1  0.00000000  0.33333333  0.15280579  1.0
  Ni  Ni794  1  0.00000000  0.66666667  0.15280579  1.0
  Ni  Ni795  1  0.33333333  0.00000000  0.15280579  1.0
  Ni  Ni796  1  0.33333333  0.33333333  0.15280579  1.0
  Ni  Ni797  1  0.33333333  0.66666667  0.15280579  1.0
  Ni  Ni798  1  0.66666667  0.00000000  0.15280579  1.0
  Ni  Ni799  1  0.66666667  0.33333333  0.15280579  1.0
  Ni  Ni800  1  0.66666667  0.66666667  0.15280579  1.0
  Ni  Ni801  1  0.00000000  0.16666667  0.11113913  1.0
  Ni  Ni802  1  0.00000000  0.50000000  0.11113913  1.0
  Ni  Ni803  1  0.00000000  0.83333333  0.11113912  1.0
  Ni  Ni804  1  0.33333333  0.16666667  0.11113912  1.0
  Ni  Ni805  1  0.33333333  0.50000000  0.11113913  1.0
  Ni  Ni806  1  0.33333333  0.83333333  0.11113912  1.0
  Ni  Ni807  1  0.66666667  0.16666667  0.11113913  1.0
  Ni  Ni808  1  0.66666667  0.50000000  0.11113913  1.0
  Ni  Ni809  1  0.66666667  0.83333333  0.11113913  1.0
  Ni  Ni810  1  0.00000000  0.08333333  0.09030579  1.0
  Ni  Ni811  1  0.00000000  0.41666667  0.09030579  1.0
  Ni  Ni812  1  0.00000000  0.75000000  0.09030579  1.0
  Ni  Ni813  1  0.33333333  0.08333333  0.09030579  1.0
  Ni  Ni814  1  0.33333333  0.41666667  0.09030579  1.0
  Ni  Ni815  1  0.33333333  0.75000000  0.09030579  1.0
  Ni  Ni816  1  0.66666667  0.08333333  0.09030579  1.0
  Ni  Ni817  1  0.66666667  0.41666667  0.09030579  1.0
  Ni  Ni818  1  0.66666667  0.75000000  0.09030579  1.0
  Ni  Ni819  1  0.00000000  0.25000000  0.13197246  1.0
  Ni  Ni820  1  0.00000000  0.58333333  0.13197246  1.0
  Ni  Ni821  1  0.00000000  0.91666667  0.13197246  1.0
  Ni  Ni822  1  0.33333333  0.25000000  0.13197246  1.0
  Ni  Ni823  1  0.33333333  0.58333333  0.13197246  1.0
  Ni  Ni824  1  0.33333333  0.91666667  0.13197246  1.0
  Ni  Ni825  1  0.66666667  0.25000000  0.13197246  1.0
  Ni  Ni826  1  0.66666667  0.58333333  0.13197246  1.0
  Ni  Ni827  1  0.66666667  0.91666667  0.13197246  1.0
  Ni  Ni828  1  0.11169133  0.12500000  0.14260671  1.0
  Ni  Ni829  1  0.11169133  0.45833333  0.14260671  1.0
  Ni  Ni830  1  0.11169133  0.79166667  0.14260671  1.0
  Ni  Ni831  1  0.44502467  0.12500000  0.14260671  1.0
  Ni  Ni832  1  0.44502467  0.45833333  0.14260671  1.0
  Ni  Ni833  1  0.44502467  0.79166667  0.14260671  1.0
  Ni  Ni834  1  0.77835800  0.12500000  0.14260671  1.0
  Ni  Ni835  1  0.77835800  0.45833333  0.14260671  1.0
  Ni  Ni836  1  0.77835800  0.79166667  0.14260671  1.0
  Ni  Ni837  1  0.11169133  0.29166667  0.10094004  1.0
  Ni  Ni838  1  0.11169133  0.62500000  0.10094004  1.0
  Ni  Ni839  1  0.11169133  0.95833333  0.10094004  1.0
  Ni  Ni840  1  0.44502467  0.29166667  0.10094004  1.0
  Ni  Ni841  1  0.44502467  0.62500000  0.10094004  1.0
  Ni  Ni842  1  0.44502467  0.95833333  0.10094004  1.0
  Ni  Ni843  1  0.77835800  0.29166667  0.10094004  1.0
  Ni  Ni844  1  0.77835800  0.62500000  0.10094004  1.0
  Ni  Ni845  1  0.77835800  0.95833333  0.10094004  1.0
  Ni  Ni846  1  0.27748767  0.12500000  0.14217154  1.0
  Ni  Ni847  1  0.27748767  0.45833333  0.14217154  1.0
  Ni  Ni848  1  0.27748767  0.79166667  0.14217154  1.0
  Ni  Ni849  1  0.61082100  0.12500000  0.14217154  1.0
  Ni  Ni850  1  0.61082100  0.45833333  0.14217154  1.0
  Ni  Ni851  1  0.61082100  0.79166667  0.14217154  1.0
  Ni  Ni852  1  0.94415433  0.12500000  0.14217154  1.0
  Ni  Ni853  1  0.94415433  0.45833333  0.14217154  1.0
  Ni  Ni854  1  0.94415433  0.79166667  0.14217154  1.0
  Ni  Ni855  1  0.27748767  0.29166667  0.10050487  1.0
  Ni  Ni856  1  0.27748767  0.62500000  0.10050487  1.0
  Ni  Ni857  1  0.27748767  0.95833333  0.10050487  1.0
  Ni  Ni858  1  0.61082100  0.29166667  0.10050487  1.0
  Ni  Ni859  1  0.61082100  0.62500000  0.10050487  1.0
  Ni  Ni860  1  0.61082100  0.95833333  0.10050487  1.0
  Ni  Ni861  1  0.94415433  0.29166667  0.10050488  1.0
  Ni  Ni862  1  0.94415433  0.62500000  0.10050488  1.0
  Ni  Ni863  1  0.94415433  0.95833333  0.10050487  1.0
  Ni  Ni864  1  0.27748767  0.12500000  0.10072246  1.0
  Ni  Ni865  1  0.27748767  0.45833333  0.10072246  1.0
  Ni  Ni866  1  0.27748767  0.79166667  0.10072246  1.0
  Ni  Ni867  1  0.61082100  0.12500000  0.10072246  1.0
  Ni  Ni868  1  0.61082100  0.45833333  0.10072246  1.0
  Ni  Ni869  1  0.61082100  0.79166667  0.10072246  1.0
  Ni  Ni870  1  0.94415433  0.12500000  0.10072246  1.0
  Ni  Ni871  1  0.94415433  0.45833333  0.10072246  1.0
  Ni  Ni872  1  0.94415433  0.79166667  0.10072246  1.0
  Ni  Ni873  1  0.27748767  0.29166667  0.14238912  1.0
  Ni  Ni874  1  0.27748767  0.62500000  0.14238912  1.0
  Ni  Ni875  1  0.27748767  0.95833333  0.14238912  1.0
  Ni  Ni876  1  0.61082100  0.29166667  0.14238912  1.0
  Ni  Ni877  1  0.61082100  0.62500000  0.14238912  1.0
  Ni  Ni878  1  0.61082100  0.95833333  0.14238913  1.0
  Ni  Ni879  1  0.94415433  0.29166667  0.14238913  1.0
  Ni  Ni880  1  0.94415433  0.62500000  0.14238913  1.0
  Ni  Ni881  1  0.94415433  0.95833333  0.14238912  1.0
  Ni  Ni882  1  0.22164200  0.04166667  0.12133821  1.0
  Ni  Ni883  1  0.22164200  0.37500000  0.12133821  1.0
  Ni  Ni884  1  0.22164200  0.70833333  0.12133821  1.0
  Ni  Ni885  1  0.55497533  0.04166667  0.12133821  1.0
  Ni  Ni886  1  0.55497533  0.37500000  0.12133821  1.0
  Ni  Ni887  1  0.55497533  0.70833333  0.12133821  1.0
  Ni  Ni888  1  0.88830867  0.04166667  0.12133821  1.0
  Ni  Ni889  1  0.88830867  0.37500000  0.12133821  1.0
  Ni  Ni890  1  0.88830867  0.70833333  0.12133821  1.0
  Ni  Ni891  1  0.22164200  0.20833333  0.16300487  1.0
  Ni  Ni892  1  0.22164200  0.54166667  0.16300487  1.0
  Ni  Ni893  1  0.22164200  0.87500000  0.16300487  1.0
  Ni  Ni894  1  0.55497533  0.20833333  0.16300487  1.0
  Ni  Ni895  1  0.55497533  0.54166667  0.16300487  1.0
  Ni  Ni896  1  0.55497533  0.87500000  0.16300487  1.0
  Ni  Ni897  1  0.88830867  0.20833333  0.16300487  1.0
  Ni  Ni898  1  0.88830867  0.54166667  0.16300487  1.0
  Ni  Ni899  1  0.88830867  0.87500000  0.16300487  1.0
  Ni  Ni900  1  0.05584567  0.04166667  0.12177337  1.0
  Ni  Ni901  1  0.05584567  0.37500000  0.12177337  1.0
  Ni  Ni902  1  0.05584567  0.70833333  0.12177337  1.0
  Ni  Ni903  1  0.38917900  0.04166667  0.12177337  1.0
  Ni  Ni904  1  0.38917900  0.37500000  0.12177337  1.0
  Ni  Ni905  1  0.38917900  0.70833333  0.12177337  1.0
  Ni  Ni906  1  0.72251233  0.04166667  0.12177337  1.0
  Ni  Ni907  1  0.72251233  0.37500000  0.12177337  1.0
  Ni  Ni908  1  0.72251233  0.70833333  0.12177338  1.0
  Ni  Ni909  1  0.05584567  0.20833333  0.16344004  1.0
  Ni  Ni910  1  0.05584567  0.54166667  0.16344004  1.0
  Ni  Ni911  1  0.05584567  0.87500000  0.16344004  1.0
  Ni  Ni912  1  0.38917900  0.20833333  0.16344004  1.0
  Ni  Ni913  1  0.38917900  0.54166667  0.16344004  1.0
  Ni  Ni914  1  0.38917900  0.87500000  0.16344004  1.0
  Ni  Ni915  1  0.72251233  0.20833333  0.16344004  1.0
  Ni  Ni916  1  0.72251233  0.54166667  0.16344004  1.0
  Ni  Ni917  1  0.72251233  0.87500000  0.16344004  1.0
  Ni  Ni918  1  0.05584567  0.04166667  0.16322246  1.0
  Ni  Ni919  1  0.05584567  0.37500000  0.16322246  1.0
  Ni  Ni920  1  0.05584567  0.70833333  0.16322246  1.0
  Ni  Ni921  1  0.38917900  0.04166667  0.16322246  1.0
  Ni  Ni922  1  0.38917900  0.37500000  0.16322246  1.0
  Ni  Ni923  1  0.38917900  0.70833333  0.16322246  1.0
  Ni  Ni924  1  0.72251233  0.04166667  0.16322246  1.0
  Ni  Ni925  1  0.72251233  0.37500000  0.16322246  1.0
  Ni  Ni926  1  0.72251233  0.70833333  0.16322246  1.0
  Ni  Ni927  1  0.05584567  0.20833333  0.12155579  1.0
  Ni  Ni928  1  0.05584567  0.54166667  0.12155579  1.0
  Ni  Ni929  1  0.05584567  0.87500000  0.12155579  1.0
  Ni  Ni930  1  0.38917900  0.20833333  0.12155579  1.0
  Ni  Ni931  1  0.38917900  0.54166667  0.12155579  1.0
  Ni  Ni932  1  0.38917900  0.87500000  0.12155579  1.0
  Ni  Ni933  1  0.72251233  0.20833333  0.12155579  1.0
  Ni  Ni934  1  0.72251233  0.54166667  0.12155579  1.0
  Ni  Ni935  1  0.72251233  0.87500000  0.12155579  1.0
  Ni  Ni936  1  0.11093733  0.15224517  0.14913525  1.0
  Ni  Ni937  1  0.11093733  0.48557850  0.14913525  1.0
  Ni  Ni938  1  0.11093733  0.81891183  0.14913525  1.0
  Ni  Ni939  1  0.44427067  0.15224517  0.14913525  1.0
  Ni  Ni940  1  0.44427067  0.48557850  0.14913525  1.0
  Ni  Ni941  1  0.44427067  0.81891183  0.14913525  1.0
  Ni  Ni942  1  0.77760400  0.15224517  0.14913525  1.0
  Ni  Ni943  1  0.77760400  0.48557850  0.14913525  1.0
  Ni  Ni944  1  0.77760400  0.81891183  0.14913525  1.0
  Ni  Ni945  1  0.11093733  0.31891183  0.10746858  1.0
  Ni  Ni946  1  0.11093733  0.65224517  0.10746858  1.0
  Ni  Ni947  1  0.11093733  0.98557850  0.10746858  1.0
  Ni  Ni948  1  0.44427067  0.31891183  0.10746858  1.0
  Ni  Ni949  1  0.44427067  0.65224517  0.10746858  1.0
  Ni  Ni950  1  0.44427067  0.98557850  0.10746858  1.0
  Ni  Ni951  1  0.77760400  0.31891183  0.10746858  1.0
  Ni  Ni952  1  0.77760400  0.65224517  0.10746858  1.0
  Ni  Ni953  1  0.77760400  0.98557850  0.10746858  1.0
  Ni  Ni954  1  0.27786467  0.15224517  0.14926558  1.0
  Ni  Ni955  1  0.27786467  0.48557850  0.14926558  1.0
  Ni  Ni956  1  0.27786467  0.81891183  0.14926558  1.0
  Ni  Ni957  1  0.61119800  0.15224517  0.14926558  1.0
  Ni  Ni958  1  0.61119800  0.48557850  0.14926558  1.0
  Ni  Ni959  1  0.61119800  0.81891183  0.14926558  1.0
  Ni  Ni960  1  0.94453133  0.15224517  0.14926558  1.0
  Ni  Ni961  1  0.94453133  0.48557850  0.14926558  1.0
  Ni  Ni962  1  0.94453133  0.81891183  0.14926558  1.0
  Ni  Ni963  1  0.27786467  0.31891183  0.10759892  1.0
  Ni  Ni964  1  0.27786467  0.65224517  0.10759892  1.0
  Ni  Ni965  1  0.27786467  0.98557850  0.10759892  1.0
  Ni  Ni966  1  0.61119800  0.31891183  0.10759892  1.0
  Ni  Ni967  1  0.61119800  0.65224517  0.10759892  1.0
  Ni  Ni968  1  0.61119800  0.98557850  0.10759892  1.0
  Ni  Ni969  1  0.94453133  0.31891183  0.10759892  1.0
  Ni  Ni970  1  0.94453133  0.65224517  0.10759892  1.0
  Ni  Ni971  1  0.94453133  0.98557850  0.10759892  1.0
  Ni  Ni972  1  0.27786467  0.15224517  0.10753375  1.0
  Ni  Ni973  1  0.27786467  0.48557850  0.10753375  1.0
  Ni  Ni974  1  0.27786467  0.81891183  0.10753375  1.0
  Ni  Ni975  1  0.61119800  0.15224517  0.10753375  1.0
  Ni  Ni976  1  0.61119800  0.48557850  0.10753375  1.0
  Ni  Ni977  1  0.61119800  0.81891183  0.10753375  1.0
  Ni  Ni978  1  0.94453133  0.15224517  0.10753375  1.0
  Ni  Ni979  1  0.94453133  0.48557850  0.10753375  1.0
  Ni  Ni980  1  0.94453133  0.81891183  0.10753375  1.0
  Ni  Ni981  1  0.27786467  0.31891183  0.14920042  1.0
  Ni  Ni982  1  0.27786467  0.65224517  0.14920042  1.0
  Ni  Ni983  1  0.27786467  0.98557850  0.14920042  1.0
  Ni  Ni984  1  0.61119800  0.31891183  0.14920042  1.0
  Ni  Ni985  1  0.61119800  0.65224517  0.14920042  1.0
  Ni  Ni986  1  0.61119800  0.98557850  0.14920042  1.0
  Ni  Ni987  1  0.94453133  0.31891183  0.14920042  1.0
  Ni  Ni988  1  0.94453133  0.65224517  0.14920042  1.0
  Ni  Ni989  1  0.94453133  0.98557850  0.14920042  1.0
  Ni  Ni990  1  0.22239600  0.01442150  0.11480967  1.0
  Ni  Ni991  1  0.22239600  0.34775483  0.11480967  1.0
  Ni  Ni992  1  0.22239600  0.68108817  0.11480967  1.0
  Ni  Ni993  1  0.55572933  0.01442150  0.11480967  1.0
  Ni  Ni994  1  0.55572933  0.34775483  0.11480967  1.0
  Ni  Ni995  1  0.55572933  0.68108817  0.11480967  1.0
  Ni  Ni996  1  0.88906267  0.01442150  0.11480967  1.0
  Ni  Ni997  1  0.88906267  0.34775483  0.11480967  1.0
  Ni  Ni998  1  0.88906267  0.68108817  0.11480967  1.0
  Ni  Ni999  1  0.22239600  0.18108817  0.15647633  1.0
  Ni  Ni1000  1  0.22239600  0.51442150  0.15647633  1.0
  Ni  Ni1001  1  0.22239600  0.84775483  0.15647633  1.0
  Ni  Ni1002  1  0.55572933  0.18108817  0.15647633  1.0
  Ni  Ni1003  1  0.55572933  0.51442150  0.15647633  1.0
  Ni  Ni1004  1  0.55572933  0.84775483  0.15647633  1.0
  Ni  Ni1005  1  0.88906267  0.18108817  0.15647633  1.0
  Ni  Ni1006  1  0.88906267  0.51442150  0.15647633  1.0
  Ni  Ni1007  1  0.88906267  0.84775483  0.15647633  1.0
  Ni  Ni1008  1  0.05546867  0.01442150  0.11467933  1.0
  Ni  Ni1009  1  0.05546867  0.34775483  0.11467933  1.0
  Ni  Ni1010  1  0.05546867  0.68108817  0.11467933  1.0
  Ni  Ni1011  1  0.38880200  0.01442150  0.11467933  1.0
  Ni  Ni1012  1  0.38880200  0.34775483  0.11467933  1.0
  Ni  Ni1013  1  0.38880200  0.68108817  0.11467933  1.0
  Ni  Ni1014  1  0.72213533  0.01442150  0.11467933  1.0
  Ni  Ni1015  1  0.72213533  0.34775483  0.11467933  1.0
  Ni  Ni1016  1  0.72213533  0.68108817  0.11467933  1.0
  Ni  Ni1017  1  0.05546867  0.18108817  0.15634600  1.0
  Ni  Ni1018  1  0.05546867  0.51442150  0.15634600  1.0
  Ni  Ni1019  1  0.05546867  0.84775483  0.15634600  1.0
  Ni  Ni1020  1  0.38880200  0.18108817  0.15634600  1.0
  Ni  Ni1021  1  0.38880200  0.51442150  0.15634600  1.0
  Ni  Ni1022  1  0.38880200  0.84775483  0.15634600  1.0
  Ni  Ni1023  1  0.72213533  0.18108817  0.15634600  1.0
  Ni  Ni1024  1  0.72213533  0.51442150  0.15634600  1.0
  Ni  Ni1025  1  0.72213533  0.84775483  0.15634600  1.0
  Ni  Ni1026  1  0.05546867  0.01442150  0.15641117  1.0
  Ni  Ni1027  1  0.05546867  0.34775483  0.15641117  1.0
  Ni  Ni1028  1  0.05546867  0.68108817  0.15641117  1.0
  Ni  Ni1029  1  0.38880200  0.01442150  0.15641117  1.0
  Ni  Ni1030  1  0.38880200  0.34775483  0.15641117  1.0
  Ni  Ni1031  1  0.38880200  0.68108817  0.15641117  1.0
  Ni  Ni1032  1  0.72213533  0.01442150  0.15641117  1.0
  Ni  Ni1033  1  0.72213533  0.34775483  0.15641117  1.0
  Ni  Ni1034  1  0.72213533  0.68108817  0.15641117  1.0
  Ni  Ni1035  1  0.05546867  0.18108817  0.11474450  1.0
  Ni  Ni1036  1  0.05546867  0.51442150  0.11474450  1.0
  Ni  Ni1037  1  0.05546867  0.84775483  0.11474450  1.0
  Ni  Ni1038  1  0.38880200  0.18108817  0.11474450  1.0
  Ni  Ni1039  1  0.38880200  0.51442150  0.11474450  1.0
  Ni  Ni1040  1  0.38880200  0.84775483  0.11474450  1.0
  Ni  Ni1041  1  0.72213533  0.18108817  0.11474450  1.0
  Ni  Ni1042  1  0.72213533  0.51442150  0.11474450  1.0
  Ni  Ni1043  1  0.72213533  0.84775483  0.11474450  1.0
  Ni  Ni1044  1  0.22239600  0.06891183  0.12843225  1.0
  Ni  Ni1045  1  0.22239600  0.40224517  0.12843225  1.0
  Ni  Ni1046  1  0.22239600  0.73557850  0.12843225  1.0
  Ni  Ni1047  1  0.55572933  0.06891183  0.12843225  1.0
  Ni  Ni1048  1  0.55572933  0.40224517  0.12843225  1.0
  Ni  Ni1049  1  0.55572933  0.73557850  0.12843225  1.0
  Ni  Ni1050  1  0.88906267  0.06891183  0.12843225  1.0
  Ni  Ni1051  1  0.88906267  0.40224517  0.12843225  1.0
  Ni  Ni1052  1  0.88906267  0.73557850  0.12843225  1.0
  Ni  Ni1053  1  0.22239600  0.23557850  0.08676558  1.0
  Ni  Ni1054  1  0.22239600  0.56891183  0.08676558  1.0
  Ni  Ni1055  1  0.22239600  0.90224517  0.08676558  1.0
  Ni  Ni1056  1  0.55572933  0.23557850  0.08676558  1.0
  Ni  Ni1057  1  0.55572933  0.56891183  0.08676558  1.0
  Ni  Ni1058  1  0.55572933  0.90224517  0.08676558  1.0
  Ni  Ni1059  1  0.88906267  0.23557850  0.08676558  1.0
  Ni  Ni1060  1  0.88906267  0.56891183  0.08676558  1.0
  Ni  Ni1061  1  0.88906267  0.90224517  0.08676558  1.0
  Ni  Ni1062  1  0.05546867  0.06891183  0.12830192  1.0
  Ni  Ni1063  1  0.05546867  0.40224517  0.12830192  1.0
  Ni  Ni1064  1  0.05546867  0.73557850  0.12830192  1.0
  Ni  Ni1065  1  0.38880200  0.06891183  0.12830192  1.0
  Ni  Ni1066  1  0.38880200  0.40224517  0.12830192  1.0
  Ni  Ni1067  1  0.38880200  0.73557850  0.12830192  1.0
  Ni  Ni1068  1  0.72213533  0.06891183  0.12830192  1.0
  Ni  Ni1069  1  0.72213533  0.40224517  0.12830192  1.0
  Ni  Ni1070  1  0.72213533  0.73557850  0.12830192  1.0
  Ni  Ni1071  1  0.05546867  0.23557850  0.08663525  1.0
  Ni  Ni1072  1  0.05546867  0.56891183  0.08663525  1.0
  Ni  Ni1073  1  0.05546867  0.90224517  0.08663525  1.0
  Ni  Ni1074  1  0.38880200  0.23557850  0.08663525  1.0
  Ni  Ni1075  1  0.38880200  0.56891183  0.08663525  1.0
  Ni  Ni1076  1  0.38880200  0.90224517  0.08663525  1.0
  Ni  Ni1077  1  0.72213533  0.23557850  0.08663525  1.0
  Ni  Ni1078  1  0.72213533  0.56891183  0.08663525  1.0
  Ni  Ni1079  1  0.72213533  0.90224517  0.08663525  1.0
  Ni  Ni1080  1  0.05546867  0.06891183  0.08670042  1.0
  Ni  Ni1081  1  0.05546867  0.40224517  0.08670042  1.0
  Ni  Ni1082  1  0.05546867  0.73557850  0.08670042  1.0
  Ni  Ni1083  1  0.38880200  0.06891183  0.08670042  1.0
  Ni  Ni1084  1  0.38880200  0.40224517  0.08670042  1.0
  Ni  Ni1085  1  0.38880200  0.73557850  0.08670042  1.0
  Ni  Ni1086  1  0.72213533  0.06891183  0.08670042  1.0
  Ni  Ni1087  1  0.72213533  0.40224517  0.08670042  1.0
  Ni  Ni1088  1  0.72213533  0.73557850  0.08670042  1.0
  Ni  Ni1089  1  0.05546867  0.23557850  0.12836708  1.0
  Ni  Ni1090  1  0.05546867  0.56891183  0.12836708  1.0
  Ni  Ni1091  1  0.05546867  0.90224517  0.12836708  1.0
  Ni  Ni1092  1  0.38880200  0.23557850  0.12836708  1.0
  Ni  Ni1093  1  0.38880200  0.56891183  0.12836708  1.0
  Ni  Ni1094  1  0.38880200  0.90224517  0.12836708  1.0
  Ni  Ni1095  1  0.72213533  0.23557850  0.12836708  1.0
  Ni  Ni1096  1  0.72213533  0.56891183  0.12836708  1.0
  Ni  Ni1097  1  0.72213533  0.90224517  0.12836708  1.0
  Ni  Ni1098  1  0.11093733  0.09775483  0.13551267  1.0
  Ni  Ni1099  1  0.11093733  0.43108817  0.13551267  1.0
  Ni  Ni1100  1  0.11093733  0.76442150  0.13551267  1.0
  Ni  Ni1101  1  0.44427067  0.09775483  0.13551267  1.0
  Ni  Ni1102  1  0.44427067  0.43108817  0.13551267  1.0
  Ni  Ni1103  1  0.44427067  0.76442150  0.13551267  1.0
  Ni  Ni1104  1  0.77760400  0.09775483  0.13551267  1.0
  Ni  Ni1105  1  0.77760400  0.43108817  0.13551267  1.0
  Ni  Ni1106  1  0.77760400  0.76442150  0.13551267  1.0
  Ni  Ni1107  1  0.11093733  0.26442150  0.09384600  1.0
  Ni  Ni1108  1  0.11093733  0.59775483  0.09384600  1.0
  Ni  Ni1109  1  0.11093733  0.93108817  0.09384600  1.0
  Ni  Ni1110  1  0.44427067  0.26442150  0.09384600  1.0
  Ni  Ni1111  1  0.44427067  0.59775483  0.09384600  1.0
  Ni  Ni1112  1  0.44427067  0.93108817  0.09384600  1.0
  Ni  Ni1113  1  0.77760400  0.26442150  0.09384600  1.0
  Ni  Ni1114  1  0.77760400  0.59775483  0.09384600  1.0
  Ni  Ni1115  1  0.77760400  0.93108817  0.09384600  1.0
  Ni  Ni1116  1  0.27786467  0.09775483  0.13564300  1.0
  Ni  Ni1117  1  0.27786467  0.43108817  0.13564300  1.0
  Ni  Ni1118  1  0.27786467  0.76442150  0.13564300  1.0
  Ni  Ni1119  1  0.61119800  0.09775483  0.13564300  1.0
  Ni  Ni1120  1  0.61119800  0.43108817  0.13564300  1.0
  Ni  Ni1121  1  0.61119800  0.76442150  0.13564300  1.0
  Ni  Ni1122  1  0.94453133  0.09775483  0.13564300  1.0
  Ni  Ni1123  1  0.94453133  0.43108817  0.13564300  1.0
  Ni  Ni1124  1  0.94453133  0.76442150  0.13564300  1.0
  Ni  Ni1125  1  0.27786467  0.26442150  0.09397633  1.0
  Ni  Ni1126  1  0.27786467  0.59775483  0.09397633  1.0
  Ni  Ni1127  1  0.27786467  0.93108817  0.09397633  1.0
  Ni  Ni1128  1  0.61119800  0.26442150  0.09397633  1.0
  Ni  Ni1129  1  0.61119800  0.59775483  0.09397633  1.0
  Ni  Ni1130  1  0.61119800  0.93108817  0.09397633  1.0
  Ni  Ni1131  1  0.94453133  0.26442150  0.09397633  1.0
  Ni  Ni1132  1  0.94453133  0.59775483  0.09397633  1.0
  Ni  Ni1133  1  0.94453133  0.93108817  0.09397633  1.0
  Ni  Ni1134  1  0.27786467  0.09775483  0.09391117  1.0
  Ni  Ni1135  1  0.27786467  0.43108817  0.09391117  1.0
  Ni  Ni1136  1  0.27786467  0.76442150  0.09391117  1.0
  Ni  Ni1137  1  0.61119800  0.09775483  0.09391117  1.0
  Ni  Ni1138  1  0.61119800  0.43108817  0.09391117  1.0
  Ni  Ni1139  1  0.61119800  0.76442150  0.09391117  1.0
  Ni  Ni1140  1  0.94453133  0.09775483  0.09391117  1.0
  Ni  Ni1141  1  0.94453133  0.43108817  0.09391117  1.0
  Ni  Ni1142  1  0.94453133  0.76442150  0.09391117  1.0
  Ni  Ni1143  1  0.27786467  0.26442150  0.13557783  1.0
  Ni  Ni1144  1  0.27786467  0.59775483  0.13557783  1.0
  Ni  Ni1145  1  0.27786467  0.93108817  0.13557783  1.0
  Ni  Ni1146  1  0.61119800  0.26442150  0.13557783  1.0
  Ni  Ni1147  1  0.61119800  0.59775483  0.13557783  1.0
  Ni  Ni1148  1  0.61119800  0.93108817  0.13557783  1.0
  Ni  Ni1149  1  0.94453133  0.26442150  0.13557783  1.0
  Ni  Ni1150  1  0.94453133  0.59775483  0.13557783  1.0
  Ni  Ni1151  1  0.94453133  0.93108817  0.13557783  1.0
  Ni  Ni1152  1  0.00000000  0.13856767  0.10411437  1.0
  Ni  Ni1153  1  0.00000000  0.47190100  0.10411437  1.0
  Ni  Ni1154  1  0.00000000  0.80523433  0.10411438  1.0
  Ni  Ni1155  1  0.33333333  0.13856767  0.10411437  1.0
  Ni  Ni1156  1  0.33333333  0.47190100  0.10411438  1.0
  Ni  Ni1157  1  0.33333333  0.80523433  0.10411437  1.0
  Ni  Ni1158  1  0.66666667  0.13856767  0.10411438  1.0
  Ni  Ni1159  1  0.66666667  0.47190100  0.10411437  1.0
  Ni  Ni1160  1  0.66666667  0.80523433  0.10411438  1.0
  Ni  Ni1161  1  0.00000000  0.30523433  0.14578104  1.0
  Ni  Ni1162  1  0.00000000  0.63856767  0.14578104  1.0
  Ni  Ni1163  1  0.00000000  0.97190100  0.14578104  1.0
  Ni  Ni1164  1  0.33333333  0.30523433  0.14578104  1.0
  Ni  Ni1165  1  0.33333333  0.63856767  0.14578104  1.0
  Ni  Ni1166  1  0.33333333  0.97190100  0.14578104  1.0
  Ni  Ni1167  1  0.66666667  0.30523433  0.14578104  1.0
  Ni  Ni1168  1  0.66666667  0.63856767  0.14578104  1.0
  Ni  Ni1169  1  0.66666667  0.97190100  0.14578104  1.0
  Ni  Ni1170  1  0.00000000  0.02809900  0.15983054  1.0
  Ni  Ni1171  1  0.00000000  0.36143233  0.15983054  1.0
  Ni  Ni1172  1  0.00000000  0.69476567  0.15983054  1.0
  Ni  Ni1173  1  0.33333333  0.02809900  0.15983054  1.0
  Ni  Ni1174  1  0.33333333  0.36143233  0.15983054  1.0
  Ni  Ni1175  1  0.33333333  0.69476567  0.15983054  1.0
  Ni  Ni1176  1  0.66666667  0.02809900  0.15983054  1.0
  Ni  Ni1177  1  0.66666667  0.36143233  0.15983054  1.0
  Ni  Ni1178  1  0.66666667  0.69476567  0.15983054  1.0
  Ni  Ni1179  1  0.00000000  0.19476567  0.11816388  1.0
  Ni  Ni1180  1  0.00000000  0.52809900  0.11816388  1.0
  Ni  Ni1181  1  0.00000000  0.86143233  0.11816387  1.0
  Ni  Ni1182  1  0.33333333  0.19476567  0.11816387  1.0
  Ni  Ni1183  1  0.33333333  0.52809900  0.11816388  1.0
  Ni  Ni1184  1  0.33333333  0.86143233  0.11816387  1.0
  Ni  Ni1185  1  0.66666667  0.19476567  0.11816388  1.0
  Ni  Ni1186  1  0.66666667  0.52809900  0.11816388  1.0
  Ni  Ni1187  1  0.66666667  0.86143233  0.11816388  1.0
  Ni  Ni1188  1  0.00000000  0.05523433  0.16661437  1.0
  Ni  Ni1189  1  0.00000000  0.38856767  0.16661437  1.0
  Ni  Ni1190  1  0.00000000  0.72190100  0.16661437  1.0
  Ni  Ni1191  1  0.33333333  0.05523433  0.16661437  1.0
  Ni  Ni1192  1  0.33333333  0.38856767  0.16661437  1.0
  Ni  Ni1193  1  0.33333333  0.72190100  0.16661437  1.0
  Ni  Ni1194  1  0.66666667  0.05523433  0.16661437  1.0
  Ni  Ni1195  1  0.66666667  0.38856767  0.16661437  1.0
  Ni  Ni1196  1  0.66666667  0.72190100  0.16661437  1.0
  Ni  Ni1197  1  0.00000000  0.22190100  0.12494771  1.0
  Ni  Ni1198  1  0.00000000  0.55523433  0.12494771  1.0
  Ni  Ni1199  1  0.00000000  0.88856767  0.12494771  1.0
  Ni  Ni1200  1  0.33333333  0.22190100  0.12494771  1.0
  Ni  Ni1201  1  0.33333333  0.55523433  0.12494771  1.0
  Ni  Ni1202  1  0.33333333  0.88856767  0.12494771  1.0
  Ni  Ni1203  1  0.66666667  0.22190100  0.12494771  1.0
  Ni  Ni1204  1  0.66666667  0.55523433  0.12494771  1.0
  Ni  Ni1205  1  0.66666667  0.88856767  0.12494771  1.0
  Ni  Ni1206  1  0.00000000  0.11143233  0.09733054  1.0
  Ni  Ni1207  1  0.00000000  0.44476567  0.09733054  1.0
  Ni  Ni1208  1  0.00000000  0.77809900  0.09733054  1.0
  Ni  Ni1209  1  0.33333333  0.11143233  0.09733054  1.0
  Ni  Ni1210  1  0.33333333  0.44476567  0.09733054  1.0
  Ni  Ni1211  1  0.33333333  0.77809900  0.09733054  1.0
  Ni  Ni1212  1  0.66666667  0.11143233  0.09733054  1.0
  Ni  Ni1213  1  0.66666667  0.44476567  0.09733054  1.0
  Ni  Ni1214  1  0.66666667  0.77809900  0.09733054  1.0
  Ni  Ni1215  1  0.00000000  0.27809900  0.13899721  1.0
  Ni  Ni1216  1  0.00000000  0.61143233  0.13899721  1.0
  Ni  Ni1217  1  0.00000000  0.94476567  0.13899721  1.0
  Ni  Ni1218  1  0.33333333  0.27809900  0.13899721  1.0
  Ni  Ni1219  1  0.33333333  0.61143233  0.13899721  1.0
  Ni  Ni1220  1  0.33333333  0.94476567  0.13899721  1.0
  Ni  Ni1221  1  0.66666667  0.27809900  0.13899721  1.0
  Ni  Ni1222  1  0.66666667  0.61143233  0.13899721  1.0
  Ni  Ni1223  1  0.66666667  0.94476567  0.13899721  1.0
  Ni  Ni1224  1  0.11111111  0.02788983  0.15977825  1.0
  Ni  Ni1225  1  0.11111111  0.36122317  0.15977825  1.0
  Ni  Ni1226  1  0.11111111  0.69455650  0.15977825  1.0
  Ni  Ni1227  1  0.44444444  0.02788983  0.15977825  1.0
  Ni  Ni1228  1  0.44444444  0.36122317  0.15977825  1.0
  Ni  Ni1229  1  0.44444444  0.69455650  0.15977825  1.0
  Ni  Ni1230  1  0.77777778  0.02788983  0.15977825  1.0
  Ni  Ni1231  1  0.77777778  0.36122317  0.15977825  1.0
  Ni  Ni1232  1  0.77777778  0.69455650  0.15977825  1.0
  Ni  Ni1233  1  0.11111111  0.19455650  0.11811158  1.0
  Ni  Ni1234  1  0.11111111  0.52788983  0.11811158  1.0
  Ni  Ni1235  1  0.11111111  0.86122317  0.11811158  1.0
  Ni  Ni1236  1  0.44444444  0.19455650  0.11811158  1.0
  Ni  Ni1237  1  0.44444444  0.52788983  0.11811158  1.0
  Ni  Ni1238  1  0.44444444  0.86122317  0.11811158  1.0
  Ni  Ni1239  1  0.77777778  0.19455650  0.11811158  1.0
  Ni  Ni1240  1  0.77777778  0.52788983  0.11811158  1.0
  Ni  Ni1241  1  0.77777778  0.86122317  0.11811158  1.0
  Ni  Ni1242  1  0.22222222  0.13877683  0.10416667  1.0
  Ni  Ni1243  1  0.22222222  0.47211017  0.10416667  1.0
  Ni  Ni1244  1  0.22222222  0.80544350  0.10416667  1.0
  Ni  Ni1245  1  0.55555556  0.13877683  0.10416667  1.0
  Ni  Ni1246  1  0.55555556  0.47211017  0.10416667  1.0
  Ni  Ni1247  1  0.55555556  0.80544350  0.10416667  1.0
  Ni  Ni1248  1  0.88888889  0.13877683  0.10416667  1.0
  Ni  Ni1249  1  0.88888889  0.47211017  0.10416667  1.0
  Ni  Ni1250  1  0.88888889  0.80544350  0.10416667  1.0
  Ni  Ni1251  1  0.22222222  0.30544350  0.14583333  1.0
  Ni  Ni1252  1  0.22222222  0.63877683  0.14583333  1.0
  Ni  Ni1253  1  0.22222222  0.97211017  0.14583333  1.0
  Ni  Ni1254  1  0.55555556  0.30544350  0.14583333  1.0
  Ni  Ni1255  1  0.55555556  0.63877683  0.14583333  1.0
  Ni  Ni1256  1  0.55555556  0.97211017  0.14583333  1.0
  Ni  Ni1257  1  0.88888889  0.30544350  0.14583333  1.0
  Ni  Ni1258  1  0.88888889  0.63877683  0.14583333  1.0
  Ni  Ni1259  1  0.88888889  0.97211017  0.14583333  1.0
  Ni  Ni1260  1  0.22222222  0.11122317  0.09727825  1.0
  Ni  Ni1261  1  0.22222222  0.44455650  0.09727825  1.0
  Ni  Ni1262  1  0.22222222  0.77788983  0.09727825  1.0
  Ni  Ni1263  1  0.55555556  0.11122317  0.09727825  1.0
  Ni  Ni1264  1  0.55555556  0.44455650  0.09727825  1.0
  Ni  Ni1265  1  0.55555556  0.77788983  0.09727825  1.0
  Ni  Ni1266  1  0.88888889  0.11122317  0.09727825  1.0
  Ni  Ni1267  1  0.88888889  0.44455650  0.09727825  1.0
  Ni  Ni1268  1  0.88888889  0.77788983  0.09727825  1.0
  Ni  Ni1269  1  0.22222222  0.27788983  0.13894492  1.0
  Ni  Ni1270  1  0.22222222  0.61122317  0.13894492  1.0
  Ni  Ni1271  1  0.22222222  0.94455650  0.13894492  1.0
  Ni  Ni1272  1  0.55555556  0.27788983  0.13894492  1.0
  Ni  Ni1273  1  0.55555556  0.61122317  0.13894492  1.0
  Ni  Ni1274  1  0.55555556  0.94455650  0.13894492  1.0
  Ni  Ni1275  1  0.88888889  0.27788983  0.13894492  1.0
  Ni  Ni1276  1  0.88888889  0.61122317  0.13894492  1.0
  Ni  Ni1277  1  0.88888889  0.94455650  0.13894492  1.0
  Ni  Ni1278  1  0.11111111  0.05544350  0.08333333  1.0
  Ni  Ni1279  1  0.11111111  0.38877683  0.08333333  1.0
  Ni  Ni1280  1  0.11111111  0.72211017  0.08333333  1.0
  Ni  Ni1281  1  0.44444444  0.05544350  0.08333333  1.0
  Ni  Ni1282  1  0.44444444  0.38877683  0.08333333  1.0
  Ni  Ni1283  1  0.44444444  0.72211017  0.08333333  1.0
  Ni  Ni1284  1  0.77777778  0.05544350  0.08333333  1.0
  Ni  Ni1285  1  0.77777778  0.38877683  0.08333333  1.0
  Ni  Ni1286  1  0.77777778  0.72211017  0.08333333  1.0
  Ni  Ni1287  1  0.11111111  0.22211017  0.12500000  1.0
  Ni  Ni1288  1  0.11111111  0.55544350  0.12500000  1.0
  Ni  Ni1289  1  0.11111111  0.88877683  0.12500000  1.0
  Ni  Ni1290  1  0.44444444  0.22211017  0.12500000  1.0
  Ni  Ni1291  1  0.44444444  0.55544350  0.12500000  1.0
  Ni  Ni1292  1  0.44444444  0.88877683  0.12500000  1.0
  Ni  Ni1293  1  0.77777778  0.22211017  0.12500000  1.0
  Ni  Ni1294  1  0.77777778  0.55544350  0.12500000  1.0
  Ni  Ni1295  1  0.77777778  0.88877683  0.12500000  1.0
  Y  Y1296  1  0.11111111  0.16166850  0.19322292  1.0
  Y  Y1297  1  0.11111111  0.49500183  0.19322292  1.0
  Y  Y1298  1  0.11111111  0.82833517  0.19322292  1.0
  Y  Y1299  1  0.44444444  0.16166850  0.19322292  1.0
  Y  Y1300  1  0.44444444  0.49500183  0.19322292  1.0
  Y  Y1301  1  0.44444444  0.82833517  0.19322292  1.0
  Y  Y1302  1  0.77777778  0.16166850  0.19322292  1.0
  Y  Y1303  1  0.77777778  0.49500183  0.19322292  1.0
  Y  Y1304  1  0.77777778  0.82833517  0.19322292  1.0
  Y  Y1305  1  0.11111111  0.32833517  0.23488958  1.0
  Y  Y1306  1  0.11111111  0.66166850  0.23488958  1.0
  Y  Y1307  1  0.11111111  0.99500183  0.23488958  1.0
  Y  Y1308  1  0.44444444  0.32833517  0.23488958  1.0
  Y  Y1309  1  0.44444444  0.66166850  0.23488958  1.0
  Y  Y1310  1  0.44444444  0.99500183  0.23488958  1.0
  Y  Y1311  1  0.77777778  0.32833517  0.23488958  1.0
  Y  Y1312  1  0.77777778  0.66166850  0.23488958  1.0
  Y  Y1313  1  0.77777778  0.99500183  0.23488958  1.0
  Y  Y1314  1  0.22222222  0.00499817  0.23738867  1.0
  Y  Y1315  1  0.22222222  0.33833150  0.23738867  1.0
  Y  Y1316  1  0.22222222  0.67166483  0.23738867  1.0
  Y  Y1317  1  0.55555556  0.00499817  0.23738867  1.0
  Y  Y1318  1  0.55555556  0.33833150  0.23738867  1.0
  Y  Y1319  1  0.55555556  0.67166483  0.23738867  1.0
  Y  Y1320  1  0.88888889  0.00499817  0.23738867  1.0
  Y  Y1321  1  0.88888889  0.33833150  0.23738867  1.0
  Y  Y1322  1  0.88888889  0.67166483  0.23738867  1.0
  Y  Y1323  1  0.22222222  0.17166483  0.19572200  1.0
  Y  Y1324  1  0.22222222  0.50499817  0.19572200  1.0
  Y  Y1325  1  0.22222222  0.83833150  0.19572200  1.0
  Y  Y1326  1  0.55555556  0.17166483  0.19572200  1.0
  Y  Y1327  1  0.55555556  0.50499817  0.19572200  1.0
  Y  Y1328  1  0.55555556  0.83833150  0.19572200  1.0
  Y  Y1329  1  0.88888889  0.17166483  0.19572200  1.0
  Y  Y1330  1  0.88888889  0.50499817  0.19572200  1.0
  Y  Y1331  1  0.88888889  0.83833150  0.19572200  1.0
  Y  Y1332  1  0.22222222  0.07833517  0.17238958  1.0
  Y  Y1333  1  0.22222222  0.41166850  0.17238958  1.0
  Y  Y1334  1  0.22222222  0.74500183  0.17238958  1.0
  Y  Y1335  1  0.55555556  0.07833517  0.17238958  1.0
  Y  Y1336  1  0.55555556  0.41166850  0.17238958  1.0
  Y  Y1337  1  0.55555556  0.74500183  0.17238958  1.0
  Y  Y1338  1  0.88888889  0.07833517  0.17238958  1.0
  Y  Y1339  1  0.88888889  0.41166850  0.17238958  1.0
  Y  Y1340  1  0.88888889  0.74500183  0.17238958  1.0
  Y  Y1341  1  0.22222222  0.24500183  0.21405625  1.0
  Y  Y1342  1  0.22222222  0.57833517  0.21405625  1.0
  Y  Y1343  1  0.22222222  0.91166850  0.21405625  1.0
  Y  Y1344  1  0.55555556  0.24500183  0.21405625  1.0
  Y  Y1345  1  0.55555556  0.57833517  0.21405625  1.0
  Y  Y1346  1  0.55555556  0.91166850  0.21405625  1.0
  Y  Y1347  1  0.88888889  0.24500183  0.21405625  1.0
  Y  Y1348  1  0.88888889  0.57833517  0.21405625  1.0
  Y  Y1349  1  0.88888889  0.91166850  0.21405625  1.0
  Y  Y1350  1  0.11111111  0.08833150  0.17488867  1.0
  Y  Y1351  1  0.11111111  0.42166483  0.17488867  1.0
  Y  Y1352  1  0.11111111  0.75499817  0.17488867  1.0
  Y  Y1353  1  0.44444444  0.08833150  0.17488867  1.0
  Y  Y1354  1  0.44444444  0.42166483  0.17488867  1.0
  Y  Y1355  1  0.44444444  0.75499817  0.17488867  1.0
  Y  Y1356  1  0.77777778  0.08833150  0.17488867  1.0
  Y  Y1357  1  0.77777778  0.42166483  0.17488867  1.0
  Y  Y1358  1  0.77777778  0.75499817  0.17488867  1.0
  Y  Y1359  1  0.11111111  0.25499817  0.21655533  1.0
  Y  Y1360  1  0.11111111  0.58833150  0.21655533  1.0
  Y  Y1361  1  0.11111111  0.92166483  0.21655533  1.0
  Y  Y1362  1  0.44444444  0.25499817  0.21655533  1.0
  Y  Y1363  1  0.44444444  0.58833150  0.21655533  1.0
  Y  Y1364  1  0.44444444  0.92166483  0.21655533  1.0
  Y  Y1365  1  0.77777778  0.25499817  0.21655533  1.0
  Y  Y1366  1  0.77777778  0.58833150  0.21655533  1.0
  Y  Y1367  1  0.77777778  0.92166483  0.21655533  1.0
  Y  Y1368  1  0.11111111  0.13761583  0.18720975  1.0
  Y  Y1369  1  0.11111111  0.47094917  0.18720975  1.0
  Y  Y1370  1  0.11111111  0.80428250  0.18720975  1.0
  Y  Y1371  1  0.44444444  0.13761583  0.18720975  1.0
  Y  Y1372  1  0.44444444  0.47094917  0.18720975  1.0
  Y  Y1373  1  0.44444444  0.80428250  0.18720975  1.0
  Y  Y1374  1  0.77777778  0.13761583  0.18720975  1.0
  Y  Y1375  1  0.77777778  0.47094917  0.18720975  1.0
  Y  Y1376  1  0.77777778  0.80428250  0.18720975  1.0
  Y  Y1377  1  0.11111111  0.30428250  0.22887642  1.0
  Y  Y1378  1  0.11111111  0.63761583  0.22887642  1.0
  Y  Y1379  1  0.11111111  0.97094917  0.22887642  1.0
  Y  Y1380  1  0.44444444  0.30428250  0.22887642  1.0
  Y  Y1381  1  0.44444444  0.63761583  0.22887642  1.0
  Y  Y1382  1  0.44444444  0.97094917  0.22887642  1.0
  Y  Y1383  1  0.77777778  0.30428250  0.22887642  1.0
  Y  Y1384  1  0.77777778  0.63761583  0.22887642  1.0
  Y  Y1385  1  0.77777778  0.97094917  0.22887642  1.0
  Y  Y1386  1  0.22222222  0.02905083  0.24340183  1.0
  Y  Y1387  1  0.22222222  0.36238417  0.24340183  1.0
  Y  Y1388  1  0.22222222  0.69571750  0.24340183  1.0
  Y  Y1389  1  0.55555556  0.02905083  0.24340183  1.0
  Y  Y1390  1  0.55555556  0.36238417  0.24340183  1.0
  Y  Y1391  1  0.55555556  0.69571750  0.24340183  1.0
  Y  Y1392  1  0.88888889  0.02905083  0.24340183  1.0
  Y  Y1393  1  0.88888889  0.36238417  0.24340183  1.0
  Y  Y1394  1  0.88888889  0.69571750  0.24340183  1.0
  Y  Y1395  1  0.22222222  0.19571750  0.20173517  1.0
  Y  Y1396  1  0.22222222  0.52905083  0.20173517  1.0
  Y  Y1397  1  0.22222222  0.86238417  0.20173517  1.0
  Y  Y1398  1  0.55555556  0.19571750  0.20173517  1.0
  Y  Y1399  1  0.55555556  0.52905083  0.20173517  1.0
  Y  Y1400  1  0.55555556  0.86238417  0.20173517  1.0
  Y  Y1401  1  0.88888889  0.19571750  0.20173517  1.0
  Y  Y1402  1  0.88888889  0.52905083  0.20173517  1.0
  Y  Y1403  1  0.88888889  0.86238417  0.20173517  1.0
  Y  Y1404  1  0.22222222  0.05428250  0.24970975  1.0
  Y  Y1405  1  0.22222222  0.38761583  0.24970975  1.0
  Y  Y1406  1  0.22222222  0.72094917  0.24970975  1.0
  Y  Y1407  1  0.55555556  0.05428250  0.24970975  1.0
  Y  Y1408  1  0.55555556  0.38761583  0.24970975  1.0
  Y  Y1409  1  0.55555556  0.72094917  0.24970975  1.0
  Y  Y1410  1  0.88888889  0.05428250  0.24970975  1.0
  Y  Y1411  1  0.88888889  0.38761583  0.24970975  1.0
  Y  Y1412  1  0.88888889  0.72094917  0.24970975  1.0
  Y  Y1413  1  0.22222222  0.22094917  0.20804308  1.0
  Y  Y1414  1  0.22222222  0.55428250  0.20804308  1.0
  Y  Y1415  1  0.22222222  0.88761583  0.20804308  1.0
  Y  Y1416  1  0.55555556  0.22094917  0.20804308  1.0
  Y  Y1417  1  0.55555556  0.55428250  0.20804308  1.0
  Y  Y1418  1  0.55555556  0.88761583  0.20804308  1.0
  Y  Y1419  1  0.88888889  0.22094917  0.20804308  1.0
  Y  Y1420  1  0.88888889  0.55428250  0.20804308  1.0
  Y  Y1421  1  0.88888889  0.88761583  0.20804308  1.0
  Y  Y1422  1  0.11111111  0.11238417  0.18090183  1.0
  Y  Y1423  1  0.11111111  0.44571750  0.18090183  1.0
  Y  Y1424  1  0.11111111  0.77905083  0.18090183  1.0
  Y  Y1425  1  0.44444444  0.11238417  0.18090183  1.0
  Y  Y1426  1  0.44444444  0.44571750  0.18090183  1.0
  Y  Y1427  1  0.44444444  0.77905083  0.18090183  1.0
  Y  Y1428  1  0.77777778  0.11238417  0.18090183  1.0
  Y  Y1429  1  0.77777778  0.44571750  0.18090183  1.0
  Y  Y1430  1  0.77777778  0.77905083  0.18090183  1.0
  Y  Y1431  1  0.11111111  0.27905083  0.22256850  1.0
  Y  Y1432  1  0.11111111  0.61238417  0.22256850  1.0
  Y  Y1433  1  0.11111111  0.94571750  0.22256850  1.0
  Y  Y1434  1  0.44444444  0.27905083  0.22256850  1.0
  Y  Y1435  1  0.44444444  0.61238417  0.22256850  1.0
  Y  Y1436  1  0.44444444  0.94571750  0.22256850  1.0
  Y  Y1437  1  0.77777778  0.27905083  0.22256850  1.0
  Y  Y1438  1  0.77777778  0.61238417  0.22256850  1.0
  Y  Y1439  1  0.77777778  0.94571750  0.22256850  1.0
  Ni  Ni1440  1  0.00000000  0.00000000  0.23613912  1.0
  Ni  Ni1441  1  0.00000000  0.33333333  0.23613913  1.0
  Ni  Ni1442  1  0.00000000  0.66666667  0.23613912  1.0
  Ni  Ni1443  1  0.33333333  0.00000000  0.23613913  1.0
  Ni  Ni1444  1  0.33333333  0.33333333  0.23613912  1.0
  Ni  Ni1445  1  0.33333333  0.66666667  0.23613913  1.0
  Ni  Ni1446  1  0.66666667  0.00000000  0.23613912  1.0
  Ni  Ni1447  1  0.66666667  0.33333333  0.23613912  1.0
  Ni  Ni1448  1  0.66666667  0.66666667  0.23613912  1.0
  Ni  Ni1449  1  0.00000000  0.16666667  0.19447246  1.0
  Ni  Ni1450  1  0.00000000  0.50000000  0.19447246  1.0
  Ni  Ni1451  1  0.00000000  0.83333333  0.19447246  1.0
  Ni  Ni1452  1  0.33333333  0.16666667  0.19447246  1.0
  Ni  Ni1453  1  0.33333333  0.50000000  0.19447246  1.0
  Ni  Ni1454  1  0.33333333  0.83333333  0.19447246  1.0
  Ni  Ni1455  1  0.66666667  0.16666667  0.19447246  1.0
  Ni  Ni1456  1  0.66666667  0.50000000  0.19447246  1.0
  Ni  Ni1457  1  0.66666667  0.83333333  0.19447246  1.0
  Ni  Ni1458  1  0.00000000  0.08333333  0.17363912  1.0
  Ni  Ni1459  1  0.00000000  0.41666667  0.17363912  1.0
  Ni  Ni1460  1  0.00000000  0.75000000  0.17363912  1.0
  Ni  Ni1461  1  0.33333333  0.08333333  0.17363912  1.0
  Ni  Ni1462  1  0.33333333  0.41666667  0.17363912  1.0
  Ni  Ni1463  1  0.33333333  0.75000000  0.17363912  1.0
  Ni  Ni1464  1  0.66666667  0.08333333  0.17363913  1.0
  Ni  Ni1465  1  0.66666667  0.41666667  0.17363912  1.0
  Ni  Ni1466  1  0.66666667  0.75000000  0.17363912  1.0
  Ni  Ni1467  1  0.00000000  0.25000000  0.21530579  1.0
  Ni  Ni1468  1  0.00000000  0.58333333  0.21530579  1.0
  Ni  Ni1469  1  0.00000000  0.91666667  0.21530579  1.0
  Ni  Ni1470  1  0.33333333  0.25000000  0.21530579  1.0
  Ni  Ni1471  1  0.33333333  0.58333333  0.21530579  1.0
  Ni  Ni1472  1  0.33333333  0.91666667  0.21530579  1.0
  Ni  Ni1473  1  0.66666667  0.25000000  0.21530579  1.0
  Ni  Ni1474  1  0.66666667  0.58333333  0.21530579  1.0
  Ni  Ni1475  1  0.66666667  0.91666667  0.21530579  1.0
  Ni  Ni1476  1  0.11169133  0.12500000  0.22594004  1.0
  Ni  Ni1477  1  0.11169133  0.45833333  0.22594004  1.0
  Ni  Ni1478  1  0.11169133  0.79166667  0.22594004  1.0
  Ni  Ni1479  1  0.44502467  0.12500000  0.22594004  1.0
  Ni  Ni1480  1  0.44502467  0.45833333  0.22594004  1.0
  Ni  Ni1481  1  0.44502467  0.79166667  0.22594004  1.0
  Ni  Ni1482  1  0.77835800  0.12500000  0.22594004  1.0
  Ni  Ni1483  1  0.77835800  0.45833333  0.22594004  1.0
  Ni  Ni1484  1  0.77835800  0.79166667  0.22594004  1.0
  Ni  Ni1485  1  0.11169133  0.29166667  0.18427337  1.0
  Ni  Ni1486  1  0.11169133  0.62500000  0.18427337  1.0
  Ni  Ni1487  1  0.11169133  0.95833333  0.18427337  1.0
  Ni  Ni1488  1  0.44502467  0.29166667  0.18427337  1.0
  Ni  Ni1489  1  0.44502467  0.62500000  0.18427337  1.0
  Ni  Ni1490  1  0.44502467  0.95833333  0.18427337  1.0
  Ni  Ni1491  1  0.77835800  0.29166667  0.18427337  1.0
  Ni  Ni1492  1  0.77835800  0.62500000  0.18427338  1.0
  Ni  Ni1493  1  0.77835800  0.95833333  0.18427337  1.0
  Ni  Ni1494  1  0.27748767  0.12500000  0.22550487  1.0
  Ni  Ni1495  1  0.27748767  0.45833333  0.22550487  1.0
  Ni  Ni1496  1  0.27748767  0.79166667  0.22550487  1.0
  Ni  Ni1497  1  0.61082100  0.12500000  0.22550487  1.0
  Ni  Ni1498  1  0.61082100  0.45833333  0.22550487  1.0
  Ni  Ni1499  1  0.61082100  0.79166667  0.22550487  1.0
  Ni  Ni1500  1  0.94415433  0.12500000  0.22550487  1.0
  Ni  Ni1501  1  0.94415433  0.45833333  0.22550487  1.0
  Ni  Ni1502  1  0.94415433  0.79166667  0.22550487  1.0
  Ni  Ni1503  1  0.27748767  0.29166667  0.18383821  1.0
  Ni  Ni1504  1  0.27748767  0.62500000  0.18383821  1.0
  Ni  Ni1505  1  0.27748767  0.95833333  0.18383821  1.0
  Ni  Ni1506  1  0.61082100  0.29166667  0.18383821  1.0
  Ni  Ni1507  1  0.61082100  0.62500000  0.18383821  1.0
  Ni  Ni1508  1  0.61082100  0.95833333  0.18383821  1.0
  Ni  Ni1509  1  0.94415433  0.29166667  0.18383821  1.0
  Ni  Ni1510  1  0.94415433  0.62500000  0.18383821  1.0
  Ni  Ni1511  1  0.94415433  0.95833333  0.18383821  1.0
  Ni  Ni1512  1  0.27748767  0.12500000  0.18405579  1.0
  Ni  Ni1513  1  0.27748767  0.45833333  0.18405579  1.0
  Ni  Ni1514  1  0.27748767  0.79166667  0.18405579  1.0
  Ni  Ni1515  1  0.61082100  0.12500000  0.18405579  1.0
  Ni  Ni1516  1  0.61082100  0.45833333  0.18405579  1.0
  Ni  Ni1517  1  0.61082100  0.79166667  0.18405579  1.0
  Ni  Ni1518  1  0.94415433  0.12500000  0.18405579  1.0
  Ni  Ni1519  1  0.94415433  0.45833333  0.18405579  1.0
  Ni  Ni1520  1  0.94415433  0.79166667  0.18405579  1.0
  Ni  Ni1521  1  0.27748767  0.29166667  0.22572246  1.0
  Ni  Ni1522  1  0.27748767  0.62500000  0.22572246  1.0
  Ni  Ni1523  1  0.27748767  0.95833333  0.22572246  1.0
  Ni  Ni1524  1  0.61082100  0.29166667  0.22572246  1.0
  Ni  Ni1525  1  0.61082100  0.62500000  0.22572246  1.0
  Ni  Ni1526  1  0.61082100  0.95833333  0.22572246  1.0
  Ni  Ni1527  1  0.94415433  0.29166667  0.22572246  1.0
  Ni  Ni1528  1  0.94415433  0.62500000  0.22572246  1.0
  Ni  Ni1529  1  0.94415433  0.95833333  0.22572246  1.0
  Ni  Ni1530  1  0.22164200  0.04166667  0.20467154  1.0
  Ni  Ni1531  1  0.22164200  0.37500000  0.20467154  1.0
  Ni  Ni1532  1  0.22164200  0.70833333  0.20467154  1.0
  Ni  Ni1533  1  0.55497533  0.04166667  0.20467154  1.0
  Ni  Ni1534  1  0.55497533  0.37500000  0.20467154  1.0
  Ni  Ni1535  1  0.55497533  0.70833333  0.20467154  1.0
  Ni  Ni1536  1  0.88830867  0.04166667  0.20467154  1.0
  Ni  Ni1537  1  0.88830867  0.37500000  0.20467154  1.0
  Ni  Ni1538  1  0.88830867  0.70833333  0.20467154  1.0
  Ni  Ni1539  1  0.22164200  0.20833333  0.24633821  1.0
  Ni  Ni1540  1  0.22164200  0.54166667  0.24633821  1.0
  Ni  Ni1541  1  0.22164200  0.87500000  0.24633821  1.0
  Ni  Ni1542  1  0.55497533  0.20833333  0.24633821  1.0
  Ni  Ni1543  1  0.55497533  0.54166667  0.24633821  1.0
  Ni  Ni1544  1  0.55497533  0.87500000  0.24633821  1.0
  Ni  Ni1545  1  0.88830867  0.20833333  0.24633821  1.0
  Ni  Ni1546  1  0.88830867  0.54166667  0.24633821  1.0
  Ni  Ni1547  1  0.88830867  0.87500000  0.24633821  1.0
  Ni  Ni1548  1  0.05584567  0.04166667  0.20510671  1.0
  Ni  Ni1549  1  0.05584567  0.37500000  0.20510671  1.0
  Ni  Ni1550  1  0.05584567  0.70833333  0.20510671  1.0
  Ni  Ni1551  1  0.38917900  0.04166667  0.20510671  1.0
  Ni  Ni1552  1  0.38917900  0.37500000  0.20510671  1.0
  Ni  Ni1553  1  0.38917900  0.70833333  0.20510671  1.0
  Ni  Ni1554  1  0.72251233  0.04166667  0.20510671  1.0
  Ni  Ni1555  1  0.72251233  0.37500000  0.20510671  1.0
  Ni  Ni1556  1  0.72251233  0.70833333  0.20510671  1.0
  Ni  Ni1557  1  0.05584567  0.20833333  0.24677337  1.0
  Ni  Ni1558  1  0.05584567  0.54166667  0.24677337  1.0
  Ni  Ni1559  1  0.05584567  0.87500000  0.24677337  1.0
  Ni  Ni1560  1  0.38917900  0.20833333  0.24677337  1.0
  Ni  Ni1561  1  0.38917900  0.54166667  0.24677337  1.0
  Ni  Ni1562  1  0.38917900  0.87500000  0.24677338  1.0
  Ni  Ni1563  1  0.72251233  0.20833333  0.24677338  1.0
  Ni  Ni1564  1  0.72251233  0.54166667  0.24677338  1.0
  Ni  Ni1565  1  0.72251233  0.87500000  0.24677337  1.0
  Ni  Ni1566  1  0.05584567  0.04166667  0.24655579  1.0
  Ni  Ni1567  1  0.05584567  0.37500000  0.24655579  1.0
  Ni  Ni1568  1  0.05584567  0.70833333  0.24655579  1.0
  Ni  Ni1569  1  0.38917900  0.04166667  0.24655579  1.0
  Ni  Ni1570  1  0.38917900  0.37500000  0.24655579  1.0
  Ni  Ni1571  1  0.38917900  0.70833333  0.24655579  1.0
  Ni  Ni1572  1  0.72251233  0.04166667  0.24655579  1.0
  Ni  Ni1573  1  0.72251233  0.37500000  0.24655579  1.0
  Ni  Ni1574  1  0.72251233  0.70833333  0.24655579  1.0
  Ni  Ni1575  1  0.05584567  0.20833333  0.20488912  1.0
  Ni  Ni1576  1  0.05584567  0.54166667  0.20488912  1.0
  Ni  Ni1577  1  0.05584567  0.87500000  0.20488912  1.0
  Ni  Ni1578  1  0.38917900  0.20833333  0.20488912  1.0
  Ni  Ni1579  1  0.38917900  0.54166667  0.20488913  1.0
  Ni  Ni1580  1  0.38917900  0.87500000  0.20488913  1.0
  Ni  Ni1581  1  0.72251233  0.20833333  0.20488913  1.0
  Ni  Ni1582  1  0.72251233  0.54166667  0.20488913  1.0
  Ni  Ni1583  1  0.72251233  0.87500000  0.20488913  1.0
  Ni  Ni1584  1  0.11093733  0.15224517  0.23246858  1.0
  Ni  Ni1585  1  0.11093733  0.48557850  0.23246858  1.0
  Ni  Ni1586  1  0.11093733  0.81891183  0.23246858  1.0
  Ni  Ni1587  1  0.44427067  0.15224517  0.23246858  1.0
  Ni  Ni1588  1  0.44427067  0.48557850  0.23246858  1.0
  Ni  Ni1589  1  0.44427067  0.81891183  0.23246858  1.0
  Ni  Ni1590  1  0.77760400  0.15224517  0.23246858  1.0
  Ni  Ni1591  1  0.77760400  0.48557850  0.23246858  1.0
  Ni  Ni1592  1  0.77760400  0.81891183  0.23246858  1.0
  Ni  Ni1593  1  0.11093733  0.31891183  0.19080192  1.0
  Ni  Ni1594  1  0.11093733  0.65224517  0.19080192  1.0
  Ni  Ni1595  1  0.11093733  0.98557850  0.19080192  1.0
  Ni  Ni1596  1  0.44427067  0.31891183  0.19080192  1.0
  Ni  Ni1597  1  0.44427067  0.65224517  0.19080192  1.0
  Ni  Ni1598  1  0.44427067  0.98557850  0.19080192  1.0
  Ni  Ni1599  1  0.77760400  0.31891183  0.19080192  1.0
  Ni  Ni1600  1  0.77760400  0.65224517  0.19080192  1.0
  Ni  Ni1601  1  0.77760400  0.98557850  0.19080192  1.0
  Ni  Ni1602  1  0.27786467  0.15224517  0.23259892  1.0
  Ni  Ni1603  1  0.27786467  0.48557850  0.23259892  1.0
  Ni  Ni1604  1  0.27786467  0.81891183  0.23259892  1.0
  Ni  Ni1605  1  0.61119800  0.15224517  0.23259892  1.0
  Ni  Ni1606  1  0.61119800  0.48557850  0.23259892  1.0
  Ni  Ni1607  1  0.61119800  0.81891183  0.23259892  1.0
  Ni  Ni1608  1  0.94453133  0.15224517  0.23259892  1.0
  Ni  Ni1609  1  0.94453133  0.48557850  0.23259892  1.0
  Ni  Ni1610  1  0.94453133  0.81891183  0.23259892  1.0
  Ni  Ni1611  1  0.27786467  0.31891183  0.19093225  1.0
  Ni  Ni1612  1  0.27786467  0.65224517  0.19093225  1.0
  Ni  Ni1613  1  0.27786467  0.98557850  0.19093225  1.0
  Ni  Ni1614  1  0.61119800  0.31891183  0.19093225  1.0
  Ni  Ni1615  1  0.61119800  0.65224517  0.19093225  1.0
  Ni  Ni1616  1  0.61119800  0.98557850  0.19093225  1.0
  Ni  Ni1617  1  0.94453133  0.31891183  0.19093225  1.0
  Ni  Ni1618  1  0.94453133  0.65224517  0.19093225  1.0
  Ni  Ni1619  1  0.94453133  0.98557850  0.19093225  1.0
  Ni  Ni1620  1  0.27786467  0.15224517  0.19086708  1.0
  Ni  Ni1621  1  0.27786467  0.48557850  0.19086708  1.0
  Ni  Ni1622  1  0.27786467  0.81891183  0.19086708  1.0
  Ni  Ni1623  1  0.61119800  0.15224517  0.19086708  1.0
  Ni  Ni1624  1  0.61119800  0.48557850  0.19086708  1.0
  Ni  Ni1625  1  0.61119800  0.81891183  0.19086708  1.0
  Ni  Ni1626  1  0.94453133  0.15224517  0.19086708  1.0
  Ni  Ni1627  1  0.94453133  0.48557850  0.19086708  1.0
  Ni  Ni1628  1  0.94453133  0.81891183  0.19086708  1.0
  Ni  Ni1629  1  0.27786467  0.31891183  0.23253375  1.0
  Ni  Ni1630  1  0.27786467  0.65224517  0.23253375  1.0
  Ni  Ni1631  1  0.27786467  0.98557850  0.23253375  1.0
  Ni  Ni1632  1  0.61119800  0.31891183  0.23253375  1.0
  Ni  Ni1633  1  0.61119800  0.65224517  0.23253375  1.0
  Ni  Ni1634  1  0.61119800  0.98557850  0.23253375  1.0
  Ni  Ni1635  1  0.94453133  0.31891183  0.23253375  1.0
  Ni  Ni1636  1  0.94453133  0.65224517  0.23253375  1.0
  Ni  Ni1637  1  0.94453133  0.98557850  0.23253375  1.0
  Ni  Ni1638  1  0.22239600  0.01442150  0.19814300  1.0
  Ni  Ni1639  1  0.22239600  0.34775483  0.19814300  1.0
  Ni  Ni1640  1  0.22239600  0.68108817  0.19814300  1.0
  Ni  Ni1641  1  0.55572933  0.01442150  0.19814300  1.0
  Ni  Ni1642  1  0.55572933  0.34775483  0.19814300  1.0
  Ni  Ni1643  1  0.55572933  0.68108817  0.19814300  1.0
  Ni  Ni1644  1  0.88906267  0.01442150  0.19814300  1.0
  Ni  Ni1645  1  0.88906267  0.34775483  0.19814300  1.0
  Ni  Ni1646  1  0.88906267  0.68108817  0.19814300  1.0
  Ni  Ni1647  1  0.22239600  0.18108817  0.23980967  1.0
  Ni  Ni1648  1  0.22239600  0.51442150  0.23980967  1.0
  Ni  Ni1649  1  0.22239600  0.84775483  0.23980967  1.0
  Ni  Ni1650  1  0.55572933  0.18108817  0.23980967  1.0
  Ni  Ni1651  1  0.55572933  0.51442150  0.23980967  1.0
  Ni  Ni1652  1  0.55572933  0.84775483  0.23980967  1.0
  Ni  Ni1653  1  0.88906267  0.18108817  0.23980967  1.0
  Ni  Ni1654  1  0.88906267  0.51442150  0.23980967  1.0
  Ni  Ni1655  1  0.88906267  0.84775483  0.23980967  1.0
  Ni  Ni1656  1  0.05546867  0.01442150  0.19801267  1.0
  Ni  Ni1657  1  0.05546867  0.34775483  0.19801267  1.0
  Ni  Ni1658  1  0.05546867  0.68108817  0.19801267  1.0
  Ni  Ni1659  1  0.38880200  0.01442150  0.19801267  1.0
  Ni  Ni1660  1  0.38880200  0.34775483  0.19801267  1.0
  Ni  Ni1661  1  0.38880200  0.68108817  0.19801267  1.0
  Ni  Ni1662  1  0.72213533  0.01442150  0.19801267  1.0
  Ni  Ni1663  1  0.72213533  0.34775483  0.19801267  1.0
  Ni  Ni1664  1  0.72213533  0.68108817  0.19801267  1.0
  Ni  Ni1665  1  0.05546867  0.18108817  0.23967933  1.0
  Ni  Ni1666  1  0.05546867  0.51442150  0.23967933  1.0
  Ni  Ni1667  1  0.05546867  0.84775483  0.23967933  1.0
  Ni  Ni1668  1  0.38880200  0.18108817  0.23967933  1.0
  Ni  Ni1669  1  0.38880200  0.51442150  0.23967933  1.0
  Ni  Ni1670  1  0.38880200  0.84775483  0.23967933  1.0
  Ni  Ni1671  1  0.72213533  0.18108817  0.23967933  1.0
  Ni  Ni1672  1  0.72213533  0.51442150  0.23967933  1.0
  Ni  Ni1673  1  0.72213533  0.84775483  0.23967933  1.0
  Ni  Ni1674  1  0.05546867  0.01442150  0.23974450  1.0
  Ni  Ni1675  1  0.05546867  0.34775483  0.23974450  1.0
  Ni  Ni1676  1  0.05546867  0.68108817  0.23974450  1.0
  Ni  Ni1677  1  0.38880200  0.01442150  0.23974450  1.0
  Ni  Ni1678  1  0.38880200  0.34775483  0.23974450  1.0
  Ni  Ni1679  1  0.38880200  0.68108817  0.23974450  1.0
  Ni  Ni1680  1  0.72213533  0.01442150  0.23974450  1.0
  Ni  Ni1681  1  0.72213533  0.34775483  0.23974450  1.0
  Ni  Ni1682  1  0.72213533  0.68108817  0.23974450  1.0
  Ni  Ni1683  1  0.05546867  0.18108817  0.19807783  1.0
  Ni  Ni1684  1  0.05546867  0.51442150  0.19807783  1.0
  Ni  Ni1685  1  0.05546867  0.84775483  0.19807783  1.0
  Ni  Ni1686  1  0.38880200  0.18108817  0.19807783  1.0
  Ni  Ni1687  1  0.38880200  0.51442150  0.19807783  1.0
  Ni  Ni1688  1  0.38880200  0.84775483  0.19807783  1.0
  Ni  Ni1689  1  0.72213533  0.18108817  0.19807783  1.0
  Ni  Ni1690  1  0.72213533  0.51442150  0.19807783  1.0
  Ni  Ni1691  1  0.72213533  0.84775483  0.19807783  1.0
  Ni  Ni1692  1  0.22239600  0.06891183  0.21176558  1.0
  Ni  Ni1693  1  0.22239600  0.40224517  0.21176558  1.0
  Ni  Ni1694  1  0.22239600  0.73557850  0.21176558  1.0
  Ni  Ni1695  1  0.55572933  0.06891183  0.21176558  1.0
  Ni  Ni1696  1  0.55572933  0.40224517  0.21176558  1.0
  Ni  Ni1697  1  0.55572933  0.73557850  0.21176558  1.0
  Ni  Ni1698  1  0.88906267  0.06891183  0.21176558  1.0
  Ni  Ni1699  1  0.88906267  0.40224517  0.21176558  1.0
  Ni  Ni1700  1  0.88906267  0.73557850  0.21176558  1.0
  Ni  Ni1701  1  0.22239600  0.23557850  0.17009892  1.0
  Ni  Ni1702  1  0.22239600  0.56891183  0.17009892  1.0
  Ni  Ni1703  1  0.22239600  0.90224517  0.17009892  1.0
  Ni  Ni1704  1  0.55572933  0.23557850  0.17009892  1.0
  Ni  Ni1705  1  0.55572933  0.56891183  0.17009892  1.0
  Ni  Ni1706  1  0.55572933  0.90224517  0.17009892  1.0
  Ni  Ni1707  1  0.88906267  0.23557850  0.17009892  1.0
  Ni  Ni1708  1  0.88906267  0.56891183  0.17009892  1.0
  Ni  Ni1709  1  0.88906267  0.90224517  0.17009892  1.0
  Ni  Ni1710  1  0.05546867  0.06891183  0.21163525  1.0
  Ni  Ni1711  1  0.05546867  0.40224517  0.21163525  1.0
  Ni  Ni1712  1  0.05546867  0.73557850  0.21163525  1.0
  Ni  Ni1713  1  0.38880200  0.06891183  0.21163525  1.0
  Ni  Ni1714  1  0.38880200  0.40224517  0.21163525  1.0
  Ni  Ni1715  1  0.38880200  0.73557850  0.21163525  1.0
  Ni  Ni1716  1  0.72213533  0.06891183  0.21163525  1.0
  Ni  Ni1717  1  0.72213533  0.40224517  0.21163525  1.0
  Ni  Ni1718  1  0.72213533  0.73557850  0.21163525  1.0
  Ni  Ni1719  1  0.05546867  0.23557850  0.16996858  1.0
  Ni  Ni1720  1  0.05546867  0.56891183  0.16996858  1.0
  Ni  Ni1721  1  0.05546867  0.90224517  0.16996858  1.0
  Ni  Ni1722  1  0.38880200  0.23557850  0.16996858  1.0
  Ni  Ni1723  1  0.38880200  0.56891183  0.16996858  1.0
  Ni  Ni1724  1  0.38880200  0.90224517  0.16996858  1.0
  Ni  Ni1725  1  0.72213533  0.23557850  0.16996858  1.0
  Ni  Ni1726  1  0.72213533  0.56891183  0.16996858  1.0
  Ni  Ni1727  1  0.72213533  0.90224517  0.16996858  1.0
  Ni  Ni1728  1  0.05546867  0.06891183  0.17003375  1.0
  Ni  Ni1729  1  0.05546867  0.40224517  0.17003375  1.0
  Ni  Ni1730  1  0.05546867  0.73557850  0.17003375  1.0
  Ni  Ni1731  1  0.38880200  0.06891183  0.17003375  1.0
  Ni  Ni1732  1  0.38880200  0.40224517  0.17003375  1.0
  Ni  Ni1733  1  0.38880200  0.73557850  0.17003375  1.0
  Ni  Ni1734  1  0.72213533  0.06891183  0.17003375  1.0
  Ni  Ni1735  1  0.72213533  0.40224517  0.17003375  1.0
  Ni  Ni1736  1  0.72213533  0.73557850  0.17003375  1.0
  Ni  Ni1737  1  0.05546867  0.23557850  0.21170042  1.0
  Ni  Ni1738  1  0.05546867  0.56891183  0.21170042  1.0
  Ni  Ni1739  1  0.05546867  0.90224517  0.21170042  1.0
  Ni  Ni1740  1  0.38880200  0.23557850  0.21170042  1.0
  Ni  Ni1741  1  0.38880200  0.56891183  0.21170042  1.0
  Ni  Ni1742  1  0.38880200  0.90224517  0.21170042  1.0
  Ni  Ni1743  1  0.72213533  0.23557850  0.21170042  1.0
  Ni  Ni1744  1  0.72213533  0.56891183  0.21170042  1.0
  Ni  Ni1745  1  0.72213533  0.90224517  0.21170042  1.0
  Ni  Ni1746  1  0.11093733  0.09775483  0.21884600  1.0
  Ni  Ni1747  1  0.11093733  0.43108817  0.21884600  1.0
  Ni  Ni1748  1  0.11093733  0.76442150  0.21884600  1.0
  Ni  Ni1749  1  0.44427067  0.09775483  0.21884600  1.0
  Ni  Ni1750  1  0.44427067  0.43108817  0.21884600  1.0
  Ni  Ni1751  1  0.44427067  0.76442150  0.21884600  1.0
  Ni  Ni1752  1  0.77760400  0.09775483  0.21884600  1.0
  Ni  Ni1753  1  0.77760400  0.43108817  0.21884600  1.0
  Ni  Ni1754  1  0.77760400  0.76442150  0.21884600  1.0
  Ni  Ni1755  1  0.11093733  0.26442150  0.17717933  1.0
  Ni  Ni1756  1  0.11093733  0.59775483  0.17717933  1.0
  Ni  Ni1757  1  0.11093733  0.93108817  0.17717933  1.0
  Ni  Ni1758  1  0.44427067  0.26442150  0.17717933  1.0
  Ni  Ni1759  1  0.44427067  0.59775483  0.17717933  1.0
  Ni  Ni1760  1  0.44427067  0.93108817  0.17717933  1.0
  Ni  Ni1761  1  0.77760400  0.26442150  0.17717933  1.0
  Ni  Ni1762  1  0.77760400  0.59775483  0.17717933  1.0
  Ni  Ni1763  1  0.77760400  0.93108817  0.17717933  1.0
  Ni  Ni1764  1  0.27786467  0.09775483  0.21897633  1.0
  Ni  Ni1765  1  0.27786467  0.43108817  0.21897633  1.0
  Ni  Ni1766  1  0.27786467  0.76442150  0.21897633  1.0
  Ni  Ni1767  1  0.61119800  0.09775483  0.21897633  1.0
  Ni  Ni1768  1  0.61119800  0.43108817  0.21897633  1.0
  Ni  Ni1769  1  0.61119800  0.76442150  0.21897633  1.0
  Ni  Ni1770  1  0.94453133  0.09775483  0.21897633  1.0
  Ni  Ni1771  1  0.94453133  0.43108817  0.21897633  1.0
  Ni  Ni1772  1  0.94453133  0.76442150  0.21897633  1.0
  Ni  Ni1773  1  0.27786467  0.26442150  0.17730967  1.0
  Ni  Ni1774  1  0.27786467  0.59775483  0.17730967  1.0
  Ni  Ni1775  1  0.27786467  0.93108817  0.17730967  1.0
  Ni  Ni1776  1  0.61119800  0.26442150  0.17730967  1.0
  Ni  Ni1777  1  0.61119800  0.59775483  0.17730967  1.0
  Ni  Ni1778  1  0.61119800  0.93108817  0.17730967  1.0
  Ni  Ni1779  1  0.94453133  0.26442150  0.17730967  1.0
  Ni  Ni1780  1  0.94453133  0.59775483  0.17730967  1.0
  Ni  Ni1781  1  0.94453133  0.93108817  0.17730967  1.0
  Ni  Ni1782  1  0.27786467  0.09775483  0.17724450  1.0
  Ni  Ni1783  1  0.27786467  0.43108817  0.17724450  1.0
  Ni  Ni1784  1  0.27786467  0.76442150  0.17724450  1.0
  Ni  Ni1785  1  0.61119800  0.09775483  0.17724450  1.0
  Ni  Ni1786  1  0.61119800  0.43108817  0.17724450  1.0
  Ni  Ni1787  1  0.61119800  0.76442150  0.17724450  1.0
  Ni  Ni1788  1  0.94453133  0.09775483  0.17724450  1.0
  Ni  Ni1789  1  0.94453133  0.43108817  0.17724450  1.0
  Ni  Ni1790  1  0.94453133  0.76442150  0.17724450  1.0
  Ni  Ni1791  1  0.27786467  0.26442150  0.21891117  1.0
  Ni  Ni1792  1  0.27786467  0.59775483  0.21891117  1.0
  Ni  Ni1793  1  0.27786467  0.93108817  0.21891117  1.0
  Ni  Ni1794  1  0.61119800  0.26442150  0.21891117  1.0
  Ni  Ni1795  1  0.61119800  0.59775483  0.21891117  1.0
  Ni  Ni1796  1  0.61119800  0.93108817  0.21891117  1.0
  Ni  Ni1797  1  0.94453133  0.26442150  0.21891117  1.0
  Ni  Ni1798  1  0.94453133  0.59775483  0.21891117  1.0
  Ni  Ni1799  1  0.94453133  0.93108817  0.21891117  1.0
  Ni  Ni1800  1  0.00000000  0.13856767  0.18744771  1.0
  Ni  Ni1801  1  0.00000000  0.47190100  0.18744771  1.0
  Ni  Ni1802  1  0.00000000  0.80523433  0.18744771  1.0
  Ni  Ni1803  1  0.33333333  0.13856767  0.18744771  1.0
  Ni  Ni1804  1  0.33333333  0.47190100  0.18744771  1.0
  Ni  Ni1805  1  0.33333333  0.80523433  0.18744771  1.0
  Ni  Ni1806  1  0.66666667  0.13856767  0.18744771  1.0
  Ni  Ni1807  1  0.66666667  0.47190100  0.18744771  1.0
  Ni  Ni1808  1  0.66666667  0.80523433  0.18744771  1.0
  Ni  Ni1809  1  0.00000000  0.30523433  0.22911437  1.0
  Ni  Ni1810  1  0.00000000  0.63856767  0.22911437  1.0
  Ni  Ni1811  1  0.00000000  0.97190100  0.22911437  1.0
  Ni  Ni1812  1  0.33333333  0.30523433  0.22911437  1.0
  Ni  Ni1813  1  0.33333333  0.63856767  0.22911437  1.0
  Ni  Ni1814  1  0.33333333  0.97190100  0.22911437  1.0
  Ni  Ni1815  1  0.66666667  0.30523433  0.22911437  1.0
  Ni  Ni1816  1  0.66666667  0.63856767  0.22911437  1.0
  Ni  Ni1817  1  0.66666667  0.97190100  0.22911437  1.0
  Ni  Ni1818  1  0.00000000  0.02809900  0.24316387  1.0
  Ni  Ni1819  1  0.00000000  0.36143233  0.24316387  1.0
  Ni  Ni1820  1  0.00000000  0.69476567  0.24316387  1.0
  Ni  Ni1821  1  0.33333333  0.02809900  0.24316387  1.0
  Ni  Ni1822  1  0.33333333  0.36143233  0.24316387  1.0
  Ni  Ni1823  1  0.33333333  0.69476567  0.24316388  1.0
  Ni  Ni1824  1  0.66666667  0.02809900  0.24316387  1.0
  Ni  Ni1825  1  0.66666667  0.36143233  0.24316387  1.0
  Ni  Ni1826  1  0.66666667  0.69476567  0.24316387  1.0
  Ni  Ni1827  1  0.00000000  0.19476567  0.20149721  1.0
  Ni  Ni1828  1  0.00000000  0.52809900  0.20149721  1.0
  Ni  Ni1829  1  0.00000000  0.86143233  0.20149721  1.0
  Ni  Ni1830  1  0.33333333  0.19476567  0.20149721  1.0
  Ni  Ni1831  1  0.33333333  0.52809900  0.20149721  1.0
  Ni  Ni1832  1  0.33333333  0.86143233  0.20149721  1.0
  Ni  Ni1833  1  0.66666667  0.19476567  0.20149721  1.0
  Ni  Ni1834  1  0.66666667  0.52809900  0.20149721  1.0
  Ni  Ni1835  1  0.66666667  0.86143233  0.20149721  1.0
  Ni  Ni1836  1  0.00000000  0.05523433  0.24994771  1.0
  Ni  Ni1837  1  0.00000000  0.38856767  0.24994771  1.0
  Ni  Ni1838  1  0.00000000  0.72190100  0.24994771  1.0
  Ni  Ni1839  1  0.33333333  0.05523433  0.24994771  1.0
  Ni  Ni1840  1  0.33333333  0.38856767  0.24994771  1.0
  Ni  Ni1841  1  0.33333333  0.72190100  0.24994771  1.0
  Ni  Ni1842  1  0.66666667  0.05523433  0.24994771  1.0
  Ni  Ni1843  1  0.66666667  0.38856767  0.24994771  1.0
  Ni  Ni1844  1  0.66666667  0.72190100  0.24994771  1.0
  Ni  Ni1845  1  0.00000000  0.22190100  0.20828104  1.0
  Ni  Ni1846  1  0.00000000  0.55523433  0.20828104  1.0
  Ni  Ni1847  1  0.00000000  0.88856767  0.20828104  1.0
  Ni  Ni1848  1  0.33333333  0.22190100  0.20828104  1.0
  Ni  Ni1849  1  0.33333333  0.55523433  0.20828104  1.0
  Ni  Ni1850  1  0.33333333  0.88856767  0.20828104  1.0
  Ni  Ni1851  1  0.66666667  0.22190100  0.20828104  1.0
  Ni  Ni1852  1  0.66666667  0.55523433  0.20828104  1.0
  Ni  Ni1853  1  0.66666667  0.88856767  0.20828104  1.0
  Ni  Ni1854  1  0.00000000  0.11143233  0.18066387  1.0
  Ni  Ni1855  1  0.00000000  0.44476567  0.18066387  1.0
  Ni  Ni1856  1  0.00000000  0.77809900  0.18066387  1.0
  Ni  Ni1857  1  0.33333333  0.11143233  0.18066387  1.0
  Ni  Ni1858  1  0.33333333  0.44476567  0.18066387  1.0
  Ni  Ni1859  1  0.33333333  0.77809900  0.18066387  1.0
  Ni  Ni1860  1  0.66666667  0.11143233  0.18066387  1.0
  Ni  Ni1861  1  0.66666667  0.44476567  0.18066387  1.0
  Ni  Ni1862  1  0.66666667  0.77809900  0.18066387  1.0
  Ni  Ni1863  1  0.00000000  0.27809900  0.22233054  1.0
  Ni  Ni1864  1  0.00000000  0.61143233  0.22233054  1.0
  Ni  Ni1865  1  0.00000000  0.94476567  0.22233054  1.0
  Ni  Ni1866  1  0.33333333  0.27809900  0.22233054  1.0
  Ni  Ni1867  1  0.33333333  0.61143233  0.22233054  1.0
  Ni  Ni1868  1  0.33333333  0.94476567  0.22233054  1.0
  Ni  Ni1869  1  0.66666667  0.27809900  0.22233054  1.0
  Ni  Ni1870  1  0.66666667  0.61143233  0.22233054  1.0
  Ni  Ni1871  1  0.66666667  0.94476567  0.22233054  1.0
  Ni  Ni1872  1  0.11111111  0.02788983  0.24311158  1.0
  Ni  Ni1873  1  0.11111111  0.36122317  0.24311158  1.0
  Ni  Ni1874  1  0.11111111  0.69455650  0.24311158  1.0
  Ni  Ni1875  1  0.44444444  0.02788983  0.24311158  1.0
  Ni  Ni1876  1  0.44444444  0.36122317  0.24311158  1.0
  Ni  Ni1877  1  0.44444444  0.69455650  0.24311158  1.0
  Ni  Ni1878  1  0.77777778  0.02788983  0.24311158  1.0
  Ni  Ni1879  1  0.77777778  0.36122317  0.24311158  1.0
  Ni  Ni1880  1  0.77777778  0.69455650  0.24311158  1.0
  Ni  Ni1881  1  0.11111111  0.19455650  0.20144492  1.0
  Ni  Ni1882  1  0.11111111  0.52788983  0.20144492  1.0
  Ni  Ni1883  1  0.11111111  0.86122317  0.20144492  1.0
  Ni  Ni1884  1  0.44444444  0.19455650  0.20144492  1.0
  Ni  Ni1885  1  0.44444444  0.52788983  0.20144492  1.0
  Ni  Ni1886  1  0.44444444  0.86122317  0.20144492  1.0
  Ni  Ni1887  1  0.77777778  0.19455650  0.20144492  1.0
  Ni  Ni1888  1  0.77777778  0.52788983  0.20144492  1.0
  Ni  Ni1889  1  0.77777778  0.86122317  0.20144492  1.0
  Ni  Ni1890  1  0.22222222  0.13877683  0.18750000  1.0
  Ni  Ni1891  1  0.22222222  0.47211017  0.18750000  1.0
  Ni  Ni1892  1  0.22222222  0.80544350  0.18750000  1.0
  Ni  Ni1893  1  0.55555556  0.13877683  0.18750000  1.0
  Ni  Ni1894  1  0.55555556  0.47211017  0.18750000  1.0
  Ni  Ni1895  1  0.55555556  0.80544350  0.18750000  1.0
  Ni  Ni1896  1  0.88888889  0.13877683  0.18750000  1.0
  Ni  Ni1897  1  0.88888889  0.47211017  0.18750000  1.0
  Ni  Ni1898  1  0.88888889  0.80544350  0.18750000  1.0
  Ni  Ni1899  1  0.22222222  0.30544350  0.22916667  1.0
  Ni  Ni1900  1  0.22222222  0.63877683  0.22916667  1.0
  Ni  Ni1901  1  0.22222222  0.97211017  0.22916667  1.0
  Ni  Ni1902  1  0.55555556  0.30544350  0.22916667  1.0
  Ni  Ni1903  1  0.55555556  0.63877683  0.22916667  1.0
  Ni  Ni1904  1  0.55555556  0.97211017  0.22916667  1.0
  Ni  Ni1905  1  0.88888889  0.30544350  0.22916667  1.0
  Ni  Ni1906  1  0.88888889  0.63877683  0.22916667  1.0
  Ni  Ni1907  1  0.88888889  0.97211017  0.22916667  1.0
  Ni  Ni1908  1  0.22222222  0.11122317  0.18061158  1.0
  Ni  Ni1909  1  0.22222222  0.44455650  0.18061158  1.0
  Ni  Ni1910  1  0.22222222  0.77788983  0.18061158  1.0
  Ni  Ni1911  1  0.55555556  0.11122317  0.18061158  1.0
  Ni  Ni1912  1  0.55555556  0.44455650  0.18061158  1.0
  Ni  Ni1913  1  0.55555556  0.77788983  0.18061158  1.0
  Ni  Ni1914  1  0.88888889  0.11122317  0.18061158  1.0
  Ni  Ni1915  1  0.88888889  0.44455650  0.18061158  1.0
  Ni  Ni1916  1  0.88888889  0.77788983  0.18061158  1.0
  Ni  Ni1917  1  0.22222222  0.27788983  0.22227825  1.0
  Ni  Ni1918  1  0.22222222  0.61122317  0.22227825  1.0
  Ni  Ni1919  1  0.22222222  0.94455650  0.22227825  1.0
  Ni  Ni1920  1  0.55555556  0.27788983  0.22227825  1.0
  Ni  Ni1921  1  0.55555556  0.61122317  0.22227825  1.0
  Ni  Ni1922  1  0.55555556  0.94455650  0.22227825  1.0
  Ni  Ni1923  1  0.88888889  0.27788983  0.22227825  1.0
  Ni  Ni1924  1  0.88888889  0.61122317  0.22227825  1.0
  Ni  Ni1925  1  0.88888889  0.94455650  0.22227825  1.0
  Ni  Ni1926  1  0.11111111  0.05544350  0.16666667  1.0
  Ni  Ni1927  1  0.11111111  0.38877683  0.16666667  1.0
  Ni  Ni1928  1  0.11111111  0.72211017  0.16666667  1.0
  Ni  Ni1929  1  0.44444444  0.05544350  0.16666667  1.0
  Ni  Ni1930  1  0.44444444  0.38877683  0.16666667  1.0
  Ni  Ni1931  1  0.44444444  0.72211017  0.16666667  1.0
  Ni  Ni1932  1  0.77777778  0.05544350  0.16666667  1.0
  Ni  Ni1933  1  0.77777778  0.38877683  0.16666667  1.0
  Ni  Ni1934  1  0.77777778  0.72211017  0.16666667  1.0
  Ni  Ni1935  1  0.11111111  0.22211017  0.20833333  1.0
  Ni  Ni1936  1  0.11111111  0.55544350  0.20833333  1.0
  Ni  Ni1937  1  0.11111111  0.88877683  0.20833333  1.0
  Ni  Ni1938  1  0.44444444  0.22211017  0.20833333  1.0
  Ni  Ni1939  1  0.44444444  0.55544350  0.20833333  1.0
  Ni  Ni1940  1  0.44444444  0.88877683  0.20833333  1.0
  Ni  Ni1941  1  0.77777778  0.22211017  0.20833333  1.0
  Ni  Ni1942  1  0.77777778  0.55544350  0.20833333  1.0
  Ni  Ni1943  1  0.77777778  0.88877683  0.20833333  1.0
  Y  Y1944  1  0.11111111  0.16166850  0.27655625  1.0
  Y  Y1945  1  0.11111111  0.49500183  0.27655625  1.0
  Y  Y1946  1  0.11111111  0.82833517  0.27655625  1.0
  Y  Y1947  1  0.44444444  0.16166850  0.27655625  1.0
  Y  Y1948  1  0.44444444  0.49500183  0.27655625  1.0
  Y  Y1949  1  0.44444444  0.82833517  0.27655625  1.0
  Y  Y1950  1  0.77777778  0.16166850  0.27655625  1.0
  Y  Y1951  1  0.77777778  0.49500183  0.27655625  1.0
  Y  Y1952  1  0.77777778  0.82833517  0.27655625  1.0
  Y  Y1953  1  0.11111111  0.32833517  0.31822292  1.0
  Y  Y1954  1  0.11111111  0.66166850  0.31822292  1.0
  Y  Y1955  1  0.11111111  0.99500183  0.31822292  1.0
  Y  Y1956  1  0.44444444  0.32833517  0.31822292  1.0
  Y  Y1957  1  0.44444444  0.66166850  0.31822292  1.0
  Y  Y1958  1  0.44444444  0.99500183  0.31822292  1.0
  Y  Y1959  1  0.77777778  0.32833517  0.31822292  1.0
  Y  Y1960  1  0.77777778  0.66166850  0.31822292  1.0
  Y  Y1961  1  0.77777778  0.99500183  0.31822292  1.0
  Y  Y1962  1  0.22222222  0.00499817  0.32072200  1.0
  Y  Y1963  1  0.22222222  0.33833150  0.32072200  1.0
  Y  Y1964  1  0.22222222  0.67166483  0.32072200  1.0
  Y  Y1965  1  0.55555556  0.00499817  0.32072200  1.0
  Y  Y1966  1  0.55555556  0.33833150  0.32072200  1.0
  Y  Y1967  1  0.55555556  0.67166483  0.32072200  1.0
  Y  Y1968  1  0.88888889  0.00499817  0.32072200  1.0
  Y  Y1969  1  0.88888889  0.33833150  0.32072200  1.0
  Y  Y1970  1  0.88888889  0.67166483  0.32072200  1.0
  Y  Y1971  1  0.22222222  0.17166483  0.27905533  1.0
  Y  Y1972  1  0.22222222  0.50499817  0.27905533  1.0
  Y  Y1973  1  0.22222222  0.83833150  0.27905533  1.0
  Y  Y1974  1  0.55555556  0.17166483  0.27905533  1.0
  Y  Y1975  1  0.55555556  0.50499817  0.27905533  1.0
  Y  Y1976  1  0.55555556  0.83833150  0.27905533  1.0
  Y  Y1977  1  0.88888889  0.17166483  0.27905533  1.0
  Y  Y1978  1  0.88888889  0.50499817  0.27905533  1.0
  Y  Y1979  1  0.88888889  0.83833150  0.27905533  1.0
  Y  Y1980  1  0.22222222  0.07833517  0.25572292  1.0
  Y  Y1981  1  0.22222222  0.41166850  0.25572292  1.0
  Y  Y1982  1  0.22222222  0.74500183  0.25572292  1.0
  Y  Y1983  1  0.55555556  0.07833517  0.25572292  1.0
  Y  Y1984  1  0.55555556  0.41166850  0.25572292  1.0
  Y  Y1985  1  0.55555556  0.74500183  0.25572292  1.0
  Y  Y1986  1  0.88888889  0.07833517  0.25572292  1.0
  Y  Y1987  1  0.88888889  0.41166850  0.25572292  1.0
  Y  Y1988  1  0.88888889  0.74500183  0.25572292  1.0
  Y  Y1989  1  0.22222222  0.24500183  0.29738958  1.0
  Y  Y1990  1  0.22222222  0.57833517  0.29738958  1.0
  Y  Y1991  1  0.22222222  0.91166850  0.29738958  1.0
  Y  Y1992  1  0.55555556  0.24500183  0.29738958  1.0
  Y  Y1993  1  0.55555556  0.57833517  0.29738958  1.0
  Y  Y1994  1  0.55555556  0.91166850  0.29738958  1.0
  Y  Y1995  1  0.88888889  0.24500183  0.29738958  1.0
  Y  Y1996  1  0.88888889  0.57833517  0.29738958  1.0
  Y  Y1997  1  0.88888889  0.91166850  0.29738958  1.0
  Y  Y1998  1  0.11111111  0.08833150  0.25822200  1.0
  Y  Y1999  1  0.11111111  0.42166483  0.25822200  1.0
  Y  Y2000  1  0.11111111  0.75499817  0.25822200  1.0
  Y  Y2001  1  0.44444444  0.08833150  0.25822200  1.0
  Y  Y2002  1  0.44444444  0.42166483  0.25822200  1.0
  Y  Y2003  1  0.44444444  0.75499817  0.25822200  1.0
  Y  Y2004  1  0.77777778  0.08833150  0.25822200  1.0
  Y  Y2005  1  0.77777778  0.42166483  0.25822200  1.0
  Y  Y2006  1  0.77777778  0.75499817  0.25822200  1.0
  Y  Y2007  1  0.11111111  0.25499817  0.29988867  1.0
  Y  Y2008  1  0.11111111  0.58833150  0.29988867  1.0
  Y  Y2009  1  0.11111111  0.92166483  0.29988867  1.0
  Y  Y2010  1  0.44444444  0.25499817  0.29988867  1.0
  Y  Y2011  1  0.44444444  0.58833150  0.29988867  1.0
  Y  Y2012  1  0.44444444  0.92166483  0.29988867  1.0
  Y  Y2013  1  0.77777778  0.25499817  0.29988867  1.0
  Y  Y2014  1  0.77777778  0.58833150  0.29988867  1.0
  Y  Y2015  1  0.77777778  0.92166483  0.29988867  1.0
  Y  Y2016  1  0.11111111  0.13761583  0.27054308  1.0
  Y  Y2017  1  0.11111111  0.47094917  0.27054308  1.0
  Y  Y2018  1  0.11111111  0.80428250  0.27054308  1.0
  Y  Y2019  1  0.44444444  0.13761583  0.27054308  1.0
  Y  Y2020  1  0.44444444  0.47094917  0.27054308  1.0
  Y  Y2021  1  0.44444444  0.80428250  0.27054308  1.0
  Y  Y2022  1  0.77777778  0.13761583  0.27054308  1.0
  Y  Y2023  1  0.77777778  0.47094917  0.27054308  1.0
  Y  Y2024  1  0.77777778  0.80428250  0.27054308  1.0
  Y  Y2025  1  0.11111111  0.30428250  0.31220975  1.0
  Y  Y2026  1  0.11111111  0.63761583  0.31220975  1.0
  Y  Y2027  1  0.11111111  0.97094917  0.31220975  1.0
  Y  Y2028  1  0.44444444  0.30428250  0.31220975  1.0
  Y  Y2029  1  0.44444444  0.63761583  0.31220975  1.0
  Y  Y2030  1  0.44444444  0.97094917  0.31220975  1.0
  Y  Y2031  1  0.77777778  0.30428250  0.31220975  1.0
  Y  Y2032  1  0.77777778  0.63761583  0.31220975  1.0
  Y  Y2033  1  0.77777778  0.97094917  0.31220975  1.0
  Y  Y2034  1  0.22222222  0.02905083  0.32673517  1.0
  Y  Y2035  1  0.22222222  0.36238417  0.32673517  1.0
  Y  Y2036  1  0.22222222  0.69571750  0.32673517  1.0
  Y  Y2037  1  0.55555556  0.02905083  0.32673517  1.0
  Y  Y2038  1  0.55555556  0.36238417  0.32673517  1.0
  Y  Y2039  1  0.55555556  0.69571750  0.32673517  1.0
  Y  Y2040  1  0.88888889  0.02905083  0.32673517  1.0
  Y  Y2041  1  0.88888889  0.36238417  0.32673517  1.0
  Y  Y2042  1  0.88888889  0.69571750  0.32673517  1.0
  Y  Y2043  1  0.22222222  0.19571750  0.28506850  1.0
  Y  Y2044  1  0.22222222  0.52905083  0.28506850  1.0
  Y  Y2045  1  0.22222222  0.86238417  0.28506850  1.0
  Y  Y2046  1  0.55555556  0.19571750  0.28506850  1.0
  Y  Y2047  1  0.55555556  0.52905083  0.28506850  1.0
  Y  Y2048  1  0.55555556  0.86238417  0.28506850  1.0
  Y  Y2049  1  0.88888889  0.19571750  0.28506850  1.0
  Y  Y2050  1  0.88888889  0.52905083  0.28506850  1.0
  Y  Y2051  1  0.88888889  0.86238417  0.28506850  1.0
  Y  Y2052  1  0.22222222  0.05428250  0.33304308  1.0
  Y  Y2053  1  0.22222222  0.38761583  0.33304308  1.0
  Y  Y2054  1  0.22222222  0.72094917  0.33304308  1.0
  Y  Y2055  1  0.55555556  0.05428250  0.33304308  1.0
  Y  Y2056  1  0.55555556  0.38761583  0.33304308  1.0
  Y  Y2057  1  0.55555556  0.72094917  0.33304308  1.0
  Y  Y2058  1  0.88888889  0.05428250  0.33304308  1.0
  Y  Y2059  1  0.88888889  0.38761583  0.33304308  1.0
  Y  Y2060  1  0.88888889  0.72094917  0.33304308  1.0
  Y  Y2061  1  0.22222222  0.22094917  0.29137642  1.0
  Y  Y2062  1  0.22222222  0.55428250  0.29137642  1.0
  Y  Y2063  1  0.22222222  0.88761583  0.29137642  1.0
  Y  Y2064  1  0.55555556  0.22094917  0.29137642  1.0
  Y  Y2065  1  0.55555556  0.55428250  0.29137642  1.0
  Y  Y2066  1  0.55555556  0.88761583  0.29137642  1.0
  Y  Y2067  1  0.88888889  0.22094917  0.29137642  1.0
  Y  Y2068  1  0.88888889  0.55428250  0.29137642  1.0
  Y  Y2069  1  0.88888889  0.88761583  0.29137642  1.0
  Y  Y2070  1  0.11111111  0.11238417  0.26423517  1.0
  Y  Y2071  1  0.11111111  0.44571750  0.26423517  1.0
  Y  Y2072  1  0.11111111  0.77905083  0.26423517  1.0
  Y  Y2073  1  0.44444444  0.11238417  0.26423517  1.0
  Y  Y2074  1  0.44444444  0.44571750  0.26423517  1.0
  Y  Y2075  1  0.44444444  0.77905083  0.26423517  1.0
  Y  Y2076  1  0.77777778  0.11238417  0.26423517  1.0
  Y  Y2077  1  0.77777778  0.44571750  0.26423517  1.0
  Y  Y2078  1  0.77777778  0.77905083  0.26423517  1.0
  Y  Y2079  1  0.11111111  0.27905083  0.30590183  1.0
  Y  Y2080  1  0.11111111  0.61238417  0.30590183  1.0
  Y  Y2081  1  0.11111111  0.94571750  0.30590183  1.0
  Y  Y2082  1  0.44444444  0.27905083  0.30590183  1.0
  Y  Y2083  1  0.44444444  0.61238417  0.30590183  1.0
  Y  Y2084  1  0.44444444  0.94571750  0.30590183  1.0
  Y  Y2085  1  0.77777778  0.27905083  0.30590183  1.0
  Y  Y2086  1  0.77777778  0.61238417  0.30590183  1.0
  Y  Y2087  1  0.77777778  0.94571750  0.30590183  1.0
  Ni  Ni2088  1  0.00000000  0.00000000  0.31947246  1.0
  Ni  Ni2089  1  0.00000000  0.33333333  0.31947246  1.0
  Ni  Ni2090  1  0.00000000  0.66666667  0.31947246  1.0
  Ni  Ni2091  1  0.33333333  0.00000000  0.31947246  1.0
  Ni  Ni2092  1  0.33333333  0.33333333  0.31947246  1.0
  Ni  Ni2093  1  0.33333333  0.66666667  0.31947246  1.0
  Ni  Ni2094  1  0.66666667  0.00000000  0.31947246  1.0
  Ni  Ni2095  1  0.66666667  0.33333333  0.31947246  1.0
  Ni  Ni2096  1  0.66666667  0.66666667  0.31947246  1.0
  Ni  Ni2097  1  0.00000000  0.16666667  0.27780579  1.0
  Ni  Ni2098  1  0.00000000  0.50000000  0.27780579  1.0
  Ni  Ni2099  1  0.00000000  0.83333333  0.27780579  1.0
  Ni  Ni2100  1  0.33333333  0.16666667  0.27780579  1.0
  Ni  Ni2101  1  0.33333333  0.50000000  0.27780579  1.0
  Ni  Ni2102  1  0.33333333  0.83333333  0.27780579  1.0
  Ni  Ni2103  1  0.66666667  0.16666667  0.27780579  1.0
  Ni  Ni2104  1  0.66666667  0.50000000  0.27780579  1.0
  Ni  Ni2105  1  0.66666667  0.83333333  0.27780579  1.0
  Ni  Ni2106  1  0.00000000  0.08333333  0.25697246  1.0
  Ni  Ni2107  1  0.00000000  0.41666667  0.25697246  1.0
  Ni  Ni2108  1  0.00000000  0.75000000  0.25697246  1.0
  Ni  Ni2109  1  0.33333333  0.08333333  0.25697246  1.0
  Ni  Ni2110  1  0.33333333  0.41666667  0.25697246  1.0
  Ni  Ni2111  1  0.33333333  0.75000000  0.25697246  1.0
  Ni  Ni2112  1  0.66666667  0.08333333  0.25697246  1.0
  Ni  Ni2113  1  0.66666667  0.41666667  0.25697246  1.0
  Ni  Ni2114  1  0.66666667  0.75000000  0.25697246  1.0
  Ni  Ni2115  1  0.00000000  0.25000000  0.29863913  1.0
  Ni  Ni2116  1  0.00000000  0.58333333  0.29863913  1.0
  Ni  Ni2117  1  0.00000000  0.91666667  0.29863913  1.0
  Ni  Ni2118  1  0.33333333  0.25000000  0.29863913  1.0
  Ni  Ni2119  1  0.33333333  0.58333333  0.29863913  1.0
  Ni  Ni2120  1  0.33333333  0.91666667  0.29863913  1.0
  Ni  Ni2121  1  0.66666667  0.25000000  0.29863913  1.0
  Ni  Ni2122  1  0.66666667  0.58333333  0.29863913  1.0
  Ni  Ni2123  1  0.66666667  0.91666667  0.29863913  1.0
  Ni  Ni2124  1  0.11169133  0.12500000  0.30927337  1.0
  Ni  Ni2125  1  0.11169133  0.45833333  0.30927337  1.0
  Ni  Ni2126  1  0.11169133  0.79166667  0.30927337  1.0
  Ni  Ni2127  1  0.44502467  0.12500000  0.30927337  1.0
  Ni  Ni2128  1  0.44502467  0.45833333  0.30927337  1.0
  Ni  Ni2129  1  0.44502467  0.79166667  0.30927337  1.0
  Ni  Ni2130  1  0.77835800  0.12500000  0.30927337  1.0
  Ni  Ni2131  1  0.77835800  0.45833333  0.30927337  1.0
  Ni  Ni2132  1  0.77835800  0.79166667  0.30927337  1.0
  Ni  Ni2133  1  0.11169133  0.29166667  0.26760671  1.0
  Ni  Ni2134  1  0.11169133  0.62500000  0.26760671  1.0
  Ni  Ni2135  1  0.11169133  0.95833333  0.26760671  1.0
  Ni  Ni2136  1  0.44502467  0.29166667  0.26760671  1.0
  Ni  Ni2137  1  0.44502467  0.62500000  0.26760671  1.0
  Ni  Ni2138  1  0.44502467  0.95833333  0.26760671  1.0
  Ni  Ni2139  1  0.77835800  0.29166667  0.26760671  1.0
  Ni  Ni2140  1  0.77835800  0.62500000  0.26760671  1.0
  Ni  Ni2141  1  0.77835800  0.95833333  0.26760671  1.0
  Ni  Ni2142  1  0.27748767  0.12500000  0.30883821  1.0
  Ni  Ni2143  1  0.27748767  0.45833333  0.30883821  1.0
  Ni  Ni2144  1  0.27748767  0.79166667  0.30883821  1.0
  Ni  Ni2145  1  0.61082100  0.12500000  0.30883821  1.0
  Ni  Ni2146  1  0.61082100  0.45833333  0.30883821  1.0
  Ni  Ni2147  1  0.61082100  0.79166667  0.30883821  1.0
  Ni  Ni2148  1  0.94415433  0.12500000  0.30883821  1.0
  Ni  Ni2149  1  0.94415433  0.45833333  0.30883821  1.0
  Ni  Ni2150  1  0.94415433  0.79166667  0.30883821  1.0
  Ni  Ni2151  1  0.27748767  0.29166667  0.26717154  1.0
  Ni  Ni2152  1  0.27748767  0.62500000  0.26717154  1.0
  Ni  Ni2153  1  0.27748767  0.95833333  0.26717154  1.0
  Ni  Ni2154  1  0.61082100  0.29166667  0.26717154  1.0
  Ni  Ni2155  1  0.61082100  0.62500000  0.26717154  1.0
  Ni  Ni2156  1  0.61082100  0.95833333  0.26717154  1.0
  Ni  Ni2157  1  0.94415433  0.29166667  0.26717154  1.0
  Ni  Ni2158  1  0.94415433  0.62500000  0.26717154  1.0
  Ni  Ni2159  1  0.94415433  0.95833333  0.26717154  1.0
  Ni  Ni2160  1  0.27748767  0.12500000  0.26738913  1.0
  Ni  Ni2161  1  0.27748767  0.45833333  0.26738913  1.0
  Ni  Ni2162  1  0.27748767  0.79166667  0.26738913  1.0
  Ni  Ni2163  1  0.61082100  0.12500000  0.26738913  1.0
  Ni  Ni2164  1  0.61082100  0.45833333  0.26738913  1.0
  Ni  Ni2165  1  0.61082100  0.79166667  0.26738913  1.0
  Ni  Ni2166  1  0.94415433  0.12500000  0.26738913  1.0
  Ni  Ni2167  1  0.94415433  0.45833333  0.26738913  1.0
  Ni  Ni2168  1  0.94415433  0.79166667  0.26738912  1.0
  Ni  Ni2169  1  0.27748767  0.29166667  0.30905579  1.0
  Ni  Ni2170  1  0.27748767  0.62500000  0.30905579  1.0
  Ni  Ni2171  1  0.27748767  0.95833333  0.30905579  1.0
  Ni  Ni2172  1  0.61082100  0.29166667  0.30905579  1.0
  Ni  Ni2173  1  0.61082100  0.62500000  0.30905579  1.0
  Ni  Ni2174  1  0.61082100  0.95833333  0.30905579  1.0
  Ni  Ni2175  1  0.94415433  0.29166667  0.30905579  1.0
  Ni  Ni2176  1  0.94415433  0.62500000  0.30905579  1.0
  Ni  Ni2177  1  0.94415433  0.95833333  0.30905579  1.0
  Ni  Ni2178  1  0.22164200  0.04166667  0.28800487  1.0
  Ni  Ni2179  1  0.22164200  0.37500000  0.28800487  1.0
  Ni  Ni2180  1  0.22164200  0.70833333  0.28800487  1.0
  Ni  Ni2181  1  0.55497533  0.04166667  0.28800487  1.0
  Ni  Ni2182  1  0.55497533  0.37500000  0.28800487  1.0
  Ni  Ni2183  1  0.55497533  0.70833333  0.28800487  1.0
  Ni  Ni2184  1  0.88830867  0.04166667  0.28800487  1.0
  Ni  Ni2185  1  0.88830867  0.37500000  0.28800487  1.0
  Ni  Ni2186  1  0.88830867  0.70833333  0.28800487  1.0
  Ni  Ni2187  1  0.22164200  0.20833333  0.32967154  1.0
  Ni  Ni2188  1  0.22164200  0.54166667  0.32967154  1.0
  Ni  Ni2189  1  0.22164200  0.87500000  0.32967154  1.0
  Ni  Ni2190  1  0.55497533  0.20833333  0.32967154  1.0
  Ni  Ni2191  1  0.55497533  0.54166667  0.32967154  1.0
  Ni  Ni2192  1  0.55497533  0.87500000  0.32967154  1.0
  Ni  Ni2193  1  0.88830867  0.20833333  0.32967154  1.0
  Ni  Ni2194  1  0.88830867  0.54166667  0.32967154  1.0
  Ni  Ni2195  1  0.88830867  0.87500000  0.32967154  1.0
  Ni  Ni2196  1  0.05584567  0.04166667  0.28844004  1.0
  Ni  Ni2197  1  0.05584567  0.37500000  0.28844004  1.0
  Ni  Ni2198  1  0.05584567  0.70833333  0.28844004  1.0
  Ni  Ni2199  1  0.38917900  0.04166667  0.28844004  1.0
  Ni  Ni2200  1  0.38917900  0.37500000  0.28844004  1.0
  Ni  Ni2201  1  0.38917900  0.70833333  0.28844004  1.0
  Ni  Ni2202  1  0.72251233  0.04166667  0.28844004  1.0
  Ni  Ni2203  1  0.72251233  0.37500000  0.28844004  1.0
  Ni  Ni2204  1  0.72251233  0.70833333  0.28844004  1.0
  Ni  Ni2205  1  0.05584567  0.20833333  0.33010671  1.0
  Ni  Ni2206  1  0.05584567  0.54166667  0.33010671  1.0
  Ni  Ni2207  1  0.05584567  0.87500000  0.33010671  1.0
  Ni  Ni2208  1  0.38917900  0.20833333  0.33010671  1.0
  Ni  Ni2209  1  0.38917900  0.54166667  0.33010671  1.0
  Ni  Ni2210  1  0.38917900  0.87500000  0.33010671  1.0
  Ni  Ni2211  1  0.72251233  0.20833333  0.33010671  1.0
  Ni  Ni2212  1  0.72251233  0.54166667  0.33010671  1.0
  Ni  Ni2213  1  0.72251233  0.87500000  0.33010671  1.0
  Ni  Ni2214  1  0.05584567  0.04166667  0.32988913  1.0
  Ni  Ni2215  1  0.05584567  0.37500000  0.32988913  1.0
  Ni  Ni2216  1  0.05584567  0.70833333  0.32988913  1.0
  Ni  Ni2217  1  0.38917900  0.04166667  0.32988913  1.0
  Ni  Ni2218  1  0.38917900  0.37500000  0.32988913  1.0
  Ni  Ni2219  1  0.38917900  0.70833333  0.32988912  1.0
  Ni  Ni2220  1  0.72251233  0.04166667  0.32988912  1.0
  Ni  Ni2221  1  0.72251233  0.37500000  0.32988913  1.0
  Ni  Ni2222  1  0.72251233  0.70833333  0.32988913  1.0
  Ni  Ni2223  1  0.05584567  0.20833333  0.28822246  1.0
  Ni  Ni2224  1  0.05584567  0.54166667  0.28822246  1.0
  Ni  Ni2225  1  0.05584567  0.87500000  0.28822246  1.0
  Ni  Ni2226  1  0.38917900  0.20833333  0.28822246  1.0
  Ni  Ni2227  1  0.38917900  0.54166667  0.28822246  1.0
  Ni  Ni2228  1  0.38917900  0.87500000  0.28822246  1.0
  Ni  Ni2229  1  0.72251233  0.20833333  0.28822246  1.0
  Ni  Ni2230  1  0.72251233  0.54166667  0.28822246  1.0
  Ni  Ni2231  1  0.72251233  0.87500000  0.28822246  1.0
  Ni  Ni2232  1  0.11093733  0.15224517  0.31580192  1.0
  Ni  Ni2233  1  0.11093733  0.48557850  0.31580192  1.0
  Ni  Ni2234  1  0.11093733  0.81891183  0.31580192  1.0
  Ni  Ni2235  1  0.44427067  0.15224517  0.31580192  1.0
  Ni  Ni2236  1  0.44427067  0.48557850  0.31580192  1.0
  Ni  Ni2237  1  0.44427067  0.81891183  0.31580192  1.0
  Ni  Ni2238  1  0.77760400  0.15224517  0.31580192  1.0
  Ni  Ni2239  1  0.77760400  0.48557850  0.31580192  1.0
  Ni  Ni2240  1  0.77760400  0.81891183  0.31580192  1.0
  Ni  Ni2241  1  0.11093733  0.31891183  0.27413525  1.0
  Ni  Ni2242  1  0.11093733  0.65224517  0.27413525  1.0
  Ni  Ni2243  1  0.11093733  0.98557850  0.27413525  1.0
  Ni  Ni2244  1  0.44427067  0.31891183  0.27413525  1.0
  Ni  Ni2245  1  0.44427067  0.65224517  0.27413525  1.0
  Ni  Ni2246  1  0.44427067  0.98557850  0.27413525  1.0
  Ni  Ni2247  1  0.77760400  0.31891183  0.27413525  1.0
  Ni  Ni2248  1  0.77760400  0.65224517  0.27413525  1.0
  Ni  Ni2249  1  0.77760400  0.98557850  0.27413525  1.0
  Ni  Ni2250  1  0.27786467  0.15224517  0.31593225  1.0
  Ni  Ni2251  1  0.27786467  0.48557850  0.31593225  1.0
  Ni  Ni2252  1  0.27786467  0.81891183  0.31593225  1.0
  Ni  Ni2253  1  0.61119800  0.15224517  0.31593225  1.0
  Ni  Ni2254  1  0.61119800  0.48557850  0.31593225  1.0
  Ni  Ni2255  1  0.61119800  0.81891183  0.31593225  1.0
  Ni  Ni2256  1  0.94453133  0.15224517  0.31593225  1.0
  Ni  Ni2257  1  0.94453133  0.48557850  0.31593225  1.0
  Ni  Ni2258  1  0.94453133  0.81891183  0.31593225  1.0
  Ni  Ni2259  1  0.27786467  0.31891183  0.27426558  1.0
  Ni  Ni2260  1  0.27786467  0.65224517  0.27426558  1.0
  Ni  Ni2261  1  0.27786467  0.98557850  0.27426558  1.0
  Ni  Ni2262  1  0.61119800  0.31891183  0.27426558  1.0
  Ni  Ni2263  1  0.61119800  0.65224517  0.27426558  1.0
  Ni  Ni2264  1  0.61119800  0.98557850  0.27426558  1.0
  Ni  Ni2265  1  0.94453133  0.31891183  0.27426558  1.0
  Ni  Ni2266  1  0.94453133  0.65224517  0.27426558  1.0
  Ni  Ni2267  1  0.94453133  0.98557850  0.27426558  1.0
  Ni  Ni2268  1  0.27786467  0.15224517  0.27420042  1.0
  Ni  Ni2269  1  0.27786467  0.48557850  0.27420042  1.0
  Ni  Ni2270  1  0.27786467  0.81891183  0.27420042  1.0
  Ni  Ni2271  1  0.61119800  0.15224517  0.27420042  1.0
  Ni  Ni2272  1  0.61119800  0.48557850  0.27420042  1.0
  Ni  Ni2273  1  0.61119800  0.81891183  0.27420042  1.0
  Ni  Ni2274  1  0.94453133  0.15224517  0.27420042  1.0
  Ni  Ni2275  1  0.94453133  0.48557850  0.27420042  1.0
  Ni  Ni2276  1  0.94453133  0.81891183  0.27420042  1.0
  Ni  Ni2277  1  0.27786467  0.31891183  0.31586708  1.0
  Ni  Ni2278  1  0.27786467  0.65224517  0.31586708  1.0
  Ni  Ni2279  1  0.27786467  0.98557850  0.31586708  1.0
  Ni  Ni2280  1  0.61119800  0.31891183  0.31586708  1.0
  Ni  Ni2281  1  0.61119800  0.65224517  0.31586708  1.0
  Ni  Ni2282  1  0.61119800  0.98557850  0.31586708  1.0
  Ni  Ni2283  1  0.94453133  0.31891183  0.31586708  1.0
  Ni  Ni2284  1  0.94453133  0.65224517  0.31586708  1.0
  Ni  Ni2285  1  0.94453133  0.98557850  0.31586708  1.0
  Ni  Ni2286  1  0.22239600  0.01442150  0.28147633  1.0
  Ni  Ni2287  1  0.22239600  0.34775483  0.28147633  1.0
  Ni  Ni2288  1  0.22239600  0.68108817  0.28147633  1.0
  Ni  Ni2289  1  0.55572933  0.01442150  0.28147633  1.0
  Ni  Ni2290  1  0.55572933  0.34775483  0.28147633  1.0
  Ni  Ni2291  1  0.55572933  0.68108817  0.28147633  1.0
  Ni  Ni2292  1  0.88906267  0.01442150  0.28147633  1.0
  Ni  Ni2293  1  0.88906267  0.34775483  0.28147633  1.0
  Ni  Ni2294  1  0.88906267  0.68108817  0.28147633  1.0
  Ni  Ni2295  1  0.22239600  0.18108817  0.32314300  1.0
  Ni  Ni2296  1  0.22239600  0.51442150  0.32314300  1.0
  Ni  Ni2297  1  0.22239600  0.84775483  0.32314300  1.0
  Ni  Ni2298  1  0.55572933  0.18108817  0.32314300  1.0
  Ni  Ni2299  1  0.55572933  0.51442150  0.32314300  1.0
  Ni  Ni2300  1  0.55572933  0.84775483  0.32314300  1.0
  Ni  Ni2301  1  0.88906267  0.18108817  0.32314300  1.0
  Ni  Ni2302  1  0.88906267  0.51442150  0.32314300  1.0
  Ni  Ni2303  1  0.88906267  0.84775483  0.32314300  1.0
  Ni  Ni2304  1  0.05546867  0.01442150  0.28134600  1.0
  Ni  Ni2305  1  0.05546867  0.34775483  0.28134600  1.0
  Ni  Ni2306  1  0.05546867  0.68108817  0.28134600  1.0
  Ni  Ni2307  1  0.38880200  0.01442150  0.28134600  1.0
  Ni  Ni2308  1  0.38880200  0.34775483  0.28134600  1.0
  Ni  Ni2309  1  0.38880200  0.68108817  0.28134600  1.0
  Ni  Ni2310  1  0.72213533  0.01442150  0.28134600  1.0
  Ni  Ni2311  1  0.72213533  0.34775483  0.28134600  1.0
  Ni  Ni2312  1  0.72213533  0.68108817  0.28134600  1.0
  Ni  Ni2313  1  0.05546867  0.18108817  0.32301267  1.0
  Ni  Ni2314  1  0.05546867  0.51442150  0.32301267  1.0
  Ni  Ni2315  1  0.05546867  0.84775483  0.32301267  1.0
  Ni  Ni2316  1  0.38880200  0.18108817  0.32301267  1.0
  Ni  Ni2317  1  0.38880200  0.51442150  0.32301267  1.0
  Ni  Ni2318  1  0.38880200  0.84775483  0.32301267  1.0
  Ni  Ni2319  1  0.72213533  0.18108817  0.32301267  1.0
  Ni  Ni2320  1  0.72213533  0.51442150  0.32301267  1.0
  Ni  Ni2321  1  0.72213533  0.84775483  0.32301267  1.0
  Ni  Ni2322  1  0.05546867  0.01442150  0.32307783  1.0
  Ni  Ni2323  1  0.05546867  0.34775483  0.32307783  1.0
  Ni  Ni2324  1  0.05546867  0.68108817  0.32307783  1.0
  Ni  Ni2325  1  0.38880200  0.01442150  0.32307783  1.0
  Ni  Ni2326  1  0.38880200  0.34775483  0.32307783  1.0
  Ni  Ni2327  1  0.38880200  0.68108817  0.32307783  1.0
  Ni  Ni2328  1  0.72213533  0.01442150  0.32307783  1.0
  Ni  Ni2329  1  0.72213533  0.34775483  0.32307783  1.0
  Ni  Ni2330  1  0.72213533  0.68108817  0.32307783  1.0
  Ni  Ni2331  1  0.05546867  0.18108817  0.28141117  1.0
  Ni  Ni2332  1  0.05546867  0.51442150  0.28141117  1.0
  Ni  Ni2333  1  0.05546867  0.84775483  0.28141117  1.0
  Ni  Ni2334  1  0.38880200  0.18108817  0.28141117  1.0
  Ni  Ni2335  1  0.38880200  0.51442150  0.28141117  1.0
  Ni  Ni2336  1  0.38880200  0.84775483  0.28141117  1.0
  Ni  Ni2337  1  0.72213533  0.18108817  0.28141117  1.0
  Ni  Ni2338  1  0.72213533  0.51442150  0.28141117  1.0
  Ni  Ni2339  1  0.72213533  0.84775483  0.28141117  1.0
  Ni  Ni2340  1  0.22239600  0.06891183  0.29509892  1.0
  Ni  Ni2341  1  0.22239600  0.40224517  0.29509892  1.0
  Ni  Ni2342  1  0.22239600  0.73557850  0.29509892  1.0
  Ni  Ni2343  1  0.55572933  0.06891183  0.29509892  1.0
  Ni  Ni2344  1  0.55572933  0.40224517  0.29509892  1.0
  Ni  Ni2345  1  0.55572933  0.73557850  0.29509892  1.0
  Ni  Ni2346  1  0.88906267  0.06891183  0.29509892  1.0
  Ni  Ni2347  1  0.88906267  0.40224517  0.29509892  1.0
  Ni  Ni2348  1  0.88906267  0.73557850  0.29509892  1.0
  Ni  Ni2349  1  0.22239600  0.23557850  0.25343225  1.0
  Ni  Ni2350  1  0.22239600  0.56891183  0.25343225  1.0
  Ni  Ni2351  1  0.22239600  0.90224517  0.25343225  1.0
  Ni  Ni2352  1  0.55572933  0.23557850  0.25343225  1.0
  Ni  Ni2353  1  0.55572933  0.56891183  0.25343225  1.0
  Ni  Ni2354  1  0.55572933  0.90224517  0.25343225  1.0
  Ni  Ni2355  1  0.88906267  0.23557850  0.25343225  1.0
  Ni  Ni2356  1  0.88906267  0.56891183  0.25343225  1.0
  Ni  Ni2357  1  0.88906267  0.90224517  0.25343225  1.0
  Ni  Ni2358  1  0.05546867  0.06891183  0.29496858  1.0
  Ni  Ni2359  1  0.05546867  0.40224517  0.29496858  1.0
  Ni  Ni2360  1  0.05546867  0.73557850  0.29496858  1.0
  Ni  Ni2361  1  0.38880200  0.06891183  0.29496858  1.0
  Ni  Ni2362  1  0.38880200  0.40224517  0.29496858  1.0
  Ni  Ni2363  1  0.38880200  0.73557850  0.29496858  1.0
  Ni  Ni2364  1  0.72213533  0.06891183  0.29496858  1.0
  Ni  Ni2365  1  0.72213533  0.40224517  0.29496858  1.0
  Ni  Ni2366  1  0.72213533  0.73557850  0.29496858  1.0
  Ni  Ni2367  1  0.05546867  0.23557850  0.25330192  1.0
  Ni  Ni2368  1  0.05546867  0.56891183  0.25330192  1.0
  Ni  Ni2369  1  0.05546867  0.90224517  0.25330192  1.0
  Ni  Ni2370  1  0.38880200  0.23557850  0.25330192  1.0
  Ni  Ni2371  1  0.38880200  0.56891183  0.25330192  1.0
  Ni  Ni2372  1  0.38880200  0.90224517  0.25330192  1.0
  Ni  Ni2373  1  0.72213533  0.23557850  0.25330192  1.0
  Ni  Ni2374  1  0.72213533  0.56891183  0.25330192  1.0
  Ni  Ni2375  1  0.72213533  0.90224517  0.25330192  1.0
  Ni  Ni2376  1  0.05546867  0.06891183  0.25336708  1.0
  Ni  Ni2377  1  0.05546867  0.40224517  0.25336708  1.0
  Ni  Ni2378  1  0.05546867  0.73557850  0.25336708  1.0
  Ni  Ni2379  1  0.38880200  0.06891183  0.25336708  1.0
  Ni  Ni2380  1  0.38880200  0.40224517  0.25336708  1.0
  Ni  Ni2381  1  0.38880200  0.73557850  0.25336708  1.0
  Ni  Ni2382  1  0.72213533  0.06891183  0.25336708  1.0
  Ni  Ni2383  1  0.72213533  0.40224517  0.25336708  1.0
  Ni  Ni2384  1  0.72213533  0.73557850  0.25336708  1.0
  Ni  Ni2385  1  0.05546867  0.23557850  0.29503375  1.0
  Ni  Ni2386  1  0.05546867  0.56891183  0.29503375  1.0
  Ni  Ni2387  1  0.05546867  0.90224517  0.29503375  1.0
  Ni  Ni2388  1  0.38880200  0.23557850  0.29503375  1.0
  Ni  Ni2389  1  0.38880200  0.56891183  0.29503375  1.0
  Ni  Ni2390  1  0.38880200  0.90224517  0.29503375  1.0
  Ni  Ni2391  1  0.72213533  0.23557850  0.29503375  1.0
  Ni  Ni2392  1  0.72213533  0.56891183  0.29503375  1.0
  Ni  Ni2393  1  0.72213533  0.90224517  0.29503375  1.0
  Ni  Ni2394  1  0.11093733  0.09775483  0.30217933  1.0
  Ni  Ni2395  1  0.11093733  0.43108817  0.30217933  1.0
  Ni  Ni2396  1  0.11093733  0.76442150  0.30217933  1.0
  Ni  Ni2397  1  0.44427067  0.09775483  0.30217933  1.0
  Ni  Ni2398  1  0.44427067  0.43108817  0.30217933  1.0
  Ni  Ni2399  1  0.44427067  0.76442150  0.30217933  1.0
  Ni  Ni2400  1  0.77760400  0.09775483  0.30217933  1.0
  Ni  Ni2401  1  0.77760400  0.43108817  0.30217933  1.0
  Ni  Ni2402  1  0.77760400  0.76442150  0.30217933  1.0
  Ni  Ni2403  1  0.11093733  0.26442150  0.26051267  1.0
  Ni  Ni2404  1  0.11093733  0.59775483  0.26051267  1.0
  Ni  Ni2405  1  0.11093733  0.93108817  0.26051267  1.0
  Ni  Ni2406  1  0.44427067  0.26442150  0.26051267  1.0
  Ni  Ni2407  1  0.44427067  0.59775483  0.26051267  1.0
  Ni  Ni2408  1  0.44427067  0.93108817  0.26051267  1.0
  Ni  Ni2409  1  0.77760400  0.26442150  0.26051267  1.0
  Ni  Ni2410  1  0.77760400  0.59775483  0.26051267  1.0
  Ni  Ni2411  1  0.77760400  0.93108817  0.26051267  1.0
  Ni  Ni2412  1  0.27786467  0.09775483  0.30230967  1.0
  Ni  Ni2413  1  0.27786467  0.43108817  0.30230967  1.0
  Ni  Ni2414  1  0.27786467  0.76442150  0.30230967  1.0
  Ni  Ni2415  1  0.61119800  0.09775483  0.30230967  1.0
  Ni  Ni2416  1  0.61119800  0.43108817  0.30230967  1.0
  Ni  Ni2417  1  0.61119800  0.76442150  0.30230967  1.0
  Ni  Ni2418  1  0.94453133  0.09775483  0.30230967  1.0
  Ni  Ni2419  1  0.94453133  0.43108817  0.30230967  1.0
  Ni  Ni2420  1  0.94453133  0.76442150  0.30230967  1.0
  Ni  Ni2421  1  0.27786467  0.26442150  0.26064300  1.0
  Ni  Ni2422  1  0.27786467  0.59775483  0.26064300  1.0
  Ni  Ni2423  1  0.27786467  0.93108817  0.26064300  1.0
  Ni  Ni2424  1  0.61119800  0.26442150  0.26064300  1.0
  Ni  Ni2425  1  0.61119800  0.59775483  0.26064300  1.0
  Ni  Ni2426  1  0.61119800  0.93108817  0.26064300  1.0
  Ni  Ni2427  1  0.94453133  0.26442150  0.26064300  1.0
  Ni  Ni2428  1  0.94453133  0.59775483  0.26064300  1.0
  Ni  Ni2429  1  0.94453133  0.93108817  0.26064300  1.0
  Ni  Ni2430  1  0.27786467  0.09775483  0.26057783  1.0
  Ni  Ni2431  1  0.27786467  0.43108817  0.26057783  1.0
  Ni  Ni2432  1  0.27786467  0.76442150  0.26057783  1.0
  Ni  Ni2433  1  0.61119800  0.09775483  0.26057783  1.0
  Ni  Ni2434  1  0.61119800  0.43108817  0.26057783  1.0
  Ni  Ni2435  1  0.61119800  0.76442150  0.26057783  1.0
  Ni  Ni2436  1  0.94453133  0.09775483  0.26057783  1.0
  Ni  Ni2437  1  0.94453133  0.43108817  0.26057783  1.0
  Ni  Ni2438  1  0.94453133  0.76442150  0.26057783  1.0
  Ni  Ni2439  1  0.27786467  0.26442150  0.30224450  1.0
  Ni  Ni2440  1  0.27786467  0.59775483  0.30224450  1.0
  Ni  Ni2441  1  0.27786467  0.93108817  0.30224450  1.0
  Ni  Ni2442  1  0.61119800  0.26442150  0.30224450  1.0
  Ni  Ni2443  1  0.61119800  0.59775483  0.30224450  1.0
  Ni  Ni2444  1  0.61119800  0.93108817  0.30224450  1.0
  Ni  Ni2445  1  0.94453133  0.26442150  0.30224450  1.0
  Ni  Ni2446  1  0.94453133  0.59775483  0.30224450  1.0
  Ni  Ni2447  1  0.94453133  0.93108817  0.30224450  1.0
  Ni  Ni2448  1  0.00000000  0.13856767  0.27078104  1.0
  Ni  Ni2449  1  0.00000000  0.47190100  0.27078104  1.0
  Ni  Ni2450  1  0.00000000  0.80523433  0.27078104  1.0
  Ni  Ni2451  1  0.33333333  0.13856767  0.27078104  1.0
  Ni  Ni2452  1  0.33333333  0.47190100  0.27078104  1.0
  Ni  Ni2453  1  0.33333333  0.80523433  0.27078104  1.0
  Ni  Ni2454  1  0.66666667  0.13856767  0.27078104  1.0
  Ni  Ni2455  1  0.66666667  0.47190100  0.27078104  1.0
  Ni  Ni2456  1  0.66666667  0.80523433  0.27078104  1.0
  Ni  Ni2457  1  0.00000000  0.30523433  0.31244771  1.0
  Ni  Ni2458  1  0.00000000  0.63856767  0.31244771  1.0
  Ni  Ni2459  1  0.00000000  0.97190100  0.31244771  1.0
  Ni  Ni2460  1  0.33333333  0.30523433  0.31244771  1.0
  Ni  Ni2461  1  0.33333333  0.63856767  0.31244771  1.0
  Ni  Ni2462  1  0.33333333  0.97190100  0.31244771  1.0
  Ni  Ni2463  1  0.66666667  0.30523433  0.31244771  1.0
  Ni  Ni2464  1  0.66666667  0.63856767  0.31244771  1.0
  Ni  Ni2465  1  0.66666667  0.97190100  0.31244771  1.0
  Ni  Ni2466  1  0.00000000  0.02809900  0.32649721  1.0
  Ni  Ni2467  1  0.00000000  0.36143233  0.32649721  1.0
  Ni  Ni2468  1  0.00000000  0.69476567  0.32649721  1.0
  Ni  Ni2469  1  0.33333333  0.02809900  0.32649721  1.0
  Ni  Ni2470  1  0.33333333  0.36143233  0.32649721  1.0
  Ni  Ni2471  1  0.33333333  0.69476567  0.32649721  1.0
  Ni  Ni2472  1  0.66666667  0.02809900  0.32649721  1.0
  Ni  Ni2473  1  0.66666667  0.36143233  0.32649721  1.0
  Ni  Ni2474  1  0.66666667  0.69476567  0.32649721  1.0
  Ni  Ni2475  1  0.00000000  0.19476567  0.28483054  1.0
  Ni  Ni2476  1  0.00000000  0.52809900  0.28483054  1.0
  Ni  Ni2477  1  0.00000000  0.86143233  0.28483054  1.0
  Ni  Ni2478  1  0.33333333  0.19476567  0.28483054  1.0
  Ni  Ni2479  1  0.33333333  0.52809900  0.28483054  1.0
  Ni  Ni2480  1  0.33333333  0.86143233  0.28483054  1.0
  Ni  Ni2481  1  0.66666667  0.19476567  0.28483054  1.0
  Ni  Ni2482  1  0.66666667  0.52809900  0.28483054  1.0
  Ni  Ni2483  1  0.66666667  0.86143233  0.28483054  1.0
  Ni  Ni2484  1  0.00000000  0.05523433  0.33328104  1.0
  Ni  Ni2485  1  0.00000000  0.38856767  0.33328104  1.0
  Ni  Ni2486  1  0.00000000  0.72190100  0.33328104  1.0
  Ni  Ni2487  1  0.33333333  0.05523433  0.33328104  1.0
  Ni  Ni2488  1  0.33333333  0.38856767  0.33328104  1.0
  Ni  Ni2489  1  0.33333333  0.72190100  0.33328104  1.0
  Ni  Ni2490  1  0.66666667  0.05523433  0.33328104  1.0
  Ni  Ni2491  1  0.66666667  0.38856767  0.33328104  1.0
  Ni  Ni2492  1  0.66666667  0.72190100  0.33328104  1.0
  Ni  Ni2493  1  0.00000000  0.22190100  0.29161437  1.0
  Ni  Ni2494  1  0.00000000  0.55523433  0.29161437  1.0
  Ni  Ni2495  1  0.00000000  0.88856767  0.29161437  1.0
  Ni  Ni2496  1  0.33333333  0.22190100  0.29161437  1.0
  Ni  Ni2497  1  0.33333333  0.55523433  0.29161437  1.0
  Ni  Ni2498  1  0.33333333  0.88856767  0.29161437  1.0
  Ni  Ni2499  1  0.66666667  0.22190100  0.29161438  1.0
  Ni  Ni2500  1  0.66666667  0.55523433  0.29161437  1.0
  Ni  Ni2501  1  0.66666667  0.88856767  0.29161437  1.0
  Ni  Ni2502  1  0.00000000  0.11143233  0.26399721  1.0
  Ni  Ni2503  1  0.00000000  0.44476567  0.26399721  1.0
  Ni  Ni2504  1  0.00000000  0.77809900  0.26399721  1.0
  Ni  Ni2505  1  0.33333333  0.11143233  0.26399721  1.0
  Ni  Ni2506  1  0.33333333  0.44476567  0.26399721  1.0
  Ni  Ni2507  1  0.33333333  0.77809900  0.26399721  1.0
  Ni  Ni2508  1  0.66666667  0.11143233  0.26399721  1.0
  Ni  Ni2509  1  0.66666667  0.44476567  0.26399721  1.0
  Ni  Ni2510  1  0.66666667  0.77809900  0.26399721  1.0
  Ni  Ni2511  1  0.00000000  0.27809900  0.30566388  1.0
  Ni  Ni2512  1  0.00000000  0.61143233  0.30566388  1.0
  Ni  Ni2513  1  0.00000000  0.94476567  0.30566388  1.0
  Ni  Ni2514  1  0.33333333  0.27809900  0.30566388  1.0
  Ni  Ni2515  1  0.33333333  0.61143233  0.30566387  1.0
  Ni  Ni2516  1  0.33333333  0.94476567  0.30566388  1.0
  Ni  Ni2517  1  0.66666667  0.27809900  0.30566388  1.0
  Ni  Ni2518  1  0.66666667  0.61143233  0.30566388  1.0
  Ni  Ni2519  1  0.66666667  0.94476567  0.30566388  1.0
  Ni  Ni2520  1  0.11111111  0.02788983  0.32644492  1.0
  Ni  Ni2521  1  0.11111111  0.36122317  0.32644492  1.0
  Ni  Ni2522  1  0.11111111  0.69455650  0.32644492  1.0
  Ni  Ni2523  1  0.44444444  0.02788983  0.32644492  1.0
  Ni  Ni2524  1  0.44444444  0.36122317  0.32644492  1.0
  Ni  Ni2525  1  0.44444444  0.69455650  0.32644492  1.0
  Ni  Ni2526  1  0.77777778  0.02788983  0.32644492  1.0
  Ni  Ni2527  1  0.77777778  0.36122317  0.32644492  1.0
  Ni  Ni2528  1  0.77777778  0.69455650  0.32644492  1.0
  Ni  Ni2529  1  0.11111111  0.19455650  0.28477825  1.0
  Ni  Ni2530  1  0.11111111  0.52788983  0.28477825  1.0
  Ni  Ni2531  1  0.11111111  0.86122317  0.28477825  1.0
  Ni  Ni2532  1  0.44444444  0.19455650  0.28477825  1.0
  Ni  Ni2533  1  0.44444444  0.52788983  0.28477825  1.0
  Ni  Ni2534  1  0.44444444  0.86122317  0.28477825  1.0
  Ni  Ni2535  1  0.77777778  0.19455650  0.28477825  1.0
  Ni  Ni2536  1  0.77777778  0.52788983  0.28477825  1.0
  Ni  Ni2537  1  0.77777778  0.86122317  0.28477825  1.0
  Ni  Ni2538  1  0.22222222  0.13877683  0.27083333  1.0
  Ni  Ni2539  1  0.22222222  0.47211017  0.27083333  1.0
  Ni  Ni2540  1  0.22222222  0.80544350  0.27083333  1.0
  Ni  Ni2541  1  0.55555556  0.13877683  0.27083333  1.0
  Ni  Ni2542  1  0.55555556  0.47211017  0.27083333  1.0
  Ni  Ni2543  1  0.55555556  0.80544350  0.27083333  1.0
  Ni  Ni2544  1  0.88888889  0.13877683  0.27083333  1.0
  Ni  Ni2545  1  0.88888889  0.47211017  0.27083333  1.0
  Ni  Ni2546  1  0.88888889  0.80544350  0.27083333  1.0
  Ni  Ni2547  1  0.22222222  0.30544350  0.31250000  1.0
  Ni  Ni2548  1  0.22222222  0.63877683  0.31250000  1.0
  Ni  Ni2549  1  0.22222222  0.97211017  0.31250000  1.0
  Ni  Ni2550  1  0.55555556  0.30544350  0.31250000  1.0
  Ni  Ni2551  1  0.55555556  0.63877683  0.31250000  1.0
  Ni  Ni2552  1  0.55555556  0.97211017  0.31250000  1.0
  Ni  Ni2553  1  0.88888889  0.30544350  0.31250000  1.0
  Ni  Ni2554  1  0.88888889  0.63877683  0.31250000  1.0
  Ni  Ni2555  1  0.88888889  0.97211017  0.31250000  1.0
  Ni  Ni2556  1  0.22222222  0.11122317  0.26394492  1.0
  Ni  Ni2557  1  0.22222222  0.44455650  0.26394492  1.0
  Ni  Ni2558  1  0.22222222  0.77788983  0.26394492  1.0
  Ni  Ni2559  1  0.55555556  0.11122317  0.26394492  1.0
  Ni  Ni2560  1  0.55555556  0.44455650  0.26394492  1.0
  Ni  Ni2561  1  0.55555556  0.77788983  0.26394492  1.0
  Ni  Ni2562  1  0.88888889  0.11122317  0.26394492  1.0
  Ni  Ni2563  1  0.88888889  0.44455650  0.26394492  1.0
  Ni  Ni2564  1  0.88888889  0.77788983  0.26394492  1.0
  Ni  Ni2565  1  0.22222222  0.27788983  0.30561158  1.0
  Ni  Ni2566  1  0.22222222  0.61122317  0.30561158  1.0
  Ni  Ni2567  1  0.22222222  0.94455650  0.30561158  1.0
  Ni  Ni2568  1  0.55555556  0.27788983  0.30561158  1.0
  Ni  Ni2569  1  0.55555556  0.61122317  0.30561158  1.0
  Ni  Ni2570  1  0.55555556  0.94455650  0.30561158  1.0
  Ni  Ni2571  1  0.88888889  0.27788983  0.30561158  1.0
  Ni  Ni2572  1  0.88888889  0.61122317  0.30561158  1.0
  Ni  Ni2573  1  0.88888889  0.94455650  0.30561158  1.0
  Ni  Ni2574  1  0.11111111  0.05544350  0.25000000  1.0
  Ni  Ni2575  1  0.11111111  0.38877683  0.25000000  1.0
  Ni  Ni2576  1  0.11111111  0.72211017  0.25000000  1.0
  Ni  Ni2577  1  0.44444444  0.05544350  0.25000000  1.0
  Ni  Ni2578  1  0.44444444  0.38877683  0.25000000  1.0
  Ni  Ni2579  1  0.44444444  0.72211017  0.25000000  1.0
  Ni  Ni2580  1  0.77777778  0.05544350  0.25000000  1.0
  Ni  Ni2581  1  0.77777778  0.38877683  0.25000000  1.0
  Ni  Ni2582  1  0.77777778  0.72211017  0.25000000  1.0
  Ni  Ni2583  1  0.11111111  0.22211017  0.29166667  1.0
  Ni  Ni2584  1  0.11111111  0.55544350  0.29166667  1.0
  Ni  Ni2585  1  0.11111111  0.88877683  0.29166667  1.0
  Ni  Ni2586  1  0.44444444  0.22211017  0.29166667  1.0
  Ni  Ni2587  1  0.44444444  0.55544350  0.29166667  1.0
  Ni  Ni2588  1  0.44444444  0.88877683  0.29166667  1.0
  Ni  Ni2589  1  0.77777778  0.22211017  0.29166667  1.0
  Ni  Ni2590  1  0.77777778  0.55544350  0.29166667  1.0
  Ni  Ni2591  1  0.77777778  0.88877683  0.29166667  1.0
  Y  Y2592  1  0.11111111  0.16166850  0.35988958  1.0
  Y  Y2593  1  0.11111111  0.49500183  0.35988958  1.0
  Y  Y2594  1  0.11111111  0.82833517  0.35988958  1.0
  Y  Y2595  1  0.44444444  0.16166850  0.35988958  1.0
  Y  Y2596  1  0.44444444  0.49500183  0.35988958  1.0
  Y  Y2597  1  0.44444444  0.82833517  0.35988958  1.0
  Y  Y2598  1  0.77777778  0.16166850  0.35988958  1.0
  Y  Y2599  1  0.77777778  0.49500183  0.35988958  1.0
  Y  Y2600  1  0.77777778  0.82833517  0.35988958  1.0
  Y  Y2601  1  0.11111111  0.32833517  0.40155625  1.0
  Y  Y2602  1  0.11111111  0.66166850  0.40155625  1.0
  Y  Y2603  1  0.11111111  0.99500183  0.40155625  1.0
  Y  Y2604  1  0.44444444  0.32833517  0.40155625  1.0
  Y  Y2605  1  0.44444444  0.66166850  0.40155625  1.0
  Y  Y2606  1  0.44444444  0.99500183  0.40155625  1.0
  Y  Y2607  1  0.77777778  0.32833517  0.40155625  1.0
  Y  Y2608  1  0.77777778  0.66166850  0.40155625  1.0
  Y  Y2609  1  0.77777778  0.99500183  0.40155625  1.0
  Y  Y2610  1  0.22222222  0.00499817  0.40405533  1.0
  Y  Y2611  1  0.22222222  0.33833150  0.40405533  1.0
  Y  Y2612  1  0.22222222  0.67166483  0.40405533  1.0
  Y  Y2613  1  0.55555556  0.00499817  0.40405533  1.0
  Y  Y2614  1  0.55555556  0.33833150  0.40405533  1.0
  Y  Y2615  1  0.55555556  0.67166483  0.40405533  1.0
  Y  Y2616  1  0.88888889  0.00499817  0.40405533  1.0
  Y  Y2617  1  0.88888889  0.33833150  0.40405533  1.0
  Y  Y2618  1  0.88888889  0.67166483  0.40405533  1.0
  Y  Y2619  1  0.22222222  0.17166483  0.36238867  1.0
  Y  Y2620  1  0.22222222  0.50499817  0.36238867  1.0
  Y  Y2621  1  0.22222222  0.83833150  0.36238867  1.0
  Y  Y2622  1  0.55555556  0.17166483  0.36238867  1.0
  Y  Y2623  1  0.55555556  0.50499817  0.36238867  1.0
  Y  Y2624  1  0.55555556  0.83833150  0.36238867  1.0
  Y  Y2625  1  0.88888889  0.17166483  0.36238867  1.0
  Y  Y2626  1  0.88888889  0.50499817  0.36238867  1.0
  Y  Y2627  1  0.88888889  0.83833150  0.36238867  1.0
  Y  Y2628  1  0.22222222  0.07833517  0.33905625  1.0
  Y  Y2629  1  0.22222222  0.41166850  0.33905625  1.0
  Y  Y2630  1  0.22222222  0.74500183  0.33905625  1.0
  Y  Y2631  1  0.55555556  0.07833517  0.33905625  1.0
  Y  Y2632  1  0.55555556  0.41166850  0.33905625  1.0
  Y  Y2633  1  0.55555556  0.74500183  0.33905625  1.0
  Y  Y2634  1  0.88888889  0.07833517  0.33905625  1.0
  Y  Y2635  1  0.88888889  0.41166850  0.33905625  1.0
  Y  Y2636  1  0.88888889  0.74500183  0.33905625  1.0
  Y  Y2637  1  0.22222222  0.24500183  0.38072292  1.0
  Y  Y2638  1  0.22222222  0.57833517  0.38072292  1.0
  Y  Y2639  1  0.22222222  0.91166850  0.38072292  1.0
  Y  Y2640  1  0.55555556  0.24500183  0.38072292  1.0
  Y  Y2641  1  0.55555556  0.57833517  0.38072292  1.0
  Y  Y2642  1  0.55555556  0.91166850  0.38072292  1.0
  Y  Y2643  1  0.88888889  0.24500183  0.38072292  1.0
  Y  Y2644  1  0.88888889  0.57833517  0.38072292  1.0
  Y  Y2645  1  0.88888889  0.91166850  0.38072292  1.0
  Y  Y2646  1  0.11111111  0.08833150  0.34155533  1.0
  Y  Y2647  1  0.11111111  0.42166483  0.34155533  1.0
  Y  Y2648  1  0.11111111  0.75499817  0.34155533  1.0
  Y  Y2649  1  0.44444444  0.08833150  0.34155533  1.0
  Y  Y2650  1  0.44444444  0.42166483  0.34155533  1.0
  Y  Y2651  1  0.44444444  0.75499817  0.34155533  1.0
  Y  Y2652  1  0.77777778  0.08833150  0.34155533  1.0
  Y  Y2653  1  0.77777778  0.42166483  0.34155533  1.0
  Y  Y2654  1  0.77777778  0.75499817  0.34155533  1.0
  Y  Y2655  1  0.11111111  0.25499817  0.38322200  1.0
  Y  Y2656  1  0.11111111  0.58833150  0.38322200  1.0
  Y  Y2657  1  0.11111111  0.92166483  0.38322200  1.0
  Y  Y2658  1  0.44444444  0.25499817  0.38322200  1.0
  Y  Y2659  1  0.44444444  0.58833150  0.38322200  1.0
  Y  Y2660  1  0.44444444  0.92166483  0.38322200  1.0
  Y  Y2661  1  0.77777778  0.25499817  0.38322200  1.0
  Y  Y2662  1  0.77777778  0.58833150  0.38322200  1.0
  Y  Y2663  1  0.77777778  0.92166483  0.38322200  1.0
  Y  Y2664  1  0.11111111  0.13761583  0.35387642  1.0
  Y  Y2665  1  0.11111111  0.47094917  0.35387642  1.0
  Y  Y2666  1  0.11111111  0.80428250  0.35387642  1.0
  Y  Y2667  1  0.44444444  0.13761583  0.35387642  1.0
  Y  Y2668  1  0.44444444  0.47094917  0.35387642  1.0
  Y  Y2669  1  0.44444444  0.80428250  0.35387642  1.0
  Y  Y2670  1  0.77777778  0.13761583  0.35387642  1.0
  Y  Y2671  1  0.77777778  0.47094917  0.35387642  1.0
  Y  Y2672  1  0.77777778  0.80428250  0.35387642  1.0
  Y  Y2673  1  0.11111111  0.30428250  0.39554308  1.0
  Y  Y2674  1  0.11111111  0.63761583  0.39554308  1.0
  Y  Y2675  1  0.11111111  0.97094917  0.39554308  1.0
  Y  Y2676  1  0.44444444  0.30428250  0.39554308  1.0
  Y  Y2677  1  0.44444444  0.63761583  0.39554308  1.0
  Y  Y2678  1  0.44444444  0.97094917  0.39554308  1.0
  Y  Y2679  1  0.77777778  0.30428250  0.39554308  1.0
  Y  Y2680  1  0.77777778  0.63761583  0.39554308  1.0
  Y  Y2681  1  0.77777778  0.97094917  0.39554308  1.0
  Y  Y2682  1  0.22222222  0.02905083  0.41006850  1.0
  Y  Y2683  1  0.22222222  0.36238417  0.41006850  1.0
  Y  Y2684  1  0.22222222  0.69571750  0.41006850  1.0
  Y  Y2685  1  0.55555556  0.02905083  0.41006850  1.0
  Y  Y2686  1  0.55555556  0.36238417  0.41006850  1.0
  Y  Y2687  1  0.55555556  0.69571750  0.41006850  1.0
  Y  Y2688  1  0.88888889  0.02905083  0.41006850  1.0
  Y  Y2689  1  0.88888889  0.36238417  0.41006850  1.0
  Y  Y2690  1  0.88888889  0.69571750  0.41006850  1.0
  Y  Y2691  1  0.22222222  0.19571750  0.36840183  1.0
  Y  Y2692  1  0.22222222  0.52905083  0.36840183  1.0
  Y  Y2693  1  0.22222222  0.86238417  0.36840183  1.0
  Y  Y2694  1  0.55555556  0.19571750  0.36840183  1.0
  Y  Y2695  1  0.55555556  0.52905083  0.36840183  1.0
  Y  Y2696  1  0.55555556  0.86238417  0.36840183  1.0
  Y  Y2697  1  0.88888889  0.19571750  0.36840183  1.0
  Y  Y2698  1  0.88888889  0.52905083  0.36840183  1.0
  Y  Y2699  1  0.88888889  0.86238417  0.36840183  1.0
  Y  Y2700  1  0.22222222  0.05428250  0.41637642  1.0
  Y  Y2701  1  0.22222222  0.38761583  0.41637642  1.0
  Y  Y2702  1  0.22222222  0.72094917  0.41637642  1.0
  Y  Y2703  1  0.55555556  0.05428250  0.41637642  1.0
  Y  Y2704  1  0.55555556  0.38761583  0.41637642  1.0
  Y  Y2705  1  0.55555556  0.72094917  0.41637642  1.0
  Y  Y2706  1  0.88888889  0.05428250  0.41637642  1.0
  Y  Y2707  1  0.88888889  0.38761583  0.41637642  1.0
  Y  Y2708  1  0.88888889  0.72094917  0.41637642  1.0
  Y  Y2709  1  0.22222222  0.22094917  0.37470975  1.0
  Y  Y2710  1  0.22222222  0.55428250  0.37470975  1.0
  Y  Y2711  1  0.22222222  0.88761583  0.37470975  1.0
  Y  Y2712  1  0.55555556  0.22094917  0.37470975  1.0
  Y  Y2713  1  0.55555556  0.55428250  0.37470975  1.0
  Y  Y2714  1  0.55555556  0.88761583  0.37470975  1.0
  Y  Y2715  1  0.88888889  0.22094917  0.37470975  1.0
  Y  Y2716  1  0.88888889  0.55428250  0.37470975  1.0
  Y  Y2717  1  0.88888889  0.88761583  0.37470975  1.0
  Y  Y2718  1  0.11111111  0.11238417  0.34756850  1.0
  Y  Y2719  1  0.11111111  0.44571750  0.34756850  1.0
  Y  Y2720  1  0.11111111  0.77905083  0.34756850  1.0
  Y  Y2721  1  0.44444444  0.11238417  0.34756850  1.0
  Y  Y2722  1  0.44444444  0.44571750  0.34756850  1.0
  Y  Y2723  1  0.44444444  0.77905083  0.34756850  1.0
  Y  Y2724  1  0.77777778  0.11238417  0.34756850  1.0
  Y  Y2725  1  0.77777778  0.44571750  0.34756850  1.0
  Y  Y2726  1  0.77777778  0.77905083  0.34756850  1.0
  Y  Y2727  1  0.11111111  0.27905083  0.38923517  1.0
  Y  Y2728  1  0.11111111  0.61238417  0.38923517  1.0
  Y  Y2729  1  0.11111111  0.94571750  0.38923517  1.0
  Y  Y2730  1  0.44444444  0.27905083  0.38923517  1.0
  Y  Y2731  1  0.44444444  0.61238417  0.38923517  1.0
  Y  Y2732  1  0.44444444  0.94571750  0.38923517  1.0
  Y  Y2733  1  0.77777778  0.27905083  0.38923517  1.0
  Y  Y2734  1  0.77777778  0.61238417  0.38923517  1.0
  Y  Y2735  1  0.77777778  0.94571750  0.38923517  1.0
  Ni  Ni2736  1  0.00000000  0.00000000  0.40280579  1.0
  Ni  Ni2737  1  0.00000000  0.33333333  0.40280579  1.0
  Ni  Ni2738  1  0.00000000  0.66666667  0.40280579  1.0
  Ni  Ni2739  1  0.33333333  0.00000000  0.40280579  1.0
  Ni  Ni2740  1  0.33333333  0.33333333  0.40280579  1.0
  Ni  Ni2741  1  0.33333333  0.66666667  0.40280579  1.0
  Ni  Ni2742  1  0.66666667  0.00000000  0.40280579  1.0
  Ni  Ni2743  1  0.66666667  0.33333333  0.40280579  1.0
  Ni  Ni2744  1  0.66666667  0.66666667  0.40280579  1.0
  Ni  Ni2745  1  0.00000000  0.16666667  0.36113912  1.0
  Ni  Ni2746  1  0.00000000  0.50000000  0.36113912  1.0
  Ni  Ni2747  1  0.00000000  0.83333333  0.36113912  1.0
  Ni  Ni2748  1  0.33333333  0.16666667  0.36113912  1.0
  Ni  Ni2749  1  0.33333333  0.50000000  0.36113912  1.0
  Ni  Ni2750  1  0.33333333  0.83333333  0.36113912  1.0
  Ni  Ni2751  1  0.66666667  0.16666667  0.36113912  1.0
  Ni  Ni2752  1  0.66666667  0.50000000  0.36113912  1.0
  Ni  Ni2753  1  0.66666667  0.83333333  0.36113912  1.0
  Ni  Ni2754  1  0.00000000  0.08333333  0.34030579  1.0
  Ni  Ni2755  1  0.00000000  0.41666667  0.34030579  1.0
  Ni  Ni2756  1  0.00000000  0.75000000  0.34030579  1.0
  Ni  Ni2757  1  0.33333333  0.08333333  0.34030579  1.0
  Ni  Ni2758  1  0.33333333  0.41666667  0.34030579  1.0
  Ni  Ni2759  1  0.33333333  0.75000000  0.34030579  1.0
  Ni  Ni2760  1  0.66666667  0.08333333  0.34030579  1.0
  Ni  Ni2761  1  0.66666667  0.41666667  0.34030579  1.0
  Ni  Ni2762  1  0.66666667  0.75000000  0.34030579  1.0
  Ni  Ni2763  1  0.00000000  0.25000000  0.38197246  1.0
  Ni  Ni2764  1  0.00000000  0.58333333  0.38197246  1.0
  Ni  Ni2765  1  0.00000000  0.91666667  0.38197246  1.0
  Ni  Ni2766  1  0.33333333  0.25000000  0.38197246  1.0
  Ni  Ni2767  1  0.33333333  0.58333333  0.38197246  1.0
  Ni  Ni2768  1  0.33333333  0.91666667  0.38197246  1.0
  Ni  Ni2769  1  0.66666667  0.25000000  0.38197246  1.0
  Ni  Ni2770  1  0.66666667  0.58333333  0.38197246  1.0
  Ni  Ni2771  1  0.66666667  0.91666667  0.38197246  1.0
  Ni  Ni2772  1  0.11169133  0.12500000  0.39260671  1.0
  Ni  Ni2773  1  0.11169133  0.45833333  0.39260671  1.0
  Ni  Ni2774  1  0.11169133  0.79166667  0.39260671  1.0
  Ni  Ni2775  1  0.44502467  0.12500000  0.39260671  1.0
  Ni  Ni2776  1  0.44502467  0.45833333  0.39260671  1.0
  Ni  Ni2777  1  0.44502467  0.79166667  0.39260671  1.0
  Ni  Ni2778  1  0.77835800  0.12500000  0.39260671  1.0
  Ni  Ni2779  1  0.77835800  0.45833333  0.39260671  1.0
  Ni  Ni2780  1  0.77835800  0.79166667  0.39260671  1.0
  Ni  Ni2781  1  0.11169133  0.29166667  0.35094004  1.0
  Ni  Ni2782  1  0.11169133  0.62500000  0.35094004  1.0
  Ni  Ni2783  1  0.11169133  0.95833333  0.35094004  1.0
  Ni  Ni2784  1  0.44502467  0.29166667  0.35094004  1.0
  Ni  Ni2785  1  0.44502467  0.62500000  0.35094004  1.0
  Ni  Ni2786  1  0.44502467  0.95833333  0.35094004  1.0
  Ni  Ni2787  1  0.77835800  0.29166667  0.35094004  1.0
  Ni  Ni2788  1  0.77835800  0.62500000  0.35094004  1.0
  Ni  Ni2789  1  0.77835800  0.95833333  0.35094004  1.0
  Ni  Ni2790  1  0.27748767  0.12500000  0.39217154  1.0
  Ni  Ni2791  1  0.27748767  0.45833333  0.39217154  1.0
  Ni  Ni2792  1  0.27748767  0.79166667  0.39217154  1.0
  Ni  Ni2793  1  0.61082100  0.12500000  0.39217154  1.0
  Ni  Ni2794  1  0.61082100  0.45833333  0.39217154  1.0
  Ni  Ni2795  1  0.61082100  0.79166667  0.39217154  1.0
  Ni  Ni2796  1  0.94415433  0.12500000  0.39217154  1.0
  Ni  Ni2797  1  0.94415433  0.45833333  0.39217154  1.0
  Ni  Ni2798  1  0.94415433  0.79166667  0.39217154  1.0
  Ni  Ni2799  1  0.27748767  0.29166667  0.35050487  1.0
  Ni  Ni2800  1  0.27748767  0.62500000  0.35050487  1.0
  Ni  Ni2801  1  0.27748767  0.95833333  0.35050487  1.0
  Ni  Ni2802  1  0.61082100  0.29166667  0.35050487  1.0
  Ni  Ni2803  1  0.61082100  0.62500000  0.35050487  1.0
  Ni  Ni2804  1  0.61082100  0.95833333  0.35050487  1.0
  Ni  Ni2805  1  0.94415433  0.29166667  0.35050487  1.0
  Ni  Ni2806  1  0.94415433  0.62500000  0.35050487  1.0
  Ni  Ni2807  1  0.94415433  0.95833333  0.35050487  1.0
  Ni  Ni2808  1  0.27748767  0.12500000  0.35072246  1.0
  Ni  Ni2809  1  0.27748767  0.45833333  0.35072246  1.0
  Ni  Ni2810  1  0.27748767  0.79166667  0.35072246  1.0
  Ni  Ni2811  1  0.61082100  0.12500000  0.35072246  1.0
  Ni  Ni2812  1  0.61082100  0.45833333  0.35072246  1.0
  Ni  Ni2813  1  0.61082100  0.79166667  0.35072246  1.0
  Ni  Ni2814  1  0.94415433  0.12500000  0.35072246  1.0
  Ni  Ni2815  1  0.94415433  0.45833333  0.35072246  1.0
  Ni  Ni2816  1  0.94415433  0.79166667  0.35072246  1.0
  Ni  Ni2817  1  0.27748767  0.29166667  0.39238912  1.0
  Ni  Ni2818  1  0.27748767  0.62500000  0.39238912  1.0
  Ni  Ni2819  1  0.27748767  0.95833333  0.39238912  1.0
  Ni  Ni2820  1  0.61082100  0.29166667  0.39238912  1.0
  Ni  Ni2821  1  0.61082100  0.62500000  0.39238912  1.0
  Ni  Ni2822  1  0.61082100  0.95833333  0.39238912  1.0
  Ni  Ni2823  1  0.94415433  0.29166667  0.39238912  1.0
  Ni  Ni2824  1  0.94415433  0.62500000  0.39238913  1.0
  Ni  Ni2825  1  0.94415433  0.95833333  0.39238912  1.0
  Ni  Ni2826  1  0.22164200  0.04166667  0.37133821  1.0
  Ni  Ni2827  1  0.22164200  0.37500000  0.37133821  1.0
  Ni  Ni2828  1  0.22164200  0.70833333  0.37133821  1.0
  Ni  Ni2829  1  0.55497533  0.04166667  0.37133821  1.0
  Ni  Ni2830  1  0.55497533  0.37500000  0.37133821  1.0
  Ni  Ni2831  1  0.55497533  0.70833333  0.37133821  1.0
  Ni  Ni2832  1  0.88830867  0.04166667  0.37133821  1.0
  Ni  Ni2833  1  0.88830867  0.37500000  0.37133821  1.0
  Ni  Ni2834  1  0.88830867  0.70833333  0.37133821  1.0
  Ni  Ni2835  1  0.22164200  0.20833333  0.41300487  1.0
  Ni  Ni2836  1  0.22164200  0.54166667  0.41300487  1.0
  Ni  Ni2837  1  0.22164200  0.87500000  0.41300487  1.0
  Ni  Ni2838  1  0.55497533  0.20833333  0.41300487  1.0
  Ni  Ni2839  1  0.55497533  0.54166667  0.41300487  1.0
  Ni  Ni2840  1  0.55497533  0.87500000  0.41300487  1.0
  Ni  Ni2841  1  0.88830867  0.20833333  0.41300487  1.0
  Ni  Ni2842  1  0.88830867  0.54166667  0.41300487  1.0
  Ni  Ni2843  1  0.88830867  0.87500000  0.41300487  1.0
  Ni  Ni2844  1  0.05584567  0.04166667  0.37177337  1.0
  Ni  Ni2845  1  0.05584567  0.37500000  0.37177337  1.0
  Ni  Ni2846  1  0.05584567  0.70833333  0.37177337  1.0
  Ni  Ni2847  1  0.38917900  0.04166667  0.37177337  1.0
  Ni  Ni2848  1  0.38917900  0.37500000  0.37177337  1.0
  Ni  Ni2849  1  0.38917900  0.70833333  0.37177337  1.0
  Ni  Ni2850  1  0.72251233  0.04166667  0.37177337  1.0
  Ni  Ni2851  1  0.72251233  0.37500000  0.37177337  1.0
  Ni  Ni2852  1  0.72251233  0.70833333  0.37177337  1.0
  Ni  Ni2853  1  0.05584567  0.20833333  0.41344004  1.0
  Ni  Ni2854  1  0.05584567  0.54166667  0.41344004  1.0
  Ni  Ni2855  1  0.05584567  0.87500000  0.41344004  1.0
  Ni  Ni2856  1  0.38917900  0.20833333  0.41344004  1.0
  Ni  Ni2857  1  0.38917900  0.54166667  0.41344004  1.0
  Ni  Ni2858  1  0.38917900  0.87500000  0.41344004  1.0
  Ni  Ni2859  1  0.72251233  0.20833333  0.41344004  1.0
  Ni  Ni2860  1  0.72251233  0.54166667  0.41344004  1.0
  Ni  Ni2861  1  0.72251233  0.87500000  0.41344004  1.0
  Ni  Ni2862  1  0.05584567  0.04166667  0.41322246  1.0
  Ni  Ni2863  1  0.05584567  0.37500000  0.41322246  1.0
  Ni  Ni2864  1  0.05584567  0.70833333  0.41322246  1.0
  Ni  Ni2865  1  0.38917900  0.04166667  0.41322246  1.0
  Ni  Ni2866  1  0.38917900  0.37500000  0.41322246  1.0
  Ni  Ni2867  1  0.38917900  0.70833333  0.41322246  1.0
  Ni  Ni2868  1  0.72251233  0.04166667  0.41322246  1.0
  Ni  Ni2869  1  0.72251233  0.37500000  0.41322246  1.0
  Ni  Ni2870  1  0.72251233  0.70833333  0.41322246  1.0
  Ni  Ni2871  1  0.05584567  0.20833333  0.37155579  1.0
  Ni  Ni2872  1  0.05584567  0.54166667  0.37155579  1.0
  Ni  Ni2873  1  0.05584567  0.87500000  0.37155579  1.0
  Ni  Ni2874  1  0.38917900  0.20833333  0.37155579  1.0
  Ni  Ni2875  1  0.38917900  0.54166667  0.37155579  1.0
  Ni  Ni2876  1  0.38917900  0.87500000  0.37155579  1.0
  Ni  Ni2877  1  0.72251233  0.20833333  0.37155579  1.0
  Ni  Ni2878  1  0.72251233  0.54166667  0.37155579  1.0
  Ni  Ni2879  1  0.72251233  0.87500000  0.37155579  1.0
  Ni  Ni2880  1  0.11093733  0.15224517  0.39913525  1.0
  Ni  Ni2881  1  0.11093733  0.48557850  0.39913525  1.0
  Ni  Ni2882  1  0.11093733  0.81891183  0.39913525  1.0
  Ni  Ni2883  1  0.44427067  0.15224517  0.39913525  1.0
  Ni  Ni2884  1  0.44427067  0.48557850  0.39913525  1.0
  Ni  Ni2885  1  0.44427067  0.81891183  0.39913525  1.0
  Ni  Ni2886  1  0.77760400  0.15224517  0.39913525  1.0
  Ni  Ni2887  1  0.77760400  0.48557850  0.39913525  1.0
  Ni  Ni2888  1  0.77760400  0.81891183  0.39913525  1.0
  Ni  Ni2889  1  0.11093733  0.31891183  0.35746858  1.0
  Ni  Ni2890  1  0.11093733  0.65224517  0.35746858  1.0
  Ni  Ni2891  1  0.11093733  0.98557850  0.35746858  1.0
  Ni  Ni2892  1  0.44427067  0.31891183  0.35746858  1.0
  Ni  Ni2893  1  0.44427067  0.65224517  0.35746858  1.0
  Ni  Ni2894  1  0.44427067  0.98557850  0.35746858  1.0
  Ni  Ni2895  1  0.77760400  0.31891183  0.35746858  1.0
  Ni  Ni2896  1  0.77760400  0.65224517  0.35746858  1.0
  Ni  Ni2897  1  0.77760400  0.98557850  0.35746858  1.0
  Ni  Ni2898  1  0.27786467  0.15224517  0.39926558  1.0
  Ni  Ni2899  1  0.27786467  0.48557850  0.39926558  1.0
  Ni  Ni2900  1  0.27786467  0.81891183  0.39926558  1.0
  Ni  Ni2901  1  0.61119800  0.15224517  0.39926558  1.0
  Ni  Ni2902  1  0.61119800  0.48557850  0.39926558  1.0
  Ni  Ni2903  1  0.61119800  0.81891183  0.39926558  1.0
  Ni  Ni2904  1  0.94453133  0.15224517  0.39926558  1.0
  Ni  Ni2905  1  0.94453133  0.48557850  0.39926558  1.0
  Ni  Ni2906  1  0.94453133  0.81891183  0.39926558  1.0
  Ni  Ni2907  1  0.27786467  0.31891183  0.35759892  1.0
  Ni  Ni2908  1  0.27786467  0.65224517  0.35759892  1.0
  Ni  Ni2909  1  0.27786467  0.98557850  0.35759892  1.0
  Ni  Ni2910  1  0.61119800  0.31891183  0.35759892  1.0
  Ni  Ni2911  1  0.61119800  0.65224517  0.35759892  1.0
  Ni  Ni2912  1  0.61119800  0.98557850  0.35759892  1.0
  Ni  Ni2913  1  0.94453133  0.31891183  0.35759892  1.0
  Ni  Ni2914  1  0.94453133  0.65224517  0.35759892  1.0
  Ni  Ni2915  1  0.94453133  0.98557850  0.35759892  1.0
  Ni  Ni2916  1  0.27786467  0.15224517  0.35753375  1.0
  Ni  Ni2917  1  0.27786467  0.48557850  0.35753375  1.0
  Ni  Ni2918  1  0.27786467  0.81891183  0.35753375  1.0
  Ni  Ni2919  1  0.61119800  0.15224517  0.35753375  1.0
  Ni  Ni2920  1  0.61119800  0.48557850  0.35753375  1.0
  Ni  Ni2921  1  0.61119800  0.81891183  0.35753375  1.0
  Ni  Ni2922  1  0.94453133  0.15224517  0.35753375  1.0
  Ni  Ni2923  1  0.94453133  0.48557850  0.35753375  1.0
  Ni  Ni2924  1  0.94453133  0.81891183  0.35753375  1.0
  Ni  Ni2925  1  0.27786467  0.31891183  0.39920042  1.0
  Ni  Ni2926  1  0.27786467  0.65224517  0.39920042  1.0
  Ni  Ni2927  1  0.27786467  0.98557850  0.39920042  1.0
  Ni  Ni2928  1  0.61119800  0.31891183  0.39920042  1.0
  Ni  Ni2929  1  0.61119800  0.65224517  0.39920042  1.0
  Ni  Ni2930  1  0.61119800  0.98557850  0.39920042  1.0
  Ni  Ni2931  1  0.94453133  0.31891183  0.39920042  1.0
  Ni  Ni2932  1  0.94453133  0.65224517  0.39920042  1.0
  Ni  Ni2933  1  0.94453133  0.98557850  0.39920042  1.0
  Ni  Ni2934  1  0.22239600  0.01442150  0.36480967  1.0
  Ni  Ni2935  1  0.22239600  0.34775483  0.36480967  1.0
  Ni  Ni2936  1  0.22239600  0.68108817  0.36480967  1.0
  Ni  Ni2937  1  0.55572933  0.01442150  0.36480967  1.0
  Ni  Ni2938  1  0.55572933  0.34775483  0.36480967  1.0
  Ni  Ni2939  1  0.55572933  0.68108817  0.36480967  1.0
  Ni  Ni2940  1  0.88906267  0.01442150  0.36480967  1.0
  Ni  Ni2941  1  0.88906267  0.34775483  0.36480967  1.0
  Ni  Ni2942  1  0.88906267  0.68108817  0.36480967  1.0
  Ni  Ni2943  1  0.22239600  0.18108817  0.40647633  1.0
  Ni  Ni2944  1  0.22239600  0.51442150  0.40647633  1.0
  Ni  Ni2945  1  0.22239600  0.84775483  0.40647633  1.0
  Ni  Ni2946  1  0.55572933  0.18108817  0.40647633  1.0
  Ni  Ni2947  1  0.55572933  0.51442150  0.40647633  1.0
  Ni  Ni2948  1  0.55572933  0.84775483  0.40647633  1.0
  Ni  Ni2949  1  0.88906267  0.18108817  0.40647633  1.0
  Ni  Ni2950  1  0.88906267  0.51442150  0.40647633  1.0
  Ni  Ni2951  1  0.88906267  0.84775483  0.40647633  1.0
  Ni  Ni2952  1  0.05546867  0.01442150  0.36467933  1.0
  Ni  Ni2953  1  0.05546867  0.34775483  0.36467933  1.0
  Ni  Ni2954  1  0.05546867  0.68108817  0.36467933  1.0
  Ni  Ni2955  1  0.38880200  0.01442150  0.36467933  1.0
  Ni  Ni2956  1  0.38880200  0.34775483  0.36467933  1.0
  Ni  Ni2957  1  0.38880200  0.68108817  0.36467933  1.0
  Ni  Ni2958  1  0.72213533  0.01442150  0.36467933  1.0
  Ni  Ni2959  1  0.72213533  0.34775483  0.36467933  1.0
  Ni  Ni2960  1  0.72213533  0.68108817  0.36467933  1.0
  Ni  Ni2961  1  0.05546867  0.18108817  0.40634600  1.0
  Ni  Ni2962  1  0.05546867  0.51442150  0.40634600  1.0
  Ni  Ni2963  1  0.05546867  0.84775483  0.40634600  1.0
  Ni  Ni2964  1  0.38880200  0.18108817  0.40634600  1.0
  Ni  Ni2965  1  0.38880200  0.51442150  0.40634600  1.0
  Ni  Ni2966  1  0.38880200  0.84775483  0.40634600  1.0
  Ni  Ni2967  1  0.72213533  0.18108817  0.40634600  1.0
  Ni  Ni2968  1  0.72213533  0.51442150  0.40634600  1.0
  Ni  Ni2969  1  0.72213533  0.84775483  0.40634600  1.0
  Ni  Ni2970  1  0.05546867  0.01442150  0.40641117  1.0
  Ni  Ni2971  1  0.05546867  0.34775483  0.40641117  1.0
  Ni  Ni2972  1  0.05546867  0.68108817  0.40641117  1.0
  Ni  Ni2973  1  0.38880200  0.01442150  0.40641117  1.0
  Ni  Ni2974  1  0.38880200  0.34775483  0.40641117  1.0
  Ni  Ni2975  1  0.38880200  0.68108817  0.40641117  1.0
  Ni  Ni2976  1  0.72213533  0.01442150  0.40641117  1.0
  Ni  Ni2977  1  0.72213533  0.34775483  0.40641117  1.0
  Ni  Ni2978  1  0.72213533  0.68108817  0.40641117  1.0
  Ni  Ni2979  1  0.05546867  0.18108817  0.36474450  1.0
  Ni  Ni2980  1  0.05546867  0.51442150  0.36474450  1.0
  Ni  Ni2981  1  0.05546867  0.84775483  0.36474450  1.0
  Ni  Ni2982  1  0.38880200  0.18108817  0.36474450  1.0
  Ni  Ni2983  1  0.38880200  0.51442150  0.36474450  1.0
  Ni  Ni2984  1  0.38880200  0.84775483  0.36474450  1.0
  Ni  Ni2985  1  0.72213533  0.18108817  0.36474450  1.0
  Ni  Ni2986  1  0.72213533  0.51442150  0.36474450  1.0
  Ni  Ni2987  1  0.72213533  0.84775483  0.36474450  1.0
  Ni  Ni2988  1  0.22239600  0.06891183  0.37843225  1.0
  Ni  Ni2989  1  0.22239600  0.40224517  0.37843225  1.0
  Ni  Ni2990  1  0.22239600  0.73557850  0.37843225  1.0
  Ni  Ni2991  1  0.55572933  0.06891183  0.37843225  1.0
  Ni  Ni2992  1  0.55572933  0.40224517  0.37843225  1.0
  Ni  Ni2993  1  0.55572933  0.73557850  0.37843225  1.0
  Ni  Ni2994  1  0.88906267  0.06891183  0.37843225  1.0
  Ni  Ni2995  1  0.88906267  0.40224517  0.37843225  1.0
  Ni  Ni2996  1  0.88906267  0.73557850  0.37843225  1.0
  Ni  Ni2997  1  0.22239600  0.23557850  0.33676558  1.0
  Ni  Ni2998  1  0.22239600  0.56891183  0.33676558  1.0
  Ni  Ni2999  1  0.22239600  0.90224517  0.33676558  1.0
  Ni  Ni3000  1  0.55572933  0.23557850  0.33676558  1.0
  Ni  Ni3001  1  0.55572933  0.56891183  0.33676558  1.0
  Ni  Ni3002  1  0.55572933  0.90224517  0.33676558  1.0
  Ni  Ni3003  1  0.88906267  0.23557850  0.33676558  1.0
  Ni  Ni3004  1  0.88906267  0.56891183  0.33676558  1.0
  Ni  Ni3005  1  0.88906267  0.90224517  0.33676558  1.0
  Ni  Ni3006  1  0.05546867  0.06891183  0.37830192  1.0
  Ni  Ni3007  1  0.05546867  0.40224517  0.37830192  1.0
  Ni  Ni3008  1  0.05546867  0.73557850  0.37830192  1.0
  Ni  Ni3009  1  0.38880200  0.06891183  0.37830192  1.0
  Ni  Ni3010  1  0.38880200  0.40224517  0.37830192  1.0
  Ni  Ni3011  1  0.38880200  0.73557850  0.37830192  1.0
  Ni  Ni3012  1  0.72213533  0.06891183  0.37830192  1.0
  Ni  Ni3013  1  0.72213533  0.40224517  0.37830192  1.0
  Ni  Ni3014  1  0.72213533  0.73557850  0.37830192  1.0
  Ni  Ni3015  1  0.05546867  0.23557850  0.33663525  1.0
  Ni  Ni3016  1  0.05546867  0.56891183  0.33663525  1.0
  Ni  Ni3017  1  0.05546867  0.90224517  0.33663525  1.0
  Ni  Ni3018  1  0.38880200  0.23557850  0.33663525  1.0
  Ni  Ni3019  1  0.38880200  0.56891183  0.33663525  1.0
  Ni  Ni3020  1  0.38880200  0.90224517  0.33663525  1.0
  Ni  Ni3021  1  0.72213533  0.23557850  0.33663525  1.0
  Ni  Ni3022  1  0.72213533  0.56891183  0.33663525  1.0
  Ni  Ni3023  1  0.72213533  0.90224517  0.33663525  1.0
  Ni  Ni3024  1  0.05546867  0.06891183  0.33670042  1.0
  Ni  Ni3025  1  0.05546867  0.40224517  0.33670042  1.0
  Ni  Ni3026  1  0.05546867  0.73557850  0.33670042  1.0
  Ni  Ni3027  1  0.38880200  0.06891183  0.33670042  1.0
  Ni  Ni3028  1  0.38880200  0.40224517  0.33670042  1.0
  Ni  Ni3029  1  0.38880200  0.73557850  0.33670042  1.0
  Ni  Ni3030  1  0.72213533  0.06891183  0.33670042  1.0
  Ni  Ni3031  1  0.72213533  0.40224517  0.33670042  1.0
  Ni  Ni3032  1  0.72213533  0.73557850  0.33670042  1.0
  Ni  Ni3033  1  0.05546867  0.23557850  0.37836708  1.0
  Ni  Ni3034  1  0.05546867  0.56891183  0.37836708  1.0
  Ni  Ni3035  1  0.05546867  0.90224517  0.37836708  1.0
  Ni  Ni3036  1  0.38880200  0.23557850  0.37836708  1.0
  Ni  Ni3037  1  0.38880200  0.56891183  0.37836708  1.0
  Ni  Ni3038  1  0.38880200  0.90224517  0.37836708  1.0
  Ni  Ni3039  1  0.72213533  0.23557850  0.37836708  1.0
  Ni  Ni3040  1  0.72213533  0.56891183  0.37836708  1.0
  Ni  Ni3041  1  0.72213533  0.90224517  0.37836708  1.0
  Ni  Ni3042  1  0.11093733  0.09775483  0.38551267  1.0
  Ni  Ni3043  1  0.11093733  0.43108817  0.38551267  1.0
  Ni  Ni3044  1  0.11093733  0.76442150  0.38551267  1.0
  Ni  Ni3045  1  0.44427067  0.09775483  0.38551267  1.0
  Ni  Ni3046  1  0.44427067  0.43108817  0.38551267  1.0
  Ni  Ni3047  1  0.44427067  0.76442150  0.38551267  1.0
  Ni  Ni3048  1  0.77760400  0.09775483  0.38551267  1.0
  Ni  Ni3049  1  0.77760400  0.43108817  0.38551267  1.0
  Ni  Ni3050  1  0.77760400  0.76442150  0.38551267  1.0
  Ni  Ni3051  1  0.11093733  0.26442150  0.34384600  1.0
  Ni  Ni3052  1  0.11093733  0.59775483  0.34384600  1.0
  Ni  Ni3053  1  0.11093733  0.93108817  0.34384600  1.0
  Ni  Ni3054  1  0.44427067  0.26442150  0.34384600  1.0
  Ni  Ni3055  1  0.44427067  0.59775483  0.34384600  1.0
  Ni  Ni3056  1  0.44427067  0.93108817  0.34384600  1.0
  Ni  Ni3057  1  0.77760400  0.26442150  0.34384600  1.0
  Ni  Ni3058  1  0.77760400  0.59775483  0.34384600  1.0
  Ni  Ni3059  1  0.77760400  0.93108817  0.34384600  1.0
  Ni  Ni3060  1  0.27786467  0.09775483  0.38564300  1.0
  Ni  Ni3061  1  0.27786467  0.43108817  0.38564300  1.0
  Ni  Ni3062  1  0.27786467  0.76442150  0.38564300  1.0
  Ni  Ni3063  1  0.61119800  0.09775483  0.38564300  1.0
  Ni  Ni3064  1  0.61119800  0.43108817  0.38564300  1.0
  Ni  Ni3065  1  0.61119800  0.76442150  0.38564300  1.0
  Ni  Ni3066  1  0.94453133  0.09775483  0.38564300  1.0
  Ni  Ni3067  1  0.94453133  0.43108817  0.38564300  1.0
  Ni  Ni3068  1  0.94453133  0.76442150  0.38564300  1.0
  Ni  Ni3069  1  0.27786467  0.26442150  0.34397633  1.0
  Ni  Ni3070  1  0.27786467  0.59775483  0.34397633  1.0
  Ni  Ni3071  1  0.27786467  0.93108817  0.34397633  1.0
  Ni  Ni3072  1  0.61119800  0.26442150  0.34397633  1.0
  Ni  Ni3073  1  0.61119800  0.59775483  0.34397633  1.0
  Ni  Ni3074  1  0.61119800  0.93108817  0.34397633  1.0
  Ni  Ni3075  1  0.94453133  0.26442150  0.34397633  1.0
  Ni  Ni3076  1  0.94453133  0.59775483  0.34397633  1.0
  Ni  Ni3077  1  0.94453133  0.93108817  0.34397633  1.0
  Ni  Ni3078  1  0.27786467  0.09775483  0.34391117  1.0
  Ni  Ni3079  1  0.27786467  0.43108817  0.34391117  1.0
  Ni  Ni3080  1  0.27786467  0.76442150  0.34391117  1.0
  Ni  Ni3081  1  0.61119800  0.09775483  0.34391117  1.0
  Ni  Ni3082  1  0.61119800  0.43108817  0.34391117  1.0
  Ni  Ni3083  1  0.61119800  0.76442150  0.34391117  1.0
  Ni  Ni3084  1  0.94453133  0.09775483  0.34391117  1.0
  Ni  Ni3085  1  0.94453133  0.43108817  0.34391117  1.0
  Ni  Ni3086  1  0.94453133  0.76442150  0.34391117  1.0
  Ni  Ni3087  1  0.27786467  0.26442150  0.38557783  1.0
  Ni  Ni3088  1  0.27786467  0.59775483  0.38557783  1.0
  Ni  Ni3089  1  0.27786467  0.93108817  0.38557783  1.0
  Ni  Ni3090  1  0.61119800  0.26442150  0.38557783  1.0
  Ni  Ni3091  1  0.61119800  0.59775483  0.38557783  1.0
  Ni  Ni3092  1  0.61119800  0.93108817  0.38557783  1.0
  Ni  Ni3093  1  0.94453133  0.26442150  0.38557783  1.0
  Ni  Ni3094  1  0.94453133  0.59775483  0.38557783  1.0
  Ni  Ni3095  1  0.94453133  0.93108817  0.38557783  1.0
  Ni  Ni3096  1  0.00000000  0.13856767  0.35411437  1.0
  Ni  Ni3097  1  0.00000000  0.47190100  0.35411437  1.0
  Ni  Ni3098  1  0.00000000  0.80523433  0.35411437  1.0
  Ni  Ni3099  1  0.33333333  0.13856767  0.35411437  1.0
  Ni  Ni3100  1  0.33333333  0.47190100  0.35411437  1.0
  Ni  Ni3101  1  0.33333333  0.80523433  0.35411437  1.0
  Ni  Ni3102  1  0.66666667  0.13856767  0.35411437  1.0
  Ni  Ni3103  1  0.66666667  0.47190100  0.35411437  1.0
  Ni  Ni3104  1  0.66666667  0.80523433  0.35411437  1.0
  Ni  Ni3105  1  0.00000000  0.30523433  0.39578104  1.0
  Ni  Ni3106  1  0.00000000  0.63856767  0.39578104  1.0
  Ni  Ni3107  1  0.00000000  0.97190100  0.39578104  1.0
  Ni  Ni3108  1  0.33333333  0.30523433  0.39578104  1.0
  Ni  Ni3109  1  0.33333333  0.63856767  0.39578104  1.0
  Ni  Ni3110  1  0.33333333  0.97190100  0.39578104  1.0
  Ni  Ni3111  1  0.66666667  0.30523433  0.39578104  1.0
  Ni  Ni3112  1  0.66666667  0.63856767  0.39578104  1.0
  Ni  Ni3113  1  0.66666667  0.97190100  0.39578104  1.0
  Ni  Ni3114  1  0.00000000  0.02809900  0.40983054  1.0
  Ni  Ni3115  1  0.00000000  0.36143233  0.40983054  1.0
  Ni  Ni3116  1  0.00000000  0.69476567  0.40983054  1.0
  Ni  Ni3117  1  0.33333333  0.02809900  0.40983054  1.0
  Ni  Ni3118  1  0.33333333  0.36143233  0.40983054  1.0
  Ni  Ni3119  1  0.33333333  0.69476567  0.40983054  1.0
  Ni  Ni3120  1  0.66666667  0.02809900  0.40983054  1.0
  Ni  Ni3121  1  0.66666667  0.36143233  0.40983054  1.0
  Ni  Ni3122  1  0.66666667  0.69476567  0.40983054  1.0
  Ni  Ni3123  1  0.00000000  0.19476567  0.36816387  1.0
  Ni  Ni3124  1  0.00000000  0.52809900  0.36816387  1.0
  Ni  Ni3125  1  0.00000000  0.86143233  0.36816387  1.0
  Ni  Ni3126  1  0.33333333  0.19476567  0.36816387  1.0
  Ni  Ni3127  1  0.33333333  0.52809900  0.36816387  1.0
  Ni  Ni3128  1  0.33333333  0.86143233  0.36816387  1.0
  Ni  Ni3129  1  0.66666667  0.19476567  0.36816387  1.0
  Ni  Ni3130  1  0.66666667  0.52809900  0.36816387  1.0
  Ni  Ni3131  1  0.66666667  0.86143233  0.36816387  1.0
  Ni  Ni3132  1  0.00000000  0.05523433  0.41661437  1.0
  Ni  Ni3133  1  0.00000000  0.38856767  0.41661437  1.0
  Ni  Ni3134  1  0.00000000  0.72190100  0.41661437  1.0
  Ni  Ni3135  1  0.33333333  0.05523433  0.41661437  1.0
  Ni  Ni3136  1  0.33333333  0.38856767  0.41661437  1.0
  Ni  Ni3137  1  0.33333333  0.72190100  0.41661437  1.0
  Ni  Ni3138  1  0.66666667  0.05523433  0.41661437  1.0
  Ni  Ni3139  1  0.66666667  0.38856767  0.41661437  1.0
  Ni  Ni3140  1  0.66666667  0.72190100  0.41661437  1.0
  Ni  Ni3141  1  0.00000000  0.22190100  0.37494771  1.0
  Ni  Ni3142  1  0.00000000  0.55523433  0.37494771  1.0
  Ni  Ni3143  1  0.00000000  0.88856767  0.37494771  1.0
  Ni  Ni3144  1  0.33333333  0.22190100  0.37494771  1.0
  Ni  Ni3145  1  0.33333333  0.55523433  0.37494771  1.0
  Ni  Ni3146  1  0.33333333  0.88856767  0.37494771  1.0
  Ni  Ni3147  1  0.66666667  0.22190100  0.37494771  1.0
  Ni  Ni3148  1  0.66666667  0.55523433  0.37494771  1.0
  Ni  Ni3149  1  0.66666667  0.88856767  0.37494771  1.0
  Ni  Ni3150  1  0.00000000  0.11143233  0.34733054  1.0
  Ni  Ni3151  1  0.00000000  0.44476567  0.34733054  1.0
  Ni  Ni3152  1  0.00000000  0.77809900  0.34733054  1.0
  Ni  Ni3153  1  0.33333333  0.11143233  0.34733054  1.0
  Ni  Ni3154  1  0.33333333  0.44476567  0.34733054  1.0
  Ni  Ni3155  1  0.33333333  0.77809900  0.34733054  1.0
  Ni  Ni3156  1  0.66666667  0.11143233  0.34733054  1.0
  Ni  Ni3157  1  0.66666667  0.44476567  0.34733054  1.0
  Ni  Ni3158  1  0.66666667  0.77809900  0.34733054  1.0
  Ni  Ni3159  1  0.00000000  0.27809900  0.38899721  1.0
  Ni  Ni3160  1  0.00000000  0.61143233  0.38899721  1.0
  Ni  Ni3161  1  0.00000000  0.94476567  0.38899721  1.0
  Ni  Ni3162  1  0.33333333  0.27809900  0.38899721  1.0
  Ni  Ni3163  1  0.33333333  0.61143233  0.38899721  1.0
  Ni  Ni3164  1  0.33333333  0.94476567  0.38899721  1.0
  Ni  Ni3165  1  0.66666667  0.27809900  0.38899721  1.0
  Ni  Ni3166  1  0.66666667  0.61143233  0.38899721  1.0
  Ni  Ni3167  1  0.66666667  0.94476567  0.38899721  1.0
  Ni  Ni3168  1  0.11111111  0.02788983  0.40977825  1.0
  Ni  Ni3169  1  0.11111111  0.36122317  0.40977825  1.0
  Ni  Ni3170  1  0.11111111  0.69455650  0.40977825  1.0
  Ni  Ni3171  1  0.44444444  0.02788983  0.40977825  1.0
  Ni  Ni3172  1  0.44444444  0.36122317  0.40977825  1.0
  Ni  Ni3173  1  0.44444444  0.69455650  0.40977825  1.0
  Ni  Ni3174  1  0.77777778  0.02788983  0.40977825  1.0
  Ni  Ni3175  1  0.77777778  0.36122317  0.40977825  1.0
  Ni  Ni3176  1  0.77777778  0.69455650  0.40977825  1.0
  Ni  Ni3177  1  0.11111111  0.19455650  0.36811158  1.0
  Ni  Ni3178  1  0.11111111  0.52788983  0.36811158  1.0
  Ni  Ni3179  1  0.11111111  0.86122317  0.36811158  1.0
  Ni  Ni3180  1  0.44444444  0.19455650  0.36811158  1.0
  Ni  Ni3181  1  0.44444444  0.52788983  0.36811158  1.0
  Ni  Ni3182  1  0.44444444  0.86122317  0.36811158  1.0
  Ni  Ni3183  1  0.77777778  0.19455650  0.36811158  1.0
  Ni  Ni3184  1  0.77777778  0.52788983  0.36811158  1.0
  Ni  Ni3185  1  0.77777778  0.86122317  0.36811158  1.0
  Ni  Ni3186  1  0.22222222  0.13877683  0.35416667  1.0
  Ni  Ni3187  1  0.22222222  0.47211017  0.35416667  1.0
  Ni  Ni3188  1  0.22222222  0.80544350  0.35416667  1.0
  Ni  Ni3189  1  0.55555556  0.13877683  0.35416667  1.0
  Ni  Ni3190  1  0.55555556  0.47211017  0.35416667  1.0
  Ni  Ni3191  1  0.55555556  0.80544350  0.35416667  1.0
  Ni  Ni3192  1  0.88888889  0.13877683  0.35416667  1.0
  Ni  Ni3193  1  0.88888889  0.47211017  0.35416667  1.0
  Ni  Ni3194  1  0.88888889  0.80544350  0.35416667  1.0
  Ni  Ni3195  1  0.22222222  0.30544350  0.39583333  1.0
  Ni  Ni3196  1  0.22222222  0.63877683  0.39583333  1.0
  Ni  Ni3197  1  0.22222222  0.97211017  0.39583333  1.0
  Ni  Ni3198  1  0.55555556  0.30544350  0.39583333  1.0
  Ni  Ni3199  1  0.55555556  0.63877683  0.39583333  1.0
  Ni  Ni3200  1  0.55555556  0.97211017  0.39583333  1.0
  Ni  Ni3201  1  0.88888889  0.30544350  0.39583333  1.0
  Ni  Ni3202  1  0.88888889  0.63877683  0.39583333  1.0
  Ni  Ni3203  1  0.88888889  0.97211017  0.39583333  1.0
  Ni  Ni3204  1  0.22222222  0.11122317  0.34727825  1.0
  Ni  Ni3205  1  0.22222222  0.44455650  0.34727825  1.0
  Ni  Ni3206  1  0.22222222  0.77788983  0.34727825  1.0
  Ni  Ni3207  1  0.55555556  0.11122317  0.34727825  1.0
  Ni  Ni3208  1  0.55555556  0.44455650  0.34727825  1.0
  Ni  Ni3209  1  0.55555556  0.77788983  0.34727825  1.0
  Ni  Ni3210  1  0.88888889  0.11122317  0.34727825  1.0
  Ni  Ni3211  1  0.88888889  0.44455650  0.34727825  1.0
  Ni  Ni3212  1  0.88888889  0.77788983  0.34727825  1.0
  Ni  Ni3213  1  0.22222222  0.27788983  0.38894492  1.0
  Ni  Ni3214  1  0.22222222  0.61122317  0.38894492  1.0
  Ni  Ni3215  1  0.22222222  0.94455650  0.38894492  1.0
  Ni  Ni3216  1  0.55555556  0.27788983  0.38894492  1.0
  Ni  Ni3217  1  0.55555556  0.61122317  0.38894492  1.0
  Ni  Ni3218  1  0.55555556  0.94455650  0.38894492  1.0
  Ni  Ni3219  1  0.88888889  0.27788983  0.38894492  1.0
  Ni  Ni3220  1  0.88888889  0.61122317  0.38894492  1.0
  Ni  Ni3221  1  0.88888889  0.94455650  0.38894492  1.0
  Ni  Ni3222  1  0.11111111  0.05544350  0.33333333  1.0
  Ni  Ni3223  1  0.11111111  0.38877683  0.33333333  1.0
  Ni  Ni3224  1  0.11111111  0.72211017  0.33333333  1.0
  Ni  Ni3225  1  0.44444444  0.05544350  0.33333333  1.0
  Ni  Ni3226  1  0.44444444  0.38877683  0.33333333  1.0
  Ni  Ni3227  1  0.44444444  0.72211017  0.33333333  1.0
  Ni  Ni3228  1  0.77777778  0.05544350  0.33333333  1.0
  Ni  Ni3229  1  0.77777778  0.38877683  0.33333333  1.0
  Ni  Ni3230  1  0.77777778  0.72211017  0.33333333  1.0
  Ni  Ni3231  1  0.11111111  0.22211017  0.37500000  1.0
  Ni  Ni3232  1  0.11111111  0.55544350  0.37500000  1.0
  Ni  Ni3233  1  0.11111111  0.88877683  0.37500000  1.0
  Ni  Ni3234  1  0.44444444  0.22211017  0.37500000  1.0
  Ni  Ni3235  1  0.44444444  0.55544350  0.37500000  1.0
  Ni  Ni3236  1  0.44444444  0.88877683  0.37500000  1.0
  Ni  Ni3237  1  0.77777778  0.22211017  0.37500000  1.0
  Ni  Ni3238  1  0.77777778  0.55544350  0.37500000  1.0
  Ni  Ni3239  1  0.77777778  0.88877683  0.37500000  1.0
