# generated using pymatgen
data_Y2Ni7
_symmetry_space_group_name_H-M   'P 1'
_cell_length_a   39.09329330
_cell_length_b   73.82160590
_cell_length_c   29.55175200
_cell_angle_alpha   84.25632285
_cell_angle_beta   79.10660535
_cell_angle_gamma   79.09797563
_symmetry_Int_Tables_number   1
_chemical_formula_structural   Y2Ni7
_chemical_formula_sum   'Y576 Ni2016'
_cell_volume   82052.77905665
_cell_formula_units_Z   288
loop_
 _symmetry_equiv_pos_site_id
 _symmetry_equiv_pos_as_xyz
  1  'x, y, z'
loop_
 _atom_site_type_symbol
 _atom_site_label
 _atom_site_symmetry_multiplicity
 _atom_site_fract_x
 _atom_site_fract_y
 _atom_site_fract_z
 _atom_site_occupancy
  Ni  Ni0  1  0.10891098  0.00000000  0.89108902  1.0
  Ni  Ni1  1  0.10891098  0.33333333  0.89108902  1.0
  Ni  Ni2  1  0.10891098  0.66666667  0.89108902  1.0
  Ni  Ni3  1  0.44224431  0.00000000  0.89108902  1.0
  Ni  Ni4  1  0.44224431  0.33333333  0.89108902  1.0
  Ni  Ni5  1  0.44224431  0.66666667  0.89108902  1.0
  Ni  Ni6  1  0.77557765  0.00000000  0.89108902  1.0
  Ni  Ni7  1  0.77557765  0.33333333  0.89108902  1.0
  Ni  Ni8  1  0.77557765  0.66666667  0.89108902  1.0
  Ni  Ni9  1  0.22002209  0.00000000  0.94664457  1.0
  Ni  Ni10  1  0.22002209  0.33333333  0.94664457  1.0
  Ni  Ni11  1  0.22002209  0.66666667  0.94664457  1.0
  Ni  Ni12  1  0.55335543  0.00000000  0.94664457  1.0
  Ni  Ni13  1  0.55335543  0.33333333  0.94664457  1.0
  Ni  Ni14  1  0.55335543  0.66666667  0.94664457  1.0
  Ni  Ni15  1  0.88668876  0.00000000  0.94664457  1.0
  Ni  Ni16  1  0.88668876  0.33333333  0.94664457  1.0
  Ni  Ni17  1  0.88668876  0.66666667  0.94664457  1.0
  Ni  Ni18  1  0.27557765  0.16666667  0.97442235  1.0
  Ni  Ni19  1  0.27557765  0.50000000  0.97442235  1.0
  Ni  Ni20  1  0.27557765  0.83333333  0.97442235  1.0
  Ni  Ni21  1  0.60891098  0.16666667  0.97442235  1.0
  Ni  Ni22  1  0.60891098  0.50000000  0.97442235  1.0
  Ni  Ni23  1  0.60891098  0.83333333  0.97442235  1.0
  Ni  Ni24  1  0.94224431  0.16666667  0.97442235  1.0
  Ni  Ni25  1  0.94224431  0.50000000  0.97442235  1.0
  Ni  Ni26  1  0.94224431  0.83333333  0.97442235  1.0
  Ni  Ni27  1  0.16446654  0.16666667  0.91886680  1.0
  Ni  Ni28  1  0.16446654  0.50000000  0.91886680  1.0
  Ni  Ni29  1  0.16446654  0.83333333  0.91886680  1.0
  Ni  Ni30  1  0.49779987  0.16666667  0.91886680  1.0
  Ni  Ni31  1  0.49779987  0.50000000  0.91886680  1.0
  Ni  Ni32  1  0.49779987  0.83333333  0.91886680  1.0
  Ni  Ni33  1  0.83113320  0.16666667  0.91886680  1.0
  Ni  Ni34  1  0.83113320  0.50000000  0.91886680  1.0
  Ni  Ni35  1  0.83113320  0.83333333  0.91886680  1.0
  Ni  Ni36  1  0.22918465  0.25000000  0.92330302  1.0
  Ni  Ni37  1  0.22918465  0.58333333  0.92330302  1.0
  Ni  Ni38  1  0.22918465  0.91666667  0.92330302  1.0
  Ni  Ni39  1  0.56251798  0.25000000  0.92330302  1.0
  Ni  Ni40  1  0.56251798  0.58333333  0.92330302  1.0
  Ni  Ni41  1  0.56251798  0.91666667  0.92330302  1.0
  Ni  Ni42  1  0.89585131  0.25000000  0.92330302  1.0
  Ni  Ni43  1  0.89585131  0.58333333  0.92330302  1.0
  Ni  Ni44  1  0.89585131  0.91666667  0.92330302  1.0
  Ni  Ni45  1  0.00696243  0.25000000  0.97885857  1.0
  Ni  Ni46  1  0.00696243  0.58333333  0.97885857  1.0
  Ni  Ni47  1  0.00696243  0.91666667  0.97885857  1.0
  Ni  Ni48  1  0.34029576  0.25000000  0.97885857  1.0
  Ni  Ni49  1  0.34029576  0.58333333  0.97885857  1.0
  Ni  Ni50  1  0.34029576  0.91666667  0.97885857  1.0
  Ni  Ni51  1  0.67362909  0.25000000  0.97885857  1.0
  Ni  Ni52  1  0.67362909  0.58333333  0.97885857  1.0
  Ni  Ni53  1  0.67362909  0.91666667  0.97885857  1.0
  Ni  Ni54  1  0.11807354  0.25000000  0.95151596  1.0
  Ni  Ni55  1  0.11807354  0.58333333  0.95151596  1.0
  Ni  Ni56  1  0.11807354  0.91666667  0.95151596  1.0
  Ni  Ni57  1  0.45140687  0.25000000  0.95151596  1.0
  Ni  Ni58  1  0.45140687  0.58333333  0.95151596  1.0
  Ni  Ni59  1  0.45140687  0.91666667  0.95151596  1.0
  Ni  Ni60  1  0.78474020  0.25000000  0.95151596  1.0
  Ni  Ni61  1  0.78474020  0.58333333  0.95151596  1.0
  Ni  Ni62  1  0.78474020  0.91666667  0.95151596  1.0
  Ni  Ni63  1  0.00696243  0.25000000  0.89596041  1.0
  Ni  Ni64  1  0.00696243  0.58333333  0.89596041  1.0
  Ni  Ni65  1  0.00696243  0.91666667  0.89596041  1.0
  Ni  Ni66  1  0.34029576  0.25000000  0.89596041  1.0
  Ni  Ni67  1  0.34029576  0.58333333  0.89596041  1.0
  Ni  Ni68  1  0.34029576  0.91666667  0.89596041  1.0
  Ni  Ni69  1  0.67362909  0.25000000  0.89596041  1.0
  Ni  Ni70  1  0.67362909  0.58333333  0.89596041  1.0
  Ni  Ni71  1  0.67362909  0.91666667  0.89596041  1.0
  Ni  Ni72  1  0.17391920  0.25000000  0.89567030  1.0
  Ni  Ni73  1  0.17391920  0.58333333  0.89567030  1.0
  Ni  Ni74  1  0.17391920  0.91666667  0.89567030  1.0
  Ni  Ni75  1  0.50725254  0.25000000  0.89567030  1.0
  Ni  Ni76  1  0.50725254  0.58333333  0.89567030  1.0
  Ni  Ni77  1  0.50725254  0.91666667  0.89567030  1.0
  Ni  Ni78  1  0.84058587  0.25000000  0.89567030  1.0
  Ni  Ni79  1  0.84058587  0.58333333  0.89567030  1.0
  Ni  Ni80  1  0.84058587  0.91666667  0.89567030  1.0
  Ni  Ni81  1  0.28503031  0.25000000  0.95122585  1.0
  Ni  Ni82  1  0.28503031  0.58333333  0.95122585  1.0
  Ni  Ni83  1  0.28503031  0.91666667  0.95122585  1.0
  Ni  Ni84  1  0.61836365  0.25000000  0.95122585  1.0
  Ni  Ni85  1  0.61836365  0.58333333  0.95122585  1.0
  Ni  Ni86  1  0.61836365  0.91666667  0.95122585  1.0
  Ni  Ni87  1  0.95169698  0.25000000  0.95122585  1.0
  Ni  Ni88  1  0.95169698  0.58333333  0.95122585  1.0
  Ni  Ni89  1  0.95169698  0.91666667  0.95122585  1.0
  Ni  Ni90  1  0.21085954  0.08333333  0.96998613  1.0
  Ni  Ni91  1  0.21085954  0.41666667  0.96998613  1.0
  Ni  Ni92  1  0.21085954  0.75000000  0.96998613  1.0
  Ni  Ni93  1  0.54419287  0.08333333  0.96998613  1.0
  Ni  Ni94  1  0.54419287  0.41666667  0.96998613  1.0
  Ni  Ni95  1  0.54419287  0.75000000  0.96998613  1.0
  Ni  Ni96  1  0.87752620  0.08333333  0.96998613  1.0
  Ni  Ni97  1  0.87752620  0.41666667  0.96998613  1.0
  Ni  Ni98  1  0.87752620  0.75000000  0.96998613  1.0
  Ni  Ni99  1  0.09974843  0.08333333  0.91443057  1.0
  Ni  Ni100  1  0.09974843  0.41666667  0.91443057  1.0
  Ni  Ni101  1  0.09974843  0.75000000  0.91443057  1.0
  Ni  Ni102  1  0.43308176  0.08333333  0.91443057  1.0
  Ni  Ni103  1  0.43308176  0.41666667  0.91443057  1.0
  Ni  Ni104  1  0.43308176  0.75000000  0.91443057  1.0
  Ni  Ni105  1  0.76641509  0.08333333  0.91443057  1.0
  Ni  Ni106  1  0.76641509  0.41666667  0.91443057  1.0
  Ni  Ni107  1  0.76641509  0.75000000  0.91443057  1.0
  Ni  Ni108  1  0.32197065  0.08333333  0.94177319  1.0
  Ni  Ni109  1  0.32197065  0.41666667  0.94177319  1.0
  Ni  Ni110  1  0.32197065  0.75000000  0.94177319  1.0
  Ni  Ni111  1  0.65530398  0.08333333  0.94177319  1.0
  Ni  Ni112  1  0.65530398  0.41666667  0.94177319  1.0
  Ni  Ni113  1  0.65530398  0.75000000  0.94177319  1.0
  Ni  Ni114  1  0.98863731  0.08333333  0.94177319  1.0
  Ni  Ni115  1  0.98863731  0.41666667  0.94177319  1.0
  Ni  Ni116  1  0.98863731  0.75000000  0.94177319  1.0
  Ni  Ni117  1  0.09974843  0.08333333  0.99732874  1.0
  Ni  Ni118  1  0.09974843  0.41666667  0.99732874  1.0
  Ni  Ni119  1  0.09974843  0.75000000  0.99732874  1.0
  Ni  Ni120  1  0.43308176  0.08333333  0.99732874  1.0
  Ni  Ni121  1  0.43308176  0.41666667  0.99732874  1.0
  Ni  Ni122  1  0.43308176  0.75000000  0.99732874  1.0
  Ni  Ni123  1  0.76641509  0.08333333  0.99732874  1.0
  Ni  Ni124  1  0.76641509  0.41666667  0.99732874  1.0
  Ni  Ni125  1  0.76641509  0.75000000  0.99732874  1.0
  Ni  Ni126  1  0.26612498  0.08333333  0.99761885  1.0
  Ni  Ni127  1  0.26612498  0.41666667  0.99761885  1.0
  Ni  Ni128  1  0.26612498  0.75000000  0.99761885  1.0
  Ni  Ni129  1  0.59945831  0.08333333  0.99761885  1.0
  Ni  Ni130  1  0.59945831  0.41666667  0.99761885  1.0
  Ni  Ni131  1  0.59945831  0.75000000  0.99761885  1.0
  Ni  Ni132  1  0.93279165  0.08333333  0.99761885  1.0
  Ni  Ni133  1  0.93279165  0.41666667  0.99761885  1.0
  Ni  Ni134  1  0.93279165  0.75000000  0.99761885  1.0
  Ni  Ni135  1  0.15501387  0.08333333  0.94206330  1.0
  Ni  Ni136  1  0.15501387  0.41666667  0.94206330  1.0
  Ni  Ni137  1  0.15501387  0.75000000  0.94206330  1.0
  Ni  Ni138  1  0.48834720  0.08333333  0.94206330  1.0
  Ni  Ni139  1  0.48834720  0.41666667  0.94206330  1.0
  Ni  Ni140  1  0.48834720  0.75000000  0.94206330  1.0
  Ni  Ni141  1  0.82168054  0.08333333  0.94206330  1.0
  Ni  Ni142  1  0.82168054  0.41666667  0.94206330  1.0
  Ni  Ni143  1  0.82168054  0.75000000  0.94206330  1.0
  Ni  Ni144  1  0.21114687  0.30449033  0.91447263  1.0
  Ni  Ni145  1  0.21114687  0.63782367  0.91447263  1.0
  Ni  Ni146  1  0.21114687  0.97115700  0.91447263  1.0
  Ni  Ni147  1  0.54448020  0.30449033  0.91447263  1.0
  Ni  Ni148  1  0.54448020  0.63782367  0.91447263  1.0
  Ni  Ni149  1  0.54448020  0.97115700  0.91447263  1.0
  Ni  Ni150  1  0.87781354  0.30449033  0.91447263  1.0
  Ni  Ni151  1  0.87781354  0.63782367  0.91447263  1.0
  Ni  Ni152  1  0.87781354  0.97115700  0.91447263  1.0
  Ni  Ni153  1  0.32225798  0.30449033  0.97002819  1.0
  Ni  Ni154  1  0.32225798  0.63782367  0.97002819  1.0
  Ni  Ni155  1  0.32225798  0.97115700  0.97002819  1.0
  Ni  Ni156  1  0.65559131  0.30449033  0.97002819  1.0
  Ni  Ni157  1  0.65559131  0.63782367  0.97002819  1.0
  Ni  Ni158  1  0.65559131  0.97115700  0.97002819  1.0
  Ni  Ni159  1  0.98892465  0.30449033  0.97002819  1.0
  Ni  Ni160  1  0.98892465  0.63782367  0.97002819  1.0
  Ni  Ni161  1  0.98892465  0.97115700  0.97002819  1.0
  Ni  Ni162  1  0.10003576  0.30449033  0.94212007  1.0
  Ni  Ni163  1  0.10003576  0.63782367  0.94212007  1.0
  Ni  Ni164  1  0.10003576  0.97115700  0.94212007  1.0
  Ni  Ni165  1  0.43336909  0.30449033  0.94212007  1.0
  Ni  Ni166  1  0.43336909  0.63782367  0.94212007  1.0
  Ni  Ni167  1  0.43336909  0.97115700  0.94212007  1.0
  Ni  Ni168  1  0.76670243  0.30449033  0.94212007  1.0
  Ni  Ni169  1  0.76670243  0.63782367  0.94212007  1.0
  Ni  Ni170  1  0.76670243  0.97115700  0.94212007  1.0
  Ni  Ni171  1  0.21114687  0.30449033  0.99767563  1.0
  Ni  Ni172  1  0.21114687  0.63782367  0.99767563  1.0
  Ni  Ni173  1  0.21114687  0.97115700  0.99767563  1.0
  Ni  Ni174  1  0.54448020  0.30449033  0.99767563  1.0
  Ni  Ni175  1  0.54448020  0.63782367  0.99767563  1.0
  Ni  Ni176  1  0.54448020  0.97115700  0.99767563  1.0
  Ni  Ni177  1  0.87781354  0.30449033  0.99767563  1.0
  Ni  Ni178  1  0.87781354  0.63782367  0.99767563  1.0
  Ni  Ni179  1  0.87781354  0.97115700  0.99767563  1.0
  Ni  Ni180  1  0.04439331  0.30449033  0.99776252  1.0
  Ni  Ni181  1  0.04439331  0.63782367  0.99776252  1.0
  Ni  Ni182  1  0.04439331  0.97115700  0.99776252  1.0
  Ni  Ni183  1  0.37772665  0.30449033  0.99776252  1.0
  Ni  Ni184  1  0.37772665  0.63782367  0.99776252  1.0
  Ni  Ni185  1  0.37772665  0.97115700  0.99776252  1.0
  Ni  Ni186  1  0.71105998  0.30449033  0.99776252  1.0
  Ni  Ni187  1  0.71105998  0.63782367  0.99776252  1.0
  Ni  Ni188  1  0.71105998  0.97115700  0.99776252  1.0
  Ni  Ni189  1  0.26661554  0.30449033  0.94220696  1.0
  Ni  Ni190  1  0.26661554  0.63782367  0.94220696  1.0
  Ni  Ni191  1  0.26661554  0.97115700  0.94220696  1.0
  Ni  Ni192  1  0.59994887  0.30449033  0.94220696  1.0
  Ni  Ni193  1  0.59994887  0.63782367  0.94220696  1.0
  Ni  Ni194  1  0.59994887  0.97115700  0.94220696  1.0
  Ni  Ni195  1  0.93328220  0.30449033  0.94220696  1.0
  Ni  Ni196  1  0.93328220  0.63782367  0.94220696  1.0
  Ni  Ni197  1  0.93328220  0.97115700  0.94220696  1.0
  Ni  Ni198  1  0.22889731  0.02884300  0.97881652  1.0
  Ni  Ni199  1  0.22889731  0.36217633  0.97881652  1.0
  Ni  Ni200  1  0.22889731  0.69550967  0.97881652  1.0
  Ni  Ni201  1  0.56223065  0.02884300  0.97881652  1.0
  Ni  Ni202  1  0.56223065  0.36217633  0.97881652  1.0
  Ni  Ni203  1  0.56223065  0.69550967  0.97881652  1.0
  Ni  Ni204  1  0.89556398  0.02884300  0.97881652  1.0
  Ni  Ni205  1  0.89556398  0.36217633  0.97881652  1.0
  Ni  Ni206  1  0.89556398  0.69550967  0.97881652  1.0
  Ni  Ni207  1  0.11778620  0.02884300  0.92326096  1.0
  Ni  Ni208  1  0.11778620  0.36217633  0.92326096  1.0
  Ni  Ni209  1  0.11778620  0.69550967  0.92326096  1.0
  Ni  Ni210  1  0.45111954  0.02884300  0.92326096  1.0
  Ni  Ni211  1  0.45111954  0.36217633  0.92326096  1.0
  Ni  Ni212  1  0.45111954  0.69550967  0.92326096  1.0
  Ni  Ni213  1  0.78445287  0.02884300  0.92326096  1.0
  Ni  Ni214  1  0.78445287  0.36217633  0.92326096  1.0
  Ni  Ni215  1  0.78445287  0.69550967  0.92326096  1.0
  Ni  Ni216  1  0.00667509  0.02884300  0.95116907  1.0
  Ni  Ni217  1  0.00667509  0.36217633  0.95116907  1.0
  Ni  Ni218  1  0.00667509  0.69550967  0.95116907  1.0
  Ni  Ni219  1  0.34000843  0.02884300  0.95116907  1.0
  Ni  Ni220  1  0.34000843  0.36217633  0.95116907  1.0
  Ni  Ni221  1  0.34000843  0.69550967  0.95116907  1.0
  Ni  Ni222  1  0.67334176  0.02884300  0.95116907  1.0
  Ni  Ni223  1  0.67334176  0.36217633  0.95116907  1.0
  Ni  Ni224  1  0.67334176  0.69550967  0.95116907  1.0
  Ni  Ni225  1  0.22889731  0.02884300  0.89561352  1.0
  Ni  Ni226  1  0.22889731  0.36217633  0.89561352  1.0
  Ni  Ni227  1  0.22889731  0.69550967  0.89561352  1.0
  Ni  Ni228  1  0.56223065  0.02884300  0.89561352  1.0
  Ni  Ni229  1  0.56223065  0.36217633  0.89561352  1.0
  Ni  Ni230  1  0.56223065  0.69550967  0.89561352  1.0
  Ni  Ni231  1  0.89556398  0.02884300  0.89561352  1.0
  Ni  Ni232  1  0.89556398  0.36217633  0.89561352  1.0
  Ni  Ni233  1  0.89556398  0.69550967  0.89561352  1.0
  Ni  Ni234  1  0.06231754  0.02884300  0.89552663  1.0
  Ni  Ni235  1  0.06231754  0.36217633  0.89552663  1.0
  Ni  Ni236  1  0.06231754  0.69550967  0.89552663  1.0
  Ni  Ni237  1  0.39565087  0.02884300  0.89552663  1.0
  Ni  Ni238  1  0.39565087  0.36217633  0.89552663  1.0
  Ni  Ni239  1  0.39565087  0.69550967  0.89552663  1.0
  Ni  Ni240  1  0.72898420  0.02884300  0.89552663  1.0
  Ni  Ni241  1  0.72898420  0.36217633  0.89552663  1.0
  Ni  Ni242  1  0.72898420  0.69550967  0.89552663  1.0
  Ni  Ni243  1  0.17342865  0.02884300  0.95108219  1.0
  Ni  Ni244  1  0.17342865  0.36217633  0.95108219  1.0
  Ni  Ni245  1  0.17342865  0.69550967  0.95108219  1.0
  Ni  Ni246  1  0.50676198  0.02884300  0.95108219  1.0
  Ni  Ni247  1  0.50676198  0.36217633  0.95108219  1.0
  Ni  Ni248  1  0.50676198  0.69550967  0.95108219  1.0
  Ni  Ni249  1  0.84009531  0.02884300  0.95108219  1.0
  Ni  Ni250  1  0.84009531  0.36217633  0.95108219  1.0
  Ni  Ni251  1  0.84009531  0.69550967  0.95108219  1.0
  Ni  Ni252  1  0.19257043  0.13782367  0.96065307  1.0
  Ni  Ni253  1  0.19257043  0.47115700  0.96065307  1.0
  Ni  Ni254  1  0.19257043  0.80449033  0.96065307  1.0
  Ni  Ni255  1  0.52590376  0.13782367  0.96065307  1.0
  Ni  Ni256  1  0.52590376  0.47115700  0.96065307  1.0
  Ni  Ni257  1  0.52590376  0.80449033  0.96065307  1.0
  Ni  Ni258  1  0.85923709  0.13782367  0.96065307  1.0
  Ni  Ni259  1  0.85923709  0.47115700  0.96065307  1.0
  Ni  Ni260  1  0.85923709  0.80449033  0.96065307  1.0
  Ni  Ni261  1  0.08145931  0.13782367  0.90509752  1.0
  Ni  Ni262  1  0.08145931  0.47115700  0.90509752  1.0
  Ni  Ni263  1  0.08145931  0.80449033  0.90509752  1.0
  Ni  Ni264  1  0.41479265  0.13782367  0.90509752  1.0
  Ni  Ni265  1  0.41479265  0.47115700  0.90509752  1.0
  Ni  Ni266  1  0.41479265  0.80449033  0.90509752  1.0
  Ni  Ni267  1  0.74812598  0.13782367  0.90509752  1.0
  Ni  Ni268  1  0.74812598  0.47115700  0.90509752  1.0
  Ni  Ni269  1  0.74812598  0.80449033  0.90509752  1.0
  Ni  Ni270  1  0.30368154  0.13782367  0.93300563  1.0
  Ni  Ni271  1  0.30368154  0.47115700  0.93300563  1.0
  Ni  Ni272  1  0.30368154  0.80449033  0.93300563  1.0
  Ni  Ni273  1  0.63701487  0.13782367  0.93300563  1.0
  Ni  Ni274  1  0.63701487  0.47115700  0.93300563  1.0
  Ni  Ni275  1  0.63701487  0.80449033  0.93300563  1.0
  Ni  Ni276  1  0.97034820  0.13782367  0.93300563  1.0
  Ni  Ni277  1  0.97034820  0.47115700  0.93300563  1.0
  Ni  Ni278  1  0.97034820  0.80449033  0.93300563  1.0
  Ni  Ni279  1  0.08145931  0.13782367  0.98856119  1.0
  Ni  Ni280  1  0.08145931  0.47115700  0.98856119  1.0
  Ni  Ni281  1  0.08145931  0.80449033  0.98856119  1.0
  Ni  Ni282  1  0.41479265  0.13782367  0.98856119  1.0
  Ni  Ni283  1  0.41479265  0.47115700  0.98856119  1.0
  Ni  Ni284  1  0.41479265  0.80449033  0.98856119  1.0
  Ni  Ni285  1  0.74812598  0.13782367  0.98856119  1.0
  Ni  Ni286  1  0.74812598  0.47115700  0.98856119  1.0
  Ni  Ni287  1  0.74812598  0.80449033  0.98856119  1.0
  Ni  Ni288  1  0.24821287  0.13782367  0.98847430  1.0
  Ni  Ni289  1  0.24821287  0.47115700  0.98847430  1.0
  Ni  Ni290  1  0.24821287  0.80449033  0.98847430  1.0
  Ni  Ni291  1  0.58154620  0.13782367  0.98847430  1.0
  Ni  Ni292  1  0.58154620  0.47115700  0.98847430  1.0
  Ni  Ni293  1  0.58154620  0.80449033  0.98847430  1.0
  Ni  Ni294  1  0.91487954  0.13782367  0.98847430  1.0
  Ni  Ni295  1  0.91487954  0.47115700  0.98847430  1.0
  Ni  Ni296  1  0.91487954  0.80449033  0.98847430  1.0
  Ni  Ni297  1  0.13710176  0.13782367  0.93291874  1.0
  Ni  Ni298  1  0.13710176  0.47115700  0.93291874  1.0
  Ni  Ni299  1  0.13710176  0.80449033  0.93291874  1.0
  Ni  Ni300  1  0.47043509  0.13782367  0.93291874  1.0
  Ni  Ni301  1  0.47043509  0.47115700  0.93291874  1.0
  Ni  Ni302  1  0.47043509  0.80449033  0.93291874  1.0
  Ni  Ni303  1  0.80376843  0.13782367  0.93291874  1.0
  Ni  Ni304  1  0.80376843  0.47115700  0.93291874  1.0
  Ni  Ni305  1  0.80376843  0.80449033  0.93291874  1.0
  Ni  Ni306  1  0.24747376  0.19550967  0.93263607  1.0
  Ni  Ni307  1  0.24747376  0.52884300  0.93263607  1.0
  Ni  Ni308  1  0.24747376  0.86217633  0.93263607  1.0
  Ni  Ni309  1  0.58080709  0.19550967  0.93263607  1.0
  Ni  Ni310  1  0.58080709  0.52884300  0.93263607  1.0
  Ni  Ni311  1  0.58080709  0.86217633  0.93263607  1.0
  Ni  Ni312  1  0.91414043  0.19550967  0.93263607  1.0
  Ni  Ni313  1  0.91414043  0.52884300  0.93263607  1.0
  Ni  Ni314  1  0.91414043  0.86217633  0.93263607  1.0
  Ni  Ni315  1  0.02525154  0.19550967  0.98819163  1.0
  Ni  Ni316  1  0.02525154  0.52884300  0.98819163  1.0
  Ni  Ni317  1  0.02525154  0.86217633  0.98819163  1.0
  Ni  Ni318  1  0.35858487  0.19550967  0.98819163  1.0
  Ni  Ni319  1  0.35858487  0.52884300  0.98819163  1.0
  Ni  Ni320  1  0.35858487  0.86217633  0.98819163  1.0
  Ni  Ni321  1  0.69191820  0.19550967  0.98819163  1.0
  Ni  Ni322  1  0.69191820  0.52884300  0.98819163  1.0
  Ni  Ni323  1  0.69191820  0.86217633  0.98819163  1.0
  Ni  Ni324  1  0.13636265  0.19550967  0.96028352  1.0
  Ni  Ni325  1  0.13636265  0.52884300  0.96028352  1.0
  Ni  Ni326  1  0.13636265  0.86217633  0.96028352  1.0
  Ni  Ni327  1  0.46969598  0.19550967  0.96028352  1.0
  Ni  Ni328  1  0.46969598  0.52884300  0.96028352  1.0
  Ni  Ni329  1  0.46969598  0.86217633  0.96028352  1.0
  Ni  Ni330  1  0.80302931  0.19550967  0.96028352  1.0
  Ni  Ni331  1  0.80302931  0.52884300  0.96028352  1.0
  Ni  Ni332  1  0.80302931  0.86217633  0.96028352  1.0
  Ni  Ni333  1  0.02525154  0.19550967  0.90472796  1.0
  Ni  Ni334  1  0.02525154  0.52884300  0.90472796  1.0
  Ni  Ni335  1  0.02525154  0.86217633  0.90472796  1.0
  Ni  Ni336  1  0.35858487  0.19550967  0.90472796  1.0
  Ni  Ni337  1  0.35858487  0.52884300  0.90472796  1.0
  Ni  Ni338  1  0.35858487  0.86217633  0.90472796  1.0
  Ni  Ni339  1  0.69191820  0.19550967  0.90472796  1.0
  Ni  Ni340  1  0.69191820  0.52884300  0.90472796  1.0
  Ni  Ni341  1  0.69191820  0.86217633  0.90472796  1.0
  Ni  Ni342  1  0.19183131  0.19550967  0.90481485  1.0
  Ni  Ni343  1  0.19183131  0.52884300  0.90481485  1.0
  Ni  Ni344  1  0.19183131  0.86217633  0.90481485  1.0
  Ni  Ni345  1  0.52516465  0.19550967  0.90481485  1.0
  Ni  Ni346  1  0.52516465  0.52884300  0.90481485  1.0
  Ni  Ni347  1  0.52516465  0.86217633  0.90481485  1.0
  Ni  Ni348  1  0.85849798  0.19550967  0.90481485  1.0
  Ni  Ni349  1  0.85849798  0.52884300  0.90481485  1.0
  Ni  Ni350  1  0.85849798  0.86217633  0.90481485  1.0
  Ni  Ni351  1  0.30294243  0.19550967  0.96037041  1.0
  Ni  Ni352  1  0.30294243  0.52884300  0.96037041  1.0
  Ni  Ni353  1  0.30294243  0.86217633  0.96037041  1.0
  Ni  Ni354  1  0.63627576  0.19550967  0.96037041  1.0
  Ni  Ni355  1  0.63627576  0.52884300  0.96037041  1.0
  Ni  Ni356  1  0.63627576  0.86217633  0.96037041  1.0
  Ni  Ni357  1  0.96960909  0.19550967  0.96037041  1.0
  Ni  Ni358  1  0.96960909  0.52884300  0.96037041  1.0
  Ni  Ni359  1  0.96960909  0.86217633  0.96037041  1.0
  Ni  Ni360  1  0.23875476  0.27713533  0.95601091  1.0
  Ni  Ni361  1  0.23875476  0.61046867  0.95601091  1.0
  Ni  Ni362  1  0.23875476  0.94380200  0.95601091  1.0
  Ni  Ni363  1  0.57208809  0.27713533  0.95601091  1.0
  Ni  Ni364  1  0.57208809  0.61046867  0.95601091  1.0
  Ni  Ni365  1  0.57208809  0.94380200  0.95601091  1.0
  Ni  Ni366  1  0.90542143  0.27713533  0.95601091  1.0
  Ni  Ni367  1  0.90542143  0.61046867  0.95601091  1.0
  Ni  Ni368  1  0.90542143  0.94380200  0.95601091  1.0
  Ni  Ni369  1  0.12764365  0.27713533  0.90045535  1.0
  Ni  Ni370  1  0.12764365  0.61046867  0.90045535  1.0
  Ni  Ni371  1  0.12764365  0.94380200  0.90045535  1.0
  Ni  Ni372  1  0.46097698  0.27713533  0.90045535  1.0
  Ni  Ni373  1  0.46097698  0.61046867  0.90045535  1.0
  Ni  Ni374  1  0.46097698  0.94380200  0.90045535  1.0
  Ni  Ni375  1  0.79431031  0.27713533  0.90045535  1.0
  Ni  Ni376  1  0.79431031  0.61046867  0.90045535  1.0
  Ni  Ni377  1  0.79431031  0.94380200  0.90045535  1.0
  Ni  Ni378  1  0.31240054  0.05619800  0.99283380  1.0
  Ni  Ni379  1  0.31240054  0.38953133  0.99283380  1.0
  Ni  Ni380  1  0.31240054  0.72286467  0.99283380  1.0
  Ni  Ni381  1  0.64573387  0.05619800  0.99283380  1.0
  Ni  Ni382  1  0.64573387  0.38953133  0.99283380  1.0
  Ni  Ni383  1  0.64573387  0.72286467  0.99283380  1.0
  Ni  Ni384  1  0.97906720  0.05619800  0.99283380  1.0
  Ni  Ni385  1  0.97906720  0.38953133  0.99283380  1.0
  Ni  Ni386  1  0.97906720  0.72286467  0.99283380  1.0
  Ni  Ni387  1  0.20128943  0.05619800  0.93727824  1.0
  Ni  Ni388  1  0.20128943  0.38953133  0.93727824  1.0
  Ni  Ni389  1  0.20128943  0.72286467  0.93727824  1.0
  Ni  Ni390  1  0.53462276  0.05619800  0.93727824  1.0
  Ni  Ni391  1  0.53462276  0.38953133  0.93727824  1.0
  Ni  Ni392  1  0.53462276  0.72286467  0.93727824  1.0
  Ni  Ni393  1  0.86795609  0.05619800  0.93727824  1.0
  Ni  Ni394  1  0.86795609  0.38953133  0.93727824  1.0
  Ni  Ni395  1  0.86795609  0.72286467  0.93727824  1.0
  Ni  Ni396  1  0.29431031  0.11046867  0.98378869  1.0
  Ni  Ni397  1  0.29431031  0.44380200  0.98378869  1.0
  Ni  Ni398  1  0.29431031  0.77713533  0.98378869  1.0
  Ni  Ni399  1  0.62764365  0.11046867  0.98378869  1.0
  Ni  Ni400  1  0.62764365  0.44380200  0.98378869  1.0
  Ni  Ni401  1  0.62764365  0.77713533  0.98378869  1.0
  Ni  Ni402  1  0.96097698  0.11046867  0.98378869  1.0
  Ni  Ni403  1  0.96097698  0.44380200  0.98378869  1.0
  Ni  Ni404  1  0.96097698  0.77713533  0.98378869  1.0
  Ni  Ni405  1  0.18319920  0.11046867  0.92823313  1.0
  Ni  Ni406  1  0.18319920  0.44380200  0.92823313  1.0
  Ni  Ni407  1  0.18319920  0.77713533  0.92823313  1.0
  Ni  Ni408  1  0.51653254  0.11046867  0.92823313  1.0
  Ni  Ni409  1  0.51653254  0.44380200  0.92823313  1.0
  Ni  Ni410  1  0.51653254  0.77713533  0.92823313  1.0
  Ni  Ni411  1  0.84986587  0.11046867  0.92823313  1.0
  Ni  Ni412  1  0.84986587  0.44380200  0.92823313  1.0
  Ni  Ni413  1  0.84986587  0.77713533  0.92823313  1.0
  Ni  Ni414  1  0.25684498  0.22286467  0.96505602  1.0
  Ni  Ni415  1  0.25684498  0.55619800  0.96505602  1.0
  Ni  Ni416  1  0.25684498  0.88953133  0.96505602  1.0
  Ni  Ni417  1  0.59017831  0.22286467  0.96505602  1.0
  Ni  Ni418  1  0.59017831  0.55619800  0.96505602  1.0
  Ni  Ni419  1  0.59017831  0.88953133  0.96505602  1.0
  Ni  Ni420  1  0.92351165  0.22286467  0.96505602  1.0
  Ni  Ni421  1  0.92351165  0.55619800  0.96505602  1.0
  Ni  Ni422  1  0.92351165  0.88953133  0.96505602  1.0
  Ni  Ni423  1  0.14573387  0.22286467  0.90950046  1.0
  Ni  Ni424  1  0.14573387  0.55619800  0.90950046  1.0
  Ni  Ni425  1  0.14573387  0.88953133  0.90950046  1.0
  Ni  Ni426  1  0.47906720  0.22286467  0.90950046  1.0
  Ni  Ni427  1  0.47906720  0.55619800  0.90950046  1.0
  Ni  Ni428  1  0.47906720  0.88953133  0.90950046  1.0
  Ni  Ni429  1  0.81240054  0.22286467  0.90950046  1.0
  Ni  Ni430  1  0.81240054  0.55619800  0.90950046  1.0
  Ni  Ni431  1  0.81240054  0.88953133  0.90950046  1.0
  Ni  Ni432  1  0.01624369  0.05577967  0.90031093  1.0
  Ni  Ni433  1  0.01624369  0.38911300  0.90031093  1.0
  Ni  Ni434  1  0.01624369  0.72244633  0.90031093  1.0
  Ni  Ni435  1  0.34957702  0.05577967  0.90031093  1.0
  Ni  Ni436  1  0.34957702  0.38911300  0.90031093  1.0
  Ni  Ni437  1  0.34957702  0.72244633  0.90031093  1.0
  Ni  Ni438  1  0.68291035  0.05577967  0.90031093  1.0
  Ni  Ni439  1  0.68291035  0.38911300  0.90031093  1.0
  Ni  Ni440  1  0.68291035  0.72244633  0.90031093  1.0
  Ni  Ni441  1  0.12735480  0.05577967  0.95586648  1.0
  Ni  Ni442  1  0.12735480  0.38911300  0.95586648  1.0
  Ni  Ni443  1  0.12735480  0.72244633  0.95586648  1.0
  Ni  Ni444  1  0.46068813  0.05577967  0.95586648  1.0
  Ni  Ni445  1  0.46068813  0.38911300  0.95586648  1.0
  Ni  Ni446  1  0.46068813  0.72244633  0.95586648  1.0
  Ni  Ni447  1  0.79402146  0.05577967  0.95586648  1.0
  Ni  Ni448  1  0.79402146  0.38911300  0.95586648  1.0
  Ni  Ni449  1  0.79402146  0.72244633  0.95586648  1.0
  Ni  Ni450  1  0.09046717  0.27755367  0.99297822  1.0
  Ni  Ni451  1  0.09046717  0.61088700  0.99297822  1.0
  Ni  Ni452  1  0.09046717  0.94422033  0.99297822  1.0
  Ni  Ni453  1  0.42380050  0.27755367  0.99297822  1.0
  Ni  Ni454  1  0.42380050  0.61088700  0.99297822  1.0
  Ni  Ni455  1  0.42380050  0.94422033  0.99297822  1.0
  Ni  Ni456  1  0.75713383  0.27755367  0.99297822  1.0
  Ni  Ni457  1  0.75713383  0.61088700  0.99297822  1.0
  Ni  Ni458  1  0.75713383  0.94422033  0.99297822  1.0
  Ni  Ni459  1  0.31268939  0.27755367  0.93742267  1.0
  Ni  Ni460  1  0.31268939  0.61088700  0.93742267  1.0
  Ni  Ni461  1  0.31268939  0.94422033  0.93742267  1.0
  Ni  Ni462  1  0.64602272  0.27755367  0.93742267  1.0
  Ni  Ni463  1  0.64602272  0.61088700  0.93742267  1.0
  Ni  Ni464  1  0.64602272  0.94422033  0.93742267  1.0
  Ni  Ni465  1  0.97935606  0.27755367  0.93742267  1.0
  Ni  Ni466  1  0.97935606  0.61088700  0.93742267  1.0
  Ni  Ni467  1  0.97935606  0.94422033  0.93742267  1.0
  Ni  Ni468  1  0.21994739  0.22244633  0.89105167  1.0
  Ni  Ni469  1  0.21994739  0.55577967  0.89105167  1.0
  Ni  Ni470  1  0.21994739  0.88911300  0.89105167  1.0
  Ni  Ni471  1  0.55328072  0.22244633  0.89105167  1.0
  Ni  Ni472  1  0.55328072  0.55577967  0.89105167  1.0
  Ni  Ni473  1  0.55328072  0.88911300  0.89105167  1.0
  Ni  Ni474  1  0.88661406  0.22244633  0.89105167  1.0
  Ni  Ni475  1  0.88661406  0.55577967  0.89105167  1.0
  Ni  Ni476  1  0.88661406  0.88911300  0.89105167  1.0
  Ni  Ni477  1  0.33105850  0.22244633  0.94660722  1.0
  Ni  Ni478  1  0.33105850  0.55577967  0.94660722  1.0
  Ni  Ni479  1  0.33105850  0.88911300  0.94660722  1.0
  Ni  Ni480  1  0.66439183  0.22244633  0.94660722  1.0
  Ni  Ni481  1  0.66439183  0.55577967  0.94660722  1.0
  Ni  Ni482  1  0.66439183  0.88911300  0.94660722  1.0
  Ni  Ni483  1  0.99772517  0.22244633  0.94660722  1.0
  Ni  Ni484  1  0.99772517  0.55577967  0.94660722  1.0
  Ni  Ni485  1  0.99772517  0.88911300  0.94660722  1.0
  Ni  Ni486  1  0.33120791  0.11088700  0.89112637  1.0
  Ni  Ni487  1  0.33120791  0.44422033  0.89112637  1.0
  Ni  Ni488  1  0.33120791  0.77755367  0.89112637  1.0
  Ni  Ni489  1  0.66454124  0.11088700  0.89112637  1.0
  Ni  Ni490  1  0.66454124  0.44422033  0.89112637  1.0
  Ni  Ni491  1  0.66454124  0.77755367  0.89112637  1.0
  Ni  Ni492  1  0.99787457  0.11088700  0.89112637  1.0
  Ni  Ni493  1  0.99787457  0.44422033  0.89112637  1.0
  Ni  Ni494  1  0.99787457  0.77755367  0.89112637  1.0
  Ni  Ni495  1  0.10898569  0.11088700  0.94668193  1.0
  Ni  Ni496  1  0.10898569  0.44422033  0.94668193  1.0
  Ni  Ni497  1  0.10898569  0.77755367  0.94668193  1.0
  Ni  Ni498  1  0.44231902  0.11088700  0.94668193  1.0
  Ni  Ni499  1  0.44231902  0.44422033  0.94668193  1.0
  Ni  Ni500  1  0.44231902  0.77755367  0.94668193  1.0
  Ni  Ni501  1  0.77565235  0.11088700  0.94668193  1.0
  Ni  Ni502  1  0.77565235  0.44422033  0.94668193  1.0
  Ni  Ni503  1  0.77565235  0.77755367  0.94668193  1.0
  Ni  Ni504  1  0.22002209  0.00000000  0.77997791  1.0
  Ni  Ni505  1  0.22002209  0.33333333  0.77997791  1.0
  Ni  Ni506  1  0.22002209  0.66666667  0.77997791  1.0
  Ni  Ni507  1  0.55335543  0.00000000  0.77997791  1.0
  Ni  Ni508  1  0.55335543  0.33333333  0.77997791  1.0
  Ni  Ni509  1  0.55335543  0.66666667  0.77997791  1.0
  Ni  Ni510  1  0.88668876  0.00000000  0.77997791  1.0
  Ni  Ni511  1  0.88668876  0.33333333  0.77997791  1.0
  Ni  Ni512  1  0.88668876  0.66666667  0.77997791  1.0
  Ni  Ni513  1  0.33113320  0.00000000  0.83553346  1.0
  Ni  Ni514  1  0.33113320  0.33333333  0.83553346  1.0
  Ni  Ni515  1  0.33113320  0.66666667  0.83553346  1.0
  Ni  Ni516  1  0.66446654  0.00000000  0.83553346  1.0
  Ni  Ni517  1  0.66446654  0.33333333  0.83553346  1.0
  Ni  Ni518  1  0.66446654  0.66666667  0.83553346  1.0
  Ni  Ni519  1  0.99779987  0.00000000  0.83553346  1.0
  Ni  Ni520  1  0.99779987  0.33333333  0.83553346  1.0
  Ni  Ni521  1  0.99779987  0.66666667  0.83553346  1.0
  Ni  Ni522  1  0.05335543  0.16666667  0.86331124  1.0
  Ni  Ni523  1  0.05335543  0.50000000  0.86331124  1.0
  Ni  Ni524  1  0.05335543  0.83333333  0.86331124  1.0
  Ni  Ni525  1  0.38668876  0.16666667  0.86331124  1.0
  Ni  Ni526  1  0.38668876  0.50000000  0.86331124  1.0
  Ni  Ni527  1  0.38668876  0.83333333  0.86331124  1.0
  Ni  Ni528  1  0.72002209  0.16666667  0.86331124  1.0
  Ni  Ni529  1  0.72002209  0.50000000  0.86331124  1.0
  Ni  Ni530  1  0.72002209  0.83333333  0.86331124  1.0
  Ni  Ni531  1  0.27557765  0.16666667  0.80775569  1.0
  Ni  Ni532  1  0.27557765  0.50000000  0.80775569  1.0
  Ni  Ni533  1  0.27557765  0.83333333  0.80775569  1.0
  Ni  Ni534  1  0.60891098  0.16666667  0.80775569  1.0
  Ni  Ni535  1  0.60891098  0.50000000  0.80775569  1.0
  Ni  Ni536  1  0.60891098  0.83333333  0.80775569  1.0
  Ni  Ni537  1  0.94224431  0.16666667  0.80775569  1.0
  Ni  Ni538  1  0.94224431  0.50000000  0.80775569  1.0
  Ni  Ni539  1  0.94224431  0.83333333  0.80775569  1.0
  Ni  Ni540  1  0.00696243  0.25000000  0.81219191  1.0
  Ni  Ni541  1  0.00696243  0.58333333  0.81219191  1.0
  Ni  Ni542  1  0.00696243  0.91666667  0.81219191  1.0
  Ni  Ni543  1  0.34029576  0.25000000  0.81219191  1.0
  Ni  Ni544  1  0.34029576  0.58333333  0.81219191  1.0
  Ni  Ni545  1  0.34029576  0.91666667  0.81219191  1.0
  Ni  Ni546  1  0.67362909  0.25000000  0.81219191  1.0
  Ni  Ni547  1  0.67362909  0.58333333  0.81219191  1.0
  Ni  Ni548  1  0.67362909  0.91666667  0.81219191  1.0
  Ni  Ni549  1  0.11807354  0.25000000  0.86774746  1.0
  Ni  Ni550  1  0.11807354  0.58333333  0.86774746  1.0
  Ni  Ni551  1  0.11807354  0.91666667  0.86774746  1.0
  Ni  Ni552  1  0.45140687  0.25000000  0.86774746  1.0
  Ni  Ni553  1  0.45140687  0.58333333  0.86774746  1.0
  Ni  Ni554  1  0.45140687  0.91666667  0.86774746  1.0
  Ni  Ni555  1  0.78474020  0.25000000  0.86774746  1.0
  Ni  Ni556  1  0.78474020  0.58333333  0.86774746  1.0
  Ni  Ni557  1  0.78474020  0.91666667  0.86774746  1.0
  Ni  Ni558  1  0.22918465  0.25000000  0.84040485  1.0
  Ni  Ni559  1  0.22918465  0.58333333  0.84040485  1.0
  Ni  Ni560  1  0.22918465  0.91666667  0.84040485  1.0
  Ni  Ni561  1  0.56251798  0.25000000  0.84040485  1.0
  Ni  Ni562  1  0.56251798  0.58333333  0.84040485  1.0
  Ni  Ni563  1  0.56251798  0.91666667  0.84040485  1.0
  Ni  Ni564  1  0.89585131  0.25000000  0.84040485  1.0
  Ni  Ni565  1  0.89585131  0.58333333  0.84040485  1.0
  Ni  Ni566  1  0.89585131  0.91666667  0.84040485  1.0
  Ni  Ni567  1  0.11807354  0.25000000  0.78484930  1.0
  Ni  Ni568  1  0.11807354  0.58333333  0.78484930  1.0
  Ni  Ni569  1  0.11807354  0.91666667  0.78484930  1.0
  Ni  Ni570  1  0.45140687  0.25000000  0.78484930  1.0
  Ni  Ni571  1  0.45140687  0.58333333  0.78484930  1.0
  Ni  Ni572  1  0.45140687  0.91666667  0.78484930  1.0
  Ni  Ni573  1  0.78474020  0.25000000  0.78484930  1.0
  Ni  Ni574  1  0.78474020  0.58333333  0.78484930  1.0
  Ni  Ni575  1  0.78474020  0.91666667  0.78484930  1.0
  Ni  Ni576  1  0.28503031  0.25000000  0.78455919  1.0
  Ni  Ni577  1  0.28503031  0.58333333  0.78455919  1.0
  Ni  Ni578  1  0.28503031  0.91666667  0.78455919  1.0
  Ni  Ni579  1  0.61836365  0.25000000  0.78455919  1.0
  Ni  Ni580  1  0.61836365  0.58333333  0.78455919  1.0
  Ni  Ni581  1  0.61836365  0.91666667  0.78455919  1.0
  Ni  Ni582  1  0.95169698  0.25000000  0.78455919  1.0
  Ni  Ni583  1  0.95169698  0.58333333  0.78455919  1.0
  Ni  Ni584  1  0.95169698  0.91666667  0.78455919  1.0
  Ni  Ni585  1  0.06280809  0.25000000  0.84011474  1.0
  Ni  Ni586  1  0.06280809  0.58333333  0.84011474  1.0
  Ni  Ni587  1  0.06280809  0.91666667  0.84011474  1.0
  Ni  Ni588  1  0.39614143  0.25000000  0.84011474  1.0
  Ni  Ni589  1  0.39614143  0.58333333  0.84011474  1.0
  Ni  Ni590  1  0.39614143  0.91666667  0.84011474  1.0
  Ni  Ni591  1  0.72947476  0.25000000  0.84011474  1.0
  Ni  Ni592  1  0.72947476  0.58333333  0.84011474  1.0
  Ni  Ni593  1  0.72947476  0.91666667  0.84011474  1.0
  Ni  Ni594  1  0.32197065  0.08333333  0.85887502  1.0
  Ni  Ni595  1  0.32197065  0.41666667  0.85887502  1.0
  Ni  Ni596  1  0.32197065  0.75000000  0.85887502  1.0
  Ni  Ni597  1  0.65530398  0.08333333  0.85887502  1.0
  Ni  Ni598  1  0.65530398  0.41666667  0.85887502  1.0
  Ni  Ni599  1  0.65530398  0.75000000  0.85887502  1.0
  Ni  Ni600  1  0.98863731  0.08333333  0.85887502  1.0
  Ni  Ni601  1  0.98863731  0.41666667  0.85887502  1.0
  Ni  Ni602  1  0.98863731  0.75000000  0.85887502  1.0
  Ni  Ni603  1  0.21085954  0.08333333  0.80331946  1.0
  Ni  Ni604  1  0.21085954  0.41666667  0.80331946  1.0
  Ni  Ni605  1  0.21085954  0.75000000  0.80331946  1.0
  Ni  Ni606  1  0.54419287  0.08333333  0.80331946  1.0
  Ni  Ni607  1  0.54419287  0.41666667  0.80331946  1.0
  Ni  Ni608  1  0.54419287  0.75000000  0.80331946  1.0
  Ni  Ni609  1  0.87752620  0.08333333  0.80331946  1.0
  Ni  Ni610  1  0.87752620  0.41666667  0.80331946  1.0
  Ni  Ni611  1  0.87752620  0.75000000  0.80331946  1.0
  Ni  Ni612  1  0.09974843  0.08333333  0.83066207  1.0
  Ni  Ni613  1  0.09974843  0.41666667  0.83066207  1.0
  Ni  Ni614  1  0.09974843  0.75000000  0.83066207  1.0
  Ni  Ni615  1  0.43308176  0.08333333  0.83066207  1.0
  Ni  Ni616  1  0.43308176  0.41666667  0.83066207  1.0
  Ni  Ni617  1  0.43308176  0.75000000  0.83066207  1.0
  Ni  Ni618  1  0.76641509  0.08333333  0.83066207  1.0
  Ni  Ni619  1  0.76641509  0.41666667  0.83066207  1.0
  Ni  Ni620  1  0.76641509  0.75000000  0.83066207  1.0
  Ni  Ni621  1  0.21085954  0.08333333  0.88621763  1.0
  Ni  Ni622  1  0.21085954  0.41666667  0.88621763  1.0
  Ni  Ni623  1  0.21085954  0.75000000  0.88621763  1.0
  Ni  Ni624  1  0.54419287  0.08333333  0.88621763  1.0
  Ni  Ni625  1  0.54419287  0.41666667  0.88621763  1.0
  Ni  Ni626  1  0.54419287  0.75000000  0.88621763  1.0
  Ni  Ni627  1  0.87752620  0.08333333  0.88621763  1.0
  Ni  Ni628  1  0.87752620  0.41666667  0.88621763  1.0
  Ni  Ni629  1  0.87752620  0.75000000  0.88621763  1.0
  Ni  Ni630  1  0.04390276  0.08333333  0.88650774  1.0
  Ni  Ni631  1  0.04390276  0.41666667  0.88650774  1.0
  Ni  Ni632  1  0.04390276  0.75000000  0.88650774  1.0
  Ni  Ni633  1  0.37723609  0.08333333  0.88650774  1.0
  Ni  Ni634  1  0.37723609  0.41666667  0.88650774  1.0
  Ni  Ni635  1  0.37723609  0.75000000  0.88650774  1.0
  Ni  Ni636  1  0.71056943  0.08333333  0.88650774  1.0
  Ni  Ni637  1  0.71056943  0.41666667  0.88650774  1.0
  Ni  Ni638  1  0.71056943  0.75000000  0.88650774  1.0
  Ni  Ni639  1  0.26612498  0.08333333  0.83095219  1.0
  Ni  Ni640  1  0.26612498  0.41666667  0.83095219  1.0
  Ni  Ni641  1  0.26612498  0.75000000  0.83095219  1.0
  Ni  Ni642  1  0.59945831  0.08333333  0.83095219  1.0
  Ni  Ni643  1  0.59945831  0.41666667  0.83095219  1.0
  Ni  Ni644  1  0.59945831  0.75000000  0.83095219  1.0
  Ni  Ni645  1  0.93279165  0.08333333  0.83095219  1.0
  Ni  Ni646  1  0.93279165  0.41666667  0.83095219  1.0
  Ni  Ni647  1  0.93279165  0.75000000  0.83095219  1.0
  Ni  Ni648  1  0.32225798  0.30449033  0.80336152  1.0
  Ni  Ni649  1  0.32225798  0.63782367  0.80336152  1.0
  Ni  Ni650  1  0.32225798  0.97115700  0.80336152  1.0
  Ni  Ni651  1  0.65559131  0.30449033  0.80336152  1.0
  Ni  Ni652  1  0.65559131  0.63782367  0.80336152  1.0
  Ni  Ni653  1  0.65559131  0.97115700  0.80336152  1.0
  Ni  Ni654  1  0.98892465  0.30449033  0.80336152  1.0
  Ni  Ni655  1  0.98892465  0.63782367  0.80336152  1.0
  Ni  Ni656  1  0.98892465  0.97115700  0.80336152  1.0
  Ni  Ni657  1  0.10003576  0.30449033  0.85891707  1.0
  Ni  Ni658  1  0.10003576  0.63782367  0.85891707  1.0
  Ni  Ni659  1  0.10003576  0.97115700  0.85891707  1.0
  Ni  Ni660  1  0.43336909  0.30449033  0.85891707  1.0
  Ni  Ni661  1  0.43336909  0.63782367  0.85891707  1.0
  Ni  Ni662  1  0.43336909  0.97115700  0.85891707  1.0
  Ni  Ni663  1  0.76670243  0.30449033  0.85891707  1.0
  Ni  Ni664  1  0.76670243  0.63782367  0.85891707  1.0
  Ni  Ni665  1  0.76670243  0.97115700  0.85891707  1.0
  Ni  Ni666  1  0.21114687  0.30449033  0.83100896  1.0
  Ni  Ni667  1  0.21114687  0.63782367  0.83100896  1.0
  Ni  Ni668  1  0.21114687  0.97115700  0.83100896  1.0
  Ni  Ni669  1  0.54448020  0.30449033  0.83100896  1.0
  Ni  Ni670  1  0.54448020  0.63782367  0.83100896  1.0
  Ni  Ni671  1  0.54448020  0.97115700  0.83100896  1.0
  Ni  Ni672  1  0.87781354  0.30449033  0.83100896  1.0
  Ni  Ni673  1  0.87781354  0.63782367  0.83100896  1.0
  Ni  Ni674  1  0.87781354  0.97115700  0.83100896  1.0
  Ni  Ni675  1  0.32225798  0.30449033  0.88656452  1.0
  Ni  Ni676  1  0.32225798  0.63782367  0.88656452  1.0
  Ni  Ni677  1  0.32225798  0.97115700  0.88656452  1.0
  Ni  Ni678  1  0.65559131  0.30449033  0.88656452  1.0
  Ni  Ni679  1  0.65559131  0.63782367  0.88656452  1.0
  Ni  Ni680  1  0.65559131  0.97115700  0.88656452  1.0
  Ni  Ni681  1  0.98892465  0.30449033  0.88656452  1.0
  Ni  Ni682  1  0.98892465  0.63782367  0.88656452  1.0
  Ni  Ni683  1  0.98892465  0.97115700  0.88656452  1.0
  Ni  Ni684  1  0.15550443  0.30449033  0.88665141  1.0
  Ni  Ni685  1  0.15550443  0.63782367  0.88665141  1.0
  Ni  Ni686  1  0.15550443  0.97115700  0.88665141  1.0
  Ni  Ni687  1  0.48883776  0.30449033  0.88665141  1.0
  Ni  Ni688  1  0.48883776  0.63782367  0.88665141  1.0
  Ni  Ni689  1  0.48883776  0.97115700  0.88665141  1.0
  Ni  Ni690  1  0.82217109  0.30449033  0.88665141  1.0
  Ni  Ni691  1  0.82217109  0.63782367  0.88665141  1.0
  Ni  Ni692  1  0.82217109  0.97115700  0.88665141  1.0
  Ni  Ni693  1  0.04439331  0.30449033  0.83109585  1.0
  Ni  Ni694  1  0.04439331  0.63782367  0.83109585  1.0
  Ni  Ni695  1  0.04439331  0.97115700  0.83109585  1.0
  Ni  Ni696  1  0.37772665  0.30449033  0.83109585  1.0
  Ni  Ni697  1  0.37772665  0.63782367  0.83109585  1.0
  Ni  Ni698  1  0.37772665  0.97115700  0.83109585  1.0
  Ni  Ni699  1  0.71105998  0.30449033  0.83109585  1.0
  Ni  Ni700  1  0.71105998  0.63782367  0.83109585  1.0
  Ni  Ni701  1  0.71105998  0.97115700  0.83109585  1.0
  Ni  Ni702  1  0.00667509  0.02884300  0.86770541  1.0
  Ni  Ni703  1  0.00667509  0.36217633  0.86770541  1.0
  Ni  Ni704  1  0.00667509  0.69550967  0.86770541  1.0
  Ni  Ni705  1  0.34000843  0.02884300  0.86770541  1.0
  Ni  Ni706  1  0.34000843  0.36217633  0.86770541  1.0
  Ni  Ni707  1  0.34000843  0.69550967  0.86770541  1.0
  Ni  Ni708  1  0.67334176  0.02884300  0.86770541  1.0
  Ni  Ni709  1  0.67334176  0.36217633  0.86770541  1.0
  Ni  Ni710  1  0.67334176  0.69550967  0.86770541  1.0
  Ni  Ni711  1  0.22889731  0.02884300  0.81214985  1.0
  Ni  Ni712  1  0.22889731  0.36217633  0.81214985  1.0
  Ni  Ni713  1  0.22889731  0.69550967  0.81214985  1.0
  Ni  Ni714  1  0.56223065  0.02884300  0.81214985  1.0
  Ni  Ni715  1  0.56223065  0.36217633  0.81214985  1.0
  Ni  Ni716  1  0.56223065  0.69550967  0.81214985  1.0
  Ni  Ni717  1  0.89556398  0.02884300  0.81214985  1.0
  Ni  Ni718  1  0.89556398  0.36217633  0.81214985  1.0
  Ni  Ni719  1  0.89556398  0.69550967  0.81214985  1.0
  Ni  Ni720  1  0.11778620  0.02884300  0.84005796  1.0
  Ni  Ni721  1  0.11778620  0.36217633  0.84005796  1.0
  Ni  Ni722  1  0.11778620  0.69550967  0.84005796  1.0
  Ni  Ni723  1  0.45111954  0.02884300  0.84005796  1.0
  Ni  Ni724  1  0.45111954  0.36217633  0.84005796  1.0
  Ni  Ni725  1  0.45111954  0.69550967  0.84005796  1.0
  Ni  Ni726  1  0.78445287  0.02884300  0.84005796  1.0
  Ni  Ni727  1  0.78445287  0.36217633  0.84005796  1.0
  Ni  Ni728  1  0.78445287  0.69550967  0.84005796  1.0
  Ni  Ni729  1  0.00667509  0.02884300  0.78450241  1.0
  Ni  Ni730  1  0.00667509  0.36217633  0.78450241  1.0
  Ni  Ni731  1  0.00667509  0.69550967  0.78450241  1.0
  Ni  Ni732  1  0.34000843  0.02884300  0.78450241  1.0
  Ni  Ni733  1  0.34000843  0.36217633  0.78450241  1.0
  Ni  Ni734  1  0.34000843  0.69550967  0.78450241  1.0
  Ni  Ni735  1  0.67334176  0.02884300  0.78450241  1.0
  Ni  Ni736  1  0.67334176  0.36217633  0.78450241  1.0
  Ni  Ni737  1  0.67334176  0.69550967  0.78450241  1.0
  Ni  Ni738  1  0.17342865  0.02884300  0.78441552  1.0
  Ni  Ni739  1  0.17342865  0.36217633  0.78441552  1.0
  Ni  Ni740  1  0.17342865  0.69550967  0.78441552  1.0
  Ni  Ni741  1  0.50676198  0.02884300  0.78441552  1.0
  Ni  Ni742  1  0.50676198  0.36217633  0.78441552  1.0
  Ni  Ni743  1  0.50676198  0.69550967  0.78441552  1.0
  Ni  Ni744  1  0.84009531  0.02884300  0.78441552  1.0
  Ni  Ni745  1  0.84009531  0.36217633  0.78441552  1.0
  Ni  Ni746  1  0.84009531  0.69550967  0.78441552  1.0
  Ni  Ni747  1  0.28453976  0.02884300  0.83997107  1.0
  Ni  Ni748  1  0.28453976  0.36217633  0.83997107  1.0
  Ni  Ni749  1  0.28453976  0.69550967  0.83997107  1.0
  Ni  Ni750  1  0.61787309  0.02884300  0.83997107  1.0
  Ni  Ni751  1  0.61787309  0.36217633  0.83997107  1.0
  Ni  Ni752  1  0.61787309  0.69550967  0.83997107  1.0
  Ni  Ni753  1  0.95120643  0.02884300  0.83997107  1.0
  Ni  Ni754  1  0.95120643  0.36217633  0.83997107  1.0
  Ni  Ni755  1  0.95120643  0.69550967  0.83997107  1.0
  Ni  Ni756  1  0.30368154  0.13782367  0.84954196  1.0
  Ni  Ni757  1  0.30368154  0.47115700  0.84954196  1.0
  Ni  Ni758  1  0.30368154  0.80449033  0.84954196  1.0
  Ni  Ni759  1  0.63701487  0.13782367  0.84954196  1.0
  Ni  Ni760  1  0.63701487  0.47115700  0.84954196  1.0
  Ni  Ni761  1  0.63701487  0.80449033  0.84954196  1.0
  Ni  Ni762  1  0.97034820  0.13782367  0.84954196  1.0
  Ni  Ni763  1  0.97034820  0.47115700  0.84954196  1.0
  Ni  Ni764  1  0.97034820  0.80449033  0.84954196  1.0
  Ni  Ni765  1  0.19257043  0.13782367  0.79398641  1.0
  Ni  Ni766  1  0.19257043  0.47115700  0.79398641  1.0
  Ni  Ni767  1  0.19257043  0.80449033  0.79398641  1.0
  Ni  Ni768  1  0.52590376  0.13782367  0.79398641  1.0
  Ni  Ni769  1  0.52590376  0.47115700  0.79398641  1.0
  Ni  Ni770  1  0.52590376  0.80449033  0.79398641  1.0
  Ni  Ni771  1  0.85923709  0.13782367  0.79398641  1.0
  Ni  Ni772  1  0.85923709  0.47115700  0.79398641  1.0
  Ni  Ni773  1  0.85923709  0.80449033  0.79398641  1.0
  Ni  Ni774  1  0.08145931  0.13782367  0.82189452  1.0
  Ni  Ni775  1  0.08145931  0.47115700  0.82189452  1.0
  Ni  Ni776  1  0.08145931  0.80449033  0.82189452  1.0
  Ni  Ni777  1  0.41479265  0.13782367  0.82189452  1.0
  Ni  Ni778  1  0.41479265  0.47115700  0.82189452  1.0
  Ni  Ni779  1  0.41479265  0.80449033  0.82189452  1.0
  Ni  Ni780  1  0.74812598  0.13782367  0.82189452  1.0
  Ni  Ni781  1  0.74812598  0.47115700  0.82189452  1.0
  Ni  Ni782  1  0.74812598  0.80449033  0.82189452  1.0
  Ni  Ni783  1  0.19257043  0.13782367  0.87745007  1.0
  Ni  Ni784  1  0.19257043  0.47115700  0.87745007  1.0
  Ni  Ni785  1  0.19257043  0.80449033  0.87745007  1.0
  Ni  Ni786  1  0.52590376  0.13782367  0.87745007  1.0
  Ni  Ni787  1  0.52590376  0.47115700  0.87745007  1.0
  Ni  Ni788  1  0.52590376  0.80449033  0.87745007  1.0
  Ni  Ni789  1  0.85923709  0.13782367  0.87745007  1.0
  Ni  Ni790  1  0.85923709  0.47115700  0.87745007  1.0
  Ni  Ni791  1  0.85923709  0.80449033  0.87745007  1.0
  Ni  Ni792  1  0.02599065  0.13782367  0.87736319  1.0
  Ni  Ni793  1  0.02599065  0.47115700  0.87736319  1.0
  Ni  Ni794  1  0.02599065  0.80449033  0.87736319  1.0
  Ni  Ni795  1  0.35932398  0.13782367  0.87736319  1.0
  Ni  Ni796  1  0.35932398  0.47115700  0.87736319  1.0
  Ni  Ni797  1  0.35932398  0.80449033  0.87736319  1.0
  Ni  Ni798  1  0.69265731  0.13782367  0.87736319  1.0
  Ni  Ni799  1  0.69265731  0.47115700  0.87736319  1.0
  Ni  Ni800  1  0.69265731  0.80449033  0.87736319  1.0
  Ni  Ni801  1  0.24821287  0.13782367  0.82180763  1.0
  Ni  Ni802  1  0.24821287  0.47115700  0.82180763  1.0
  Ni  Ni803  1  0.24821287  0.80449033  0.82180763  1.0
  Ni  Ni804  1  0.58154620  0.13782367  0.82180763  1.0
  Ni  Ni805  1  0.58154620  0.47115700  0.82180763  1.0
  Ni  Ni806  1  0.58154620  0.80449033  0.82180763  1.0
  Ni  Ni807  1  0.91487954  0.13782367  0.82180763  1.0
  Ni  Ni808  1  0.91487954  0.47115700  0.82180763  1.0
  Ni  Ni809  1  0.91487954  0.80449033  0.82180763  1.0
  Ni  Ni810  1  0.02525154  0.19550967  0.82152496  1.0
  Ni  Ni811  1  0.02525154  0.52884300  0.82152496  1.0
  Ni  Ni812  1  0.02525154  0.86217633  0.82152496  1.0
  Ni  Ni813  1  0.35858487  0.19550967  0.82152496  1.0
  Ni  Ni814  1  0.35858487  0.52884300  0.82152496  1.0
  Ni  Ni815  1  0.35858487  0.86217633  0.82152496  1.0
  Ni  Ni816  1  0.69191820  0.19550967  0.82152496  1.0
  Ni  Ni817  1  0.69191820  0.52884300  0.82152496  1.0
  Ni  Ni818  1  0.69191820  0.86217633  0.82152496  1.0
  Ni  Ni819  1  0.13636265  0.19550967  0.87708052  1.0
  Ni  Ni820  1  0.13636265  0.52884300  0.87708052  1.0
  Ni  Ni821  1  0.13636265  0.86217633  0.87708052  1.0
  Ni  Ni822  1  0.46969598  0.19550967  0.87708052  1.0
  Ni  Ni823  1  0.46969598  0.52884300  0.87708052  1.0
  Ni  Ni824  1  0.46969598  0.86217633  0.87708052  1.0
  Ni  Ni825  1  0.80302931  0.19550967  0.87708052  1.0
  Ni  Ni826  1  0.80302931  0.52884300  0.87708052  1.0
  Ni  Ni827  1  0.80302931  0.86217633  0.87708052  1.0
  Ni  Ni828  1  0.24747376  0.19550967  0.84917241  1.0
  Ni  Ni829  1  0.24747376  0.52884300  0.84917241  1.0
  Ni  Ni830  1  0.24747376  0.86217633  0.84917241  1.0
  Ni  Ni831  1  0.58080709  0.19550967  0.84917241  1.0
  Ni  Ni832  1  0.58080709  0.52884300  0.84917241  1.0
  Ni  Ni833  1  0.58080709  0.86217633  0.84917241  1.0
  Ni  Ni834  1  0.91414043  0.19550967  0.84917241  1.0
  Ni  Ni835  1  0.91414043  0.52884300  0.84917241  1.0
  Ni  Ni836  1  0.91414043  0.86217633  0.84917241  1.0
  Ni  Ni837  1  0.13636265  0.19550967  0.79361685  1.0
  Ni  Ni838  1  0.13636265  0.52884300  0.79361685  1.0
  Ni  Ni839  1  0.13636265  0.86217633  0.79361685  1.0
  Ni  Ni840  1  0.46969598  0.19550967  0.79361685  1.0
  Ni  Ni841  1  0.46969598  0.52884300  0.79361685  1.0
  Ni  Ni842  1  0.46969598  0.86217633  0.79361685  1.0
  Ni  Ni843  1  0.80302931  0.19550967  0.79361685  1.0
  Ni  Ni844  1  0.80302931  0.52884300  0.79361685  1.0
  Ni  Ni845  1  0.80302931  0.86217633  0.79361685  1.0
  Ni  Ni846  1  0.30294243  0.19550967  0.79370374  1.0
  Ni  Ni847  1  0.30294243  0.52884300  0.79370374  1.0
  Ni  Ni848  1  0.30294243  0.86217633  0.79370374  1.0
  Ni  Ni849  1  0.63627576  0.19550967  0.79370374  1.0
  Ni  Ni850  1  0.63627576  0.52884300  0.79370374  1.0
  Ni  Ni851  1  0.63627576  0.86217633  0.79370374  1.0
  Ni  Ni852  1  0.96960909  0.19550967  0.79370374  1.0
  Ni  Ni853  1  0.96960909  0.52884300  0.79370374  1.0
  Ni  Ni854  1  0.96960909  0.86217633  0.79370374  1.0
  Ni  Ni855  1  0.08072020  0.19550967  0.84925930  1.0
  Ni  Ni856  1  0.08072020  0.52884300  0.84925930  1.0
  Ni  Ni857  1  0.08072020  0.86217633  0.84925930  1.0
  Ni  Ni858  1  0.41405354  0.19550967  0.84925930  1.0
  Ni  Ni859  1  0.41405354  0.52884300  0.84925930  1.0
  Ni  Ni860  1  0.41405354  0.86217633  0.84925930  1.0
  Ni  Ni861  1  0.74738687  0.19550967  0.84925930  1.0
  Ni  Ni862  1  0.74738687  0.52884300  0.84925930  1.0
  Ni  Ni863  1  0.74738687  0.86217633  0.84925930  1.0
  Ni  Ni864  1  0.01653254  0.27713533  0.84489980  1.0
  Ni  Ni865  1  0.01653254  0.61046867  0.84489980  1.0
  Ni  Ni866  1  0.01653254  0.94380200  0.84489980  1.0
  Ni  Ni867  1  0.34986587  0.27713533  0.84489980  1.0
  Ni  Ni868  1  0.34986587  0.61046867  0.84489980  1.0
  Ni  Ni869  1  0.34986587  0.94380200  0.84489980  1.0
  Ni  Ni870  1  0.68319920  0.27713533  0.84489980  1.0
  Ni  Ni871  1  0.68319920  0.61046867  0.84489980  1.0
  Ni  Ni872  1  0.68319920  0.94380200  0.84489980  1.0
  Ni  Ni873  1  0.23875476  0.27713533  0.78934424  1.0
  Ni  Ni874  1  0.23875476  0.61046867  0.78934424  1.0
  Ni  Ni875  1  0.23875476  0.94380200  0.78934424  1.0
  Ni  Ni876  1  0.57208809  0.27713533  0.78934424  1.0
  Ni  Ni877  1  0.57208809  0.61046867  0.78934424  1.0
  Ni  Ni878  1  0.57208809  0.94380200  0.78934424  1.0
  Ni  Ni879  1  0.90542143  0.27713533  0.78934424  1.0
  Ni  Ni880  1  0.90542143  0.61046867  0.78934424  1.0
  Ni  Ni881  1  0.90542143  0.94380200  0.78934424  1.0
  Ni  Ni882  1  0.09017831  0.05619800  0.88172269  1.0
  Ni  Ni883  1  0.09017831  0.38953133  0.88172269  1.0
  Ni  Ni884  1  0.09017831  0.72286467  0.88172269  1.0
  Ni  Ni885  1  0.42351165  0.05619800  0.88172269  1.0
  Ni  Ni886  1  0.42351165  0.38953133  0.88172269  1.0
  Ni  Ni887  1  0.42351165  0.72286467  0.88172269  1.0
  Ni  Ni888  1  0.75684498  0.05619800  0.88172269  1.0
  Ni  Ni889  1  0.75684498  0.38953133  0.88172269  1.0
  Ni  Ni890  1  0.75684498  0.72286467  0.88172269  1.0
  Ni  Ni891  1  0.31240054  0.05619800  0.82616713  1.0
  Ni  Ni892  1  0.31240054  0.38953133  0.82616713  1.0
  Ni  Ni893  1  0.31240054  0.72286467  0.82616713  1.0
  Ni  Ni894  1  0.64573387  0.05619800  0.82616713  1.0
  Ni  Ni895  1  0.64573387  0.38953133  0.82616713  1.0
  Ni  Ni896  1  0.64573387  0.72286467  0.82616713  1.0
  Ni  Ni897  1  0.97906720  0.05619800  0.82616713  1.0
  Ni  Ni898  1  0.97906720  0.38953133  0.82616713  1.0
  Ni  Ni899  1  0.97906720  0.72286467  0.82616713  1.0
  Ni  Ni900  1  0.07208809  0.11046867  0.87267757  1.0
  Ni  Ni901  1  0.07208809  0.44380200  0.87267757  1.0
  Ni  Ni902  1  0.07208809  0.77713533  0.87267757  1.0
  Ni  Ni903  1  0.40542143  0.11046867  0.87267757  1.0
  Ni  Ni904  1  0.40542143  0.44380200  0.87267757  1.0
  Ni  Ni905  1  0.40542143  0.77713533  0.87267757  1.0
  Ni  Ni906  1  0.73875476  0.11046867  0.87267757  1.0
  Ni  Ni907  1  0.73875476  0.44380200  0.87267757  1.0
  Ni  Ni908  1  0.73875476  0.77713533  0.87267757  1.0
  Ni  Ni909  1  0.29431031  0.11046867  0.81712202  1.0
  Ni  Ni910  1  0.29431031  0.44380200  0.81712202  1.0
  Ni  Ni911  1  0.29431031  0.77713533  0.81712202  1.0
  Ni  Ni912  1  0.62764365  0.11046867  0.81712202  1.0
  Ni  Ni913  1  0.62764365  0.44380200  0.81712202  1.0
  Ni  Ni914  1  0.62764365  0.77713533  0.81712202  1.0
  Ni  Ni915  1  0.96097698  0.11046867  0.81712202  1.0
  Ni  Ni916  1  0.96097698  0.44380200  0.81712202  1.0
  Ni  Ni917  1  0.96097698  0.77713533  0.81712202  1.0
  Ni  Ni918  1  0.03462276  0.22286467  0.85394491  1.0
  Ni  Ni919  1  0.03462276  0.55619800  0.85394491  1.0
  Ni  Ni920  1  0.03462276  0.88953133  0.85394491  1.0
  Ni  Ni921  1  0.36795609  0.22286467  0.85394491  1.0
  Ni  Ni922  1  0.36795609  0.55619800  0.85394491  1.0
  Ni  Ni923  1  0.36795609  0.88953133  0.85394491  1.0
  Ni  Ni924  1  0.70128943  0.22286467  0.85394491  1.0
  Ni  Ni925  1  0.70128943  0.55619800  0.85394491  1.0
  Ni  Ni926  1  0.70128943  0.88953133  0.85394491  1.0
  Ni  Ni927  1  0.25684498  0.22286467  0.79838935  1.0
  Ni  Ni928  1  0.25684498  0.55619800  0.79838935  1.0
  Ni  Ni929  1  0.25684498  0.88953133  0.79838935  1.0
  Ni  Ni930  1  0.59017831  0.22286467  0.79838935  1.0
  Ni  Ni931  1  0.59017831  0.55619800  0.79838935  1.0
  Ni  Ni932  1  0.59017831  0.88953133  0.79838935  1.0
  Ni  Ni933  1  0.92351165  0.22286467  0.79838935  1.0
  Ni  Ni934  1  0.92351165  0.55619800  0.79838935  1.0
  Ni  Ni935  1  0.92351165  0.88953133  0.79838935  1.0
  Ni  Ni936  1  0.12735480  0.05577967  0.78919981  1.0
  Ni  Ni937  1  0.12735480  0.38911300  0.78919981  1.0
  Ni  Ni938  1  0.12735480  0.72244633  0.78919981  1.0
  Ni  Ni939  1  0.46068813  0.05577967  0.78919981  1.0
  Ni  Ni940  1  0.46068813  0.38911300  0.78919981  1.0
  Ni  Ni941  1  0.46068813  0.72244633  0.78919981  1.0
  Ni  Ni942  1  0.79402146  0.05577967  0.78919981  1.0
  Ni  Ni943  1  0.79402146  0.38911300  0.78919981  1.0
  Ni  Ni944  1  0.79402146  0.72244633  0.78919981  1.0
  Ni  Ni945  1  0.23846591  0.05577967  0.84475537  1.0
  Ni  Ni946  1  0.23846591  0.38911300  0.84475537  1.0
  Ni  Ni947  1  0.23846591  0.72244633  0.84475537  1.0
  Ni  Ni948  1  0.57179924  0.05577967  0.84475537  1.0
  Ni  Ni949  1  0.57179924  0.38911300  0.84475537  1.0
  Ni  Ni950  1  0.57179924  0.72244633  0.84475537  1.0
  Ni  Ni951  1  0.90513257  0.05577967  0.84475537  1.0
  Ni  Ni952  1  0.90513257  0.38911300  0.84475537  1.0
  Ni  Ni953  1  0.90513257  0.72244633  0.84475537  1.0
  Ni  Ni954  1  0.20157828  0.27755367  0.88186711  1.0
  Ni  Ni955  1  0.20157828  0.61088700  0.88186711  1.0
  Ni  Ni956  1  0.20157828  0.94422033  0.88186711  1.0
  Ni  Ni957  1  0.53491161  0.27755367  0.88186711  1.0
  Ni  Ni958  1  0.53491161  0.61088700  0.88186711  1.0
  Ni  Ni959  1  0.53491161  0.94422033  0.88186711  1.0
  Ni  Ni960  1  0.86824494  0.27755367  0.88186711  1.0
  Ni  Ni961  1  0.86824494  0.61088700  0.88186711  1.0
  Ni  Ni962  1  0.86824494  0.94422033  0.88186711  1.0
  Ni  Ni963  1  0.09046717  0.27755367  0.82631156  1.0
  Ni  Ni964  1  0.09046717  0.61088700  0.82631156  1.0
  Ni  Ni965  1  0.09046717  0.94422033  0.82631156  1.0
  Ni  Ni966  1  0.42380050  0.27755367  0.82631156  1.0
  Ni  Ni967  1  0.42380050  0.61088700  0.82631156  1.0
  Ni  Ni968  1  0.42380050  0.94422033  0.82631156  1.0
  Ni  Ni969  1  0.75713383  0.27755367  0.82631156  1.0
  Ni  Ni970  1  0.75713383  0.61088700  0.82631156  1.0
  Ni  Ni971  1  0.75713383  0.94422033  0.82631156  1.0
  Ni  Ni972  1  0.33105850  0.22244633  0.77994056  1.0
  Ni  Ni973  1  0.33105850  0.55577967  0.77994056  1.0
  Ni  Ni974  1  0.33105850  0.88911300  0.77994056  1.0
  Ni  Ni975  1  0.66439183  0.22244633  0.77994056  1.0
  Ni  Ni976  1  0.66439183  0.55577967  0.77994056  1.0
  Ni  Ni977  1  0.66439183  0.88911300  0.77994056  1.0
  Ni  Ni978  1  0.99772517  0.22244633  0.77994056  1.0
  Ni  Ni979  1  0.99772517  0.55577967  0.77994056  1.0
  Ni  Ni980  1  0.99772517  0.88911300  0.77994056  1.0
  Ni  Ni981  1  0.10883628  0.22244633  0.83549611  1.0
  Ni  Ni982  1  0.10883628  0.55577967  0.83549611  1.0
  Ni  Ni983  1  0.10883628  0.88911300  0.83549611  1.0
  Ni  Ni984  1  0.44216961  0.22244633  0.83549611  1.0
  Ni  Ni985  1  0.44216961  0.55577967  0.83549611  1.0
  Ni  Ni986  1  0.44216961  0.88911300  0.83549611  1.0
  Ni  Ni987  1  0.77550294  0.22244633  0.83549611  1.0
  Ni  Ni988  1  0.77550294  0.55577967  0.83549611  1.0
  Ni  Ni989  1  0.77550294  0.88911300  0.83549611  1.0
  Ni  Ni990  1  0.10898569  0.11088700  0.78001526  1.0
  Ni  Ni991  1  0.10898569  0.44422033  0.78001526  1.0
  Ni  Ni992  1  0.10898569  0.77755367  0.78001526  1.0
  Ni  Ni993  1  0.44231902  0.11088700  0.78001526  1.0
  Ni  Ni994  1  0.44231902  0.44422033  0.78001526  1.0
  Ni  Ni995  1  0.44231902  0.77755367  0.78001526  1.0
  Ni  Ni996  1  0.77565235  0.11088700  0.78001526  1.0
  Ni  Ni997  1  0.77565235  0.44422033  0.78001526  1.0
  Ni  Ni998  1  0.77565235  0.77755367  0.78001526  1.0
  Ni  Ni999  1  0.22009680  0.11088700  0.83557081  1.0
  Ni  Ni1000  1  0.22009680  0.44422033  0.83557081  1.0
  Ni  Ni1001  1  0.22009680  0.77755367  0.83557081  1.0
  Ni  Ni1002  1  0.55343013  0.11088700  0.83557081  1.0
  Ni  Ni1003  1  0.55343013  0.44422033  0.83557081  1.0
  Ni  Ni1004  1  0.55343013  0.77755367  0.83557081  1.0
  Ni  Ni1005  1  0.88676346  0.11088700  0.83557081  1.0
  Ni  Ni1006  1  0.88676346  0.44422033  0.83557081  1.0
  Ni  Ni1007  1  0.88676346  0.77755367  0.83557081  1.0
  Ni  Ni1008  1  0.33113320  0.00000000  0.66886680  1.0
  Ni  Ni1009  1  0.33113320  0.33333333  0.66886680  1.0
  Ni  Ni1010  1  0.33113320  0.66666667  0.66886680  1.0
  Ni  Ni1011  1  0.66446654  0.00000000  0.66886680  1.0
  Ni  Ni1012  1  0.66446654  0.33333333  0.66886680  1.0
  Ni  Ni1013  1  0.66446654  0.66666667  0.66886680  1.0
  Ni  Ni1014  1  0.99779987  0.00000000  0.66886680  1.0
  Ni  Ni1015  1  0.99779987  0.33333333  0.66886680  1.0
  Ni  Ni1016  1  0.99779987  0.66666667  0.66886680  1.0
  Ni  Ni1017  1  0.10891098  0.00000000  0.72442235  1.0
  Ni  Ni1018  1  0.10891098  0.33333333  0.72442235  1.0
  Ni  Ni1019  1  0.10891098  0.66666667  0.72442235  1.0
  Ni  Ni1020  1  0.44224431  0.00000000  0.72442235  1.0
  Ni  Ni1021  1  0.44224431  0.33333333  0.72442235  1.0
  Ni  Ni1022  1  0.44224431  0.66666667  0.72442235  1.0
  Ni  Ni1023  1  0.77557765  0.00000000  0.72442235  1.0
  Ni  Ni1024  1  0.77557765  0.33333333  0.72442235  1.0
  Ni  Ni1025  1  0.77557765  0.66666667  0.72442235  1.0
  Ni  Ni1026  1  0.16446654  0.16666667  0.75220013  1.0
  Ni  Ni1027  1  0.16446654  0.50000000  0.75220013  1.0
  Ni  Ni1028  1  0.16446654  0.83333333  0.75220013  1.0
  Ni  Ni1029  1  0.49779987  0.16666667  0.75220013  1.0
  Ni  Ni1030  1  0.49779987  0.50000000  0.75220013  1.0
  Ni  Ni1031  1  0.49779987  0.83333333  0.75220013  1.0
  Ni  Ni1032  1  0.83113320  0.16666667  0.75220013  1.0
  Ni  Ni1033  1  0.83113320  0.50000000  0.75220013  1.0
  Ni  Ni1034  1  0.83113320  0.83333333  0.75220013  1.0
  Ni  Ni1035  1  0.05335543  0.16666667  0.69664457  1.0
  Ni  Ni1036  1  0.05335543  0.50000000  0.69664457  1.0
  Ni  Ni1037  1  0.05335543  0.83333333  0.69664457  1.0
  Ni  Ni1038  1  0.38668876  0.16666667  0.69664457  1.0
  Ni  Ni1039  1  0.38668876  0.50000000  0.69664457  1.0
  Ni  Ni1040  1  0.38668876  0.83333333  0.69664457  1.0
  Ni  Ni1041  1  0.72002209  0.16666667  0.69664457  1.0
  Ni  Ni1042  1  0.72002209  0.50000000  0.69664457  1.0
  Ni  Ni1043  1  0.72002209  0.83333333  0.69664457  1.0
  Ni  Ni1044  1  0.11807354  0.25000000  0.70108080  1.0
  Ni  Ni1045  1  0.11807354  0.58333333  0.70108080  1.0
  Ni  Ni1046  1  0.11807354  0.91666667  0.70108080  1.0
  Ni  Ni1047  1  0.45140687  0.25000000  0.70108080  1.0
  Ni  Ni1048  1  0.45140687  0.58333333  0.70108080  1.0
  Ni  Ni1049  1  0.45140687  0.91666667  0.70108080  1.0
  Ni  Ni1050  1  0.78474020  0.25000000  0.70108080  1.0
  Ni  Ni1051  1  0.78474020  0.58333333  0.70108080  1.0
  Ni  Ni1052  1  0.78474020  0.91666667  0.70108080  1.0
  Ni  Ni1053  1  0.22918465  0.25000000  0.75663635  1.0
  Ni  Ni1054  1  0.22918465  0.58333333  0.75663635  1.0
  Ni  Ni1055  1  0.22918465  0.91666667  0.75663635  1.0
  Ni  Ni1056  1  0.56251798  0.25000000  0.75663635  1.0
  Ni  Ni1057  1  0.56251798  0.58333333  0.75663635  1.0
  Ni  Ni1058  1  0.56251798  0.91666667  0.75663635  1.0
  Ni  Ni1059  1  0.89585131  0.25000000  0.75663635  1.0
  Ni  Ni1060  1  0.89585131  0.58333333  0.75663635  1.0
  Ni  Ni1061  1  0.89585131  0.91666667  0.75663635  1.0
  Ni  Ni1062  1  0.00696243  0.25000000  0.72929374  1.0
  Ni  Ni1063  1  0.00696243  0.58333333  0.72929374  1.0
  Ni  Ni1064  1  0.00696243  0.91666667  0.72929374  1.0
  Ni  Ni1065  1  0.34029576  0.25000000  0.72929374  1.0
  Ni  Ni1066  1  0.34029576  0.58333333  0.72929374  1.0
  Ni  Ni1067  1  0.34029576  0.91666667  0.72929374  1.0
  Ni  Ni1068  1  0.67362909  0.25000000  0.72929374  1.0
  Ni  Ni1069  1  0.67362909  0.58333333  0.72929374  1.0
  Ni  Ni1070  1  0.67362909  0.91666667  0.72929374  1.0
  Ni  Ni1071  1  0.22918465  0.25000000  0.67373819  1.0
  Ni  Ni1072  1  0.22918465  0.58333333  0.67373819  1.0
  Ni  Ni1073  1  0.22918465  0.91666667  0.67373819  1.0
  Ni  Ni1074  1  0.56251798  0.25000000  0.67373819  1.0
  Ni  Ni1075  1  0.56251798  0.58333333  0.67373819  1.0
  Ni  Ni1076  1  0.56251798  0.91666667  0.67373819  1.0
  Ni  Ni1077  1  0.89585131  0.25000000  0.67373819  1.0
  Ni  Ni1078  1  0.89585131  0.58333333  0.67373819  1.0
  Ni  Ni1079  1  0.89585131  0.91666667  0.67373819  1.0
  Ni  Ni1080  1  0.06280809  0.25000000  0.67344807  1.0
  Ni  Ni1081  1  0.06280809  0.58333333  0.67344807  1.0
  Ni  Ni1082  1  0.06280809  0.91666667  0.67344807  1.0
  Ni  Ni1083  1  0.39614143  0.25000000  0.67344807  1.0
  Ni  Ni1084  1  0.39614143  0.58333333  0.67344807  1.0
  Ni  Ni1085  1  0.39614143  0.91666667  0.67344807  1.0
  Ni  Ni1086  1  0.72947476  0.25000000  0.67344807  1.0
  Ni  Ni1087  1  0.72947476  0.58333333  0.67344807  1.0
  Ni  Ni1088  1  0.72947476  0.91666667  0.67344807  1.0
  Ni  Ni1089  1  0.17391920  0.25000000  0.72900363  1.0
  Ni  Ni1090  1  0.17391920  0.58333333  0.72900363  1.0
  Ni  Ni1091  1  0.17391920  0.91666667  0.72900363  1.0
  Ni  Ni1092  1  0.50725254  0.25000000  0.72900363  1.0
  Ni  Ni1093  1  0.50725254  0.58333333  0.72900363  1.0
  Ni  Ni1094  1  0.50725254  0.91666667  0.72900363  1.0
  Ni  Ni1095  1  0.84058587  0.25000000  0.72900363  1.0
  Ni  Ni1096  1  0.84058587  0.58333333  0.72900363  1.0
  Ni  Ni1097  1  0.84058587  0.91666667  0.72900363  1.0
  Ni  Ni1098  1  0.09974843  0.08333333  0.74776391  1.0
  Ni  Ni1099  1  0.09974843  0.41666667  0.74776391  1.0
  Ni  Ni1100  1  0.09974843  0.75000000  0.74776391  1.0
  Ni  Ni1101  1  0.43308176  0.08333333  0.74776391  1.0
  Ni  Ni1102  1  0.43308176  0.41666667  0.74776391  1.0
  Ni  Ni1103  1  0.43308176  0.75000000  0.74776391  1.0
  Ni  Ni1104  1  0.76641509  0.08333333  0.74776391  1.0
  Ni  Ni1105  1  0.76641509  0.41666667  0.74776391  1.0
  Ni  Ni1106  1  0.76641509  0.75000000  0.74776391  1.0
  Ni  Ni1107  1  0.32197065  0.08333333  0.69220835  1.0
  Ni  Ni1108  1  0.32197065  0.41666667  0.69220835  1.0
  Ni  Ni1109  1  0.32197065  0.75000000  0.69220835  1.0
  Ni  Ni1110  1  0.65530398  0.08333333  0.69220835  1.0
  Ni  Ni1111  1  0.65530398  0.41666667  0.69220835  1.0
  Ni  Ni1112  1  0.65530398  0.75000000  0.69220835  1.0
  Ni  Ni1113  1  0.98863731  0.08333333  0.69220835  1.0
  Ni  Ni1114  1  0.98863731  0.41666667  0.69220835  1.0
  Ni  Ni1115  1  0.98863731  0.75000000  0.69220835  1.0
  Ni  Ni1116  1  0.21085954  0.08333333  0.71955096  1.0
  Ni  Ni1117  1  0.21085954  0.41666667  0.71955096  1.0
  Ni  Ni1118  1  0.21085954  0.75000000  0.71955096  1.0
  Ni  Ni1119  1  0.54419287  0.08333333  0.71955096  1.0
  Ni  Ni1120  1  0.54419287  0.41666667  0.71955096  1.0
  Ni  Ni1121  1  0.54419287  0.75000000  0.71955096  1.0
  Ni  Ni1122  1  0.87752620  0.08333333  0.71955096  1.0
  Ni  Ni1123  1  0.87752620  0.41666667  0.71955096  1.0
  Ni  Ni1124  1  0.87752620  0.75000000  0.71955096  1.0
  Ni  Ni1125  1  0.32197065  0.08333333  0.77510652  1.0
  Ni  Ni1126  1  0.32197065  0.41666667  0.77510652  1.0
  Ni  Ni1127  1  0.32197065  0.75000000  0.77510652  1.0
  Ni  Ni1128  1  0.65530398  0.08333333  0.77510652  1.0
  Ni  Ni1129  1  0.65530398  0.41666667  0.77510652  1.0
  Ni  Ni1130  1  0.65530398  0.75000000  0.77510652  1.0
  Ni  Ni1131  1  0.98863731  0.08333333  0.77510652  1.0
  Ni  Ni1132  1  0.98863731  0.41666667  0.77510652  1.0
  Ni  Ni1133  1  0.98863731  0.75000000  0.77510652  1.0
  Ni  Ni1134  1  0.15501387  0.08333333  0.77539663  1.0
  Ni  Ni1135  1  0.15501387  0.41666667  0.77539663  1.0
  Ni  Ni1136  1  0.15501387  0.75000000  0.77539663  1.0
  Ni  Ni1137  1  0.48834720  0.08333333  0.77539663  1.0
  Ni  Ni1138  1  0.48834720  0.41666667  0.77539663  1.0
  Ni  Ni1139  1  0.48834720  0.75000000  0.77539663  1.0
  Ni  Ni1140  1  0.82168054  0.08333333  0.77539663  1.0
  Ni  Ni1141  1  0.82168054  0.41666667  0.77539663  1.0
  Ni  Ni1142  1  0.82168054  0.75000000  0.77539663  1.0
  Ni  Ni1143  1  0.04390276  0.08333333  0.71984107  1.0
  Ni  Ni1144  1  0.04390276  0.41666667  0.71984107  1.0
  Ni  Ni1145  1  0.04390276  0.75000000  0.71984107  1.0
  Ni  Ni1146  1  0.37723609  0.08333333  0.71984107  1.0
  Ni  Ni1147  1  0.37723609  0.41666667  0.71984107  1.0
  Ni  Ni1148  1  0.37723609  0.75000000  0.71984107  1.0
  Ni  Ni1149  1  0.71056943  0.08333333  0.71984107  1.0
  Ni  Ni1150  1  0.71056943  0.41666667  0.71984107  1.0
  Ni  Ni1151  1  0.71056943  0.75000000  0.71984107  1.0
  Ni  Ni1152  1  0.10003576  0.30449033  0.69225041  1.0
  Ni  Ni1153  1  0.10003576  0.63782367  0.69225041  1.0
  Ni  Ni1154  1  0.10003576  0.97115700  0.69225041  1.0
  Ni  Ni1155  1  0.43336909  0.30449033  0.69225041  1.0
  Ni  Ni1156  1  0.43336909  0.63782367  0.69225041  1.0
  Ni  Ni1157  1  0.43336909  0.97115700  0.69225041  1.0
  Ni  Ni1158  1  0.76670243  0.30449033  0.69225041  1.0
  Ni  Ni1159  1  0.76670243  0.63782367  0.69225041  1.0
  Ni  Ni1160  1  0.76670243  0.97115700  0.69225041  1.0
  Ni  Ni1161  1  0.21114687  0.30449033  0.74780596  1.0
  Ni  Ni1162  1  0.21114687  0.63782367  0.74780596  1.0
  Ni  Ni1163  1  0.21114687  0.97115700  0.74780596  1.0
  Ni  Ni1164  1  0.54448020  0.30449033  0.74780596  1.0
  Ni  Ni1165  1  0.54448020  0.63782367  0.74780596  1.0
  Ni  Ni1166  1  0.54448020  0.97115700  0.74780596  1.0
  Ni  Ni1167  1  0.87781354  0.30449033  0.74780596  1.0
  Ni  Ni1168  1  0.87781354  0.63782367  0.74780596  1.0
  Ni  Ni1169  1  0.87781354  0.97115700  0.74780596  1.0
  Ni  Ni1170  1  0.32225798  0.30449033  0.71989785  1.0
  Ni  Ni1171  1  0.32225798  0.63782367  0.71989785  1.0
  Ni  Ni1172  1  0.32225798  0.97115700  0.71989785  1.0
  Ni  Ni1173  1  0.65559131  0.30449033  0.71989785  1.0
  Ni  Ni1174  1  0.65559131  0.63782367  0.71989785  1.0
  Ni  Ni1175  1  0.65559131  0.97115700  0.71989785  1.0
  Ni  Ni1176  1  0.98892465  0.30449033  0.71989785  1.0
  Ni  Ni1177  1  0.98892465  0.63782367  0.71989785  1.0
  Ni  Ni1178  1  0.98892465  0.97115700  0.71989785  1.0
  Ni  Ni1179  1  0.10003576  0.30449033  0.77545341  1.0
  Ni  Ni1180  1  0.10003576  0.63782367  0.77545341  1.0
  Ni  Ni1181  1  0.10003576  0.97115700  0.77545341  1.0
  Ni  Ni1182  1  0.43336909  0.30449033  0.77545341  1.0
  Ni  Ni1183  1  0.43336909  0.63782367  0.77545341  1.0
  Ni  Ni1184  1  0.43336909  0.97115700  0.77545341  1.0
  Ni  Ni1185  1  0.76670243  0.30449033  0.77545341  1.0
  Ni  Ni1186  1  0.76670243  0.63782367  0.77545341  1.0
  Ni  Ni1187  1  0.76670243  0.97115700  0.77545341  1.0
  Ni  Ni1188  1  0.26661554  0.30449033  0.77554030  1.0
  Ni  Ni1189  1  0.26661554  0.63782367  0.77554030  1.0
  Ni  Ni1190  1  0.26661554  0.97115700  0.77554030  1.0
  Ni  Ni1191  1  0.59994887  0.30449033  0.77554030  1.0
  Ni  Ni1192  1  0.59994887  0.63782367  0.77554030  1.0
  Ni  Ni1193  1  0.59994887  0.97115700  0.77554030  1.0
  Ni  Ni1194  1  0.93328220  0.30449033  0.77554030  1.0
  Ni  Ni1195  1  0.93328220  0.63782367  0.77554030  1.0
  Ni  Ni1196  1  0.93328220  0.97115700  0.77554030  1.0
  Ni  Ni1197  1  0.15550443  0.30449033  0.71998474  1.0
  Ni  Ni1198  1  0.15550443  0.63782367  0.71998474  1.0
  Ni  Ni1199  1  0.15550443  0.97115700  0.71998474  1.0
  Ni  Ni1200  1  0.48883776  0.30449033  0.71998474  1.0
  Ni  Ni1201  1  0.48883776  0.63782367  0.71998474  1.0
  Ni  Ni1202  1  0.48883776  0.97115700  0.71998474  1.0
  Ni  Ni1203  1  0.82217109  0.30449033  0.71998474  1.0
  Ni  Ni1204  1  0.82217109  0.63782367  0.71998474  1.0
  Ni  Ni1205  1  0.82217109  0.97115700  0.71998474  1.0
  Ni  Ni1206  1  0.11778620  0.02884300  0.75659430  1.0
  Ni  Ni1207  1  0.11778620  0.36217633  0.75659430  1.0
  Ni  Ni1208  1  0.11778620  0.69550967  0.75659430  1.0
  Ni  Ni1209  1  0.45111954  0.02884300  0.75659430  1.0
  Ni  Ni1210  1  0.45111954  0.36217633  0.75659430  1.0
  Ni  Ni1211  1  0.45111954  0.69550967  0.75659430  1.0
  Ni  Ni1212  1  0.78445287  0.02884300  0.75659430  1.0
  Ni  Ni1213  1  0.78445287  0.36217633  0.75659430  1.0
  Ni  Ni1214  1  0.78445287  0.69550967  0.75659430  1.0
  Ni  Ni1215  1  0.00667509  0.02884300  0.70103874  1.0
  Ni  Ni1216  1  0.00667509  0.36217633  0.70103874  1.0
  Ni  Ni1217  1  0.00667509  0.69550967  0.70103874  1.0
  Ni  Ni1218  1  0.34000843  0.02884300  0.70103874  1.0
  Ni  Ni1219  1  0.34000843  0.36217633  0.70103874  1.0
  Ni  Ni1220  1  0.34000843  0.69550967  0.70103874  1.0
  Ni  Ni1221  1  0.67334176  0.02884300  0.70103874  1.0
  Ni  Ni1222  1  0.67334176  0.36217633  0.70103874  1.0
  Ni  Ni1223  1  0.67334176  0.69550967  0.70103874  1.0
  Ni  Ni1224  1  0.22889731  0.02884300  0.72894685  1.0
  Ni  Ni1225  1  0.22889731  0.36217633  0.72894685  1.0
  Ni  Ni1226  1  0.22889731  0.69550967  0.72894685  1.0
  Ni  Ni1227  1  0.56223065  0.02884300  0.72894685  1.0
  Ni  Ni1228  1  0.56223065  0.36217633  0.72894685  1.0
  Ni  Ni1229  1  0.56223065  0.69550967  0.72894685  1.0
  Ni  Ni1230  1  0.89556398  0.02884300  0.72894685  1.0
  Ni  Ni1231  1  0.89556398  0.36217633  0.72894685  1.0
  Ni  Ni1232  1  0.89556398  0.69550967  0.72894685  1.0
  Ni  Ni1233  1  0.11778620  0.02884300  0.67339130  1.0
  Ni  Ni1234  1  0.11778620  0.36217633  0.67339130  1.0
  Ni  Ni1235  1  0.11778620  0.69550967  0.67339130  1.0
  Ni  Ni1236  1  0.45111954  0.02884300  0.67339130  1.0
  Ni  Ni1237  1  0.45111954  0.36217633  0.67339130  1.0
  Ni  Ni1238  1  0.45111954  0.69550967  0.67339130  1.0
  Ni  Ni1239  1  0.78445287  0.02884300  0.67339130  1.0
  Ni  Ni1240  1  0.78445287  0.36217633  0.67339130  1.0
  Ni  Ni1241  1  0.78445287  0.69550967  0.67339130  1.0
  Ni  Ni1242  1  0.28453976  0.02884300  0.67330441  1.0
  Ni  Ni1243  1  0.28453976  0.36217633  0.67330441  1.0
  Ni  Ni1244  1  0.28453976  0.69550967  0.67330441  1.0
  Ni  Ni1245  1  0.61787309  0.02884300  0.67330441  1.0
  Ni  Ni1246  1  0.61787309  0.36217633  0.67330441  1.0
  Ni  Ni1247  1  0.61787309  0.69550967  0.67330441  1.0
  Ni  Ni1248  1  0.95120643  0.02884300  0.67330441  1.0
  Ni  Ni1249  1  0.95120643  0.36217633  0.67330441  1.0
  Ni  Ni1250  1  0.95120643  0.69550967  0.67330441  1.0
  Ni  Ni1251  1  0.06231754  0.02884300  0.72885996  1.0
  Ni  Ni1252  1  0.06231754  0.36217633  0.72885996  1.0
  Ni  Ni1253  1  0.06231754  0.69550967  0.72885996  1.0
  Ni  Ni1254  1  0.39565087  0.02884300  0.72885996  1.0
  Ni  Ni1255  1  0.39565087  0.36217633  0.72885996  1.0
  Ni  Ni1256  1  0.39565087  0.69550967  0.72885996  1.0
  Ni  Ni1257  1  0.72898420  0.02884300  0.72885996  1.0
  Ni  Ni1258  1  0.72898420  0.36217633  0.72885996  1.0
  Ni  Ni1259  1  0.72898420  0.69550967  0.72885996  1.0
  Ni  Ni1260  1  0.08145931  0.13782367  0.73843085  1.0
  Ni  Ni1261  1  0.08145931  0.47115700  0.73843085  1.0
  Ni  Ni1262  1  0.08145931  0.80449033  0.73843085  1.0
  Ni  Ni1263  1  0.41479265  0.13782367  0.73843085  1.0
  Ni  Ni1264  1  0.41479265  0.47115700  0.73843085  1.0
  Ni  Ni1265  1  0.41479265  0.80449033  0.73843085  1.0
  Ni  Ni1266  1  0.74812598  0.13782367  0.73843085  1.0
  Ni  Ni1267  1  0.74812598  0.47115700  0.73843085  1.0
  Ni  Ni1268  1  0.74812598  0.80449033  0.73843085  1.0
  Ni  Ni1269  1  0.30368154  0.13782367  0.68287530  1.0
  Ni  Ni1270  1  0.30368154  0.47115700  0.68287530  1.0
  Ni  Ni1271  1  0.30368154  0.80449033  0.68287530  1.0
  Ni  Ni1272  1  0.63701487  0.13782367  0.68287530  1.0
  Ni  Ni1273  1  0.63701487  0.47115700  0.68287530  1.0
  Ni  Ni1274  1  0.63701487  0.80449033  0.68287530  1.0
  Ni  Ni1275  1  0.97034820  0.13782367  0.68287530  1.0
  Ni  Ni1276  1  0.97034820  0.47115700  0.68287530  1.0
  Ni  Ni1277  1  0.97034820  0.80449033  0.68287530  1.0
  Ni  Ni1278  1  0.19257043  0.13782367  0.71078341  1.0
  Ni  Ni1279  1  0.19257043  0.47115700  0.71078341  1.0
  Ni  Ni1280  1  0.19257043  0.80449033  0.71078341  1.0
  Ni  Ni1281  1  0.52590376  0.13782367  0.71078341  1.0
  Ni  Ni1282  1  0.52590376  0.47115700  0.71078341  1.0
  Ni  Ni1283  1  0.52590376  0.80449033  0.71078341  1.0
  Ni  Ni1284  1  0.85923709  0.13782367  0.71078341  1.0
  Ni  Ni1285  1  0.85923709  0.47115700  0.71078341  1.0
  Ni  Ni1286  1  0.85923709  0.80449033  0.71078341  1.0
  Ni  Ni1287  1  0.30368154  0.13782367  0.76633896  1.0
  Ni  Ni1288  1  0.30368154  0.47115700  0.76633896  1.0
  Ni  Ni1289  1  0.30368154  0.80449033  0.76633896  1.0
  Ni  Ni1290  1  0.63701487  0.13782367  0.76633896  1.0
  Ni  Ni1291  1  0.63701487  0.47115700  0.76633896  1.0
  Ni  Ni1292  1  0.63701487  0.80449033  0.76633896  1.0
  Ni  Ni1293  1  0.97034820  0.13782367  0.76633896  1.0
  Ni  Ni1294  1  0.97034820  0.47115700  0.76633896  1.0
  Ni  Ni1295  1  0.97034820  0.80449033  0.76633896  1.0
  Ni  Ni1296  1  0.13710176  0.13782367  0.76625207  1.0
  Ni  Ni1297  1  0.13710176  0.47115700  0.76625207  1.0
  Ni  Ni1298  1  0.13710176  0.80449033  0.76625207  1.0
  Ni  Ni1299  1  0.47043509  0.13782367  0.76625207  1.0
  Ni  Ni1300  1  0.47043509  0.47115700  0.76625207  1.0
  Ni  Ni1301  1  0.47043509  0.80449033  0.76625207  1.0
  Ni  Ni1302  1  0.80376843  0.13782367  0.76625207  1.0
  Ni  Ni1303  1  0.80376843  0.47115700  0.76625207  1.0
  Ni  Ni1304  1  0.80376843  0.80449033  0.76625207  1.0
  Ni  Ni1305  1  0.02599065  0.13782367  0.71069652  1.0
  Ni  Ni1306  1  0.02599065  0.47115700  0.71069652  1.0
  Ni  Ni1307  1  0.02599065  0.80449033  0.71069652  1.0
  Ni  Ni1308  1  0.35932398  0.13782367  0.71069652  1.0
  Ni  Ni1309  1  0.35932398  0.47115700  0.71069652  1.0
  Ni  Ni1310  1  0.35932398  0.80449033  0.71069652  1.0
  Ni  Ni1311  1  0.69265731  0.13782367  0.71069652  1.0
  Ni  Ni1312  1  0.69265731  0.47115700  0.71069652  1.0
  Ni  Ni1313  1  0.69265731  0.80449033  0.71069652  1.0
  Ni  Ni1314  1  0.13636265  0.19550967  0.71041385  1.0
  Ni  Ni1315  1  0.13636265  0.52884300  0.71041385  1.0
  Ni  Ni1316  1  0.13636265  0.86217633  0.71041385  1.0
  Ni  Ni1317  1  0.46969598  0.19550967  0.71041385  1.0
  Ni  Ni1318  1  0.46969598  0.52884300  0.71041385  1.0
  Ni  Ni1319  1  0.46969598  0.86217633  0.71041385  1.0
  Ni  Ni1320  1  0.80302931  0.19550967  0.71041385  1.0
  Ni  Ni1321  1  0.80302931  0.52884300  0.71041385  1.0
  Ni  Ni1322  1  0.80302931  0.86217633  0.71041385  1.0
  Ni  Ni1323  1  0.24747376  0.19550967  0.76596941  1.0
  Ni  Ni1324  1  0.24747376  0.52884300  0.76596941  1.0
  Ni  Ni1325  1  0.24747376  0.86217633  0.76596941  1.0
  Ni  Ni1326  1  0.58080709  0.19550967  0.76596941  1.0
  Ni  Ni1327  1  0.58080709  0.52884300  0.76596941  1.0
  Ni  Ni1328  1  0.58080709  0.86217633  0.76596941  1.0
  Ni  Ni1329  1  0.91414043  0.19550967  0.76596941  1.0
  Ni  Ni1330  1  0.91414043  0.52884300  0.76596941  1.0
  Ni  Ni1331  1  0.91414043  0.86217633  0.76596941  1.0
  Ni  Ni1332  1  0.02525154  0.19550967  0.73806130  1.0
  Ni  Ni1333  1  0.02525154  0.52884300  0.73806130  1.0
  Ni  Ni1334  1  0.02525154  0.86217633  0.73806130  1.0
  Ni  Ni1335  1  0.35858487  0.19550967  0.73806130  1.0
  Ni  Ni1336  1  0.35858487  0.52884300  0.73806130  1.0
  Ni  Ni1337  1  0.35858487  0.86217633  0.73806130  1.0
  Ni  Ni1338  1  0.69191820  0.19550967  0.73806130  1.0
  Ni  Ni1339  1  0.69191820  0.52884300  0.73806130  1.0
  Ni  Ni1340  1  0.69191820  0.86217633  0.73806130  1.0
  Ni  Ni1341  1  0.24747376  0.19550967  0.68250574  1.0
  Ni  Ni1342  1  0.24747376  0.52884300  0.68250574  1.0
  Ni  Ni1343  1  0.24747376  0.86217633  0.68250574  1.0
  Ni  Ni1344  1  0.58080709  0.19550967  0.68250574  1.0
  Ni  Ni1345  1  0.58080709  0.52884300  0.68250574  1.0
  Ni  Ni1346  1  0.58080709  0.86217633  0.68250574  1.0
  Ni  Ni1347  1  0.91414043  0.19550967  0.68250574  1.0
  Ni  Ni1348  1  0.91414043  0.52884300  0.68250574  1.0
  Ni  Ni1349  1  0.91414043  0.86217633  0.68250574  1.0
  Ni  Ni1350  1  0.08072020  0.19550967  0.68259263  1.0
  Ni  Ni1351  1  0.08072020  0.52884300  0.68259263  1.0
  Ni  Ni1352  1  0.08072020  0.86217633  0.68259263  1.0
  Ni  Ni1353  1  0.41405354  0.19550967  0.68259263  1.0
  Ni  Ni1354  1  0.41405354  0.52884300  0.68259263  1.0
  Ni  Ni1355  1  0.41405354  0.86217633  0.68259263  1.0
  Ni  Ni1356  1  0.74738687  0.19550967  0.68259263  1.0
  Ni  Ni1357  1  0.74738687  0.52884300  0.68259263  1.0
  Ni  Ni1358  1  0.74738687  0.86217633  0.68259263  1.0
  Ni  Ni1359  1  0.19183131  0.19550967  0.73814819  1.0
  Ni  Ni1360  1  0.19183131  0.52884300  0.73814819  1.0
  Ni  Ni1361  1  0.19183131  0.86217633  0.73814819  1.0
  Ni  Ni1362  1  0.52516465  0.19550967  0.73814819  1.0
  Ni  Ni1363  1  0.52516465  0.52884300  0.73814819  1.0
  Ni  Ni1364  1  0.52516465  0.86217633  0.73814819  1.0
  Ni  Ni1365  1  0.85849798  0.19550967  0.73814819  1.0
  Ni  Ni1366  1  0.85849798  0.52884300  0.73814819  1.0
  Ni  Ni1367  1  0.85849798  0.86217633  0.73814819  1.0
  Ni  Ni1368  1  0.12764365  0.27713533  0.73378869  1.0
  Ni  Ni1369  1  0.12764365  0.61046867  0.73378869  1.0
  Ni  Ni1370  1  0.12764365  0.94380200  0.73378869  1.0
  Ni  Ni1371  1  0.46097698  0.27713533  0.73378869  1.0
  Ni  Ni1372  1  0.46097698  0.61046867  0.73378869  1.0
  Ni  Ni1373  1  0.46097698  0.94380200  0.73378869  1.0
  Ni  Ni1374  1  0.79431031  0.27713533  0.73378869  1.0
  Ni  Ni1375  1  0.79431031  0.61046867  0.73378869  1.0
  Ni  Ni1376  1  0.79431031  0.94380200  0.73378869  1.0
  Ni  Ni1377  1  0.01653254  0.27713533  0.67823313  1.0
  Ni  Ni1378  1  0.01653254  0.61046867  0.67823313  1.0
  Ni  Ni1379  1  0.01653254  0.94380200  0.67823313  1.0
  Ni  Ni1380  1  0.34986587  0.27713533  0.67823313  1.0
  Ni  Ni1381  1  0.34986587  0.61046867  0.67823313  1.0
  Ni  Ni1382  1  0.34986587  0.94380200  0.67823313  1.0
  Ni  Ni1383  1  0.68319920  0.27713533  0.67823313  1.0
  Ni  Ni1384  1  0.68319920  0.61046867  0.67823313  1.0
  Ni  Ni1385  1  0.68319920  0.94380200  0.67823313  1.0
  Ni  Ni1386  1  0.20128943  0.05619800  0.77061157  1.0
  Ni  Ni1387  1  0.20128943  0.38953133  0.77061157  1.0
  Ni  Ni1388  1  0.20128943  0.72286467  0.77061157  1.0
  Ni  Ni1389  1  0.53462276  0.05619800  0.77061157  1.0
  Ni  Ni1390  1  0.53462276  0.38953133  0.77061157  1.0
  Ni  Ni1391  1  0.53462276  0.72286467  0.77061157  1.0
  Ni  Ni1392  1  0.86795609  0.05619800  0.77061157  1.0
  Ni  Ni1393  1  0.86795609  0.38953133  0.77061157  1.0
  Ni  Ni1394  1  0.86795609  0.72286467  0.77061157  1.0
  Ni  Ni1395  1  0.09017831  0.05619800  0.71505602  1.0
  Ni  Ni1396  1  0.09017831  0.38953133  0.71505602  1.0
  Ni  Ni1397  1  0.09017831  0.72286467  0.71505602  1.0
  Ni  Ni1398  1  0.42351165  0.05619800  0.71505602  1.0
  Ni  Ni1399  1  0.42351165  0.38953133  0.71505602  1.0
  Ni  Ni1400  1  0.42351165  0.72286467  0.71505602  1.0
  Ni  Ni1401  1  0.75684498  0.05619800  0.71505602  1.0
  Ni  Ni1402  1  0.75684498  0.38953133  0.71505602  1.0
  Ni  Ni1403  1  0.75684498  0.72286467  0.71505602  1.0
  Ni  Ni1404  1  0.18319920  0.11046867  0.76156646  1.0
  Ni  Ni1405  1  0.18319920  0.44380200  0.76156646  1.0
  Ni  Ni1406  1  0.18319920  0.77713533  0.76156646  1.0
  Ni  Ni1407  1  0.51653254  0.11046867  0.76156646  1.0
  Ni  Ni1408  1  0.51653254  0.44380200  0.76156646  1.0
  Ni  Ni1409  1  0.51653254  0.77713533  0.76156646  1.0
  Ni  Ni1410  1  0.84986587  0.11046867  0.76156646  1.0
  Ni  Ni1411  1  0.84986587  0.44380200  0.76156646  1.0
  Ni  Ni1412  1  0.84986587  0.77713533  0.76156646  1.0
  Ni  Ni1413  1  0.07208809  0.11046867  0.70601091  1.0
  Ni  Ni1414  1  0.07208809  0.44380200  0.70601091  1.0
  Ni  Ni1415  1  0.07208809  0.77713533  0.70601091  1.0
  Ni  Ni1416  1  0.40542143  0.11046867  0.70601091  1.0
  Ni  Ni1417  1  0.40542143  0.44380200  0.70601091  1.0
  Ni  Ni1418  1  0.40542143  0.77713533  0.70601091  1.0
  Ni  Ni1419  1  0.73875476  0.11046867  0.70601091  1.0
  Ni  Ni1420  1  0.73875476  0.44380200  0.70601091  1.0
  Ni  Ni1421  1  0.73875476  0.77713533  0.70601091  1.0
  Ni  Ni1422  1  0.14573387  0.22286467  0.74283380  1.0
  Ni  Ni1423  1  0.14573387  0.55619800  0.74283380  1.0
  Ni  Ni1424  1  0.14573387  0.88953133  0.74283380  1.0
  Ni  Ni1425  1  0.47906720  0.22286467  0.74283380  1.0
  Ni  Ni1426  1  0.47906720  0.55619800  0.74283380  1.0
  Ni  Ni1427  1  0.47906720  0.88953133  0.74283380  1.0
  Ni  Ni1428  1  0.81240054  0.22286467  0.74283380  1.0
  Ni  Ni1429  1  0.81240054  0.55619800  0.74283380  1.0
  Ni  Ni1430  1  0.81240054  0.88953133  0.74283380  1.0
  Ni  Ni1431  1  0.03462276  0.22286467  0.68727824  1.0
  Ni  Ni1432  1  0.03462276  0.55619800  0.68727824  1.0
  Ni  Ni1433  1  0.03462276  0.88953133  0.68727824  1.0
  Ni  Ni1434  1  0.36795609  0.22286467  0.68727824  1.0
  Ni  Ni1435  1  0.36795609  0.55619800  0.68727824  1.0
  Ni  Ni1436  1  0.36795609  0.88953133  0.68727824  1.0
  Ni  Ni1437  1  0.70128943  0.22286467  0.68727824  1.0
  Ni  Ni1438  1  0.70128943  0.55619800  0.68727824  1.0
  Ni  Ni1439  1  0.70128943  0.88953133  0.68727824  1.0
  Ni  Ni1440  1  0.23846591  0.05577967  0.67808870  1.0
  Ni  Ni1441  1  0.23846591  0.38911300  0.67808870  1.0
  Ni  Ni1442  1  0.23846591  0.72244633  0.67808870  1.0
  Ni  Ni1443  1  0.57179924  0.05577967  0.67808870  1.0
  Ni  Ni1444  1  0.57179924  0.38911300  0.67808870  1.0
  Ni  Ni1445  1  0.57179924  0.72244633  0.67808870  1.0
  Ni  Ni1446  1  0.90513257  0.05577967  0.67808870  1.0
  Ni  Ni1447  1  0.90513257  0.38911300  0.67808870  1.0
  Ni  Ni1448  1  0.90513257  0.72244633  0.67808870  1.0
  Ni  Ni1449  1  0.01624369  0.05577967  0.73364426  1.0
  Ni  Ni1450  1  0.01624369  0.38911300  0.73364426  1.0
  Ni  Ni1451  1  0.01624369  0.72244633  0.73364426  1.0
  Ni  Ni1452  1  0.34957702  0.05577967  0.73364426  1.0
  Ni  Ni1453  1  0.34957702  0.38911300  0.73364426  1.0
  Ni  Ni1454  1  0.34957702  0.72244633  0.73364426  1.0
  Ni  Ni1455  1  0.68291035  0.05577967  0.73364426  1.0
  Ni  Ni1456  1  0.68291035  0.38911300  0.73364426  1.0
  Ni  Ni1457  1  0.68291035  0.72244633  0.73364426  1.0
  Ni  Ni1458  1  0.31268939  0.27755367  0.77075600  1.0
  Ni  Ni1459  1  0.31268939  0.61088700  0.77075600  1.0
  Ni  Ni1460  1  0.31268939  0.94422033  0.77075600  1.0
  Ni  Ni1461  1  0.64602272  0.27755367  0.77075600  1.0
  Ni  Ni1462  1  0.64602272  0.61088700  0.77075600  1.0
  Ni  Ni1463  1  0.64602272  0.94422033  0.77075600  1.0
  Ni  Ni1464  1  0.97935606  0.27755367  0.77075600  1.0
  Ni  Ni1465  1  0.97935606  0.61088700  0.77075600  1.0
  Ni  Ni1466  1  0.97935606  0.94422033  0.77075600  1.0
  Ni  Ni1467  1  0.20157828  0.27755367  0.71520044  1.0
  Ni  Ni1468  1  0.20157828  0.61088700  0.71520044  1.0
  Ni  Ni1469  1  0.20157828  0.94422033  0.71520044  1.0
  Ni  Ni1470  1  0.53491161  0.27755367  0.71520044  1.0
  Ni  Ni1471  1  0.53491161  0.61088700  0.71520044  1.0
  Ni  Ni1472  1  0.53491161  0.94422033  0.71520044  1.0
  Ni  Ni1473  1  0.86824494  0.27755367  0.71520044  1.0
  Ni  Ni1474  1  0.86824494  0.61088700  0.71520044  1.0
  Ni  Ni1475  1  0.86824494  0.94422033  0.71520044  1.0
  Ni  Ni1476  1  0.10883628  0.22244633  0.66882944  1.0
  Ni  Ni1477  1  0.10883628  0.55577967  0.66882944  1.0
  Ni  Ni1478  1  0.10883628  0.88911300  0.66882944  1.0
  Ni  Ni1479  1  0.44216961  0.22244633  0.66882944  1.0
  Ni  Ni1480  1  0.44216961  0.55577967  0.66882944  1.0
  Ni  Ni1481  1  0.44216961  0.88911300  0.66882944  1.0
  Ni  Ni1482  1  0.77550294  0.22244633  0.66882944  1.0
  Ni  Ni1483  1  0.77550294  0.55577967  0.66882944  1.0
  Ni  Ni1484  1  0.77550294  0.88911300  0.66882944  1.0
  Ni  Ni1485  1  0.21994739  0.22244633  0.72438500  1.0
  Ni  Ni1486  1  0.21994739  0.55577967  0.72438500  1.0
  Ni  Ni1487  1  0.21994739  0.88911300  0.72438500  1.0
  Ni  Ni1488  1  0.55328072  0.22244633  0.72438500  1.0
  Ni  Ni1489  1  0.55328072  0.55577967  0.72438500  1.0
  Ni  Ni1490  1  0.55328072  0.88911300  0.72438500  1.0
  Ni  Ni1491  1  0.88661406  0.22244633  0.72438500  1.0
  Ni  Ni1492  1  0.88661406  0.55577967  0.72438500  1.0
  Ni  Ni1493  1  0.88661406  0.88911300  0.72438500  1.0
  Ni  Ni1494  1  0.22009680  0.11088700  0.66890415  1.0
  Ni  Ni1495  1  0.22009680  0.44422033  0.66890415  1.0
  Ni  Ni1496  1  0.22009680  0.77755367  0.66890415  1.0
  Ni  Ni1497  1  0.55343013  0.11088700  0.66890415  1.0
  Ni  Ni1498  1  0.55343013  0.44422033  0.66890415  1.0
  Ni  Ni1499  1  0.55343013  0.77755367  0.66890415  1.0
  Ni  Ni1500  1  0.88676346  0.11088700  0.66890415  1.0
  Ni  Ni1501  1  0.88676346  0.44422033  0.66890415  1.0
  Ni  Ni1502  1  0.88676346  0.77755367  0.66890415  1.0
  Ni  Ni1503  1  0.33120791  0.11088700  0.72445970  1.0
  Ni  Ni1504  1  0.33120791  0.44422033  0.72445970  1.0
  Ni  Ni1505  1  0.33120791  0.77755367  0.72445970  1.0
  Ni  Ni1506  1  0.66454124  0.11088700  0.72445970  1.0
  Ni  Ni1507  1  0.66454124  0.44422033  0.72445970  1.0
  Ni  Ni1508  1  0.66454124  0.77755367  0.72445970  1.0
  Ni  Ni1509  1  0.99787457  0.11088700  0.72445970  1.0
  Ni  Ni1510  1  0.99787457  0.44422033  0.72445970  1.0
  Ni  Ni1511  1  0.99787457  0.77755367  0.72445970  1.0
  Ni  Ni1512  1  0.10891098  0.00000000  0.55775569  1.0
  Ni  Ni1513  1  0.10891098  0.33333333  0.55775569  1.0
  Ni  Ni1514  1  0.10891098  0.66666667  0.55775569  1.0
  Ni  Ni1515  1  0.44224431  0.00000000  0.55775569  1.0
  Ni  Ni1516  1  0.44224431  0.33333333  0.55775569  1.0
  Ni  Ni1517  1  0.44224431  0.66666667  0.55775569  1.0
  Ni  Ni1518  1  0.77557765  0.00000000  0.55775569  1.0
  Ni  Ni1519  1  0.77557765  0.33333333  0.55775569  1.0
  Ni  Ni1520  1  0.77557765  0.66666667  0.55775569  1.0
  Ni  Ni1521  1  0.22002209  0.00000000  0.61331124  1.0
  Ni  Ni1522  1  0.22002209  0.33333333  0.61331124  1.0
  Ni  Ni1523  1  0.22002209  0.66666667  0.61331124  1.0
  Ni  Ni1524  1  0.55335543  0.00000000  0.61331124  1.0
  Ni  Ni1525  1  0.55335543  0.33333333  0.61331124  1.0
  Ni  Ni1526  1  0.55335543  0.66666667  0.61331124  1.0
  Ni  Ni1527  1  0.88668876  0.00000000  0.61331124  1.0
  Ni  Ni1528  1  0.88668876  0.33333333  0.61331124  1.0
  Ni  Ni1529  1  0.88668876  0.66666667  0.61331124  1.0
  Ni  Ni1530  1  0.27557765  0.16666667  0.64108902  1.0
  Ni  Ni1531  1  0.27557765  0.50000000  0.64108902  1.0
  Ni  Ni1532  1  0.27557765  0.83333333  0.64108902  1.0
  Ni  Ni1533  1  0.60891098  0.16666667  0.64108902  1.0
  Ni  Ni1534  1  0.60891098  0.50000000  0.64108902  1.0
  Ni  Ni1535  1  0.60891098  0.83333333  0.64108902  1.0
  Ni  Ni1536  1  0.94224431  0.16666667  0.64108902  1.0
  Ni  Ni1537  1  0.94224431  0.50000000  0.64108902  1.0
  Ni  Ni1538  1  0.94224431  0.83333333  0.64108902  1.0
  Ni  Ni1539  1  0.16446654  0.16666667  0.58553346  1.0
  Ni  Ni1540  1  0.16446654  0.50000000  0.58553346  1.0
  Ni  Ni1541  1  0.16446654  0.83333333  0.58553346  1.0
  Ni  Ni1542  1  0.49779987  0.16666667  0.58553346  1.0
  Ni  Ni1543  1  0.49779987  0.50000000  0.58553346  1.0
  Ni  Ni1544  1  0.49779987  0.83333333  0.58553346  1.0
  Ni  Ni1545  1  0.83113320  0.16666667  0.58553346  1.0
  Ni  Ni1546  1  0.83113320  0.50000000  0.58553346  1.0
  Ni  Ni1547  1  0.83113320  0.83333333  0.58553346  1.0
  Ni  Ni1548  1  0.22918465  0.25000000  0.58996969  1.0
  Ni  Ni1549  1  0.22918465  0.58333333  0.58996969  1.0
  Ni  Ni1550  1  0.22918465  0.91666667  0.58996969  1.0
  Ni  Ni1551  1  0.56251798  0.25000000  0.58996969  1.0
  Ni  Ni1552  1  0.56251798  0.58333333  0.58996969  1.0
  Ni  Ni1553  1  0.56251798  0.91666667  0.58996969  1.0
  Ni  Ni1554  1  0.89585131  0.25000000  0.58996969  1.0
  Ni  Ni1555  1  0.89585131  0.58333333  0.58996969  1.0
  Ni  Ni1556  1  0.89585131  0.91666667  0.58996969  1.0
  Ni  Ni1557  1  0.00696243  0.25000000  0.64552524  1.0
  Ni  Ni1558  1  0.00696243  0.58333333  0.64552524  1.0
  Ni  Ni1559  1  0.00696243  0.91666667  0.64552524  1.0
  Ni  Ni1560  1  0.34029576  0.25000000  0.64552524  1.0
  Ni  Ni1561  1  0.34029576  0.58333333  0.64552524  1.0
  Ni  Ni1562  1  0.34029576  0.91666667  0.64552524  1.0
  Ni  Ni1563  1  0.67362909  0.25000000  0.64552524  1.0
  Ni  Ni1564  1  0.67362909  0.58333333  0.64552524  1.0
  Ni  Ni1565  1  0.67362909  0.91666667  0.64552524  1.0
  Ni  Ni1566  1  0.11807354  0.25000000  0.61818263  1.0
  Ni  Ni1567  1  0.11807354  0.58333333  0.61818263  1.0
  Ni  Ni1568  1  0.11807354  0.91666667  0.61818263  1.0
  Ni  Ni1569  1  0.45140687  0.25000000  0.61818263  1.0
  Ni  Ni1570  1  0.45140687  0.58333333  0.61818263  1.0
  Ni  Ni1571  1  0.45140687  0.91666667  0.61818263  1.0
  Ni  Ni1572  1  0.78474020  0.25000000  0.61818263  1.0
  Ni  Ni1573  1  0.78474020  0.58333333  0.61818263  1.0
  Ni  Ni1574  1  0.78474020  0.91666667  0.61818263  1.0
  Ni  Ni1575  1  0.00696243  0.25000000  0.56262707  1.0
  Ni  Ni1576  1  0.00696243  0.58333333  0.56262707  1.0
  Ni  Ni1577  1  0.00696243  0.91666667  0.56262707  1.0
  Ni  Ni1578  1  0.34029576  0.25000000  0.56262707  1.0
  Ni  Ni1579  1  0.34029576  0.58333333  0.56262707  1.0
  Ni  Ni1580  1  0.34029576  0.91666667  0.56262707  1.0
  Ni  Ni1581  1  0.67362909  0.25000000  0.56262707  1.0
  Ni  Ni1582  1  0.67362909  0.58333333  0.56262707  1.0
  Ni  Ni1583  1  0.67362909  0.91666667  0.56262707  1.0
  Ni  Ni1584  1  0.17391920  0.25000000  0.56233696  1.0
  Ni  Ni1585  1  0.17391920  0.58333333  0.56233696  1.0
  Ni  Ni1586  1  0.17391920  0.91666667  0.56233696  1.0
  Ni  Ni1587  1  0.50725254  0.25000000  0.56233696  1.0
  Ni  Ni1588  1  0.50725254  0.58333333  0.56233696  1.0
  Ni  Ni1589  1  0.50725254  0.91666667  0.56233696  1.0
  Ni  Ni1590  1  0.84058587  0.25000000  0.56233696  1.0
  Ni  Ni1591  1  0.84058587  0.58333333  0.56233696  1.0
  Ni  Ni1592  1  0.84058587  0.91666667  0.56233696  1.0
  Ni  Ni1593  1  0.28503031  0.25000000  0.61789252  1.0
  Ni  Ni1594  1  0.28503031  0.58333333  0.61789252  1.0
  Ni  Ni1595  1  0.28503031  0.91666667  0.61789252  1.0
  Ni  Ni1596  1  0.61836365  0.25000000  0.61789252  1.0
  Ni  Ni1597  1  0.61836365  0.58333333  0.61789252  1.0
  Ni  Ni1598  1  0.61836365  0.91666667  0.61789252  1.0
  Ni  Ni1599  1  0.95169698  0.25000000  0.61789252  1.0
  Ni  Ni1600  1  0.95169698  0.58333333  0.61789252  1.0
  Ni  Ni1601  1  0.95169698  0.91666667  0.61789252  1.0
  Ni  Ni1602  1  0.21085954  0.08333333  0.63665280  1.0
  Ni  Ni1603  1  0.21085954  0.41666667  0.63665280  1.0
  Ni  Ni1604  1  0.21085954  0.75000000  0.63665280  1.0
  Ni  Ni1605  1  0.54419287  0.08333333  0.63665280  1.0
  Ni  Ni1606  1  0.54419287  0.41666667  0.63665280  1.0
  Ni  Ni1607  1  0.54419287  0.75000000  0.63665280  1.0
  Ni  Ni1608  1  0.87752620  0.08333333  0.63665280  1.0
  Ni  Ni1609  1  0.87752620  0.41666667  0.63665280  1.0
  Ni  Ni1610  1  0.87752620  0.75000000  0.63665280  1.0
  Ni  Ni1611  1  0.09974843  0.08333333  0.58109724  1.0
  Ni  Ni1612  1  0.09974843  0.41666667  0.58109724  1.0
  Ni  Ni1613  1  0.09974843  0.75000000  0.58109724  1.0
  Ni  Ni1614  1  0.43308176  0.08333333  0.58109724  1.0
  Ni  Ni1615  1  0.43308176  0.41666667  0.58109724  1.0
  Ni  Ni1616  1  0.43308176  0.75000000  0.58109724  1.0
  Ni  Ni1617  1  0.76641509  0.08333333  0.58109724  1.0
  Ni  Ni1618  1  0.76641509  0.41666667  0.58109724  1.0
  Ni  Ni1619  1  0.76641509  0.75000000  0.58109724  1.0
  Ni  Ni1620  1  0.32197065  0.08333333  0.60843985  1.0
  Ni  Ni1621  1  0.32197065  0.41666667  0.60843985  1.0
  Ni  Ni1622  1  0.32197065  0.75000000  0.60843985  1.0
  Ni  Ni1623  1  0.65530398  0.08333333  0.60843985  1.0
  Ni  Ni1624  1  0.65530398  0.41666667  0.60843985  1.0
  Ni  Ni1625  1  0.65530398  0.75000000  0.60843985  1.0
  Ni  Ni1626  1  0.98863731  0.08333333  0.60843985  1.0
  Ni  Ni1627  1  0.98863731  0.41666667  0.60843985  1.0
  Ni  Ni1628  1  0.98863731  0.75000000  0.60843985  1.0
  Ni  Ni1629  1  0.09974843  0.08333333  0.66399541  1.0
  Ni  Ni1630  1  0.09974843  0.41666667  0.66399541  1.0
  Ni  Ni1631  1  0.09974843  0.75000000  0.66399541  1.0
  Ni  Ni1632  1  0.43308176  0.08333333  0.66399541  1.0
  Ni  Ni1633  1  0.43308176  0.41666667  0.66399541  1.0
  Ni  Ni1634  1  0.43308176  0.75000000  0.66399541  1.0
  Ni  Ni1635  1  0.76641509  0.08333333  0.66399541  1.0
  Ni  Ni1636  1  0.76641509  0.41666667  0.66399541  1.0
  Ni  Ni1637  1  0.76641509  0.75000000  0.66399541  1.0
  Ni  Ni1638  1  0.26612498  0.08333333  0.66428552  1.0
  Ni  Ni1639  1  0.26612498  0.41666667  0.66428552  1.0
  Ni  Ni1640  1  0.26612498  0.75000000  0.66428552  1.0
  Ni  Ni1641  1  0.59945831  0.08333333  0.66428552  1.0
  Ni  Ni1642  1  0.59945831  0.41666667  0.66428552  1.0
  Ni  Ni1643  1  0.59945831  0.75000000  0.66428552  1.0
  Ni  Ni1644  1  0.93279165  0.08333333  0.66428552  1.0
  Ni  Ni1645  1  0.93279165  0.41666667  0.66428552  1.0
  Ni  Ni1646  1  0.93279165  0.75000000  0.66428552  1.0
  Ni  Ni1647  1  0.15501387  0.08333333  0.60872996  1.0
  Ni  Ni1648  1  0.15501387  0.41666667  0.60872996  1.0
  Ni  Ni1649  1  0.15501387  0.75000000  0.60872996  1.0
  Ni  Ni1650  1  0.48834720  0.08333333  0.60872996  1.0
  Ni  Ni1651  1  0.48834720  0.41666667  0.60872996  1.0
  Ni  Ni1652  1  0.48834720  0.75000000  0.60872996  1.0
  Ni  Ni1653  1  0.82168054  0.08333333  0.60872996  1.0
  Ni  Ni1654  1  0.82168054  0.41666667  0.60872996  1.0
  Ni  Ni1655  1  0.82168054  0.75000000  0.60872996  1.0
  Ni  Ni1656  1  0.21114687  0.30449033  0.58113930  1.0
  Ni  Ni1657  1  0.21114687  0.63782367  0.58113930  1.0
  Ni  Ni1658  1  0.21114687  0.97115700  0.58113930  1.0
  Ni  Ni1659  1  0.54448020  0.30449033  0.58113930  1.0
  Ni  Ni1660  1  0.54448020  0.63782367  0.58113930  1.0
  Ni  Ni1661  1  0.54448020  0.97115700  0.58113930  1.0
  Ni  Ni1662  1  0.87781354  0.30449033  0.58113930  1.0
  Ni  Ni1663  1  0.87781354  0.63782367  0.58113930  1.0
  Ni  Ni1664  1  0.87781354  0.97115700  0.58113930  1.0
  Ni  Ni1665  1  0.32225798  0.30449033  0.63669485  1.0
  Ni  Ni1666  1  0.32225798  0.63782367  0.63669485  1.0
  Ni  Ni1667  1  0.32225798  0.97115700  0.63669485  1.0
  Ni  Ni1668  1  0.65559131  0.30449033  0.63669485  1.0
  Ni  Ni1669  1  0.65559131  0.63782367  0.63669485  1.0
  Ni  Ni1670  1  0.65559131  0.97115700  0.63669485  1.0
  Ni  Ni1671  1  0.98892465  0.30449033  0.63669485  1.0
  Ni  Ni1672  1  0.98892465  0.63782367  0.63669485  1.0
  Ni  Ni1673  1  0.98892465  0.97115700  0.63669485  1.0
  Ni  Ni1674  1  0.10003576  0.30449033  0.60878674  1.0
  Ni  Ni1675  1  0.10003576  0.63782367  0.60878674  1.0
  Ni  Ni1676  1  0.10003576  0.97115700  0.60878674  1.0
  Ni  Ni1677  1  0.43336909  0.30449033  0.60878674  1.0
  Ni  Ni1678  1  0.43336909  0.63782367  0.60878674  1.0
  Ni  Ni1679  1  0.43336909  0.97115700  0.60878674  1.0
  Ni  Ni1680  1  0.76670243  0.30449033  0.60878674  1.0
  Ni  Ni1681  1  0.76670243  0.63782367  0.60878674  1.0
  Ni  Ni1682  1  0.76670243  0.97115700  0.60878674  1.0
  Ni  Ni1683  1  0.21114687  0.30449033  0.66434230  1.0
  Ni  Ni1684  1  0.21114687  0.63782367  0.66434230  1.0
  Ni  Ni1685  1  0.21114687  0.97115700  0.66434230  1.0
  Ni  Ni1686  1  0.54448020  0.30449033  0.66434230  1.0
  Ni  Ni1687  1  0.54448020  0.63782367  0.66434230  1.0
  Ni  Ni1688  1  0.54448020  0.97115700  0.66434230  1.0
  Ni  Ni1689  1  0.87781354  0.30449033  0.66434230  1.0
  Ni  Ni1690  1  0.87781354  0.63782367  0.66434230  1.0
  Ni  Ni1691  1  0.87781354  0.97115700  0.66434230  1.0
  Ni  Ni1692  1  0.04439331  0.30449033  0.66442919  1.0
  Ni  Ni1693  1  0.04439331  0.63782367  0.66442919  1.0
  Ni  Ni1694  1  0.04439331  0.97115700  0.66442919  1.0
  Ni  Ni1695  1  0.37772665  0.30449033  0.66442919  1.0
  Ni  Ni1696  1  0.37772665  0.63782367  0.66442919  1.0
  Ni  Ni1697  1  0.37772665  0.97115700  0.66442919  1.0
  Ni  Ni1698  1  0.71105998  0.30449033  0.66442919  1.0
  Ni  Ni1699  1  0.71105998  0.63782367  0.66442919  1.0
  Ni  Ni1700  1  0.71105998  0.97115700  0.66442919  1.0
  Ni  Ni1701  1  0.26661554  0.30449033  0.60887363  1.0
  Ni  Ni1702  1  0.26661554  0.63782367  0.60887363  1.0
  Ni  Ni1703  1  0.26661554  0.97115700  0.60887363  1.0
  Ni  Ni1704  1  0.59994887  0.30449033  0.60887363  1.0
  Ni  Ni1705  1  0.59994887  0.63782367  0.60887363  1.0
  Ni  Ni1706  1  0.59994887  0.97115700  0.60887363  1.0
  Ni  Ni1707  1  0.93328220  0.30449033  0.60887363  1.0
  Ni  Ni1708  1  0.93328220  0.63782367  0.60887363  1.0
  Ni  Ni1709  1  0.93328220  0.97115700  0.60887363  1.0
  Ni  Ni1710  1  0.22889731  0.02884300  0.64548319  1.0
  Ni  Ni1711  1  0.22889731  0.36217633  0.64548319  1.0
  Ni  Ni1712  1  0.22889731  0.69550967  0.64548319  1.0
  Ni  Ni1713  1  0.56223065  0.02884300  0.64548319  1.0
  Ni  Ni1714  1  0.56223065  0.36217633  0.64548319  1.0
  Ni  Ni1715  1  0.56223065  0.69550967  0.64548319  1.0
  Ni  Ni1716  1  0.89556398  0.02884300  0.64548319  1.0
  Ni  Ni1717  1  0.89556398  0.36217633  0.64548319  1.0
  Ni  Ni1718  1  0.89556398  0.69550967  0.64548319  1.0
  Ni  Ni1719  1  0.11778620  0.02884300  0.58992763  1.0
  Ni  Ni1720  1  0.11778620  0.36217633  0.58992763  1.0
  Ni  Ni1721  1  0.11778620  0.69550967  0.58992763  1.0
  Ni  Ni1722  1  0.45111954  0.02884300  0.58992763  1.0
  Ni  Ni1723  1  0.45111954  0.36217633  0.58992763  1.0
  Ni  Ni1724  1  0.45111954  0.69550967  0.58992763  1.0
  Ni  Ni1725  1  0.78445287  0.02884300  0.58992763  1.0
  Ni  Ni1726  1  0.78445287  0.36217633  0.58992763  1.0
  Ni  Ni1727  1  0.78445287  0.69550967  0.58992763  1.0
  Ni  Ni1728  1  0.00667509  0.02884300  0.61783574  1.0
  Ni  Ni1729  1  0.00667509  0.36217633  0.61783574  1.0
  Ni  Ni1730  1  0.00667509  0.69550967  0.61783574  1.0
  Ni  Ni1731  1  0.34000843  0.02884300  0.61783574  1.0
  Ni  Ni1732  1  0.34000843  0.36217633  0.61783574  1.0
  Ni  Ni1733  1  0.34000843  0.69550967  0.61783574  1.0
  Ni  Ni1734  1  0.67334176  0.02884300  0.61783574  1.0
  Ni  Ni1735  1  0.67334176  0.36217633  0.61783574  1.0
  Ni  Ni1736  1  0.67334176  0.69550967  0.61783574  1.0
  Ni  Ni1737  1  0.22889731  0.02884300  0.56228019  1.0
  Ni  Ni1738  1  0.22889731  0.36217633  0.56228019  1.0
  Ni  Ni1739  1  0.22889731  0.69550967  0.56228019  1.0
  Ni  Ni1740  1  0.56223065  0.02884300  0.56228019  1.0
  Ni  Ni1741  1  0.56223065  0.36217633  0.56228019  1.0
  Ni  Ni1742  1  0.56223065  0.69550967  0.56228019  1.0
  Ni  Ni1743  1  0.89556398  0.02884300  0.56228019  1.0
  Ni  Ni1744  1  0.89556398  0.36217633  0.56228019  1.0
  Ni  Ni1745  1  0.89556398  0.69550967  0.56228019  1.0
  Ni  Ni1746  1  0.06231754  0.02884300  0.56219330  1.0
  Ni  Ni1747  1  0.06231754  0.36217633  0.56219330  1.0
  Ni  Ni1748  1  0.06231754  0.69550967  0.56219330  1.0
  Ni  Ni1749  1  0.39565087  0.02884300  0.56219330  1.0
  Ni  Ni1750  1  0.39565087  0.36217633  0.56219330  1.0
  Ni  Ni1751  1  0.39565087  0.69550967  0.56219330  1.0
  Ni  Ni1752  1  0.72898420  0.02884300  0.56219330  1.0
  Ni  Ni1753  1  0.72898420  0.36217633  0.56219330  1.0
  Ni  Ni1754  1  0.72898420  0.69550967  0.56219330  1.0
  Ni  Ni1755  1  0.17342865  0.02884300  0.61774885  1.0
  Ni  Ni1756  1  0.17342865  0.36217633  0.61774885  1.0
  Ni  Ni1757  1  0.17342865  0.69550967  0.61774885  1.0
  Ni  Ni1758  1  0.50676198  0.02884300  0.61774885  1.0
  Ni  Ni1759  1  0.50676198  0.36217633  0.61774885  1.0
  Ni  Ni1760  1  0.50676198  0.69550967  0.61774885  1.0
  Ni  Ni1761  1  0.84009531  0.02884300  0.61774885  1.0
  Ni  Ni1762  1  0.84009531  0.36217633  0.61774885  1.0
  Ni  Ni1763  1  0.84009531  0.69550967  0.61774885  1.0
  Ni  Ni1764  1  0.19257043  0.13782367  0.62731974  1.0
  Ni  Ni1765  1  0.19257043  0.47115700  0.62731974  1.0
  Ni  Ni1766  1  0.19257043  0.80449033  0.62731974  1.0
  Ni  Ni1767  1  0.52590376  0.13782367  0.62731974  1.0
  Ni  Ni1768  1  0.52590376  0.47115700  0.62731974  1.0
  Ni  Ni1769  1  0.52590376  0.80449033  0.62731974  1.0
  Ni  Ni1770  1  0.85923709  0.13782367  0.62731974  1.0
  Ni  Ni1771  1  0.85923709  0.47115700  0.62731974  1.0
  Ni  Ni1772  1  0.85923709  0.80449033  0.62731974  1.0
  Ni  Ni1773  1  0.08145931  0.13782367  0.57176419  1.0
  Ni  Ni1774  1  0.08145931  0.47115700  0.57176419  1.0
  Ni  Ni1775  1  0.08145931  0.80449033  0.57176419  1.0
  Ni  Ni1776  1  0.41479265  0.13782367  0.57176419  1.0
  Ni  Ni1777  1  0.41479265  0.47115700  0.57176419  1.0
  Ni  Ni1778  1  0.41479265  0.80449033  0.57176419  1.0
  Ni  Ni1779  1  0.74812598  0.13782367  0.57176419  1.0
  Ni  Ni1780  1  0.74812598  0.47115700  0.57176419  1.0
  Ni  Ni1781  1  0.74812598  0.80449033  0.57176419  1.0
  Ni  Ni1782  1  0.30368154  0.13782367  0.59967230  1.0
  Ni  Ni1783  1  0.30368154  0.47115700  0.59967230  1.0
  Ni  Ni1784  1  0.30368154  0.80449033  0.59967230  1.0
  Ni  Ni1785  1  0.63701487  0.13782367  0.59967230  1.0
  Ni  Ni1786  1  0.63701487  0.47115700  0.59967230  1.0
  Ni  Ni1787  1  0.63701487  0.80449033  0.59967230  1.0
  Ni  Ni1788  1  0.97034820  0.13782367  0.59967230  1.0
  Ni  Ni1789  1  0.97034820  0.47115700  0.59967230  1.0
  Ni  Ni1790  1  0.97034820  0.80449033  0.59967230  1.0
  Ni  Ni1791  1  0.08145931  0.13782367  0.65522785  1.0
  Ni  Ni1792  1  0.08145931  0.47115700  0.65522785  1.0
  Ni  Ni1793  1  0.08145931  0.80449033  0.65522785  1.0
  Ni  Ni1794  1  0.41479265  0.13782367  0.65522785  1.0
  Ni  Ni1795  1  0.41479265  0.47115700  0.65522785  1.0
  Ni  Ni1796  1  0.41479265  0.80449033  0.65522785  1.0
  Ni  Ni1797  1  0.74812598  0.13782367  0.65522785  1.0
  Ni  Ni1798  1  0.74812598  0.47115700  0.65522785  1.0
  Ni  Ni1799  1  0.74812598  0.80449033  0.65522785  1.0
  Ni  Ni1800  1  0.24821287  0.13782367  0.65514096  1.0
  Ni  Ni1801  1  0.24821287  0.47115700  0.65514096  1.0
  Ni  Ni1802  1  0.24821287  0.80449033  0.65514096  1.0
  Ni  Ni1803  1  0.58154620  0.13782367  0.65514096  1.0
  Ni  Ni1804  1  0.58154620  0.47115700  0.65514096  1.0
  Ni  Ni1805  1  0.58154620  0.80449033  0.65514096  1.0
  Ni  Ni1806  1  0.91487954  0.13782367  0.65514096  1.0
  Ni  Ni1807  1  0.91487954  0.47115700  0.65514096  1.0
  Ni  Ni1808  1  0.91487954  0.80449033  0.65514096  1.0
  Ni  Ni1809  1  0.13710176  0.13782367  0.59958541  1.0
  Ni  Ni1810  1  0.13710176  0.47115700  0.59958541  1.0
  Ni  Ni1811  1  0.13710176  0.80449033  0.59958541  1.0
  Ni  Ni1812  1  0.47043509  0.13782367  0.59958541  1.0
  Ni  Ni1813  1  0.47043509  0.47115700  0.59958541  1.0
  Ni  Ni1814  1  0.47043509  0.80449033  0.59958541  1.0
  Ni  Ni1815  1  0.80376843  0.13782367  0.59958541  1.0
  Ni  Ni1816  1  0.80376843  0.47115700  0.59958541  1.0
  Ni  Ni1817  1  0.80376843  0.80449033  0.59958541  1.0
  Ni  Ni1818  1  0.24747376  0.19550967  0.59930274  1.0
  Ni  Ni1819  1  0.24747376  0.52884300  0.59930274  1.0
  Ni  Ni1820  1  0.24747376  0.86217633  0.59930274  1.0
  Ni  Ni1821  1  0.58080709  0.19550967  0.59930274  1.0
  Ni  Ni1822  1  0.58080709  0.52884300  0.59930274  1.0
  Ni  Ni1823  1  0.58080709  0.86217633  0.59930274  1.0
  Ni  Ni1824  1  0.91414043  0.19550967  0.59930274  1.0
  Ni  Ni1825  1  0.91414043  0.52884300  0.59930274  1.0
  Ni  Ni1826  1  0.91414043  0.86217633  0.59930274  1.0
  Ni  Ni1827  1  0.02525154  0.19550967  0.65485830  1.0
  Ni  Ni1828  1  0.02525154  0.52884300  0.65485830  1.0
  Ni  Ni1829  1  0.02525154  0.86217633  0.65485830  1.0
  Ni  Ni1830  1  0.35858487  0.19550967  0.65485830  1.0
  Ni  Ni1831  1  0.35858487  0.52884300  0.65485830  1.0
  Ni  Ni1832  1  0.35858487  0.86217633  0.65485830  1.0
  Ni  Ni1833  1  0.69191820  0.19550967  0.65485830  1.0
  Ni  Ni1834  1  0.69191820  0.52884300  0.65485830  1.0
  Ni  Ni1835  1  0.69191820  0.86217633  0.65485830  1.0
  Ni  Ni1836  1  0.13636265  0.19550967  0.62695019  1.0
  Ni  Ni1837  1  0.13636265  0.52884300  0.62695019  1.0
  Ni  Ni1838  1  0.13636265  0.86217633  0.62695019  1.0
  Ni  Ni1839  1  0.46969598  0.19550967  0.62695019  1.0
  Ni  Ni1840  1  0.46969598  0.52884300  0.62695019  1.0
  Ni  Ni1841  1  0.46969598  0.86217633  0.62695019  1.0
  Ni  Ni1842  1  0.80302931  0.19550967  0.62695019  1.0
  Ni  Ni1843  1  0.80302931  0.52884300  0.62695019  1.0
  Ni  Ni1844  1  0.80302931  0.86217633  0.62695019  1.0
  Ni  Ni1845  1  0.02525154  0.19550967  0.57139463  1.0
  Ni  Ni1846  1  0.02525154  0.52884300  0.57139463  1.0
  Ni  Ni1847  1  0.02525154  0.86217633  0.57139463  1.0
  Ni  Ni1848  1  0.35858487  0.19550967  0.57139463  1.0
  Ni  Ni1849  1  0.35858487  0.52884300  0.57139463  1.0
  Ni  Ni1850  1  0.35858487  0.86217633  0.57139463  1.0
  Ni  Ni1851  1  0.69191820  0.19550967  0.57139463  1.0
  Ni  Ni1852  1  0.69191820  0.52884300  0.57139463  1.0
  Ni  Ni1853  1  0.69191820  0.86217633  0.57139463  1.0
  Ni  Ni1854  1  0.19183131  0.19550967  0.57148152  1.0
  Ni  Ni1855  1  0.19183131  0.52884300  0.57148152  1.0
  Ni  Ni1856  1  0.19183131  0.86217633  0.57148152  1.0
  Ni  Ni1857  1  0.52516465  0.19550967  0.57148152  1.0
  Ni  Ni1858  1  0.52516465  0.52884300  0.57148152  1.0
  Ni  Ni1859  1  0.52516465  0.86217633  0.57148152  1.0
  Ni  Ni1860  1  0.85849798  0.19550967  0.57148152  1.0
  Ni  Ni1861  1  0.85849798  0.52884300  0.57148152  1.0
  Ni  Ni1862  1  0.85849798  0.86217633  0.57148152  1.0
  Ni  Ni1863  1  0.30294243  0.19550967  0.62703707  1.0
  Ni  Ni1864  1  0.30294243  0.52884300  0.62703707  1.0
  Ni  Ni1865  1  0.30294243  0.86217633  0.62703707  1.0
  Ni  Ni1866  1  0.63627576  0.19550967  0.62703707  1.0
  Ni  Ni1867  1  0.63627576  0.52884300  0.62703707  1.0
  Ni  Ni1868  1  0.63627576  0.86217633  0.62703707  1.0
  Ni  Ni1869  1  0.96960909  0.19550967  0.62703707  1.0
  Ni  Ni1870  1  0.96960909  0.52884300  0.62703707  1.0
  Ni  Ni1871  1  0.96960909  0.86217633  0.62703707  1.0
  Ni  Ni1872  1  0.23875476  0.27713533  0.62267757  1.0
  Ni  Ni1873  1  0.23875476  0.61046867  0.62267757  1.0
  Ni  Ni1874  1  0.23875476  0.94380200  0.62267757  1.0
  Ni  Ni1875  1  0.57208809  0.27713533  0.62267757  1.0
  Ni  Ni1876  1  0.57208809  0.61046867  0.62267757  1.0
  Ni  Ni1877  1  0.57208809  0.94380200  0.62267757  1.0
  Ni  Ni1878  1  0.90542143  0.27713533  0.62267757  1.0
  Ni  Ni1879  1  0.90542143  0.61046867  0.62267757  1.0
  Ni  Ni1880  1  0.90542143  0.94380200  0.62267757  1.0
  Ni  Ni1881  1  0.12764365  0.27713533  0.56712202  1.0
  Ni  Ni1882  1  0.12764365  0.61046867  0.56712202  1.0
  Ni  Ni1883  1  0.12764365  0.94380200  0.56712202  1.0
  Ni  Ni1884  1  0.46097698  0.27713533  0.56712202  1.0
  Ni  Ni1885  1  0.46097698  0.61046867  0.56712202  1.0
  Ni  Ni1886  1  0.46097698  0.94380200  0.56712202  1.0
  Ni  Ni1887  1  0.79431031  0.27713533  0.56712202  1.0
  Ni  Ni1888  1  0.79431031  0.61046867  0.56712202  1.0
  Ni  Ni1889  1  0.79431031  0.94380200  0.56712202  1.0
  Ni  Ni1890  1  0.31240054  0.05619800  0.65950046  1.0
  Ni  Ni1891  1  0.31240054  0.38953133  0.65950046  1.0
  Ni  Ni1892  1  0.31240054  0.72286467  0.65950046  1.0
  Ni  Ni1893  1  0.64573387  0.05619800  0.65950046  1.0
  Ni  Ni1894  1  0.64573387  0.38953133  0.65950046  1.0
  Ni  Ni1895  1  0.64573387  0.72286467  0.65950046  1.0
  Ni  Ni1896  1  0.97906720  0.05619800  0.65950046  1.0
  Ni  Ni1897  1  0.97906720  0.38953133  0.65950046  1.0
  Ni  Ni1898  1  0.97906720  0.72286467  0.65950046  1.0
  Ni  Ni1899  1  0.20128943  0.05619800  0.60394491  1.0
  Ni  Ni1900  1  0.20128943  0.38953133  0.60394491  1.0
  Ni  Ni1901  1  0.20128943  0.72286467  0.60394491  1.0
  Ni  Ni1902  1  0.53462276  0.05619800  0.60394491  1.0
  Ni  Ni1903  1  0.53462276  0.38953133  0.60394491  1.0
  Ni  Ni1904  1  0.53462276  0.72286467  0.60394491  1.0
  Ni  Ni1905  1  0.86795609  0.05619800  0.60394491  1.0
  Ni  Ni1906  1  0.86795609  0.38953133  0.60394491  1.0
  Ni  Ni1907  1  0.86795609  0.72286467  0.60394491  1.0
  Ni  Ni1908  1  0.29431031  0.11046867  0.65045535  1.0
  Ni  Ni1909  1  0.29431031  0.44380200  0.65045535  1.0
  Ni  Ni1910  1  0.29431031  0.77713533  0.65045535  1.0
  Ni  Ni1911  1  0.62764365  0.11046867  0.65045535  1.0
  Ni  Ni1912  1  0.62764365  0.44380200  0.65045535  1.0
  Ni  Ni1913  1  0.62764365  0.77713533  0.65045535  1.0
  Ni  Ni1914  1  0.96097698  0.11046867  0.65045535  1.0
  Ni  Ni1915  1  0.96097698  0.44380200  0.65045535  1.0
  Ni  Ni1916  1  0.96097698  0.77713533  0.65045535  1.0
  Ni  Ni1917  1  0.18319920  0.11046867  0.59489980  1.0
  Ni  Ni1918  1  0.18319920  0.44380200  0.59489980  1.0
  Ni  Ni1919  1  0.18319920  0.77713533  0.59489980  1.0
  Ni  Ni1920  1  0.51653254  0.11046867  0.59489980  1.0
  Ni  Ni1921  1  0.51653254  0.44380200  0.59489980  1.0
  Ni  Ni1922  1  0.51653254  0.77713533  0.59489980  1.0
  Ni  Ni1923  1  0.84986587  0.11046867  0.59489980  1.0
  Ni  Ni1924  1  0.84986587  0.44380200  0.59489980  1.0
  Ni  Ni1925  1  0.84986587  0.77713533  0.59489980  1.0
  Ni  Ni1926  1  0.25684498  0.22286467  0.63172269  1.0
  Ni  Ni1927  1  0.25684498  0.55619800  0.63172269  1.0
  Ni  Ni1928  1  0.25684498  0.88953133  0.63172269  1.0
  Ni  Ni1929  1  0.59017831  0.22286467  0.63172269  1.0
  Ni  Ni1930  1  0.59017831  0.55619800  0.63172269  1.0
  Ni  Ni1931  1  0.59017831  0.88953133  0.63172269  1.0
  Ni  Ni1932  1  0.92351165  0.22286467  0.63172269  1.0
  Ni  Ni1933  1  0.92351165  0.55619800  0.63172269  1.0
  Ni  Ni1934  1  0.92351165  0.88953133  0.63172269  1.0
  Ni  Ni1935  1  0.14573387  0.22286467  0.57616713  1.0
  Ni  Ni1936  1  0.14573387  0.55619800  0.57616713  1.0
  Ni  Ni1937  1  0.14573387  0.88953133  0.57616713  1.0
  Ni  Ni1938  1  0.47906720  0.22286467  0.57616713  1.0
  Ni  Ni1939  1  0.47906720  0.55619800  0.57616713  1.0
  Ni  Ni1940  1  0.47906720  0.88953133  0.57616713  1.0
  Ni  Ni1941  1  0.81240054  0.22286467  0.57616713  1.0
  Ni  Ni1942  1  0.81240054  0.55619800  0.57616713  1.0
  Ni  Ni1943  1  0.81240054  0.88953133  0.57616713  1.0
  Ni  Ni1944  1  0.01624369  0.05577967  0.56697759  1.0
  Ni  Ni1945  1  0.01624369  0.38911300  0.56697759  1.0
  Ni  Ni1946  1  0.01624369  0.72244633  0.56697759  1.0
  Ni  Ni1947  1  0.34957702  0.05577967  0.56697759  1.0
  Ni  Ni1948  1  0.34957702  0.38911300  0.56697759  1.0
  Ni  Ni1949  1  0.34957702  0.72244633  0.56697759  1.0
  Ni  Ni1950  1  0.68291035  0.05577967  0.56697759  1.0
  Ni  Ni1951  1  0.68291035  0.38911300  0.56697759  1.0
  Ni  Ni1952  1  0.68291035  0.72244633  0.56697759  1.0
  Ni  Ni1953  1  0.12735480  0.05577967  0.62253315  1.0
  Ni  Ni1954  1  0.12735480  0.38911300  0.62253315  1.0
  Ni  Ni1955  1  0.12735480  0.72244633  0.62253315  1.0
  Ni  Ni1956  1  0.46068813  0.05577967  0.62253315  1.0
  Ni  Ni1957  1  0.46068813  0.38911300  0.62253315  1.0
  Ni  Ni1958  1  0.46068813  0.72244633  0.62253315  1.0
  Ni  Ni1959  1  0.79402146  0.05577967  0.62253315  1.0
  Ni  Ni1960  1  0.79402146  0.38911300  0.62253315  1.0
  Ni  Ni1961  1  0.79402146  0.72244633  0.62253315  1.0
  Ni  Ni1962  1  0.09046717  0.27755367  0.65964489  1.0
  Ni  Ni1963  1  0.09046717  0.61088700  0.65964489  1.0
  Ni  Ni1964  1  0.09046717  0.94422033  0.65964489  1.0
  Ni  Ni1965  1  0.42380050  0.27755367  0.65964489  1.0
  Ni  Ni1966  1  0.42380050  0.61088700  0.65964489  1.0
  Ni  Ni1967  1  0.42380050  0.94422033  0.65964489  1.0
  Ni  Ni1968  1  0.75713383  0.27755367  0.65964489  1.0
  Ni  Ni1969  1  0.75713383  0.61088700  0.65964489  1.0
  Ni  Ni1970  1  0.75713383  0.94422033  0.65964489  1.0
  Ni  Ni1971  1  0.31268939  0.27755367  0.60408933  1.0
  Ni  Ni1972  1  0.31268939  0.61088700  0.60408933  1.0
  Ni  Ni1973  1  0.31268939  0.94422033  0.60408933  1.0
  Ni  Ni1974  1  0.64602272  0.27755367  0.60408933  1.0
  Ni  Ni1975  1  0.64602272  0.61088700  0.60408933  1.0
  Ni  Ni1976  1  0.64602272  0.94422033  0.60408933  1.0
  Ni  Ni1977  1  0.97935606  0.27755367  0.60408933  1.0
  Ni  Ni1978  1  0.97935606  0.61088700  0.60408933  1.0
  Ni  Ni1979  1  0.97935606  0.94422033  0.60408933  1.0
  Ni  Ni1980  1  0.21994739  0.22244633  0.55771833  1.0
  Ni  Ni1981  1  0.21994739  0.55577967  0.55771833  1.0
  Ni  Ni1982  1  0.21994739  0.88911300  0.55771833  1.0
  Ni  Ni1983  1  0.55328072  0.22244633  0.55771833  1.0
  Ni  Ni1984  1  0.55328072  0.55577967  0.55771833  1.0
  Ni  Ni1985  1  0.55328072  0.88911300  0.55771833  1.0
  Ni  Ni1986  1  0.88661406  0.22244633  0.55771833  1.0
  Ni  Ni1987  1  0.88661406  0.55577967  0.55771833  1.0
  Ni  Ni1988  1  0.88661406  0.88911300  0.55771833  1.0
  Ni  Ni1989  1  0.33105850  0.22244633  0.61327389  1.0
  Ni  Ni1990  1  0.33105850  0.55577967  0.61327389  1.0
  Ni  Ni1991  1  0.33105850  0.88911300  0.61327389  1.0
  Ni  Ni1992  1  0.66439183  0.22244633  0.61327389  1.0
  Ni  Ni1993  1  0.66439183  0.55577967  0.61327389  1.0
  Ni  Ni1994  1  0.66439183  0.88911300  0.61327389  1.0
  Ni  Ni1995  1  0.99772517  0.22244633  0.61327389  1.0
  Ni  Ni1996  1  0.99772517  0.55577967  0.61327389  1.0
  Ni  Ni1997  1  0.99772517  0.88911300  0.61327389  1.0
  Ni  Ni1998  1  0.33120791  0.11088700  0.55779304  1.0
  Ni  Ni1999  1  0.33120791  0.44422033  0.55779304  1.0
  Ni  Ni2000  1  0.33120791  0.77755367  0.55779304  1.0
  Ni  Ni2001  1  0.66454124  0.11088700  0.55779304  1.0
  Ni  Ni2002  1  0.66454124  0.44422033  0.55779304  1.0
  Ni  Ni2003  1  0.66454124  0.77755367  0.55779304  1.0
  Ni  Ni2004  1  0.99787457  0.11088700  0.55779304  1.0
  Ni  Ni2005  1  0.99787457  0.44422033  0.55779304  1.0
  Ni  Ni2006  1  0.99787457  0.77755367  0.55779304  1.0
  Ni  Ni2007  1  0.10898569  0.11088700  0.61334859  1.0
  Ni  Ni2008  1  0.10898569  0.44422033  0.61334859  1.0
  Ni  Ni2009  1  0.10898569  0.77755367  0.61334859  1.0
  Ni  Ni2010  1  0.44231902  0.11088700  0.61334859  1.0
  Ni  Ni2011  1  0.44231902  0.44422033  0.61334859  1.0
  Ni  Ni2012  1  0.44231902  0.77755367  0.61334859  1.0
  Ni  Ni2013  1  0.77565235  0.11088700  0.61334859  1.0
  Ni  Ni2014  1  0.77565235  0.44422033  0.61334859  1.0
  Ni  Ni2015  1  0.77565235  0.77755367  0.61334859  1.0
  Y  Y2016  1  0.14928013  0.32333700  0.96682915  1.0
  Y  Y2017  1  0.14928013  0.65667033  0.96682915  1.0
  Y  Y2018  1  0.14928013  0.99000367  0.96682915  1.0
  Y  Y2019  1  0.48261346  0.32333700  0.96682915  1.0
  Y  Y2020  1  0.48261346  0.65667033  0.96682915  1.0
  Y  Y2021  1  0.48261346  0.99000367  0.96682915  1.0
  Y  Y2022  1  0.81594680  0.32333700  0.96682915  1.0
  Y  Y2023  1  0.81594680  0.65667033  0.96682915  1.0
  Y  Y2024  1  0.81594680  0.99000367  0.96682915  1.0
  Y  Y2025  1  0.03816902  0.32333700  0.91127359  1.0
  Y  Y2026  1  0.03816902  0.65667033  0.91127359  1.0
  Y  Y2027  1  0.03816902  0.99000367  0.91127359  1.0
  Y  Y2028  1  0.37150235  0.32333700  0.91127359  1.0
  Y  Y2029  1  0.37150235  0.65667033  0.91127359  1.0
  Y  Y2030  1  0.37150235  0.99000367  0.91127359  1.0
  Y  Y2031  1  0.70483569  0.32333700  0.91127359  1.0
  Y  Y2032  1  0.70483569  0.65667033  0.91127359  1.0
  Y  Y2033  1  0.70483569  0.99000367  0.91127359  1.0
  Y  Y2034  1  0.29076406  0.00999633  0.92646000  1.0
  Y  Y2035  1  0.29076406  0.34332967  0.92646000  1.0
  Y  Y2036  1  0.29076406  0.67666300  0.92646000  1.0
  Y  Y2037  1  0.62409739  0.00999633  0.92646000  1.0
  Y  Y2038  1  0.62409739  0.34332967  0.92646000  1.0
  Y  Y2039  1  0.62409739  0.67666300  0.92646000  1.0
  Y  Y2040  1  0.95743072  0.00999633  0.92646000  1.0
  Y  Y2041  1  0.95743072  0.34332967  0.92646000  1.0
  Y  Y2042  1  0.95743072  0.67666300  0.92646000  1.0
  Y  Y2043  1  0.06854183  0.00999633  0.98201556  1.0
  Y  Y2044  1  0.06854183  0.34332967  0.98201556  1.0
  Y  Y2045  1  0.06854183  0.67666300  0.98201556  1.0
  Y  Y2046  1  0.40187517  0.00999633  0.98201556  1.0
  Y  Y2047  1  0.40187517  0.34332967  0.98201556  1.0
  Y  Y2048  1  0.40187517  0.67666300  0.98201556  1.0
  Y  Y2049  1  0.73520850  0.00999633  0.98201556  1.0
  Y  Y2050  1  0.73520850  0.34332967  0.98201556  1.0
  Y  Y2051  1  0.73520850  0.67666300  0.98201556  1.0
  Y  Y2052  1  0.24187272  0.15667033  0.90201433  1.0
  Y  Y2053  1  0.24187272  0.49000367  0.90201433  1.0
  Y  Y2054  1  0.24187272  0.82333700  0.90201433  1.0
  Y  Y2055  1  0.57520606  0.15667033  0.90201433  1.0
  Y  Y2056  1  0.57520606  0.49000367  0.90201433  1.0
  Y  Y2057  1  0.57520606  0.82333700  0.90201433  1.0
  Y  Y2058  1  0.90853939  0.15667033  0.90201433  1.0
  Y  Y2059  1  0.90853939  0.49000367  0.90201433  1.0
  Y  Y2060  1  0.90853939  0.82333700  0.90201433  1.0
  Y  Y2061  1  0.01965050  0.15667033  0.95756989  1.0
  Y  Y2062  1  0.01965050  0.49000367  0.95756989  1.0
  Y  Y2063  1  0.01965050  0.82333700  0.95756989  1.0
  Y  Y2064  1  0.35298383  0.15667033  0.95756989  1.0
  Y  Y2065  1  0.35298383  0.49000367  0.95756989  1.0
  Y  Y2066  1  0.35298383  0.82333700  0.95756989  1.0
  Y  Y2067  1  0.68631717  0.15667033  0.95756989  1.0
  Y  Y2068  1  0.68631717  0.49000367  0.95756989  1.0
  Y  Y2069  1  0.68631717  0.82333700  0.95756989  1.0
  Y  Y2070  1  0.19817146  0.17666300  0.99127481  1.0
  Y  Y2071  1  0.19817146  0.50999633  0.99127481  1.0
  Y  Y2072  1  0.19817146  0.84332967  0.99127481  1.0
  Y  Y2073  1  0.53150480  0.17666300  0.99127481  1.0
  Y  Y2074  1  0.53150480  0.50999633  0.99127481  1.0
  Y  Y2075  1  0.53150480  0.84332967  0.99127481  1.0
  Y  Y2076  1  0.86483813  0.17666300  0.99127481  1.0
  Y  Y2077  1  0.86483813  0.50999633  0.99127481  1.0
  Y  Y2078  1  0.86483813  0.84332967  0.99127481  1.0
  Y  Y2079  1  0.08706035  0.17666300  0.93571926  1.0
  Y  Y2080  1  0.08706035  0.50999633  0.93571926  1.0
  Y  Y2081  1  0.08706035  0.84332967  0.93571926  1.0
  Y  Y2082  1  0.42039369  0.17666300  0.93571926  1.0
  Y  Y2083  1  0.42039369  0.50999633  0.93571926  1.0
  Y  Y2084  1  0.42039369  0.84332967  0.93571926  1.0
  Y  Y2085  1  0.75372702  0.17666300  0.93571926  1.0
  Y  Y2086  1  0.75372702  0.50999633  0.93571926  1.0
  Y  Y2087  1  0.75372702  0.84332967  0.93571926  1.0
  Y  Y2088  1  0.16531524  0.27523167  0.97484670  1.0
  Y  Y2089  1  0.16531524  0.60856500  0.97484670  1.0
  Y  Y2090  1  0.16531524  0.94189833  0.97484670  1.0
  Y  Y2091  1  0.49864857  0.27523167  0.97484670  1.0
  Y  Y2092  1  0.49864857  0.60856500  0.97484670  1.0
  Y  Y2093  1  0.49864857  0.94189833  0.97484670  1.0
  Y  Y2094  1  0.83198191  0.27523167  0.97484670  1.0
  Y  Y2095  1  0.83198191  0.60856500  0.97484670  1.0
  Y  Y2096  1  0.83198191  0.94189833  0.97484670  1.0
  Y  Y2097  1  0.05420413  0.27523167  0.91929115  1.0
  Y  Y2098  1  0.05420413  0.60856500  0.91929115  1.0
  Y  Y2099  1  0.05420413  0.94189833  0.91929115  1.0
  Y  Y2100  1  0.38753746  0.27523167  0.91929115  1.0
  Y  Y2101  1  0.38753746  0.60856500  0.91929115  1.0
  Y  Y2102  1  0.38753746  0.94189833  0.91929115  1.0
  Y  Y2103  1  0.72087080  0.27523167  0.91929115  1.0
  Y  Y2104  1  0.72087080  0.60856500  0.91929115  1.0
  Y  Y2105  1  0.72087080  0.94189833  0.91929115  1.0
  Y  Y2106  1  0.27472894  0.05810167  0.91844244  1.0
  Y  Y2107  1  0.27472894  0.39143500  0.91844244  1.0
  Y  Y2108  1  0.27472894  0.72476833  0.91844244  1.0
  Y  Y2109  1  0.60806228  0.05810167  0.91844244  1.0
  Y  Y2110  1  0.60806228  0.39143500  0.91844244  1.0
  Y  Y2111  1  0.60806228  0.72476833  0.91844244  1.0
  Y  Y2112  1  0.94139561  0.05810167  0.91844244  1.0
  Y  Y2113  1  0.94139561  0.39143500  0.91844244  1.0
  Y  Y2114  1  0.94139561  0.72476833  0.91844244  1.0
  Y  Y2115  1  0.05250672  0.05810167  0.97399800  1.0
  Y  Y2116  1  0.05250672  0.39143500  0.97399800  1.0
  Y  Y2117  1  0.05250672  0.72476833  0.97399800  1.0
  Y  Y2118  1  0.38584006  0.05810167  0.97399800  1.0
  Y  Y2119  1  0.38584006  0.39143500  0.97399800  1.0
  Y  Y2120  1  0.38584006  0.72476833  0.97399800  1.0
  Y  Y2121  1  0.71917339  0.05810167  0.97399800  1.0
  Y  Y2122  1  0.71917339  0.39143500  0.97399800  1.0
  Y  Y2123  1  0.71917339  0.72476833  0.97399800  1.0
  Y  Y2124  1  0.25790783  0.10856500  0.91003189  1.0
  Y  Y2125  1  0.25790783  0.44189833  0.91003189  1.0
  Y  Y2126  1  0.25790783  0.77523167  0.91003189  1.0
  Y  Y2127  1  0.59124117  0.10856500  0.91003189  1.0
  Y  Y2128  1  0.59124117  0.44189833  0.91003189  1.0
  Y  Y2129  1  0.59124117  0.77523167  0.91003189  1.0
  Y  Y2130  1  0.92457450  0.10856500  0.91003189  1.0
  Y  Y2131  1  0.92457450  0.44189833  0.91003189  1.0
  Y  Y2132  1  0.92457450  0.77523167  0.91003189  1.0
  Y  Y2133  1  0.03568561  0.10856500  0.96558744  1.0
  Y  Y2134  1  0.03568561  0.44189833  0.96558744  1.0
  Y  Y2135  1  0.03568561  0.77523167  0.96558744  1.0
  Y  Y2136  1  0.36901894  0.10856500  0.96558744  1.0
  Y  Y2137  1  0.36901894  0.44189833  0.96558744  1.0
  Y  Y2138  1  0.36901894  0.77523167  0.96558744  1.0
  Y  Y2139  1  0.70235228  0.10856500  0.96558744  1.0
  Y  Y2140  1  0.70235228  0.44189833  0.96558744  1.0
  Y  Y2141  1  0.70235228  0.77523167  0.96558744  1.0
  Y  Y2142  1  0.18213635  0.22476833  0.98325726  1.0
  Y  Y2143  1  0.18213635  0.55810167  0.98325726  1.0
  Y  Y2144  1  0.18213635  0.89143500  0.98325726  1.0
  Y  Y2145  1  0.51546969  0.22476833  0.98325726  1.0
  Y  Y2146  1  0.51546969  0.55810167  0.98325726  1.0
  Y  Y2147  1  0.51546969  0.89143500  0.98325726  1.0
  Y  Y2148  1  0.84880302  0.22476833  0.98325726  1.0
  Y  Y2149  1  0.84880302  0.55810167  0.98325726  1.0
  Y  Y2150  1  0.84880302  0.89143500  0.98325726  1.0
  Y  Y2151  1  0.07102524  0.22476833  0.92770170  1.0
  Y  Y2152  1  0.07102524  0.55810167  0.92770170  1.0
  Y  Y2153  1  0.07102524  0.89143500  0.92770170  1.0
  Y  Y2154  1  0.40435857  0.22476833  0.92770170  1.0
  Y  Y2155  1  0.40435857  0.55810167  0.92770170  1.0
  Y  Y2156  1  0.40435857  0.89143500  0.92770170  1.0
  Y  Y2157  1  0.73769191  0.22476833  0.92770170  1.0
  Y  Y2158  1  0.73769191  0.55810167  0.92770170  1.0
  Y  Y2159  1  0.73769191  0.89143500  0.92770170  1.0
  Y  Y2160  1  0.26039124  0.32333700  0.85571804  1.0
  Y  Y2161  1  0.26039124  0.65667033  0.85571804  1.0
  Y  Y2162  1  0.26039124  0.99000367  0.85571804  1.0
  Y  Y2163  1  0.59372457  0.32333700  0.85571804  1.0
  Y  Y2164  1  0.59372457  0.65667033  0.85571804  1.0
  Y  Y2165  1  0.59372457  0.99000367  0.85571804  1.0
  Y  Y2166  1  0.92705791  0.32333700  0.85571804  1.0
  Y  Y2167  1  0.92705791  0.65667033  0.85571804  1.0
  Y  Y2168  1  0.92705791  0.99000367  0.85571804  1.0
  Y  Y2169  1  0.14928013  0.32333700  0.80016248  1.0
  Y  Y2170  1  0.14928013  0.65667033  0.80016248  1.0
  Y  Y2171  1  0.14928013  0.99000367  0.80016248  1.0
  Y  Y2172  1  0.48261346  0.32333700  0.80016248  1.0
  Y  Y2173  1  0.48261346  0.65667033  0.80016248  1.0
  Y  Y2174  1  0.48261346  0.99000367  0.80016248  1.0
  Y  Y2175  1  0.81594680  0.32333700  0.80016248  1.0
  Y  Y2176  1  0.81594680  0.65667033  0.80016248  1.0
  Y  Y2177  1  0.81594680  0.99000367  0.80016248  1.0
  Y  Y2178  1  0.06854183  0.00999633  0.81534889  1.0
  Y  Y2179  1  0.06854183  0.34332967  0.81534889  1.0
  Y  Y2180  1  0.06854183  0.67666300  0.81534889  1.0
  Y  Y2181  1  0.40187517  0.00999633  0.81534889  1.0
  Y  Y2182  1  0.40187517  0.34332967  0.81534889  1.0
  Y  Y2183  1  0.40187517  0.67666300  0.81534889  1.0
  Y  Y2184  1  0.73520850  0.00999633  0.81534889  1.0
  Y  Y2185  1  0.73520850  0.34332967  0.81534889  1.0
  Y  Y2186  1  0.73520850  0.67666300  0.81534889  1.0
  Y  Y2187  1  0.17965294  0.00999633  0.87090444  1.0
  Y  Y2188  1  0.17965294  0.34332967  0.87090444  1.0
  Y  Y2189  1  0.17965294  0.67666300  0.87090444  1.0
  Y  Y2190  1  0.51298628  0.00999633  0.87090444  1.0
  Y  Y2191  1  0.51298628  0.34332967  0.87090444  1.0
  Y  Y2192  1  0.51298628  0.67666300  0.87090444  1.0
  Y  Y2193  1  0.84631961  0.00999633  0.87090444  1.0
  Y  Y2194  1  0.84631961  0.34332967  0.87090444  1.0
  Y  Y2195  1  0.84631961  0.67666300  0.87090444  1.0
  Y  Y2196  1  0.01965050  0.15667033  0.79090322  1.0
  Y  Y2197  1  0.01965050  0.49000367  0.79090322  1.0
  Y  Y2198  1  0.01965050  0.82333700  0.79090322  1.0
  Y  Y2199  1  0.35298383  0.15667033  0.79090322  1.0
  Y  Y2200  1  0.35298383  0.49000367  0.79090322  1.0
  Y  Y2201  1  0.35298383  0.82333700  0.79090322  1.0
  Y  Y2202  1  0.68631717  0.15667033  0.79090322  1.0
  Y  Y2203  1  0.68631717  0.49000367  0.79090322  1.0
  Y  Y2204  1  0.68631717  0.82333700  0.79090322  1.0
  Y  Y2205  1  0.13076161  0.15667033  0.84645878  1.0
  Y  Y2206  1  0.13076161  0.49000367  0.84645878  1.0
  Y  Y2207  1  0.13076161  0.82333700  0.84645878  1.0
  Y  Y2208  1  0.46409494  0.15667033  0.84645878  1.0
  Y  Y2209  1  0.46409494  0.49000367  0.84645878  1.0
  Y  Y2210  1  0.46409494  0.82333700  0.84645878  1.0
  Y  Y2211  1  0.79742828  0.15667033  0.84645878  1.0
  Y  Y2212  1  0.79742828  0.49000367  0.84645878  1.0
  Y  Y2213  1  0.79742828  0.82333700  0.84645878  1.0
  Y  Y2214  1  0.30928257  0.17666300  0.88016370  1.0
  Y  Y2215  1  0.30928257  0.50999633  0.88016370  1.0
  Y  Y2216  1  0.30928257  0.84332967  0.88016370  1.0
  Y  Y2217  1  0.64261591  0.17666300  0.88016370  1.0
  Y  Y2218  1  0.64261591  0.50999633  0.88016370  1.0
  Y  Y2219  1  0.64261591  0.84332967  0.88016370  1.0
  Y  Y2220  1  0.97594924  0.17666300  0.88016370  1.0
  Y  Y2221  1  0.97594924  0.50999633  0.88016370  1.0
  Y  Y2222  1  0.97594924  0.84332967  0.88016370  1.0
  Y  Y2223  1  0.19817146  0.17666300  0.82460815  1.0
  Y  Y2224  1  0.19817146  0.50999633  0.82460815  1.0
  Y  Y2225  1  0.19817146  0.84332967  0.82460815  1.0
  Y  Y2226  1  0.53150480  0.17666300  0.82460815  1.0
  Y  Y2227  1  0.53150480  0.50999633  0.82460815  1.0
  Y  Y2228  1  0.53150480  0.84332967  0.82460815  1.0
  Y  Y2229  1  0.86483813  0.17666300  0.82460815  1.0
  Y  Y2230  1  0.86483813  0.50999633  0.82460815  1.0
  Y  Y2231  1  0.86483813  0.84332967  0.82460815  1.0
  Y  Y2232  1  0.27642635  0.27523167  0.86373559  1.0
  Y  Y2233  1  0.27642635  0.60856500  0.86373559  1.0
  Y  Y2234  1  0.27642635  0.94189833  0.86373559  1.0
  Y  Y2235  1  0.60975969  0.27523167  0.86373559  1.0
  Y  Y2236  1  0.60975969  0.60856500  0.86373559  1.0
  Y  Y2237  1  0.60975969  0.94189833  0.86373559  1.0
  Y  Y2238  1  0.94309302  0.27523167  0.86373559  1.0
  Y  Y2239  1  0.94309302  0.60856500  0.86373559  1.0
  Y  Y2240  1  0.94309302  0.94189833  0.86373559  1.0
  Y  Y2241  1  0.16531524  0.27523167  0.80818004  1.0
  Y  Y2242  1  0.16531524  0.60856500  0.80818004  1.0
  Y  Y2243  1  0.16531524  0.94189833  0.80818004  1.0
  Y  Y2244  1  0.49864857  0.27523167  0.80818004  1.0
  Y  Y2245  1  0.49864857  0.60856500  0.80818004  1.0
  Y  Y2246  1  0.49864857  0.94189833  0.80818004  1.0
  Y  Y2247  1  0.83198191  0.27523167  0.80818004  1.0
  Y  Y2248  1  0.83198191  0.60856500  0.80818004  1.0
  Y  Y2249  1  0.83198191  0.94189833  0.80818004  1.0
  Y  Y2250  1  0.05250672  0.05810167  0.80733133  1.0
  Y  Y2251  1  0.05250672  0.39143500  0.80733133  1.0
  Y  Y2252  1  0.05250672  0.72476833  0.80733133  1.0
  Y  Y2253  1  0.38584006  0.05810167  0.80733133  1.0
  Y  Y2254  1  0.38584006  0.39143500  0.80733133  1.0
  Y  Y2255  1  0.38584006  0.72476833  0.80733133  1.0
  Y  Y2256  1  0.71917339  0.05810167  0.80733133  1.0
  Y  Y2257  1  0.71917339  0.39143500  0.80733133  1.0
  Y  Y2258  1  0.71917339  0.72476833  0.80733133  1.0
  Y  Y2259  1  0.16361783  0.05810167  0.86288689  1.0
  Y  Y2260  1  0.16361783  0.39143500  0.86288689  1.0
  Y  Y2261  1  0.16361783  0.72476833  0.86288689  1.0
  Y  Y2262  1  0.49695117  0.05810167  0.86288689  1.0
  Y  Y2263  1  0.49695117  0.39143500  0.86288689  1.0
  Y  Y2264  1  0.49695117  0.72476833  0.86288689  1.0
  Y  Y2265  1  0.83028450  0.05810167  0.86288689  1.0
  Y  Y2266  1  0.83028450  0.39143500  0.86288689  1.0
  Y  Y2267  1  0.83028450  0.72476833  0.86288689  1.0
  Y  Y2268  1  0.03568561  0.10856500  0.79892078  1.0
  Y  Y2269  1  0.03568561  0.44189833  0.79892078  1.0
  Y  Y2270  1  0.03568561  0.77523167  0.79892078  1.0
  Y  Y2271  1  0.36901894  0.10856500  0.79892078  1.0
  Y  Y2272  1  0.36901894  0.44189833  0.79892078  1.0
  Y  Y2273  1  0.36901894  0.77523167  0.79892078  1.0
  Y  Y2274  1  0.70235228  0.10856500  0.79892078  1.0
  Y  Y2275  1  0.70235228  0.44189833  0.79892078  1.0
  Y  Y2276  1  0.70235228  0.77523167  0.79892078  1.0
  Y  Y2277  1  0.14679672  0.10856500  0.85447633  1.0
  Y  Y2278  1  0.14679672  0.44189833  0.85447633  1.0
  Y  Y2279  1  0.14679672  0.77523167  0.85447633  1.0
  Y  Y2280  1  0.48013006  0.10856500  0.85447633  1.0
  Y  Y2281  1  0.48013006  0.44189833  0.85447633  1.0
  Y  Y2282  1  0.48013006  0.77523167  0.85447633  1.0
  Y  Y2283  1  0.81346339  0.10856500  0.85447633  1.0
  Y  Y2284  1  0.81346339  0.44189833  0.85447633  1.0
  Y  Y2285  1  0.81346339  0.77523167  0.85447633  1.0
  Y  Y2286  1  0.29324746  0.22476833  0.87214615  1.0
  Y  Y2287  1  0.29324746  0.55810167  0.87214615  1.0
  Y  Y2288  1  0.29324746  0.89143500  0.87214615  1.0
  Y  Y2289  1  0.62658080  0.22476833  0.87214615  1.0
  Y  Y2290  1  0.62658080  0.55810167  0.87214615  1.0
  Y  Y2291  1  0.62658080  0.89143500  0.87214615  1.0
  Y  Y2292  1  0.95991413  0.22476833  0.87214615  1.0
  Y  Y2293  1  0.95991413  0.55810167  0.87214615  1.0
  Y  Y2294  1  0.95991413  0.89143500  0.87214615  1.0
  Y  Y2295  1  0.18213635  0.22476833  0.81659059  1.0
  Y  Y2296  1  0.18213635  0.55810167  0.81659059  1.0
  Y  Y2297  1  0.18213635  0.89143500  0.81659059  1.0
  Y  Y2298  1  0.51546969  0.22476833  0.81659059  1.0
  Y  Y2299  1  0.51546969  0.55810167  0.81659059  1.0
  Y  Y2300  1  0.51546969  0.89143500  0.81659059  1.0
  Y  Y2301  1  0.84880302  0.22476833  0.81659059  1.0
  Y  Y2302  1  0.84880302  0.55810167  0.81659059  1.0
  Y  Y2303  1  0.84880302  0.89143500  0.81659059  1.0
  Y  Y2304  1  0.03816902  0.32333700  0.74460693  1.0
  Y  Y2305  1  0.03816902  0.65667033  0.74460693  1.0
  Y  Y2306  1  0.03816902  0.99000367  0.74460693  1.0
  Y  Y2307  1  0.37150235  0.32333700  0.74460693  1.0
  Y  Y2308  1  0.37150235  0.65667033  0.74460693  1.0
  Y  Y2309  1  0.37150235  0.99000367  0.74460693  1.0
  Y  Y2310  1  0.70483569  0.32333700  0.74460693  1.0
  Y  Y2311  1  0.70483569  0.65667033  0.74460693  1.0
  Y  Y2312  1  0.70483569  0.99000367  0.74460693  1.0
  Y  Y2313  1  0.26039124  0.32333700  0.68905137  1.0
  Y  Y2314  1  0.26039124  0.65667033  0.68905137  1.0
  Y  Y2315  1  0.26039124  0.99000367  0.68905137  1.0
  Y  Y2316  1  0.59372457  0.32333700  0.68905137  1.0
  Y  Y2317  1  0.59372457  0.65667033  0.68905137  1.0
  Y  Y2318  1  0.59372457  0.99000367  0.68905137  1.0
  Y  Y2319  1  0.92705791  0.32333700  0.68905137  1.0
  Y  Y2320  1  0.92705791  0.65667033  0.68905137  1.0
  Y  Y2321  1  0.92705791  0.99000367  0.68905137  1.0
  Y  Y2322  1  0.17965294  0.00999633  0.70423778  1.0
  Y  Y2323  1  0.17965294  0.34332967  0.70423778  1.0
  Y  Y2324  1  0.17965294  0.67666300  0.70423778  1.0
  Y  Y2325  1  0.51298628  0.00999633  0.70423778  1.0
  Y  Y2326  1  0.51298628  0.34332967  0.70423778  1.0
  Y  Y2327  1  0.51298628  0.67666300  0.70423778  1.0
  Y  Y2328  1  0.84631961  0.00999633  0.70423778  1.0
  Y  Y2329  1  0.84631961  0.34332967  0.70423778  1.0
  Y  Y2330  1  0.84631961  0.67666300  0.70423778  1.0
  Y  Y2331  1  0.29076406  0.00999633  0.75979333  1.0
  Y  Y2332  1  0.29076406  0.34332967  0.75979333  1.0
  Y  Y2333  1  0.29076406  0.67666300  0.75979333  1.0
  Y  Y2334  1  0.62409739  0.00999633  0.75979333  1.0
  Y  Y2335  1  0.62409739  0.34332967  0.75979333  1.0
  Y  Y2336  1  0.62409739  0.67666300  0.75979333  1.0
  Y  Y2337  1  0.95743072  0.00999633  0.75979333  1.0
  Y  Y2338  1  0.95743072  0.34332967  0.75979333  1.0
  Y  Y2339  1  0.95743072  0.67666300  0.75979333  1.0
  Y  Y2340  1  0.13076161  0.15667033  0.67979211  1.0
  Y  Y2341  1  0.13076161  0.49000367  0.67979211  1.0
  Y  Y2342  1  0.13076161  0.82333700  0.67979211  1.0
  Y  Y2343  1  0.46409494  0.15667033  0.67979211  1.0
  Y  Y2344  1  0.46409494  0.49000367  0.67979211  1.0
  Y  Y2345  1  0.46409494  0.82333700  0.67979211  1.0
  Y  Y2346  1  0.79742828  0.15667033  0.67979211  1.0
  Y  Y2347  1  0.79742828  0.49000367  0.67979211  1.0
  Y  Y2348  1  0.79742828  0.82333700  0.67979211  1.0
  Y  Y2349  1  0.24187272  0.15667033  0.73534767  1.0
  Y  Y2350  1  0.24187272  0.49000367  0.73534767  1.0
  Y  Y2351  1  0.24187272  0.82333700  0.73534767  1.0
  Y  Y2352  1  0.57520606  0.15667033  0.73534767  1.0
  Y  Y2353  1  0.57520606  0.49000367  0.73534767  1.0
  Y  Y2354  1  0.57520606  0.82333700  0.73534767  1.0
  Y  Y2355  1  0.90853939  0.15667033  0.73534767  1.0
  Y  Y2356  1  0.90853939  0.49000367  0.73534767  1.0
  Y  Y2357  1  0.90853939  0.82333700  0.73534767  1.0
  Y  Y2358  1  0.08706035  0.17666300  0.76905259  1.0
  Y  Y2359  1  0.08706035  0.50999633  0.76905259  1.0
  Y  Y2360  1  0.08706035  0.84332967  0.76905259  1.0
  Y  Y2361  1  0.42039369  0.17666300  0.76905259  1.0
  Y  Y2362  1  0.42039369  0.50999633  0.76905259  1.0
  Y  Y2363  1  0.42039369  0.84332967  0.76905259  1.0
  Y  Y2364  1  0.75372702  0.17666300  0.76905259  1.0
  Y  Y2365  1  0.75372702  0.50999633  0.76905259  1.0
  Y  Y2366  1  0.75372702  0.84332967  0.76905259  1.0
  Y  Y2367  1  0.30928257  0.17666300  0.71349704  1.0
  Y  Y2368  1  0.30928257  0.50999633  0.71349704  1.0
  Y  Y2369  1  0.30928257  0.84332967  0.71349704  1.0
  Y  Y2370  1  0.64261591  0.17666300  0.71349704  1.0
  Y  Y2371  1  0.64261591  0.50999633  0.71349704  1.0
  Y  Y2372  1  0.64261591  0.84332967  0.71349704  1.0
  Y  Y2373  1  0.97594924  0.17666300  0.71349704  1.0
  Y  Y2374  1  0.97594924  0.50999633  0.71349704  1.0
  Y  Y2375  1  0.97594924  0.84332967  0.71349704  1.0
  Y  Y2376  1  0.05420413  0.27523167  0.75262448  1.0
  Y  Y2377  1  0.05420413  0.60856500  0.75262448  1.0
  Y  Y2378  1  0.05420413  0.94189833  0.75262448  1.0
  Y  Y2379  1  0.38753746  0.27523167  0.75262448  1.0
  Y  Y2380  1  0.38753746  0.60856500  0.75262448  1.0
  Y  Y2381  1  0.38753746  0.94189833  0.75262448  1.0
  Y  Y2382  1  0.72087080  0.27523167  0.75262448  1.0
  Y  Y2383  1  0.72087080  0.60856500  0.75262448  1.0
  Y  Y2384  1  0.72087080  0.94189833  0.75262448  1.0
  Y  Y2385  1  0.27642635  0.27523167  0.69706893  1.0
  Y  Y2386  1  0.27642635  0.60856500  0.69706893  1.0
  Y  Y2387  1  0.27642635  0.94189833  0.69706893  1.0
  Y  Y2388  1  0.60975969  0.27523167  0.69706893  1.0
  Y  Y2389  1  0.60975969  0.60856500  0.69706893  1.0
  Y  Y2390  1  0.60975969  0.94189833  0.69706893  1.0
  Y  Y2391  1  0.94309302  0.27523167  0.69706893  1.0
  Y  Y2392  1  0.94309302  0.60856500  0.69706893  1.0
  Y  Y2393  1  0.94309302  0.94189833  0.69706893  1.0
  Y  Y2394  1  0.16361783  0.05810167  0.69622022  1.0
  Y  Y2395  1  0.16361783  0.39143500  0.69622022  1.0
  Y  Y2396  1  0.16361783  0.72476833  0.69622022  1.0
  Y  Y2397  1  0.49695117  0.05810167  0.69622022  1.0
  Y  Y2398  1  0.49695117  0.39143500  0.69622022  1.0
  Y  Y2399  1  0.49695117  0.72476833  0.69622022  1.0
  Y  Y2400  1  0.83028450  0.05810167  0.69622022  1.0
  Y  Y2401  1  0.83028450  0.39143500  0.69622022  1.0
  Y  Y2402  1  0.83028450  0.72476833  0.69622022  1.0
  Y  Y2403  1  0.27472894  0.05810167  0.75177578  1.0
  Y  Y2404  1  0.27472894  0.39143500  0.75177578  1.0
  Y  Y2405  1  0.27472894  0.72476833  0.75177578  1.0
  Y  Y2406  1  0.60806228  0.05810167  0.75177578  1.0
  Y  Y2407  1  0.60806228  0.39143500  0.75177578  1.0
  Y  Y2408  1  0.60806228  0.72476833  0.75177578  1.0
  Y  Y2409  1  0.94139561  0.05810167  0.75177578  1.0
  Y  Y2410  1  0.94139561  0.39143500  0.75177578  1.0
  Y  Y2411  1  0.94139561  0.72476833  0.75177578  1.0
  Y  Y2412  1  0.14679672  0.10856500  0.68780967  1.0
  Y  Y2413  1  0.14679672  0.44189833  0.68780967  1.0
  Y  Y2414  1  0.14679672  0.77523167  0.68780967  1.0
  Y  Y2415  1  0.48013006  0.10856500  0.68780967  1.0
  Y  Y2416  1  0.48013006  0.44189833  0.68780967  1.0
  Y  Y2417  1  0.48013006  0.77523167  0.68780967  1.0
  Y  Y2418  1  0.81346339  0.10856500  0.68780967  1.0
  Y  Y2419  1  0.81346339  0.44189833  0.68780967  1.0
  Y  Y2420  1  0.81346339  0.77523167  0.68780967  1.0
  Y  Y2421  1  0.25790783  0.10856500  0.74336522  1.0
  Y  Y2422  1  0.25790783  0.44189833  0.74336522  1.0
  Y  Y2423  1  0.25790783  0.77523167  0.74336522  1.0
  Y  Y2424  1  0.59124117  0.10856500  0.74336522  1.0
  Y  Y2425  1  0.59124117  0.44189833  0.74336522  1.0
  Y  Y2426  1  0.59124117  0.77523167  0.74336522  1.0
  Y  Y2427  1  0.92457450  0.10856500  0.74336522  1.0
  Y  Y2428  1  0.92457450  0.44189833  0.74336522  1.0
  Y  Y2429  1  0.92457450  0.77523167  0.74336522  1.0
  Y  Y2430  1  0.07102524  0.22476833  0.76103504  1.0
  Y  Y2431  1  0.07102524  0.55810167  0.76103504  1.0
  Y  Y2432  1  0.07102524  0.89143500  0.76103504  1.0
  Y  Y2433  1  0.40435857  0.22476833  0.76103504  1.0
  Y  Y2434  1  0.40435857  0.55810167  0.76103504  1.0
  Y  Y2435  1  0.40435857  0.89143500  0.76103504  1.0
  Y  Y2436  1  0.73769191  0.22476833  0.76103504  1.0
  Y  Y2437  1  0.73769191  0.55810167  0.76103504  1.0
  Y  Y2438  1  0.73769191  0.89143500  0.76103504  1.0
  Y  Y2439  1  0.29324746  0.22476833  0.70547948  1.0
  Y  Y2440  1  0.29324746  0.55810167  0.70547948  1.0
  Y  Y2441  1  0.29324746  0.89143500  0.70547948  1.0
  Y  Y2442  1  0.62658080  0.22476833  0.70547948  1.0
  Y  Y2443  1  0.62658080  0.55810167  0.70547948  1.0
  Y  Y2444  1  0.62658080  0.89143500  0.70547948  1.0
  Y  Y2445  1  0.95991413  0.22476833  0.70547948  1.0
  Y  Y2446  1  0.95991413  0.55810167  0.70547948  1.0
  Y  Y2447  1  0.95991413  0.89143500  0.70547948  1.0
  Y  Y2448  1  0.14928013  0.32333700  0.63349581  1.0
  Y  Y2449  1  0.14928013  0.65667033  0.63349581  1.0
  Y  Y2450  1  0.14928013  0.99000367  0.63349581  1.0
  Y  Y2451  1  0.48261346  0.32333700  0.63349581  1.0
  Y  Y2452  1  0.48261346  0.65667033  0.63349581  1.0
  Y  Y2453  1  0.48261346  0.99000367  0.63349581  1.0
  Y  Y2454  1  0.81594680  0.32333700  0.63349581  1.0
  Y  Y2455  1  0.81594680  0.65667033  0.63349581  1.0
  Y  Y2456  1  0.81594680  0.99000367  0.63349581  1.0
  Y  Y2457  1  0.03816902  0.32333700  0.57794026  1.0
  Y  Y2458  1  0.03816902  0.65667033  0.57794026  1.0
  Y  Y2459  1  0.03816902  0.99000367  0.57794026  1.0
  Y  Y2460  1  0.37150235  0.32333700  0.57794026  1.0
  Y  Y2461  1  0.37150235  0.65667033  0.57794026  1.0
  Y  Y2462  1  0.37150235  0.99000367  0.57794026  1.0
  Y  Y2463  1  0.70483569  0.32333700  0.57794026  1.0
  Y  Y2464  1  0.70483569  0.65667033  0.57794026  1.0
  Y  Y2465  1  0.70483569  0.99000367  0.57794026  1.0
  Y  Y2466  1  0.29076406  0.00999633  0.59312667  1.0
  Y  Y2467  1  0.29076406  0.34332967  0.59312667  1.0
  Y  Y2468  1  0.29076406  0.67666300  0.59312667  1.0
  Y  Y2469  1  0.62409739  0.00999633  0.59312667  1.0
  Y  Y2470  1  0.62409739  0.34332967  0.59312667  1.0
  Y  Y2471  1  0.62409739  0.67666300  0.59312667  1.0
  Y  Y2472  1  0.95743072  0.00999633  0.59312667  1.0
  Y  Y2473  1  0.95743072  0.34332967  0.59312667  1.0
  Y  Y2474  1  0.95743072  0.67666300  0.59312667  1.0
  Y  Y2475  1  0.06854183  0.00999633  0.64868222  1.0
  Y  Y2476  1  0.06854183  0.34332967  0.64868222  1.0
  Y  Y2477  1  0.06854183  0.67666300  0.64868222  1.0
  Y  Y2478  1  0.40187517  0.00999633  0.64868222  1.0
  Y  Y2479  1  0.40187517  0.34332967  0.64868222  1.0
  Y  Y2480  1  0.40187517  0.67666300  0.64868222  1.0
  Y  Y2481  1  0.73520850  0.00999633  0.64868222  1.0
  Y  Y2482  1  0.73520850  0.34332967  0.64868222  1.0
  Y  Y2483  1  0.73520850  0.67666300  0.64868222  1.0
  Y  Y2484  1  0.24187272  0.15667033  0.56868100  1.0
  Y  Y2485  1  0.24187272  0.49000367  0.56868100  1.0
  Y  Y2486  1  0.24187272  0.82333700  0.56868100  1.0
  Y  Y2487  1  0.57520606  0.15667033  0.56868100  1.0
  Y  Y2488  1  0.57520606  0.49000367  0.56868100  1.0
  Y  Y2489  1  0.57520606  0.82333700  0.56868100  1.0
  Y  Y2490  1  0.90853939  0.15667033  0.56868100  1.0
  Y  Y2491  1  0.90853939  0.49000367  0.56868100  1.0
  Y  Y2492  1  0.90853939  0.82333700  0.56868100  1.0
  Y  Y2493  1  0.01965050  0.15667033  0.62423656  1.0
  Y  Y2494  1  0.01965050  0.49000367  0.62423656  1.0
  Y  Y2495  1  0.01965050  0.82333700  0.62423656  1.0
  Y  Y2496  1  0.35298383  0.15667033  0.62423656  1.0
  Y  Y2497  1  0.35298383  0.49000367  0.62423656  1.0
  Y  Y2498  1  0.35298383  0.82333700  0.62423656  1.0
  Y  Y2499  1  0.68631717  0.15667033  0.62423656  1.0
  Y  Y2500  1  0.68631717  0.49000367  0.62423656  1.0
  Y  Y2501  1  0.68631717  0.82333700  0.62423656  1.0
  Y  Y2502  1  0.19817146  0.17666300  0.65794148  1.0
  Y  Y2503  1  0.19817146  0.50999633  0.65794148  1.0
  Y  Y2504  1  0.19817146  0.84332967  0.65794148  1.0
  Y  Y2505  1  0.53150480  0.17666300  0.65794148  1.0
  Y  Y2506  1  0.53150480  0.50999633  0.65794148  1.0
  Y  Y2507  1  0.53150480  0.84332967  0.65794148  1.0
  Y  Y2508  1  0.86483813  0.17666300  0.65794148  1.0
  Y  Y2509  1  0.86483813  0.50999633  0.65794148  1.0
  Y  Y2510  1  0.86483813  0.84332967  0.65794148  1.0
  Y  Y2511  1  0.08706035  0.17666300  0.60238593  1.0
  Y  Y2512  1  0.08706035  0.50999633  0.60238593  1.0
  Y  Y2513  1  0.08706035  0.84332967  0.60238593  1.0
  Y  Y2514  1  0.42039369  0.17666300  0.60238593  1.0
  Y  Y2515  1  0.42039369  0.50999633  0.60238593  1.0
  Y  Y2516  1  0.42039369  0.84332967  0.60238593  1.0
  Y  Y2517  1  0.75372702  0.17666300  0.60238593  1.0
  Y  Y2518  1  0.75372702  0.50999633  0.60238593  1.0
  Y  Y2519  1  0.75372702  0.84332967  0.60238593  1.0
  Y  Y2520  1  0.16531524  0.27523167  0.64151337  1.0
  Y  Y2521  1  0.16531524  0.60856500  0.64151337  1.0
  Y  Y2522  1  0.16531524  0.94189833  0.64151337  1.0
  Y  Y2523  1  0.49864857  0.27523167  0.64151337  1.0
  Y  Y2524  1  0.49864857  0.60856500  0.64151337  1.0
  Y  Y2525  1  0.49864857  0.94189833  0.64151337  1.0
  Y  Y2526  1  0.83198191  0.27523167  0.64151337  1.0
  Y  Y2527  1  0.83198191  0.60856500  0.64151337  1.0
  Y  Y2528  1  0.83198191  0.94189833  0.64151337  1.0
  Y  Y2529  1  0.05420413  0.27523167  0.58595781  1.0
  Y  Y2530  1  0.05420413  0.60856500  0.58595781  1.0
  Y  Y2531  1  0.05420413  0.94189833  0.58595781  1.0
  Y  Y2532  1  0.38753746  0.27523167  0.58595781  1.0
  Y  Y2533  1  0.38753746  0.60856500  0.58595781  1.0
  Y  Y2534  1  0.38753746  0.94189833  0.58595781  1.0
  Y  Y2535  1  0.72087080  0.27523167  0.58595781  1.0
  Y  Y2536  1  0.72087080  0.60856500  0.58595781  1.0
  Y  Y2537  1  0.72087080  0.94189833  0.58595781  1.0
  Y  Y2538  1  0.27472894  0.05810167  0.58510911  1.0
  Y  Y2539  1  0.27472894  0.39143500  0.58510911  1.0
  Y  Y2540  1  0.27472894  0.72476833  0.58510911  1.0
  Y  Y2541  1  0.60806228  0.05810167  0.58510911  1.0
  Y  Y2542  1  0.60806228  0.39143500  0.58510911  1.0
  Y  Y2543  1  0.60806228  0.72476833  0.58510911  1.0
  Y  Y2544  1  0.94139561  0.05810167  0.58510911  1.0
  Y  Y2545  1  0.94139561  0.39143500  0.58510911  1.0
  Y  Y2546  1  0.94139561  0.72476833  0.58510911  1.0
  Y  Y2547  1  0.05250672  0.05810167  0.64066467  1.0
  Y  Y2548  1  0.05250672  0.39143500  0.64066467  1.0
  Y  Y2549  1  0.05250672  0.72476833  0.64066467  1.0
  Y  Y2550  1  0.38584006  0.05810167  0.64066467  1.0
  Y  Y2551  1  0.38584006  0.39143500  0.64066467  1.0
  Y  Y2552  1  0.38584006  0.72476833  0.64066467  1.0
  Y  Y2553  1  0.71917339  0.05810167  0.64066467  1.0
  Y  Y2554  1  0.71917339  0.39143500  0.64066467  1.0
  Y  Y2555  1  0.71917339  0.72476833  0.64066467  1.0
  Y  Y2556  1  0.25790783  0.10856500  0.57669856  1.0
  Y  Y2557  1  0.25790783  0.44189833  0.57669856  1.0
  Y  Y2558  1  0.25790783  0.77523167  0.57669856  1.0
  Y  Y2559  1  0.59124117  0.10856500  0.57669856  1.0
  Y  Y2560  1  0.59124117  0.44189833  0.57669856  1.0
  Y  Y2561  1  0.59124117  0.77523167  0.57669856  1.0
  Y  Y2562  1  0.92457450  0.10856500  0.57669856  1.0
  Y  Y2563  1  0.92457450  0.44189833  0.57669856  1.0
  Y  Y2564  1  0.92457450  0.77523167  0.57669856  1.0
  Y  Y2565  1  0.03568561  0.10856500  0.63225411  1.0
  Y  Y2566  1  0.03568561  0.44189833  0.63225411  1.0
  Y  Y2567  1  0.03568561  0.77523167  0.63225411  1.0
  Y  Y2568  1  0.36901894  0.10856500  0.63225411  1.0
  Y  Y2569  1  0.36901894  0.44189833  0.63225411  1.0
  Y  Y2570  1  0.36901894  0.77523167  0.63225411  1.0
  Y  Y2571  1  0.70235228  0.10856500  0.63225411  1.0
  Y  Y2572  1  0.70235228  0.44189833  0.63225411  1.0
  Y  Y2573  1  0.70235228  0.77523167  0.63225411  1.0
  Y  Y2574  1  0.18213635  0.22476833  0.64992393  1.0
  Y  Y2575  1  0.18213635  0.55810167  0.64992393  1.0
  Y  Y2576  1  0.18213635  0.89143500  0.64992393  1.0
  Y  Y2577  1  0.51546969  0.22476833  0.64992393  1.0
  Y  Y2578  1  0.51546969  0.55810167  0.64992393  1.0
  Y  Y2579  1  0.51546969  0.89143500  0.64992393  1.0
  Y  Y2580  1  0.84880302  0.22476833  0.64992393  1.0
  Y  Y2581  1  0.84880302  0.55810167  0.64992393  1.0
  Y  Y2582  1  0.84880302  0.89143500  0.64992393  1.0
  Y  Y2583  1  0.07102524  0.22476833  0.59436837  1.0
  Y  Y2584  1  0.07102524  0.55810167  0.59436837  1.0
  Y  Y2585  1  0.07102524  0.89143500  0.59436837  1.0
  Y  Y2586  1  0.40435857  0.22476833  0.59436837  1.0
  Y  Y2587  1  0.40435857  0.55810167  0.59436837  1.0
  Y  Y2588  1  0.40435857  0.89143500  0.59436837  1.0
  Y  Y2589  1  0.73769191  0.22476833  0.59436837  1.0
  Y  Y2590  1  0.73769191  0.55810167  0.59436837  1.0
  Y  Y2591  1  0.73769191  0.89143500  0.59436837  1.0
