# generated using pymatgen
data_Y3Ni2
_symmetry_space_group_name_H-M   'P 1'
_cell_length_a   29.99955532
_cell_length_b   221.16425979
_cell_length_c   49.49674100
_cell_angle_alpha   90.00000000
_cell_angle_beta   45.00000000
_cell_angle_gamma   86.11110680
_symmetry_Int_Tables_number   1
_chemical_formula_structural   Y3Ni2
_chemical_formula_sum   'Y2592 Ni1728'
_cell_volume   231144.97329196
_cell_formula_units_Z   864
loop_
 _symmetry_equiv_pos_site_id
 _symmetry_equiv_pos_as_xyz
  1  'x, y, z'
loop_
 _atom_site_type_symbol
 _atom_site_label
 _atom_site_symmetry_multiplicity
 _atom_site_fract_x
 _atom_site_fract_y
 _atom_site_fract_z
 _atom_site_occupancy
  Y  Y0  1  0.15277800  0.23511433  0.07569393  1.0
  Y  Y1  1  0.15277800  0.56844767  0.07569393  1.0
  Y  Y2  1  0.15277800  0.90178100  0.07569393  1.0
  Y  Y3  1  0.48611133  0.23511433  0.07569393  1.0
  Y  Y4  1  0.48611133  0.56844767  0.07569393  1.0
  Y  Y5  1  0.48611133  0.90178100  0.07569393  1.0
  Y  Y6  1  0.81944467  0.23511433  0.07569393  1.0
  Y  Y7  1  0.81944467  0.56844767  0.07569393  1.0
  Y  Y8  1  0.81944467  0.90178100  0.07569393  1.0
  Y  Y9  1  0.31944467  0.06844767  0.00426536  1.0
  Y  Y10  1  0.31944467  0.40178100  0.00426536  1.0
  Y  Y11  1  0.31944467  0.73511433  0.00426536  1.0
  Y  Y12  1  0.65277800  0.06844767  0.00426536  1.0
  Y  Y13  1  0.65277800  0.40178100  0.00426536  1.0
  Y  Y14  1  0.65277800  0.73511433  0.00426536  1.0
  Y  Y15  1  0.98611133  0.06844767  0.00426536  1.0
  Y  Y16  1  0.98611133  0.40178100  0.00426536  1.0
  Y  Y17  1  0.98611133  0.73511433  0.00426536  1.0
  Y  Y18  1  0.05946167  0.29407500  0.07327493  1.0
  Y  Y19  1  0.05946167  0.62740833  0.07327493  1.0
  Y  Y20  1  0.05946167  0.96074167  0.07327493  1.0
  Y  Y21  1  0.39279500  0.29407500  0.07327493  1.0
  Y  Y22  1  0.39279500  0.62740833  0.07327493  1.0
  Y  Y23  1  0.39279500  0.96074167  0.07327493  1.0
  Y  Y24  1  0.72612833  0.29407500  0.07327493  1.0
  Y  Y25  1  0.72612833  0.62740833  0.07327493  1.0
  Y  Y26  1  0.72612833  0.96074167  0.07327493  1.0
  Y  Y27  1  0.22612833  0.12740833  0.00184636  1.0
  Y  Y28  1  0.22612833  0.46074167  0.00184636  1.0
  Y  Y29  1  0.22612833  0.79407500  0.00184636  1.0
  Y  Y30  1  0.55946167  0.12740833  0.00184636  1.0
  Y  Y31  1  0.55946167  0.46074167  0.00184636  1.0
  Y  Y32  1  0.55946167  0.79407500  0.00184636  1.0
  Y  Y33  1  0.89279500  0.12740833  0.00184636  1.0
  Y  Y34  1  0.89279500  0.46074167  0.00184636  1.0
  Y  Y35  1  0.89279500  0.79407500  0.00184636  1.0
  Y  Y36  1  0.16681650  0.21976883  0.02330543  1.0
  Y  Y37  1  0.16681650  0.55310217  0.02330543  1.0
  Y  Y38  1  0.16681650  0.88643550  0.02330543  1.0
  Y  Y39  1  0.50014983  0.21976883  0.02330543  1.0
  Y  Y40  1  0.50014983  0.55310217  0.02330543  1.0
  Y  Y41  1  0.50014983  0.88643550  0.02330543  1.0
  Y  Y42  1  0.83348317  0.21976883  0.02330543  1.0
  Y  Y43  1  0.83348317  0.55310217  0.02330543  1.0
  Y  Y44  1  0.83348317  0.88643550  0.02330543  1.0
  Y  Y45  1  0.00014983  0.05310217  0.09473400  1.0
  Y  Y46  1  0.00014983  0.38643550  0.09473400  1.0
  Y  Y47  1  0.00014983  0.71976883  0.09473400  1.0
  Y  Y48  1  0.33348317  0.05310217  0.09473400  1.0
  Y  Y49  1  0.33348317  0.38643550  0.09473400  1.0
  Y  Y50  1  0.33348317  0.71976883  0.09473400  1.0
  Y  Y51  1  0.66681650  0.05310217  0.09473400  1.0
  Y  Y52  1  0.66681650  0.38643550  0.09473400  1.0
  Y  Y53  1  0.66681650  0.71976883  0.09473400  1.0
  Y  Y54  1  0.10221400  0.29166667  0.12490079  1.0
  Y  Y55  1  0.10221400  0.62500000  0.12490079  1.0
  Y  Y56  1  0.10221400  0.95833333  0.12490079  1.0
  Y  Y57  1  0.43554733  0.29166667  0.12490079  1.0
  Y  Y58  1  0.43554733  0.62500000  0.12490079  1.0
  Y  Y59  1  0.43554733  0.95833333  0.12490079  1.0
  Y  Y60  1  0.76888067  0.29166667  0.12490079  1.0
  Y  Y61  1  0.76888067  0.62500000  0.12490079  1.0
  Y  Y62  1  0.76888067  0.95833333  0.12490079  1.0
  Y  Y63  1  0.26888067  0.12500000  0.05347221  1.0
  Y  Y64  1  0.26888067  0.45833333  0.05347221  1.0
  Y  Y65  1  0.26888067  0.79166667  0.05347221  1.0
  Y  Y66  1  0.60221400  0.12500000  0.05347221  1.0
  Y  Y67  1  0.60221400  0.45833333  0.05347221  1.0
  Y  Y68  1  0.60221400  0.79166667  0.05347221  1.0
  Y  Y69  1  0.93554733  0.12500000  0.05347221  1.0
  Y  Y70  1  0.93554733  0.45833333  0.05347221  1.0
  Y  Y71  1  0.93554733  0.79166667  0.05347221  1.0
  Y  Y72  1  0.28008400  0.20833333  0.08918650  1.0
  Y  Y73  1  0.28008400  0.54166667  0.08918650  1.0
  Y  Y74  1  0.28008400  0.87500000  0.08918650  1.0
  Y  Y75  1  0.61341733  0.20833333  0.08918650  1.0
  Y  Y76  1  0.61341733  0.54166667  0.08918650  1.0
  Y  Y77  1  0.61341733  0.87500000  0.08918650  1.0
  Y  Y78  1  0.94675067  0.20833333  0.08918650  1.0
  Y  Y79  1  0.94675067  0.54166667  0.08918650  1.0
  Y  Y80  1  0.94675067  0.87500000  0.08918650  1.0
  Y  Y81  1  0.11341733  0.04166667  0.01775793  1.0
  Y  Y82  1  0.11341733  0.37500000  0.01775793  1.0
  Y  Y83  1  0.11341733  0.70833333  0.01775793  1.0
  Y  Y84  1  0.44675067  0.04166667  0.01775793  1.0
  Y  Y85  1  0.44675067  0.37500000  0.01775793  1.0
  Y  Y86  1  0.44675067  0.70833333  0.01775793  1.0
  Y  Y87  1  0.78008400  0.04166667  0.01775793  1.0
  Y  Y88  1  0.78008400  0.37500000  0.01775793  1.0
  Y  Y89  1  0.78008400  0.70833333  0.01775793  1.0
  Y  Y90  1  0.19581217  0.23456383  0.12810457  1.0
  Y  Y91  1  0.19581217  0.56789717  0.12810457  1.0
  Y  Y92  1  0.19581217  0.90123050  0.12810457  1.0
  Y  Y93  1  0.52914550  0.23456383  0.12810457  1.0
  Y  Y94  1  0.52914550  0.56789717  0.12810457  1.0
  Y  Y95  1  0.52914550  0.90123050  0.12810457  1.0
  Y  Y96  1  0.86247883  0.23456383  0.12810457  1.0
  Y  Y97  1  0.86247883  0.56789717  0.12810457  1.0
  Y  Y98  1  0.86247883  0.90123050  0.12810457  1.0
  Y  Y99  1  0.02914550  0.06789717  0.05667600  1.0
  Y  Y100  1  0.02914550  0.40123050  0.05667600  1.0
  Y  Y101  1  0.02914550  0.73456383  0.05667600  1.0
  Y  Y102  1  0.36247883  0.06789717  0.05667600  1.0
  Y  Y103  1  0.36247883  0.40123050  0.05667600  1.0
  Y  Y104  1  0.36247883  0.73456383  0.05667600  1.0
  Y  Y105  1  0.69581217  0.06789717  0.05667600  1.0
  Y  Y106  1  0.69581217  0.40123050  0.05667600  1.0
  Y  Y107  1  0.69581217  0.73456383  0.05667600  1.0
  Y  Y108  1  0.12665850  0.26143550  0.13708200  1.0
  Y  Y109  1  0.12665850  0.59476883  0.13708200  1.0
  Y  Y110  1  0.12665850  0.92810217  0.13708200  1.0
  Y  Y111  1  0.45999183  0.26143550  0.13708200  1.0
  Y  Y112  1  0.45999183  0.59476883  0.13708200  1.0
  Y  Y113  1  0.45999183  0.92810217  0.13708200  1.0
  Y  Y114  1  0.79332517  0.26143550  0.13708200  1.0
  Y  Y115  1  0.79332517  0.59476883  0.13708200  1.0
  Y  Y116  1  0.79332517  0.92810217  0.13708200  1.0
  Y  Y117  1  0.29332517  0.09476883  0.06565343  1.0
  Y  Y118  1  0.29332517  0.42810217  0.06565343  1.0
  Y  Y119  1  0.29332517  0.76143550  0.06565343  1.0
  Y  Y120  1  0.62665850  0.09476883  0.06565343  1.0
  Y  Y121  1  0.62665850  0.42810217  0.06565343  1.0
  Y  Y122  1  0.62665850  0.76143550  0.06565343  1.0
  Y  Y123  1  0.95999183  0.09476883  0.06565343  1.0
  Y  Y124  1  0.95999183  0.42810217  0.06565343  1.0
  Y  Y125  1  0.95999183  0.76143550  0.06565343  1.0
  Y  Y126  1  0.18945267  0.25000000  0.01608421  1.0
  Y  Y127  1  0.18945267  0.58333333  0.01608421  1.0
  Y  Y128  1  0.18945267  0.91666667  0.01608421  1.0
  Y  Y129  1  0.52278600  0.25000000  0.01608421  1.0
  Y  Y130  1  0.52278600  0.58333333  0.01608421  1.0
  Y  Y131  1  0.52278600  0.91666667  0.01608421  1.0
  Y  Y132  1  0.85611933  0.25000000  0.01608421  1.0
  Y  Y133  1  0.85611933  0.58333333  0.01608421  1.0
  Y  Y134  1  0.85611933  0.91666667  0.01608421  1.0
  Y  Y135  1  0.02278600  0.08333333  0.08751279  1.0
  Y  Y136  1  0.02278600  0.41666667  0.08751279  1.0
  Y  Y137  1  0.02278600  0.75000000  0.08751279  1.0
  Y  Y138  1  0.35611933  0.08333333  0.08751279  1.0
  Y  Y139  1  0.35611933  0.41666667  0.08751279  1.0
  Y  Y140  1  0.35611933  0.75000000  0.08751279  1.0
  Y  Y141  1  0.68945267  0.08333333  0.08751279  1.0
  Y  Y142  1  0.68945267  0.41666667  0.08751279  1.0
  Y  Y143  1  0.68945267  0.75000000  0.08751279  1.0
  Y  Y144  1  0.31025700  0.19344767  0.10460164  1.0
  Y  Y145  1  0.31025700  0.52678100  0.10460164  1.0
  Y  Y146  1  0.31025700  0.86011433  0.10460164  1.0
  Y  Y147  1  0.64359033  0.19344767  0.10460164  1.0
  Y  Y148  1  0.64359033  0.52678100  0.10460164  1.0
  Y  Y149  1  0.64359033  0.86011433  0.10460164  1.0
  Y  Y150  1  0.97692367  0.19344767  0.10460164  1.0
  Y  Y151  1  0.97692367  0.52678100  0.10460164  1.0
  Y  Y152  1  0.97692367  0.86011433  0.10460164  1.0
  Y  Y153  1  0.14359033  0.02678100  0.03317307  1.0
  Y  Y154  1  0.14359033  0.36011433  0.03317307  1.0
  Y  Y155  1  0.14359033  0.69344767  0.03317307  1.0
  Y  Y156  1  0.47692367  0.02678100  0.03317307  1.0
  Y  Y157  1  0.47692367  0.36011433  0.03317307  1.0
  Y  Y158  1  0.47692367  0.69344767  0.03317307  1.0
  Y  Y159  1  0.81025700  0.02678100  0.03317307  1.0
  Y  Y160  1  0.81025700  0.36011433  0.03317307  1.0
  Y  Y161  1  0.81025700  0.69344767  0.03317307  1.0
  Y  Y162  1  0.12485017  0.32189783  0.11271957  1.0
  Y  Y163  1  0.12485017  0.65523117  0.11271957  1.0
  Y  Y164  1  0.12485017  0.98856450  0.11271957  1.0
  Y  Y165  1  0.45818350  0.32189783  0.11271957  1.0
  Y  Y166  1  0.45818350  0.65523117  0.11271957  1.0
  Y  Y167  1  0.45818350  0.98856450  0.11271957  1.0
  Y  Y168  1  0.79151683  0.32189783  0.11271957  1.0
  Y  Y169  1  0.79151683  0.65523117  0.11271957  1.0
  Y  Y170  1  0.79151683  0.98856450  0.11271957  1.0
  Y  Y171  1  0.29151683  0.15523117  0.04129100  1.0
  Y  Y172  1  0.29151683  0.48856450  0.04129100  1.0
  Y  Y173  1  0.29151683  0.82189783  0.04129100  1.0
  Y  Y174  1  0.62485017  0.15523117  0.04129100  1.0
  Y  Y175  1  0.62485017  0.48856450  0.04129100  1.0
  Y  Y176  1  0.62485017  0.82189783  0.04129100  1.0
  Y  Y177  1  0.95818350  0.15523117  0.04129100  1.0
  Y  Y178  1  0.95818350  0.48856450  0.04129100  1.0
  Y  Y179  1  0.95818350  0.82189783  0.04129100  1.0
  Y  Y180  1  0.07215233  0.26488567  0.08845307  1.0
  Y  Y181  1  0.07215233  0.59821900  0.08845307  1.0
  Y  Y182  1  0.07215233  0.93155233  0.08845307  1.0
  Y  Y183  1  0.40548567  0.26488567  0.08845307  1.0
  Y  Y184  1  0.40548567  0.59821900  0.08845307  1.0
  Y  Y185  1  0.40548567  0.93155233  0.08845307  1.0
  Y  Y186  1  0.73881900  0.26488567  0.08845307  1.0
  Y  Y187  1  0.73881900  0.59821900  0.08845307  1.0
  Y  Y188  1  0.73881900  0.93155233  0.08845307  1.0
  Y  Y189  1  0.23881900  0.09821900  0.01702450  1.0
  Y  Y190  1  0.23881900  0.43155233  0.01702450  1.0
  Y  Y191  1  0.23881900  0.76488567  0.01702450  1.0
  Y  Y192  1  0.57215233  0.09821900  0.01702450  1.0
  Y  Y193  1  0.57215233  0.43155233  0.01702450  1.0
  Y  Y194  1  0.57215233  0.76488567  0.01702450  1.0
  Y  Y195  1  0.90548567  0.09821900  0.01702450  1.0
  Y  Y196  1  0.90548567  0.43155233  0.01702450  1.0
  Y  Y197  1  0.90548567  0.76488567  0.01702450  1.0
  Y  Y198  1  0.26020050  0.30429950  0.01080114  1.0
  Y  Y199  1  0.26020050  0.63763283  0.01080114  1.0
  Y  Y200  1  0.26020050  0.97096617  0.01080114  1.0
  Y  Y201  1  0.59353383  0.30429950  0.01080114  1.0
  Y  Y202  1  0.59353383  0.63763283  0.01080114  1.0
  Y  Y203  1  0.59353383  0.97096617  0.01080114  1.0
  Y  Y204  1  0.92686717  0.30429950  0.01080114  1.0
  Y  Y205  1  0.92686717  0.63763283  0.01080114  1.0
  Y  Y206  1  0.92686717  0.97096617  0.01080114  1.0
  Y  Y207  1  0.09353383  0.13763283  0.08222971  1.0
  Y  Y208  1  0.09353383  0.47096617  0.08222971  1.0
  Y  Y209  1  0.09353383  0.80429950  0.08222971  1.0
  Y  Y210  1  0.42686717  0.13763283  0.08222971  1.0
  Y  Y211  1  0.42686717  0.47096617  0.08222971  1.0
  Y  Y212  1  0.42686717  0.80429950  0.08222971  1.0
  Y  Y213  1  0.76020050  0.13763283  0.08222971  1.0
  Y  Y214  1  0.76020050  0.47096617  0.08222971  1.0
  Y  Y215  1  0.76020050  0.80429950  0.08222971  1.0
  Y  Y216  1  0.33134000  0.22321900  0.07377136  1.0
  Y  Y217  1  0.33134000  0.55655233  0.07377136  1.0
  Y  Y218  1  0.33134000  0.88988567  0.07377136  1.0
  Y  Y219  1  0.66467333  0.22321900  0.07377136  1.0
  Y  Y220  1  0.66467333  0.55655233  0.07377136  1.0
  Y  Y221  1  0.66467333  0.88988567  0.07377136  1.0
  Y  Y222  1  0.99800667  0.22321900  0.07377136  1.0
  Y  Y223  1  0.99800667  0.55655233  0.07377136  1.0
  Y  Y224  1  0.99800667  0.88988567  0.07377136  1.0
  Y  Y225  1  0.16467333  0.05655233  0.00234279  1.0
  Y  Y226  1  0.16467333  0.38988567  0.00234279  1.0
  Y  Y227  1  0.16467333  0.72321900  0.00234279  1.0
  Y  Y228  1  0.49800667  0.05655233  0.00234279  1.0
  Y  Y229  1  0.49800667  0.38988567  0.00234279  1.0
  Y  Y230  1  0.49800667  0.72321900  0.00234279  1.0
  Y  Y231  1  0.83134000  0.05655233  0.00234279  1.0
  Y  Y232  1  0.83134000  0.38988567  0.00234279  1.0
  Y  Y233  1  0.83134000  0.72321900  0.00234279  1.0
  Y  Y234  1  0.16500817  0.28023117  0.04921786  1.0
  Y  Y235  1  0.16500817  0.61356450  0.04921786  1.0
  Y  Y236  1  0.16500817  0.94689783  0.04921786  1.0
  Y  Y237  1  0.49834150  0.28023117  0.04921786  1.0
  Y  Y238  1  0.49834150  0.61356450  0.04921786  1.0
  Y  Y239  1  0.49834150  0.94689783  0.04921786  1.0
  Y  Y240  1  0.83167483  0.28023117  0.04921786  1.0
  Y  Y241  1  0.83167483  0.61356450  0.04921786  1.0
  Y  Y242  1  0.83167483  0.94689783  0.04921786  1.0
  Y  Y243  1  0.33167483  0.11356450  0.12064643  1.0
  Y  Y244  1  0.33167483  0.44689783  0.12064643  1.0
  Y  Y245  1  0.33167483  0.78023117  0.12064643  1.0
  Y  Y246  1  0.66500817  0.11356450  0.12064643  1.0
  Y  Y247  1  0.66500817  0.44689783  0.12064643  1.0
  Y  Y248  1  0.66500817  0.78023117  0.12064643  1.0
  Y  Y249  1  0.99834150  0.11356450  0.12064643  1.0
  Y  Y250  1  0.99834150  0.44689783  0.12064643  1.0
  Y  Y251  1  0.99834150  0.78023117  0.12064643  1.0
  Y  Y252  1  0.03993983  0.22376950  0.12780329  1.0
  Y  Y253  1  0.03993983  0.55710283  0.12780329  1.0
  Y  Y254  1  0.03993983  0.89043617  0.12780329  1.0
  Y  Y255  1  0.37327317  0.22376950  0.12780329  1.0
  Y  Y256  1  0.37327317  0.55710283  0.12780329  1.0
  Y  Y257  1  0.37327317  0.89043617  0.12780329  1.0
  Y  Y258  1  0.70660650  0.22376950  0.12780329  1.0
  Y  Y259  1  0.70660650  0.55710283  0.12780329  1.0
  Y  Y260  1  0.70660650  0.89043617  0.12780329  1.0
  Y  Y261  1  0.20660650  0.05710283  0.05637471  1.0
  Y  Y262  1  0.20660650  0.39043617  0.05637471  1.0
  Y  Y263  1  0.20660650  0.72376950  0.05637471  1.0
  Y  Y264  1  0.53993983  0.05710283  0.05637471  1.0
  Y  Y265  1  0.53993983  0.39043617  0.05637471  1.0
  Y  Y266  1  0.53993983  0.72376950  0.05637471  1.0
  Y  Y267  1  0.87327317  0.05710283  0.05637471  1.0
  Y  Y268  1  0.87327317  0.39043617  0.05637471  1.0
  Y  Y269  1  0.87327317  0.72376950  0.05637471  1.0
  Y  Y270  1  0.23007367  0.20592500  0.03549636  1.0
  Y  Y271  1  0.23007367  0.53925833  0.03549636  1.0
  Y  Y272  1  0.23007367  0.87259167  0.03549636  1.0
  Y  Y273  1  0.56340700  0.20592500  0.03549636  1.0
  Y  Y274  1  0.56340700  0.53925833  0.03549636  1.0
  Y  Y275  1  0.56340700  0.87259167  0.03549636  1.0
  Y  Y276  1  0.89674033  0.20592500  0.03549636  1.0
  Y  Y277  1  0.89674033  0.53925833  0.03549636  1.0
  Y  Y278  1  0.89674033  0.87259167  0.03549636  1.0
  Y  Y279  1  0.06340700  0.03925833  0.10692493  1.0
  Y  Y280  1  0.06340700  0.37259167  0.10692493  1.0
  Y  Y281  1  0.06340700  0.70592500  0.10692493  1.0
  Y  Y282  1  0.39674033  0.03925833  0.10692493  1.0
  Y  Y283  1  0.39674033  0.37259167  0.10692493  1.0
  Y  Y284  1  0.39674033  0.70592500  0.10692493  1.0
  Y  Y285  1  0.73007367  0.03925833  0.10692493  1.0
  Y  Y286  1  0.73007367  0.37259167  0.10692493  1.0
  Y  Y287  1  0.73007367  0.70592500  0.10692493  1.0
  Y  Y288  1  0.13888867  0.30655233  0.01021793  1.0
  Y  Y289  1  0.13888867  0.63988567  0.01021793  1.0
  Y  Y290  1  0.13888867  0.97321900  0.01021793  1.0
  Y  Y291  1  0.47222200  0.30655233  0.01021793  1.0
  Y  Y292  1  0.47222200  0.63988567  0.01021793  1.0
  Y  Y293  1  0.47222200  0.97321900  0.01021793  1.0
  Y  Y294  1  0.80555533  0.30655233  0.01021793  1.0
  Y  Y295  1  0.80555533  0.63988567  0.01021793  1.0
  Y  Y296  1  0.80555533  0.97321900  0.01021793  1.0
  Y  Y297  1  0.30555533  0.13988567  0.08164650  1.0
  Y  Y298  1  0.30555533  0.47321900  0.08164650  1.0
  Y  Y299  1  0.30555533  0.80655233  0.08164650  1.0
  Y  Y300  1  0.63888867  0.13988567  0.08164650  1.0
  Y  Y301  1  0.63888867  0.47321900  0.08164650  1.0
  Y  Y302  1  0.63888867  0.80655233  0.08164650  1.0
  Y  Y303  1  0.97222200  0.13988567  0.08164650  1.0
  Y  Y304  1  0.97222200  0.47321900  0.08164650  1.0
  Y  Y305  1  0.97222200  0.80655233  0.08164650  1.0
  Y  Y306  1  0.00660083  0.27903383  0.09614329  1.0
  Y  Y307  1  0.00660083  0.61236717  0.09614329  1.0
  Y  Y308  1  0.00660083  0.94570050  0.09614329  1.0
  Y  Y309  1  0.33993417  0.27903383  0.09614329  1.0
  Y  Y310  1  0.33993417  0.61236717  0.09614329  1.0
  Y  Y311  1  0.33993417  0.94570050  0.09614329  1.0
  Y  Y312  1  0.67326750  0.27903383  0.09614329  1.0
  Y  Y313  1  0.67326750  0.61236717  0.09614329  1.0
  Y  Y314  1  0.67326750  0.94570050  0.09614329  1.0
  Y  Y315  1  0.17326750  0.11236717  0.02471471  1.0
  Y  Y316  1  0.17326750  0.44570050  0.02471471  1.0
  Y  Y317  1  0.17326750  0.77903383  0.02471471  1.0
  Y  Y318  1  0.50660083  0.11236717  0.02471471  1.0
  Y  Y319  1  0.50660083  0.44570050  0.02471471  1.0
  Y  Y320  1  0.50660083  0.77903383  0.02471471  1.0
  Y  Y321  1  0.83993417  0.11236717  0.02471471  1.0
  Y  Y322  1  0.83993417  0.44570050  0.02471471  1.0
  Y  Y323  1  0.83993417  0.77903383  0.02471471  1.0
  Y  Y324  1  0.10047050  0.17810217  0.05109286  1.0
  Y  Y325  1  0.10047050  0.51143550  0.05109286  1.0
  Y  Y326  1  0.10047050  0.84476883  0.05109286  1.0
  Y  Y327  1  0.43380383  0.17810217  0.05109286  1.0
  Y  Y328  1  0.43380383  0.51143550  0.05109286  1.0
  Y  Y329  1  0.43380383  0.84476883  0.05109286  1.0
  Y  Y330  1  0.76713717  0.17810217  0.05109286  1.0
  Y  Y331  1  0.76713717  0.51143550  0.05109286  1.0
  Y  Y332  1  0.76713717  0.84476883  0.05109286  1.0
  Y  Y333  1  0.26713717  0.01143550  0.12252143  1.0
  Y  Y334  1  0.26713717  0.34476883  0.12252143  1.0
  Y  Y335  1  0.26713717  0.67810217  0.12252143  1.0
  Y  Y336  1  0.60047050  0.01143550  0.12252143  1.0
  Y  Y337  1  0.60047050  0.34476883  0.12252143  1.0
  Y  Y338  1  0.60047050  0.67810217  0.12252143  1.0
  Y  Y339  1  0.93380383  0.01143550  0.12252143  1.0
  Y  Y340  1  0.93380383  0.34476883  0.12252143  1.0
  Y  Y341  1  0.93380383  0.67810217  0.12252143  1.0
  Y  Y342  1  0.21991600  0.29166667  0.12490079  1.0
  Y  Y343  1  0.21991600  0.62500000  0.12490079  1.0
  Y  Y344  1  0.21991600  0.95833333  0.12490079  1.0
  Y  Y345  1  0.55324933  0.29166667  0.12490079  1.0
  Y  Y346  1  0.55324933  0.62500000  0.12490079  1.0
  Y  Y347  1  0.55324933  0.95833333  0.12490079  1.0
  Y  Y348  1  0.88658267  0.29166667  0.12490079  1.0
  Y  Y349  1  0.88658267  0.62500000  0.12490079  1.0
  Y  Y350  1  0.88658267  0.95833333  0.12490079  1.0
  Y  Y351  1  0.05324933  0.12500000  0.05347221  1.0
  Y  Y352  1  0.05324933  0.45833333  0.05347221  1.0
  Y  Y353  1  0.05324933  0.79166667  0.05347221  1.0
  Y  Y354  1  0.38658267  0.12500000  0.05347221  1.0
  Y  Y355  1  0.38658267  0.45833333  0.05347221  1.0
  Y  Y356  1  0.38658267  0.79166667  0.05347221  1.0
  Y  Y357  1  0.71991600  0.12500000  0.05347221  1.0
  Y  Y358  1  0.71991600  0.45833333  0.05347221  1.0
  Y  Y359  1  0.71991600  0.79166667  0.05347221  1.0
  Y  Y360  1  0.07713283  0.32070050  0.05871471  1.0
  Y  Y361  1  0.07713283  0.65403383  0.05871471  1.0
  Y  Y362  1  0.07713283  0.98736717  0.05871471  1.0
  Y  Y363  1  0.41046617  0.32070050  0.05871471  1.0
  Y  Y364  1  0.41046617  0.65403383  0.05871471  1.0
  Y  Y365  1  0.41046617  0.98736717  0.05871471  1.0
  Y  Y366  1  0.74379950  0.32070050  0.05871471  1.0
  Y  Y367  1  0.74379950  0.65403383  0.05871471  1.0
  Y  Y368  1  0.74379950  0.98736717  0.05871471  1.0
  Y  Y369  1  0.24379950  0.15403383  0.13014329  1.0
  Y  Y370  1  0.24379950  0.48736717  0.13014329  1.0
  Y  Y371  1  0.24379950  0.82070050  0.13014329  1.0
  Y  Y372  1  0.57713283  0.15403383  0.13014329  1.0
  Y  Y373  1  0.57713283  0.48736717  0.13014329  1.0
  Y  Y374  1  0.57713283  0.82070050  0.13014329  1.0
  Y  Y375  1  0.91046617  0.15403383  0.13014329  1.0
  Y  Y376  1  0.91046617  0.48736717  0.13014329  1.0
  Y  Y377  1  0.91046617  0.82070050  0.13014329  1.0
  Y  Y378  1  0.31285150  0.18210283  0.05026843  1.0
  Y  Y379  1  0.31285150  0.51543617  0.05026843  1.0
  Y  Y380  1  0.31285150  0.84876950  0.05026843  1.0
  Y  Y381  1  0.64618483  0.18210283  0.05026843  1.0
  Y  Y382  1  0.64618483  0.51543617  0.05026843  1.0
  Y  Y383  1  0.64618483  0.84876950  0.05026843  1.0
  Y  Y384  1  0.97951817  0.18210283  0.05026843  1.0
  Y  Y385  1  0.97951817  0.51543617  0.05026843  1.0
  Y  Y386  1  0.97951817  0.84876950  0.05026843  1.0
  Y  Y387  1  0.14618483  0.01543617  0.12169700  1.0
  Y  Y388  1  0.14618483  0.34876950  0.12169700  1.0
  Y  Y389  1  0.14618483  0.68210283  0.12169700  1.0
  Y  Y390  1  0.47951817  0.01543617  0.12169700  1.0
  Y  Y391  1  0.47951817  0.34876950  0.12169700  1.0
  Y  Y392  1  0.47951817  0.68210283  0.12169700  1.0
  Y  Y393  1  0.81285150  0.01543617  0.12169700  1.0
  Y  Y394  1  0.81285150  0.34876950  0.12169700  1.0
  Y  Y395  1  0.81285150  0.68210283  0.12169700  1.0
  Y  Y396  1  0.29366000  0.31844767  0.01849136  1.0
  Y  Y397  1  0.29366000  0.65178100  0.01849136  1.0
  Y  Y398  1  0.29366000  0.98511433  0.01849136  1.0
  Y  Y399  1  0.62699333  0.31844767  0.01849136  1.0
  Y  Y400  1  0.62699333  0.65178100  0.01849136  1.0
  Y  Y401  1  0.62699333  0.98511433  0.01849136  1.0
  Y  Y402  1  0.96032667  0.31844767  0.01849136  1.0
  Y  Y403  1  0.96032667  0.65178100  0.01849136  1.0
  Y  Y404  1  0.96032667  0.98511433  0.01849136  1.0
  Y  Y405  1  0.12699333  0.15178100  0.08991993  1.0
  Y  Y406  1  0.12699333  0.48511433  0.08991993  1.0
  Y  Y407  1  0.12699333  0.81844767  0.08991993  1.0
  Y  Y408  1  0.46032667  0.15178100  0.08991993  1.0
  Y  Y409  1  0.46032667  0.48511433  0.08991993  1.0
  Y  Y410  1  0.46032667  0.81844767  0.08991993  1.0
  Y  Y411  1  0.79366000  0.15178100  0.08991993  1.0
  Y  Y412  1  0.79366000  0.48511433  0.08991993  1.0
  Y  Y413  1  0.79366000  0.81844767  0.08991993  1.0
  Y  Y414  1  0.22825967  0.16907500  0.10770236  1.0
  Y  Y415  1  0.22825967  0.50240833  0.10770236  1.0
  Y  Y416  1  0.22825967  0.83574167  0.10770236  1.0
  Y  Y417  1  0.56159300  0.16907500  0.10770236  1.0
  Y  Y418  1  0.56159300  0.50240833  0.10770236  1.0
  Y  Y419  1  0.56159300  0.83574167  0.10770236  1.0
  Y  Y420  1  0.89492633  0.16907500  0.10770236  1.0
  Y  Y421  1  0.89492633  0.50240833  0.10770236  1.0
  Y  Y422  1  0.89492633  0.83574167  0.10770236  1.0
  Y  Y423  1  0.06159300  0.00240833  0.03627379  1.0
  Y  Y424  1  0.06159300  0.33574167  0.03627379  1.0
  Y  Y425  1  0.06159300  0.66907500  0.03627379  1.0
  Y  Y426  1  0.39492633  0.00240833  0.03627379  1.0
  Y  Y427  1  0.39492633  0.33574167  0.03627379  1.0
  Y  Y428  1  0.39492633  0.66907500  0.03627379  1.0
  Y  Y429  1  0.72825967  0.00240833  0.03627379  1.0
  Y  Y430  1  0.72825967  0.33574167  0.03627379  1.0
  Y  Y431  1  0.72825967  0.66907500  0.03627379  1.0
  Y  Y432  1  0.17824933  0.16666667  0.06140136  1.0
  Y  Y433  1  0.17824933  0.50000000  0.06140136  1.0
  Y  Y434  1  0.17824933  0.83333333  0.06140136  1.0
  Y  Y435  1  0.51158267  0.16666667  0.06140136  1.0
  Y  Y436  1  0.51158267  0.50000000  0.06140136  1.0
  Y  Y437  1  0.51158267  0.83333333  0.06140136  1.0
  Y  Y438  1  0.84491600  0.16666667  0.06140136  1.0
  Y  Y439  1  0.84491600  0.50000000  0.06140136  1.0
  Y  Y440  1  0.84491600  0.83333333  0.06140136  1.0
  Y  Y441  1  0.01158267  0.33333333  0.13282993  1.0
  Y  Y442  1  0.01158267  0.66666667  0.13282993  1.0
  Y  Y443  1  0.01158267  1.00000000  0.13282993  1.0
  Y  Y444  1  0.34491600  0.33333333  0.13282993  1.0
  Y  Y445  1  0.34491600  0.66666667  0.13282993  1.0
  Y  Y446  1  0.34491600  1.00000000  0.13282993  1.0
  Y  Y447  1  0.67824933  0.33333333  0.13282993  1.0
  Y  Y448  1  0.67824933  0.66666667  0.13282993  1.0
  Y  Y449  1  0.67824933  1.00000000  0.13282993  1.0
  Y  Y450  1  0.05205717  0.27623050  0.00742943  1.0
  Y  Y451  1  0.05205717  0.60956383  0.00742943  1.0
  Y  Y452  1  0.05205717  0.94289717  0.00742943  1.0
  Y  Y453  1  0.38539050  0.27623050  0.00742943  1.0
  Y  Y454  1  0.38539050  0.60956383  0.00742943  1.0
  Y  Y455  1  0.38539050  0.94289717  0.00742943  1.0
  Y  Y456  1  0.71872383  0.27623050  0.00742943  1.0
  Y  Y457  1  0.71872383  0.60956383  0.00742943  1.0
  Y  Y458  1  0.71872383  0.94289717  0.00742943  1.0
  Y  Y459  1  0.21872383  0.10956383  0.07885800  1.0
  Y  Y460  1  0.21872383  0.44289717  0.07885800  1.0
  Y  Y461  1  0.21872383  0.77623050  0.07885800  1.0
  Y  Y462  1  0.55205717  0.10956383  0.07885800  1.0
  Y  Y463  1  0.55205717  0.44289717  0.07885800  1.0
  Y  Y464  1  0.55205717  0.77623050  0.07885800  1.0
  Y  Y465  1  0.88539050  0.10956383  0.07885800  1.0
  Y  Y466  1  0.88539050  0.44289717  0.07885800  1.0
  Y  Y467  1  0.88539050  0.77623050  0.07885800  1.0
  Y  Y468  1  0.28506583  0.26263283  0.04822971  1.0
  Y  Y469  1  0.28506583  0.59596617  0.04822971  1.0
  Y  Y470  1  0.28506583  0.92929950  0.04822971  1.0
  Y  Y471  1  0.61839917  0.26263283  0.04822971  1.0
  Y  Y472  1  0.61839917  0.59596617  0.04822971  1.0
  Y  Y473  1  0.61839917  0.92929950  0.04822971  1.0
  Y  Y474  1  0.95173250  0.26263283  0.04822971  1.0
  Y  Y475  1  0.95173250  0.59596617  0.04822971  1.0
  Y  Y476  1  0.95173250  0.92929950  0.04822971  1.0
  Y  Y477  1  0.11839917  0.09596617  0.11965829  1.0
  Y  Y478  1  0.11839917  0.42929950  0.11965829  1.0
  Y  Y479  1  0.11839917  0.76263283  0.11965829  1.0
  Y  Y480  1  0.45173250  0.09596617  0.11965829  1.0
  Y  Y481  1  0.45173250  0.42929950  0.11965829  1.0
  Y  Y482  1  0.45173250  0.76263283  0.11965829  1.0
  Y  Y483  1  0.78506583  0.09596617  0.11965829  1.0
  Y  Y484  1  0.78506583  0.42929950  0.11965829  1.0
  Y  Y485  1  0.78506583  0.76263283  0.11965829  1.0
  Y  Y486  1  0.31031250  0.30310217  0.05772657  1.0
  Y  Y487  1  0.31031250  0.63643550  0.05772657  1.0
  Y  Y488  1  0.31031250  0.96976883  0.05772657  1.0
  Y  Y489  1  0.64364583  0.30310217  0.05772657  1.0
  Y  Y490  1  0.64364583  0.63643550  0.05772657  1.0
  Y  Y491  1  0.64364583  0.96976883  0.05772657  1.0
  Y  Y492  1  0.97697917  0.30310217  0.05772657  1.0
  Y  Y493  1  0.97697917  0.63643550  0.05772657  1.0
  Y  Y494  1  0.97697917  0.96976883  0.05772657  1.0
  Y  Y495  1  0.14364583  0.13643550  0.12915514  1.0
  Y  Y496  1  0.14364583  0.46976883  0.12915514  1.0
  Y  Y497  1  0.14364583  0.80310217  0.12915514  1.0
  Y  Y498  1  0.47697917  0.13643550  0.12915514  1.0
  Y  Y499  1  0.47697917  0.46976883  0.12915514  1.0
  Y  Y500  1  0.47697917  0.80310217  0.12915514  1.0
  Y  Y501  1  0.81031250  0.13643550  0.12915514  1.0
  Y  Y502  1  0.81031250  0.46976883  0.12915514  1.0
  Y  Y503  1  0.81031250  0.80310217  0.12915514  1.0
  Y  Y504  1  0.06054733  0.16666667  0.01943164  1.0
  Y  Y505  1  0.06054733  0.50000000  0.01943164  1.0
  Y  Y506  1  0.06054733  0.83333333  0.01943164  1.0
  Y  Y507  1  0.39388067  0.16666667  0.01943164  1.0
  Y  Y508  1  0.39388067  0.50000000  0.01943164  1.0
  Y  Y509  1  0.39388067  0.83333333  0.01943164  1.0
  Y  Y510  1  0.72721400  0.16666667  0.01943164  1.0
  Y  Y511  1  0.72721400  0.50000000  0.01943164  1.0
  Y  Y512  1  0.72721400  0.83333333  0.01943164  1.0
  Y  Y513  1  0.22721400  0.00000000  0.09086021  1.0
  Y  Y514  1  0.22721400  0.33333333  0.09086021  1.0
  Y  Y515  1  0.22721400  0.66666667  0.09086021  1.0
  Y  Y516  1  0.56054733  0.00000000  0.09086021  1.0
  Y  Y517  1  0.56054733  0.33333333  0.09086021  1.0
  Y  Y518  1  0.56054733  0.66666667  0.09086021  1.0
  Y  Y519  1  0.89388067  0.00000000  0.09086021  1.0
  Y  Y520  1  0.89388067  0.33333333  0.09086021  1.0
  Y  Y521  1  0.89388067  0.66666667  0.09086021  1.0
  Y  Y522  1  0.10238833  0.21074167  0.00001950  1.0
  Y  Y523  1  0.10238833  0.54407500  0.00001950  1.0
  Y  Y524  1  0.10238833  0.87740833  0.00001950  1.0
  Y  Y525  1  0.43572167  0.21074167  0.00001950  1.0
  Y  Y526  1  0.43572167  0.54407500  0.00001950  1.0
  Y  Y527  1  0.43572167  0.87740833  0.00001950  1.0
  Y  Y528  1  0.76905500  0.21074167  0.00001950  1.0
  Y  Y529  1  0.76905500  0.54407500  0.00001950  1.0
  Y  Y530  1  0.76905500  0.87740833  0.00001950  1.0
  Y  Y531  1  0.26905500  0.04407500  0.07144807  1.0
  Y  Y532  1  0.26905500  0.37740833  0.07144807  1.0
  Y  Y533  1  0.26905500  0.71074167  0.07144807  1.0
  Y  Y534  1  0.60238833  0.04407500  0.07144807  1.0
  Y  Y535  1  0.60238833  0.37740833  0.07144807  1.0
  Y  Y536  1  0.60238833  0.71074167  0.07144807  1.0
  Y  Y537  1  0.93572167  0.04407500  0.07144807  1.0
  Y  Y538  1  0.93572167  0.37740833  0.07144807  1.0
  Y  Y539  1  0.93572167  0.71074167  0.07144807  1.0
  Y  Y540  1  0.31468750  0.23856450  0.12728014  1.0
  Y  Y541  1  0.31468750  0.57189783  0.12728014  1.0
  Y  Y542  1  0.31468750  0.90523117  0.12728014  1.0
  Y  Y543  1  0.64802083  0.23856450  0.12728014  1.0
  Y  Y544  1  0.64802083  0.57189783  0.12728014  1.0
  Y  Y545  1  0.64802083  0.90523117  0.12728014  1.0
  Y  Y546  1  0.98135417  0.23856450  0.12728014  1.0
  Y  Y547  1  0.98135417  0.57189783  0.12728014  1.0
  Y  Y548  1  0.98135417  0.90523117  0.12728014  1.0
  Y  Y549  1  0.14802083  0.07189783  0.05585157  1.0
  Y  Y550  1  0.14802083  0.40523117  0.05585157  1.0
  Y  Y551  1  0.14802083  0.73856450  0.05585157  1.0
  Y  Y552  1  0.48135417  0.07189783  0.05585157  1.0
  Y  Y553  1  0.48135417  0.40523117  0.05585157  1.0
  Y  Y554  1  0.48135417  0.73856450  0.05585157  1.0
  Y  Y555  1  0.81468750  0.07189783  0.05585157  1.0
  Y  Y556  1  0.81468750  0.40523117  0.05585157  1.0
  Y  Y557  1  0.81468750  0.73856450  0.05585157  1.0
  Y  Y558  1  0.06445267  0.20833333  0.08918650  1.0
  Y  Y559  1  0.06445267  0.54166667  0.08918650  1.0
  Y  Y560  1  0.06445267  0.87500000  0.08918650  1.0
  Y  Y561  1  0.39778600  0.20833333  0.08918650  1.0
  Y  Y562  1  0.39778600  0.54166667  0.08918650  1.0
  Y  Y563  1  0.39778600  0.87500000  0.08918650  1.0
  Y  Y564  1  0.73111933  0.20833333  0.08918650  1.0
  Y  Y565  1  0.73111933  0.54166667  0.08918650  1.0
  Y  Y566  1  0.73111933  0.87500000  0.08918650  1.0
  Y  Y567  1  0.23111933  0.04166667  0.01775793  1.0
  Y  Y568  1  0.23111933  0.37500000  0.01775793  1.0
  Y  Y569  1  0.23111933  0.70833333  0.01775793  1.0
  Y  Y570  1  0.56445267  0.04166667  0.01775793  1.0
  Y  Y571  1  0.56445267  0.37500000  0.01775793  1.0
  Y  Y572  1  0.56445267  0.70833333  0.01775793  1.0
  Y  Y573  1  0.89778600  0.04166667  0.01775793  1.0
  Y  Y574  1  0.89778600  0.37500000  0.01775793  1.0
  Y  Y575  1  0.89778600  0.70833333  0.01775793  1.0
  Y  Y576  1  0.07175067  0.25000000  0.11697164  1.0
  Y  Y577  1  0.07175067  0.58333333  0.11697164  1.0
  Y  Y578  1  0.07175067  0.91666667  0.11697164  1.0
  Y  Y579  1  0.40508400  0.25000000  0.11697164  1.0
  Y  Y580  1  0.40508400  0.58333333  0.11697164  1.0
  Y  Y581  1  0.40508400  0.91666667  0.11697164  1.0
  Y  Y582  1  0.73841733  0.25000000  0.11697164  1.0
  Y  Y583  1  0.73841733  0.58333333  0.11697164  1.0
  Y  Y584  1  0.73841733  0.91666667  0.11697164  1.0
  Y  Y585  1  0.23841733  0.08333333  0.04554307  1.0
  Y  Y586  1  0.23841733  0.41666667  0.04554307  1.0
  Y  Y587  1  0.23841733  0.75000000  0.04554307  1.0
  Y  Y588  1  0.57175067  0.08333333  0.04554307  1.0
  Y  Y589  1  0.57175067  0.41666667  0.04554307  1.0
  Y  Y590  1  0.57175067  0.75000000  0.04554307  1.0
  Y  Y591  1  0.90508400  0.08333333  0.04554307  1.0
  Y  Y592  1  0.90508400  0.41666667  0.04554307  1.0
  Y  Y593  1  0.90508400  0.75000000  0.04554307  1.0
  Y  Y594  1  0.27474300  0.28925833  0.03366950  1.0
  Y  Y595  1  0.27474300  0.62259167  0.03366950  1.0
  Y  Y596  1  0.27474300  0.95592500  0.03366950  1.0
  Y  Y597  1  0.60807633  0.28925833  0.03366950  1.0
  Y  Y598  1  0.60807633  0.62259167  0.03366950  1.0
  Y  Y599  1  0.60807633  0.95592500  0.03366950  1.0
  Y  Y600  1  0.94140967  0.28925833  0.03366950  1.0
  Y  Y601  1  0.94140967  0.62259167  0.03366950  1.0
  Y  Y602  1  0.94140967  0.95592500  0.03366950  1.0
  Y  Y603  1  0.10807633  0.12259167  0.10509807  1.0
  Y  Y604  1  0.10807633  0.45592500  0.10509807  1.0
  Y  Y605  1  0.10807633  0.78925833  0.10509807  1.0
  Y  Y606  1  0.44140967  0.12259167  0.10509807  1.0
  Y  Y607  1  0.44140967  0.45592500  0.10509807  1.0
  Y  Y608  1  0.44140967  0.78925833  0.10509807  1.0
  Y  Y609  1  0.77474300  0.12259167  0.10509807  1.0
  Y  Y610  1  0.77474300  0.45592500  0.10509807  1.0
  Y  Y611  1  0.77474300  0.78925833  0.10509807  1.0
  Y  Y612  1  0.21453383  0.22096617  0.07125714  1.0
  Y  Y613  1  0.21453383  0.55429950  0.07125714  1.0
  Y  Y614  1  0.21453383  0.88763283  0.07125714  1.0
  Y  Y615  1  0.54786717  0.22096617  0.07125714  1.0
  Y  Y616  1  0.54786717  0.55429950  0.07125714  1.0
  Y  Y617  1  0.54786717  0.88763283  0.07125714  1.0
  Y  Y618  1  0.88120050  0.22096617  0.07125714  1.0
  Y  Y619  1  0.88120050  0.55429950  0.07125714  1.0
  Y  Y620  1  0.88120050  0.88763283  0.07125714  1.0
  Y  Y621  1  0.04786717  0.05429950  0.14268571  1.0
  Y  Y622  1  0.04786717  0.38763283  0.14268571  1.0
  Y  Y623  1  0.04786717  0.72096617  0.14268571  1.0
  Y  Y624  1  0.38120050  0.05429950  0.14268571  1.0
  Y  Y625  1  0.38120050  0.38763283  0.14268571  1.0
  Y  Y626  1  0.38120050  0.72096617  0.14268571  1.0
  Y  Y627  1  0.71453383  0.05429950  0.14268571  1.0
  Y  Y628  1  0.71453383  0.38763283  0.14268571  1.0
  Y  Y629  1  0.71453383  0.72096617  0.14268571  1.0
  Y  Y630  1  0.02452950  0.19689783  0.01221043  1.0
  Y  Y631  1  0.02452950  0.53023117  0.01221043  1.0
  Y  Y632  1  0.02452950  0.86356450  0.01221043  1.0
  Y  Y633  1  0.35786283  0.19689783  0.01221043  1.0
  Y  Y634  1  0.35786283  0.53023117  0.01221043  1.0
  Y  Y635  1  0.35786283  0.86356450  0.01221043  1.0
  Y  Y636  1  0.69119617  0.19689783  0.01221043  1.0
  Y  Y637  1  0.69119617  0.53023117  0.01221043  1.0
  Y  Y638  1  0.69119617  0.86356450  0.01221043  1.0
  Y  Y639  1  0.19119617  0.03023117  0.08363900  1.0
  Y  Y640  1  0.19119617  0.36356450  0.08363900  1.0
  Y  Y641  1  0.19119617  0.69689783  0.08363900  1.0
  Y  Y642  1  0.52452950  0.03023117  0.08363900  1.0
  Y  Y643  1  0.52452950  0.36356450  0.08363900  1.0
  Y  Y644  1  0.52452950  0.69689783  0.08363900  1.0
  Y  Y645  1  0.85786283  0.03023117  0.08363900  1.0
  Y  Y646  1  0.85786283  0.36356450  0.08363900  1.0
  Y  Y647  1  0.85786283  0.69689783  0.08363900  1.0
  Y  Y648  1  0.18927833  0.33092500  0.03420950  1.0
  Y  Y649  1  0.18927833  0.66425833  0.03420950  1.0
  Y  Y650  1  0.18927833  0.99759167  0.03420950  1.0
  Y  Y651  1  0.52261167  0.33092500  0.03420950  1.0
  Y  Y652  1  0.52261167  0.66425833  0.03420950  1.0
  Y  Y653  1  0.52261167  0.99759167  0.03420950  1.0
  Y  Y654  1  0.85594500  0.33092500  0.03420950  1.0
  Y  Y655  1  0.85594500  0.66425833  0.03420950  1.0
  Y  Y656  1  0.85594500  0.99759167  0.03420950  1.0
  Y  Y657  1  0.02261167  0.16425833  0.10563807  1.0
  Y  Y658  1  0.02261167  0.49759167  0.10563807  1.0
  Y  Y659  1  0.02261167  0.83092500  0.10563807  1.0
  Y  Y660  1  0.35594500  0.16425833  0.10563807  1.0
  Y  Y661  1  0.35594500  0.49759167  0.10563807  1.0
  Y  Y662  1  0.35594500  0.83092500  0.10563807  1.0
  Y  Y663  1  0.68927833  0.16425833  0.10563807  1.0
  Y  Y664  1  0.68927833  0.49759167  0.10563807  1.0
  Y  Y665  1  0.68927833  0.83092500  0.10563807  1.0
  Y  Y666  1  0.23960950  0.26543617  0.14133557  1.0
  Y  Y667  1  0.23960950  0.59876950  0.14133557  1.0
  Y  Y668  1  0.23960950  0.93210283  0.14133557  1.0
  Y  Y669  1  0.57294283  0.26543617  0.14133557  1.0
  Y  Y670  1  0.57294283  0.59876950  0.14133557  1.0
  Y  Y671  1  0.57294283  0.93210283  0.14133557  1.0
  Y  Y672  1  0.90627617  0.26543617  0.14133557  1.0
  Y  Y673  1  0.90627617  0.59876950  0.14133557  1.0
  Y  Y674  1  0.90627617  0.93210283  0.14133557  1.0
  Y  Y675  1  0.07294283  0.09876950  0.06990700  1.0
  Y  Y676  1  0.07294283  0.43210283  0.06990700  1.0
  Y  Y677  1  0.07294283  0.76543617  0.06990700  1.0
  Y  Y678  1  0.40627617  0.09876950  0.06990700  1.0
  Y  Y679  1  0.40627617  0.43210283  0.06990700  1.0
  Y  Y680  1  0.40627617  0.76543617  0.06990700  1.0
  Y  Y681  1  0.73960950  0.09876950  0.06990700  1.0
  Y  Y682  1  0.73960950  0.43210283  0.06990700  1.0
  Y  Y683  1  0.73960950  0.76543617  0.06990700  1.0
  Y  Y684  1  0.23220500  0.24759167  0.07067064  1.0
  Y  Y685  1  0.23220500  0.58092500  0.07067064  1.0
  Y  Y686  1  0.23220500  0.91425833  0.07067064  1.0
  Y  Y687  1  0.56553833  0.24759167  0.07067064  1.0
  Y  Y688  1  0.56553833  0.58092500  0.07067064  1.0
  Y  Y689  1  0.56553833  0.91425833  0.07067064  1.0
  Y  Y690  1  0.89887167  0.24759167  0.07067064  1.0
  Y  Y691  1  0.89887167  0.58092500  0.07067064  1.0
  Y  Y692  1  0.89887167  0.91425833  0.07067064  1.0
  Y  Y693  1  0.06553833  0.08092500  0.14209921  1.0
  Y  Y694  1  0.06553833  0.41425833  0.14209921  1.0
  Y  Y695  1  0.06553833  0.74759167  0.14209921  1.0
  Y  Y696  1  0.39887167  0.08092500  0.14209921  1.0
  Y  Y697  1  0.39887167  0.41425833  0.14209921  1.0
  Y  Y698  1  0.39887167  0.74759167  0.14209921  1.0
  Y  Y699  1  0.73220500  0.08092500  0.14209921  1.0
  Y  Y700  1  0.73220500  0.41425833  0.14209921  1.0
  Y  Y701  1  0.73220500  0.74759167  0.14209921  1.0
  Y  Y702  1  0.01692367  0.25240833  0.07273493  1.0
  Y  Y703  1  0.01692367  0.58574167  0.07273493  1.0
  Y  Y704  1  0.01692367  0.91907500  0.07273493  1.0
  Y  Y705  1  0.35025700  0.25240833  0.07273493  1.0
  Y  Y706  1  0.35025700  0.58574167  0.07273493  1.0
  Y  Y707  1  0.35025700  0.91907500  0.07273493  1.0
  Y  Y708  1  0.68359033  0.25240833  0.07273493  1.0
  Y  Y709  1  0.68359033  0.58574167  0.07273493  1.0
  Y  Y710  1  0.68359033  0.91907500  0.07273493  1.0
  Y  Y711  1  0.18359033  0.08574167  0.00130636  1.0
  Y  Y712  1  0.18359033  0.41907500  0.00130636  1.0
  Y  Y713  1  0.18359033  0.75240833  0.00130636  1.0
  Y  Y714  1  0.51692367  0.08574167  0.00130636  1.0
  Y  Y715  1  0.51692367  0.41907500  0.00130636  1.0
  Y  Y716  1  0.51692367  0.75240833  0.00130636  1.0
  Y  Y717  1  0.85025700  0.08574167  0.00130636  1.0
  Y  Y718  1  0.85025700  0.41907500  0.00130636  1.0
  Y  Y719  1  0.85025700  0.75240833  0.00130636  1.0
  Y  Y720  1  0.27300183  0.17929950  0.14097143  1.0
  Y  Y721  1  0.27300183  0.51263283  0.14097143  1.0
  Y  Y722  1  0.27300183  0.84596617  0.14097143  1.0
  Y  Y723  1  0.60633517  0.17929950  0.14097143  1.0
  Y  Y724  1  0.60633517  0.51263283  0.14097143  1.0
  Y  Y725  1  0.60633517  0.84596617  0.14097143  1.0
  Y  Y726  1  0.93966850  0.17929950  0.14097143  1.0
  Y  Y727  1  0.93966850  0.51263283  0.14097143  1.0
  Y  Y728  1  0.93966850  0.84596617  0.14097143  1.0
  Y  Y729  1  0.10633517  0.01263283  0.06954286  1.0
  Y  Y730  1  0.10633517  0.34596617  0.06954286  1.0
  Y  Y731  1  0.10633517  0.67929950  0.06954286  1.0
  Y  Y732  1  0.43966850  0.01263283  0.06954286  1.0
  Y  Y733  1  0.43966850  0.34596617  0.06954286  1.0
  Y  Y734  1  0.43966850  0.67929950  0.06954286  1.0
  Y  Y735  1  0.77300183  0.01263283  0.06954286  1.0
  Y  Y736  1  0.77300183  0.34596617  0.06954286  1.0
  Y  Y737  1  0.77300183  0.67929950  0.06954286  1.0
  Y  Y738  1  0.14807633  0.18155233  0.10267907  1.0
  Y  Y739  1  0.14807633  0.51488567  0.10267907  1.0
  Y  Y740  1  0.14807633  0.84821900  0.10267907  1.0
  Y  Y741  1  0.48140967  0.18155233  0.10267907  1.0
  Y  Y742  1  0.48140967  0.51488567  0.10267907  1.0
  Y  Y743  1  0.48140967  0.84821900  0.10267907  1.0
  Y  Y744  1  0.81474300  0.18155233  0.10267907  1.0
  Y  Y745  1  0.81474300  0.51488567  0.10267907  1.0
  Y  Y746  1  0.81474300  0.84821900  0.10267907  1.0
  Y  Y747  1  0.31474300  0.01488567  0.03125050  1.0
  Y  Y748  1  0.31474300  0.34821900  0.03125050  1.0
  Y  Y749  1  0.31474300  0.68155233  0.03125050  1.0
  Y  Y750  1  0.64807633  0.01488567  0.03125050  1.0
  Y  Y751  1  0.64807633  0.34821900  0.03125050  1.0
  Y  Y752  1  0.64807633  0.68155233  0.03125050  1.0
  Y  Y753  1  0.98140967  0.01488567  0.03125050  1.0
  Y  Y754  1  0.98140967  0.34821900  0.03125050  1.0
  Y  Y755  1  0.98140967  0.68155233  0.03125050  1.0
  Y  Y756  1  0.21951433  0.27678100  0.09672650  1.0
  Y  Y757  1  0.21951433  0.61011433  0.09672650  1.0
  Y  Y758  1  0.21951433  0.94344767  0.09672650  1.0
  Y  Y759  1  0.55284767  0.27678100  0.09672650  1.0
  Y  Y760  1  0.55284767  0.61011433  0.09672650  1.0
  Y  Y761  1  0.55284767  0.94344767  0.09672650  1.0
  Y  Y762  1  0.88618100  0.27678100  0.09672650  1.0
  Y  Y763  1  0.88618100  0.61011433  0.09672650  1.0
  Y  Y764  1  0.88618100  0.94344767  0.09672650  1.0
  Y  Y765  1  0.05284767  0.11011433  0.02529793  1.0
  Y  Y766  1  0.05284767  0.44344767  0.02529793  1.0
  Y  Y767  1  0.05284767  0.77678100  0.02529793  1.0
  Y  Y768  1  0.38618100  0.11011433  0.02529793  1.0
  Y  Y769  1  0.38618100  0.44344767  0.02529793  1.0
  Y  Y770  1  0.38618100  0.77678100  0.02529793  1.0
  Y  Y771  1  0.71951433  0.11011433  0.02529793  1.0
  Y  Y772  1  0.71951433  0.44344767  0.02529793  1.0
  Y  Y773  1  0.71951433  0.77678100  0.02529793  1.0
  Y  Y774  1  0.14548183  0.19289717  0.05056971  1.0
  Y  Y775  1  0.14548183  0.52623050  0.05056971  1.0
  Y  Y776  1  0.14548183  0.85956383  0.05056971  1.0
  Y  Y777  1  0.47881517  0.19289717  0.05056971  1.0
  Y  Y778  1  0.47881517  0.52623050  0.05056971  1.0
  Y  Y779  1  0.47881517  0.85956383  0.05056971  1.0
  Y  Y780  1  0.81214850  0.19289717  0.05056971  1.0
  Y  Y781  1  0.81214850  0.52623050  0.05056971  1.0
  Y  Y782  1  0.81214850  0.85956383  0.05056971  1.0
  Y  Y783  1  0.31214850  0.02623050  0.12199829  1.0
  Y  Y784  1  0.31214850  0.35956383  0.12199829  1.0
  Y  Y785  1  0.31214850  0.69289717  0.12199829  1.0
  Y  Y786  1  0.64548183  0.02623050  0.12199829  1.0
  Y  Y787  1  0.64548183  0.35956383  0.12199829  1.0
  Y  Y788  1  0.64548183  0.69289717  0.12199829  1.0
  Y  Y789  1  0.97881517  0.02623050  0.12199829  1.0
  Y  Y790  1  0.97881517  0.35956383  0.12199829  1.0
  Y  Y791  1  0.97881517  0.69289717  0.12199829  1.0
  Y  Y792  1  0.25172683  0.31789717  0.10846600  1.0
  Y  Y793  1  0.25172683  0.65123050  0.10846600  1.0
  Y  Y794  1  0.25172683  0.98456383  0.10846600  1.0
  Y  Y795  1  0.58506017  0.31789717  0.10846600  1.0
  Y  Y796  1  0.58506017  0.65123050  0.10846600  1.0
  Y  Y797  1  0.58506017  0.98456383  0.10846600  1.0
  Y  Y798  1  0.91839350  0.31789717  0.10846600  1.0
  Y  Y799  1  0.91839350  0.65123050  0.10846600  1.0
  Y  Y800  1  0.91839350  0.98456383  0.10846600  1.0
  Y  Y801  1  0.08506017  0.15123050  0.03703743  1.0
  Y  Y802  1  0.08506017  0.48456383  0.03703743  1.0
  Y  Y803  1  0.08506017  0.81789717  0.03703743  1.0
  Y  Y804  1  0.41839350  0.15123050  0.03703743  1.0
  Y  Y805  1  0.41839350  0.48456383  0.03703743  1.0
  Y  Y806  1  0.41839350  0.81789717  0.03703743  1.0
  Y  Y807  1  0.75172683  0.15123050  0.03703743  1.0
  Y  Y808  1  0.75172683  0.48456383  0.03703743  1.0
  Y  Y809  1  0.75172683  0.81789717  0.03703743  1.0
  Y  Y810  1  0.09585450  0.30710283  0.09951500  1.0
  Y  Y811  1  0.09585450  0.64043617  0.09951500  1.0
  Y  Y812  1  0.09585450  0.97376950  0.09951500  1.0
  Y  Y813  1  0.42918783  0.30710283  0.09951500  1.0
  Y  Y814  1  0.42918783  0.64043617  0.09951500  1.0
  Y  Y815  1  0.42918783  0.97376950  0.09951500  1.0
  Y  Y816  1  0.76252117  0.30710283  0.09951500  1.0
  Y  Y817  1  0.76252117  0.64043617  0.09951500  1.0
  Y  Y818  1  0.76252117  0.97376950  0.09951500  1.0
  Y  Y819  1  0.26252117  0.14043617  0.02808643  1.0
  Y  Y820  1  0.26252117  0.47376950  0.02808643  1.0
  Y  Y821  1  0.26252117  0.80710283  0.02808643  1.0
  Y  Y822  1  0.59585450  0.14043617  0.02808643  1.0
  Y  Y823  1  0.59585450  0.47376950  0.02808643  1.0
  Y  Y824  1  0.59585450  0.80710283  0.02808643  1.0
  Y  Y825  1  0.92918783  0.14043617  0.02808643  1.0
  Y  Y826  1  0.92918783  0.47376950  0.02808643  1.0
  Y  Y827  1  0.92918783  0.80710283  0.02808643  1.0
  Y  Y828  1  0.03146617  0.23736717  0.03740157  1.0
  Y  Y829  1  0.03146617  0.57070050  0.03740157  1.0
  Y  Y830  1  0.03146617  0.90403383  0.03740157  1.0
  Y  Y831  1  0.36479950  0.23736717  0.03740157  1.0
  Y  Y832  1  0.36479950  0.57070050  0.03740157  1.0
  Y  Y833  1  0.36479950  0.90403383  0.03740157  1.0
  Y  Y834  1  0.69813283  0.23736717  0.03740157  1.0
  Y  Y835  1  0.69813283  0.57070050  0.03740157  1.0
  Y  Y836  1  0.69813283  0.90403383  0.03740157  1.0
  Y  Y837  1  0.19813283  0.07070050  0.10883014  1.0
  Y  Y838  1  0.19813283  0.40403383  0.10883014  1.0
  Y  Y839  1  0.19813283  0.73736717  0.10883014  1.0
  Y  Y840  1  0.53146617  0.07070050  0.10883014  1.0
  Y  Y841  1  0.53146617  0.40403383  0.10883014  1.0
  Y  Y842  1  0.53146617  0.73736717  0.10883014  1.0
  Y  Y843  1  0.86479950  0.07070050  0.10883014  1.0
  Y  Y844  1  0.86479950  0.40403383  0.10883014  1.0
  Y  Y845  1  0.86479950  0.73736717  0.10883014  1.0
  Y  Y846  1  0.18533150  0.19570050  0.10711586  1.0
  Y  Y847  1  0.18533150  0.52903383  0.10711586  1.0
  Y  Y848  1  0.18533150  0.86236717  0.10711586  1.0
  Y  Y849  1  0.51866483  0.19570050  0.10711586  1.0
  Y  Y850  1  0.51866483  0.52903383  0.10711586  1.0
  Y  Y851  1  0.51866483  0.86236717  0.10711586  1.0
  Y  Y852  1  0.85199817  0.19570050  0.10711586  1.0
  Y  Y853  1  0.85199817  0.52903383  0.10711586  1.0
  Y  Y854  1  0.85199817  0.86236717  0.10711586  1.0
  Y  Y855  1  0.01866483  0.02903383  0.03568729  1.0
  Y  Y856  1  0.01866483  0.36236717  0.03568729  1.0
  Y  Y857  1  0.01866483  0.69570050  0.03568729  1.0
  Y  Y858  1  0.35199817  0.02903383  0.03568729  1.0
  Y  Y859  1  0.35199817  0.36236717  0.03568729  1.0
  Y  Y860  1  0.35199817  0.69570050  0.03568729  1.0
  Y  Y861  1  0.68533150  0.02903383  0.03568729  1.0
  Y  Y862  1  0.68533150  0.36236717  0.03568729  1.0
  Y  Y863  1  0.68533150  0.69570050  0.03568729  1.0
  Ni  Ni864  1  0.02010833  0.30931367  0.08464493  1.0
  Ni  Ni865  1  0.02010833  0.64264700  0.08464493  1.0
  Ni  Ni866  1  0.02010833  0.97598033  0.08464493  1.0
  Ni  Ni867  1  0.35344167  0.30931367  0.08464493  1.0
  Ni  Ni868  1  0.35344167  0.64264700  0.08464493  1.0
  Ni  Ni869  1  0.35344167  0.97598033  0.08464493  1.0
  Ni  Ni870  1  0.68677500  0.30931367  0.08464493  1.0
  Ni  Ni871  1  0.68677500  0.64264700  0.08464493  1.0
  Ni  Ni872  1  0.68677500  0.97598033  0.08464493  1.0
  Ni  Ni873  1  0.18677500  0.14264700  0.01321636  1.0
  Ni  Ni874  1  0.18677500  0.47598033  0.01321636  1.0
  Ni  Ni875  1  0.18677500  0.80931367  0.01321636  1.0
  Ni  Ni876  1  0.52010833  0.14264700  0.01321636  1.0
  Ni  Ni877  1  0.52010833  0.47598033  0.01321636  1.0
  Ni  Ni878  1  0.52010833  0.80931367  0.01321636  1.0
  Ni  Ni879  1  0.85344167  0.14264700  0.01321636  1.0
  Ni  Ni880  1  0.85344167  0.47598033  0.01321636  1.0
  Ni  Ni881  1  0.85344167  0.80931367  0.01321636  1.0
  Ni  Ni882  1  0.30298133  0.32938633  0.10230993  1.0
  Ni  Ni883  1  0.30298133  0.66271967  0.10230993  1.0
  Ni  Ni884  1  0.30298133  0.99605300  0.10230993  1.0
  Ni  Ni885  1  0.63631467  0.32938633  0.10230993  1.0
  Ni  Ni886  1  0.63631467  0.66271967  0.10230993  1.0
  Ni  Ni887  1  0.63631467  0.99605300  0.10230993  1.0
  Ni  Ni888  1  0.96964800  0.32938633  0.10230993  1.0
  Ni  Ni889  1  0.96964800  0.66271967  0.10230993  1.0
  Ni  Ni890  1  0.96964800  0.99605300  0.10230993  1.0
  Ni  Ni891  1  0.13631467  0.16271967  0.03088136  1.0
  Ni  Ni892  1  0.13631467  0.49605300  0.03088136  1.0
  Ni  Ni893  1  0.13631467  0.82938633  0.03088136  1.0
  Ni  Ni894  1  0.46964800  0.16271967  0.03088136  1.0
  Ni  Ni895  1  0.46964800  0.49605300  0.03088136  1.0
  Ni  Ni896  1  0.46964800  0.82938633  0.03088136  1.0
  Ni  Ni897  1  0.80298133  0.16271967  0.03088136  1.0
  Ni  Ni898  1  0.80298133  0.49605300  0.03088136  1.0
  Ni  Ni899  1  0.80298133  0.82938633  0.03088136  1.0
  Ni  Ni900  1  0.00367767  0.28771967  0.05505364  1.0
  Ni  Ni901  1  0.00367767  0.62105300  0.05505364  1.0
  Ni  Ni902  1  0.00367767  0.95438633  0.05505364  1.0
  Ni  Ni903  1  0.33701100  0.28771967  0.05505364  1.0
  Ni  Ni904  1  0.33701100  0.62105300  0.05505364  1.0
  Ni  Ni905  1  0.33701100  0.95438633  0.05505364  1.0
  Ni  Ni906  1  0.67034433  0.28771967  0.05505364  1.0
  Ni  Ni907  1  0.67034433  0.62105300  0.05505364  1.0
  Ni  Ni908  1  0.67034433  0.95438633  0.05505364  1.0
  Ni  Ni909  1  0.17034433  0.12105300  0.12648221  1.0
  Ni  Ni910  1  0.17034433  0.45438633  0.12648221  1.0
  Ni  Ni911  1  0.17034433  0.78771967  0.12648221  1.0
  Ni  Ni912  1  0.50367767  0.12105300  0.12648221  1.0
  Ni  Ni913  1  0.50367767  0.45438633  0.12648221  1.0
  Ni  Ni914  1  0.50367767  0.78771967  0.12648221  1.0
  Ni  Ni915  1  0.83701100  0.12105300  0.12648221  1.0
  Ni  Ni916  1  0.83701100  0.45438633  0.12648221  1.0
  Ni  Ni917  1  0.83701100  0.78771967  0.12648221  1.0
  Ni  Ni918  1  0.01450833  0.26764700  0.06343521  1.0
  Ni  Ni919  1  0.01450833  0.60098033  0.06343521  1.0
  Ni  Ni920  1  0.01450833  0.93431367  0.06343521  1.0
  Ni  Ni921  1  0.34784167  0.26764700  0.06343521  1.0
  Ni  Ni922  1  0.34784167  0.60098033  0.06343521  1.0
  Ni  Ni923  1  0.34784167  0.93431367  0.06343521  1.0
  Ni  Ni924  1  0.68117500  0.26764700  0.06343521  1.0
  Ni  Ni925  1  0.68117500  0.60098033  0.06343521  1.0
  Ni  Ni926  1  0.68117500  0.93431367  0.06343521  1.0
  Ni  Ni927  1  0.18117500  0.10098033  0.13486379  1.0
  Ni  Ni928  1  0.18117500  0.43431367  0.13486379  1.0
  Ni  Ni929  1  0.18117500  0.76764700  0.13486379  1.0
  Ni  Ni930  1  0.51450833  0.10098033  0.13486379  1.0
  Ni  Ni931  1  0.51450833  0.43431367  0.13486379  1.0
  Ni  Ni932  1  0.51450833  0.76764700  0.13486379  1.0
  Ni  Ni933  1  0.84784167  0.10098033  0.13486379  1.0
  Ni  Ni934  1  0.84784167  0.43431367  0.13486379  1.0
  Ni  Ni935  1  0.84784167  0.76764700  0.13486379  1.0
  Ni  Ni936  1  0.19642850  0.29977683  0.08583686  1.0
  Ni  Ni937  1  0.19642850  0.63311017  0.08583686  1.0
  Ni  Ni938  1  0.19642850  0.96644350  0.08583686  1.0
  Ni  Ni939  1  0.52976183  0.29977683  0.08583686  1.0
  Ni  Ni940  1  0.52976183  0.63311017  0.08583686  1.0
  Ni  Ni941  1  0.52976183  0.96644350  0.08583686  1.0
  Ni  Ni942  1  0.86309517  0.29977683  0.08583686  1.0
  Ni  Ni943  1  0.86309517  0.63311017  0.08583686  1.0
  Ni  Ni944  1  0.86309517  0.96644350  0.08583686  1.0
  Ni  Ni945  1  0.02976183  0.13311017  0.01440829  1.0
  Ni  Ni946  1  0.02976183  0.46644350  0.01440829  1.0
  Ni  Ni947  1  0.02976183  0.79977683  0.01440829  1.0
  Ni  Ni948  1  0.36309517  0.13311017  0.01440829  1.0
  Ni  Ni949  1  0.36309517  0.46644350  0.01440829  1.0
  Ni  Ni950  1  0.36309517  0.79977683  0.01440829  1.0
  Ni  Ni951  1  0.69642850  0.13311017  0.01440829  1.0
  Ni  Ni952  1  0.69642850  0.46644350  0.01440829  1.0
  Ni  Ni953  1  0.69642850  0.79977683  0.01440829  1.0
  Ni  Ni954  1  0.09523817  0.24188983  0.05777557  1.0
  Ni  Ni955  1  0.09523817  0.57522317  0.05777557  1.0
  Ni  Ni956  1  0.09523817  0.90855650  0.05777557  1.0
  Ni  Ni957  1  0.42857150  0.24188983  0.05777557  1.0
  Ni  Ni958  1  0.42857150  0.57522317  0.05777557  1.0
  Ni  Ni959  1  0.42857150  0.90855650  0.05777557  1.0
  Ni  Ni960  1  0.76190483  0.24188983  0.05777557  1.0
  Ni  Ni961  1  0.76190483  0.57522317  0.05777557  1.0
  Ni  Ni962  1  0.76190483  0.90855650  0.05777557  1.0
  Ni  Ni963  1  0.26190483  0.07522317  0.12920414  1.0
  Ni  Ni964  1  0.26190483  0.40855650  0.12920414  1.0
  Ni  Ni965  1  0.26190483  0.74188983  0.12920414  1.0
  Ni  Ni966  1  0.59523817  0.07522317  0.12920414  1.0
  Ni  Ni967  1  0.59523817  0.40855650  0.12920414  1.0
  Ni  Ni968  1  0.59523817  0.74188983  0.12920414  1.0
  Ni  Ni969  1  0.92857150  0.07522317  0.12920414  1.0
  Ni  Ni970  1  0.92857150  0.40855650  0.12920414  1.0
  Ni  Ni971  1  0.92857150  0.74188983  0.12920414  1.0
  Ni  Ni972  1  0.27155833  0.23235300  0.04830921  1.0
  Ni  Ni973  1  0.27155833  0.56568633  0.04830921  1.0
  Ni  Ni974  1  0.27155833  0.89901967  0.04830921  1.0
  Ni  Ni975  1  0.60489167  0.23235300  0.04830921  1.0
  Ni  Ni976  1  0.60489167  0.56568633  0.04830921  1.0
  Ni  Ni977  1  0.60489167  0.89901967  0.04830921  1.0
  Ni  Ni978  1  0.93822500  0.23235300  0.04830921  1.0
  Ni  Ni979  1  0.93822500  0.56568633  0.04830921  1.0
  Ni  Ni980  1  0.93822500  0.89901967  0.04830921  1.0
  Ni  Ni981  1  0.10489167  0.06568633  0.11973779  1.0
  Ni  Ni982  1  0.10489167  0.39901967  0.11973779  1.0
  Ni  Ni983  1  0.10489167  0.73235300  0.11973779  1.0
  Ni  Ni984  1  0.43822500  0.06568633  0.11973779  1.0
  Ni  Ni985  1  0.43822500  0.39901967  0.11973779  1.0
  Ni  Ni986  1  0.43822500  0.73235300  0.11973779  1.0
  Ni  Ni987  1  0.77155833  0.06568633  0.11973779  1.0
  Ni  Ni988  1  0.77155833  0.39901967  0.11973779  1.0
  Ni  Ni989  1  0.77155833  0.73235300  0.11973779  1.0
  Ni  Ni990  1  0.00431550  0.32522317  0.04221729  1.0
  Ni  Ni991  1  0.00431550  0.65855650  0.04221729  1.0
  Ni  Ni992  1  0.00431550  0.99188983  0.04221729  1.0
  Ni  Ni993  1  0.33764883  0.32522317  0.04221729  1.0
  Ni  Ni994  1  0.33764883  0.65855650  0.04221729  1.0
  Ni  Ni995  1  0.33764883  0.99188983  0.04221729  1.0
  Ni  Ni996  1  0.67098217  0.32522317  0.04221729  1.0
  Ni  Ni997  1  0.67098217  0.65855650  0.04221729  1.0
  Ni  Ni998  1  0.67098217  0.99188983  0.04221729  1.0
  Ni  Ni999  1  0.17098217  0.15855650  0.11364586  1.0
  Ni  Ni1000  1  0.17098217  0.49188983  0.11364586  1.0
  Ni  Ni1001  1  0.17098217  0.82522317  0.11364586  1.0
  Ni  Ni1002  1  0.50431550  0.15855650  0.11364586  1.0
  Ni  Ni1003  1  0.50431550  0.49188983  0.11364586  1.0
  Ni  Ni1004  1  0.50431550  0.82522317  0.11364586  1.0
  Ni  Ni1005  1  0.83764883  0.15855650  0.11364586  1.0
  Ni  Ni1006  1  0.83764883  0.49188983  0.11364586  1.0
  Ni  Ni1007  1  0.83764883  0.82522317  0.11364586  1.0
  Ni  Ni1008  1  0.28745033  0.17061367  0.03426450  1.0
  Ni  Ni1009  1  0.28745033  0.50394700  0.03426450  1.0
  Ni  Ni1010  1  0.28745033  0.83728033  0.03426450  1.0
  Ni  Ni1011  1  0.62078367  0.17061367  0.03426450  1.0
  Ni  Ni1012  1  0.62078367  0.50394700  0.03426450  1.0
  Ni  Ni1013  1  0.62078367  0.83728033  0.03426450  1.0
  Ni  Ni1014  1  0.95411700  0.17061367  0.03426450  1.0
  Ni  Ni1015  1  0.95411700  0.50394700  0.03426450  1.0
  Ni  Ni1016  1  0.95411700  0.83728033  0.03426450  1.0
  Ni  Ni1017  1  0.12078367  0.00394700  0.10569307  1.0
  Ni  Ni1018  1  0.12078367  0.33728033  0.10569307  1.0
  Ni  Ni1019  1  0.12078367  0.67061367  0.10569307  1.0
  Ni  Ni1020  1  0.45411700  0.00394700  0.10569307  1.0
  Ni  Ni1021  1  0.45411700  0.33728033  0.10569307  1.0
  Ni  Ni1022  1  0.45411700  0.67061367  0.10569307  1.0
  Ni  Ni1023  1  0.78745033  0.00394700  0.10569307  1.0
  Ni  Ni1024  1  0.78745033  0.33728033  0.10569307  1.0
  Ni  Ni1025  1  0.78745033  0.67061367  0.10569307  1.0
  Ni  Ni1026  1  0.18040233  0.31568633  0.04350921  1.0
  Ni  Ni1027  1  0.18040233  0.64901967  0.04350921  1.0
  Ni  Ni1028  1  0.18040233  0.98235300  0.04350921  1.0
  Ni  Ni1029  1  0.51373567  0.31568633  0.04350921  1.0
  Ni  Ni1030  1  0.51373567  0.64901967  0.04350921  1.0
  Ni  Ni1031  1  0.51373567  0.98235300  0.04350921  1.0
  Ni  Ni1032  1  0.84706900  0.31568633  0.04350921  1.0
  Ni  Ni1033  1  0.84706900  0.64901967  0.04350921  1.0
  Ni  Ni1034  1  0.84706900  0.98235300  0.04350921  1.0
  Ni  Ni1035  1  0.01373567  0.14901967  0.11493779  1.0
  Ni  Ni1036  1  0.01373567  0.48235300  0.11493779  1.0
  Ni  Ni1037  1  0.01373567  0.81568633  0.11493779  1.0
  Ni  Ni1038  1  0.34706900  0.14901967  0.11493779  1.0
  Ni  Ni1039  1  0.34706900  0.48235300  0.11493779  1.0
  Ni  Ni1040  1  0.34706900  0.81568633  0.11493779  1.0
  Ni  Ni1041  1  0.68040233  0.14901967  0.11493779  1.0
  Ni  Ni1042  1  0.68040233  0.48235300  0.11493779  1.0
  Ni  Ni1043  1  0.68040233  0.81568633  0.11493779  1.0
  Ni  Ni1044  1  0.11126433  0.22598033  0.00171121  1.0
  Ni  Ni1045  1  0.11126433  0.55931367  0.00171121  1.0
  Ni  Ni1046  1  0.11126433  0.89264700  0.00171121  1.0
  Ni  Ni1047  1  0.44459767  0.22598033  0.00171121  1.0
  Ni  Ni1048  1  0.44459767  0.55931367  0.00171121  1.0
  Ni  Ni1049  1  0.44459767  0.89264700  0.00171121  1.0
  Ni  Ni1050  1  0.77793100  0.22598033  0.00171121  1.0
  Ni  Ni1051  1  0.77793100  0.55931367  0.00171121  1.0
  Ni  Ni1052  1  0.77793100  0.89264700  0.00171121  1.0
  Ni  Ni1053  1  0.27793100  0.05931367  0.07313979  1.0
  Ni  Ni1054  1  0.27793100  0.39264700  0.07313979  1.0
  Ni  Ni1055  1  0.27793100  0.72598033  0.07313979  1.0
  Ni  Ni1056  1  0.61126433  0.05931367  0.07313979  1.0
  Ni  Ni1057  1  0.61126433  0.39264700  0.07313979  1.0
  Ni  Ni1058  1  0.61126433  0.72598033  0.07313979  1.0
  Ni  Ni1059  1  0.94459767  0.05931367  0.07313979  1.0
  Ni  Ni1060  1  0.94459767  0.39264700  0.07313979  1.0
  Ni  Ni1061  1  0.94459767  0.72598033  0.07313979  1.0
  Ni  Ni1062  1  0.06949750  0.20022317  0.04317100  1.0
  Ni  Ni1063  1  0.06949750  0.53355650  0.04317100  1.0
  Ni  Ni1064  1  0.06949750  0.86688983  0.04317100  1.0
  Ni  Ni1065  1  0.40283083  0.20022317  0.04317100  1.0
  Ni  Ni1066  1  0.40283083  0.53355650  0.04317100  1.0
  Ni  Ni1067  1  0.40283083  0.86688983  0.04317100  1.0
  Ni  Ni1068  1  0.73616417  0.20022317  0.04317100  1.0
  Ni  Ni1069  1  0.73616417  0.53355650  0.04317100  1.0
  Ni  Ni1070  1  0.73616417  0.86688983  0.04317100  1.0
  Ni  Ni1071  1  0.23616417  0.03355650  0.11459957  1.0
  Ni  Ni1072  1  0.23616417  0.36688983  0.11459957  1.0
  Ni  Ni1073  1  0.23616417  0.70022317  0.11459957  1.0
  Ni  Ni1074  1  0.56949750  0.03355650  0.11459957  1.0
  Ni  Ni1075  1  0.56949750  0.36688983  0.11459957  1.0
  Ni  Ni1076  1  0.56949750  0.70022317  0.11459957  1.0
  Ni  Ni1077  1  0.90283083  0.03355650  0.11459957  1.0
  Ni  Ni1078  1  0.90283083  0.36688983  0.11459957  1.0
  Ni  Ni1079  1  0.90283083  0.70022317  0.11459957  1.0
  Ni  Ni1080  1  0.11338950  0.28355650  0.02110757  1.0
  Ni  Ni1081  1  0.11338950  0.61688983  0.02110757  1.0
  Ni  Ni1082  1  0.11338950  0.95022317  0.02110757  1.0
  Ni  Ni1083  1  0.44672283  0.28355650  0.02110757  1.0
  Ni  Ni1084  1  0.44672283  0.61688983  0.02110757  1.0
  Ni  Ni1085  1  0.44672283  0.95022317  0.02110757  1.0
  Ni  Ni1086  1  0.78005617  0.28355650  0.02110757  1.0
  Ni  Ni1087  1  0.78005617  0.61688983  0.02110757  1.0
  Ni  Ni1088  1  0.78005617  0.95022317  0.02110757  1.0
  Ni  Ni1089  1  0.28005617  0.11688983  0.09253614  1.0
  Ni  Ni1090  1  0.28005617  0.45022317  0.09253614  1.0
  Ni  Ni1091  1  0.28005617  0.78355650  0.09253614  1.0
  Ni  Ni1092  1  0.61338950  0.11688983  0.09253614  1.0
  Ni  Ni1093  1  0.61338950  0.45022317  0.09253614  1.0
  Ni  Ni1094  1  0.61338950  0.78355650  0.09253614  1.0
  Ni  Ni1095  1  0.94672283  0.11688983  0.09253614  1.0
  Ni  Ni1096  1  0.94672283  0.45022317  0.09253614  1.0
  Ni  Ni1097  1  0.94672283  0.78355650  0.09253614  1.0
  Ni  Ni1098  1  0.25813567  0.19068633  0.03380464  1.0
  Ni  Ni1099  1  0.25813567  0.52401967  0.03380464  1.0
  Ni  Ni1100  1  0.25813567  0.85735300  0.03380464  1.0
  Ni  Ni1101  1  0.59146900  0.19068633  0.03380464  1.0
  Ni  Ni1102  1  0.59146900  0.52401967  0.03380464  1.0
  Ni  Ni1103  1  0.59146900  0.85735300  0.03380464  1.0
  Ni  Ni1104  1  0.92480233  0.19068633  0.03380464  1.0
  Ni  Ni1105  1  0.92480233  0.52401967  0.03380464  1.0
  Ni  Ni1106  1  0.92480233  0.85735300  0.03380464  1.0
  Ni  Ni1107  1  0.09146900  0.02401967  0.10523321  1.0
  Ni  Ni1108  1  0.09146900  0.35735300  0.10523321  1.0
  Ni  Ni1109  1  0.09146900  0.69068633  0.10523321  1.0
  Ni  Ni1110  1  0.42480233  0.02401967  0.10523321  1.0
  Ni  Ni1111  1  0.42480233  0.35735300  0.10523321  1.0
  Ni  Ni1112  1  0.42480233  0.69068633  0.10523321  1.0
  Ni  Ni1113  1  0.75813567  0.02401967  0.10523321  1.0
  Ni  Ni1114  1  0.75813567  0.35735300  0.10523321  1.0
  Ni  Ni1115  1  0.75813567  0.69068633  0.10523321  1.0
  Ni  Ni1116  1  0.03760583  0.31399883  0.02937671  1.0
  Ni  Ni1117  1  0.03760583  0.64733217  0.02937671  1.0
  Ni  Ni1118  1  0.03760583  0.98066550  0.02937671  1.0
  Ni  Ni1119  1  0.37093917  0.31399883  0.02937671  1.0
  Ni  Ni1120  1  0.37093917  0.64733217  0.02937671  1.0
  Ni  Ni1121  1  0.37093917  0.98066550  0.02937671  1.0
  Ni  Ni1122  1  0.70427250  0.31399883  0.02937671  1.0
  Ni  Ni1123  1  0.70427250  0.64733217  0.02937671  1.0
  Ni  Ni1124  1  0.70427250  0.98066550  0.02937671  1.0
  Ni  Ni1125  1  0.20427250  0.14733217  0.10080529  1.0
  Ni  Ni1126  1  0.20427250  0.48066550  0.10080529  1.0
  Ni  Ni1127  1  0.20427250  0.81399883  0.10080529  1.0
  Ni  Ni1128  1  0.53760583  0.14733217  0.10080529  1.0
  Ni  Ni1129  1  0.53760583  0.48066550  0.10080529  1.0
  Ni  Ni1130  1  0.53760583  0.81399883  0.10080529  1.0
  Ni  Ni1131  1  0.87093917  0.14733217  0.10080529  1.0
  Ni  Ni1132  1  0.87093917  0.48066550  0.10080529  1.0
  Ni  Ni1133  1  0.87093917  0.81399883  0.10080529  1.0
  Ni  Ni1134  1  0.32201867  0.21228033  0.02272250  1.0
  Ni  Ni1135  1  0.32201867  0.54561367  0.02272250  1.0
  Ni  Ni1136  1  0.32201867  0.87894700  0.02272250  1.0
  Ni  Ni1137  1  0.65535200  0.21228033  0.02272250  1.0
  Ni  Ni1138  1  0.65535200  0.54561367  0.02272250  1.0
  Ni  Ni1139  1  0.65535200  0.87894700  0.02272250  1.0
  Ni  Ni1140  1  0.98868533  0.21228033  0.02272250  1.0
  Ni  Ni1141  1  0.98868533  0.54561367  0.02272250  1.0
  Ni  Ni1142  1  0.98868533  0.87894700  0.02272250  1.0
  Ni  Ni1143  1  0.15535200  0.04561367  0.09415107  1.0
  Ni  Ni1144  1  0.15535200  0.37894700  0.09415107  1.0
  Ni  Ni1145  1  0.15535200  0.71228033  0.09415107  1.0
  Ni  Ni1146  1  0.48868533  0.04561367  0.09415107  1.0
  Ni  Ni1147  1  0.48868533  0.37894700  0.09415107  1.0
  Ni  Ni1148  1  0.48868533  0.71228033  0.09415107  1.0
  Ni  Ni1149  1  0.82201867  0.04561367  0.09415107  1.0
  Ni  Ni1150  1  0.82201867  0.37894700  0.09415107  1.0
  Ni  Ni1151  1  0.82201867  0.71228033  0.09415107  1.0
  Ni  Ni1152  1  0.28735117  0.21644350  0.13520200  1.0
  Ni  Ni1153  1  0.28735117  0.54977683  0.13520200  1.0
  Ni  Ni1154  1  0.28735117  0.88311017  0.13520200  1.0
  Ni  Ni1155  1  0.62068450  0.21644350  0.13520200  1.0
  Ni  Ni1156  1  0.62068450  0.54977683  0.13520200  1.0
  Ni  Ni1157  1  0.62068450  0.88311017  0.13520200  1.0
  Ni  Ni1158  1  0.95401783  0.21644350  0.13520200  1.0
  Ni  Ni1159  1  0.95401783  0.54977683  0.13520200  1.0
  Ni  Ni1160  1  0.95401783  0.88311017  0.13520200  1.0
  Ni  Ni1161  1  0.12068450  0.04977683  0.06377343  1.0
  Ni  Ni1162  1  0.12068450  0.38311017  0.06377343  1.0
  Ni  Ni1163  1  0.12068450  0.71644350  0.06377343  1.0
  Ni  Ni1164  1  0.45401783  0.04977683  0.06377343  1.0
  Ni  Ni1165  1  0.45401783  0.38311017  0.06377343  1.0
  Ni  Ni1166  1  0.45401783  0.71644350  0.06377343  1.0
  Ni  Ni1167  1  0.78735117  0.04977683  0.06377343  1.0
  Ni  Ni1168  1  0.78735117  0.38311017  0.06377343  1.0
  Ni  Ni1169  1  0.78735117  0.71644350  0.06377343  1.0
  Ni  Ni1170  1  0.08439650  0.23066550  0.06099529  1.0
  Ni  Ni1171  1  0.08439650  0.56399883  0.06099529  1.0
  Ni  Ni1172  1  0.08439650  0.89733217  0.06099529  1.0
  Ni  Ni1173  1  0.41772983  0.23066550  0.06099529  1.0
  Ni  Ni1174  1  0.41772983  0.56399883  0.06099529  1.0
  Ni  Ni1175  1  0.41772983  0.89733217  0.06099529  1.0
  Ni  Ni1176  1  0.75106317  0.23066550  0.06099529  1.0
  Ni  Ni1177  1  0.75106317  0.56399883  0.06099529  1.0
  Ni  Ni1178  1  0.75106317  0.89733217  0.06099529  1.0
  Ni  Ni1179  1  0.25106317  0.06399883  0.13242386  1.0
  Ni  Ni1180  1  0.25106317  0.39733217  0.13242386  1.0
  Ni  Ni1181  1  0.25106317  0.73066550  0.13242386  1.0
  Ni  Ni1182  1  0.58439650  0.06399883  0.13242386  1.0
  Ni  Ni1183  1  0.58439650  0.39733217  0.13242386  1.0
  Ni  Ni1184  1  0.58439650  0.73066550  0.13242386  1.0
  Ni  Ni1185  1  0.91772983  0.06399883  0.13242386  1.0
  Ni  Ni1186  1  0.91772983  0.39733217  0.13242386  1.0
  Ni  Ni1187  1  0.91772983  0.73066550  0.13242386  1.0
  Ni  Ni1188  1  0.12157933  0.24605300  0.00125136  1.0
  Ni  Ni1189  1  0.12157933  0.57938633  0.00125136  1.0
  Ni  Ni1190  1  0.12157933  0.91271967  0.00125136  1.0
  Ni  Ni1191  1  0.45491267  0.24605300  0.00125136  1.0
  Ni  Ni1192  1  0.45491267  0.57938633  0.00125136  1.0
  Ni  Ni1193  1  0.45491267  0.91271967  0.00125136  1.0
  Ni  Ni1194  1  0.78824600  0.24605300  0.00125136  1.0
  Ni  Ni1195  1  0.78824600  0.57938633  0.00125136  1.0
  Ni  Ni1196  1  0.78824600  0.91271967  0.00125136  1.0
  Ni  Ni1197  1  0.28824600  0.07938633  0.07267993  1.0
  Ni  Ni1198  1  0.28824600  0.41271967  0.07267993  1.0
  Ni  Ni1199  1  0.28824600  0.74605300  0.07267993  1.0
  Ni  Ni1200  1  0.62157933  0.07938633  0.07267993  1.0
  Ni  Ni1201  1  0.62157933  0.41271967  0.07267993  1.0
  Ni  Ni1202  1  0.62157933  0.74605300  0.07267993  1.0
  Ni  Ni1203  1  0.95491267  0.07938633  0.07267993  1.0
  Ni  Ni1204  1  0.95491267  0.41271967  0.07267993  1.0
  Ni  Ni1205  1  0.95491267  0.74605300  0.07267993  1.0
  Ni  Ni1206  1  0.17827717  0.25811017  0.06472714  1.0
  Ni  Ni1207  1  0.17827717  0.59144350  0.06472714  1.0
  Ni  Ni1208  1  0.17827717  0.92477683  0.06472714  1.0
  Ni  Ni1209  1  0.51161050  0.25811017  0.06472714  1.0
  Ni  Ni1210  1  0.51161050  0.59144350  0.06472714  1.0
  Ni  Ni1211  1  0.51161050  0.92477683  0.06472714  1.0
  Ni  Ni1212  1  0.84494383  0.25811017  0.06472714  1.0
  Ni  Ni1213  1  0.84494383  0.59144350  0.06472714  1.0
  Ni  Ni1214  1  0.84494383  0.92477683  0.06472714  1.0
  Ni  Ni1215  1  0.01161050  0.09144350  0.13615571  1.0
  Ni  Ni1216  1  0.01161050  0.42477683  0.13615571  1.0
  Ni  Ni1217  1  0.01161050  0.75811017  0.13615571  1.0
  Ni  Ni1218  1  0.34494383  0.09144350  0.13615571  1.0
  Ni  Ni1219  1  0.34494383  0.42477683  0.13615571  1.0
  Ni  Ni1220  1  0.34494383  0.75811017  0.13615571  1.0
  Ni  Ni1221  1  0.67827717  0.09144350  0.13615571  1.0
  Ni  Ni1222  1  0.67827717  0.42477683  0.13615571  1.0
  Ni  Ni1223  1  0.67827717  0.75811017  0.13615571  1.0
  Ni  Ni1224  1  0.17008733  0.29561367  0.05189079  1.0
  Ni  Ni1225  1  0.17008733  0.62894700  0.05189079  1.0
  Ni  Ni1226  1  0.17008733  0.96228033  0.05189079  1.0
  Ni  Ni1227  1  0.50342067  0.29561367  0.05189079  1.0
  Ni  Ni1228  1  0.50342067  0.62894700  0.05189079  1.0
  Ni  Ni1229  1  0.50342067  0.96228033  0.05189079  1.0
  Ni  Ni1230  1  0.83675400  0.29561367  0.05189079  1.0
  Ni  Ni1231  1  0.83675400  0.62894700  0.05189079  1.0
  Ni  Ni1232  1  0.83675400  0.96228033  0.05189079  1.0
  Ni  Ni1233  1  0.00342067  0.12894700  0.12331936  1.0
  Ni  Ni1234  1  0.00342067  0.46228033  0.12331936  1.0
  Ni  Ni1235  1  0.00342067  0.79561367  0.12331936  1.0
  Ni  Ni1236  1  0.33675400  0.12894700  0.12331936  1.0
  Ni  Ni1237  1  0.33675400  0.46228033  0.12331936  1.0
  Ni  Ni1238  1  0.33675400  0.79561367  0.12331936  1.0
  Ni  Ni1239  1  0.67008733  0.12894700  0.12331936  1.0
  Ni  Ni1240  1  0.67008733  0.46228033  0.12331936  1.0
  Ni  Ni1241  1  0.67008733  0.79561367  0.12331936  1.0
  Ni  Ni1242  1  0.27715833  0.27401967  0.02229950  1.0
  Ni  Ni1243  1  0.27715833  0.60735300  0.02229950  1.0
  Ni  Ni1244  1  0.27715833  0.94068633  0.02229950  1.0
  Ni  Ni1245  1  0.61049167  0.27401967  0.02229950  1.0
  Ni  Ni1246  1  0.61049167  0.60735300  0.02229950  1.0
  Ni  Ni1247  1  0.61049167  0.94068633  0.02229950  1.0
  Ni  Ni1248  1  0.94382500  0.27401967  0.02229950  1.0
  Ni  Ni1249  1  0.94382500  0.60735300  0.02229950  1.0
  Ni  Ni1250  1  0.94382500  0.94068633  0.02229950  1.0
  Ni  Ni1251  1  0.11049167  0.10735300  0.09372807  1.0
  Ni  Ni1252  1  0.11049167  0.44068633  0.09372807  1.0
  Ni  Ni1253  1  0.11049167  0.77401967  0.09372807  1.0
  Ni  Ni1254  1  0.44382500  0.10735300  0.09372807  1.0
  Ni  Ni1255  1  0.44382500  0.44068633  0.09372807  1.0
  Ni  Ni1256  1  0.44382500  0.77401967  0.09372807  1.0
  Ni  Ni1257  1  0.77715833  0.10735300  0.09372807  1.0
  Ni  Ni1258  1  0.77715833  0.44068633  0.09372807  1.0
  Ni  Ni1259  1  0.77715833  0.77401967  0.09372807  1.0
  Ni  Ni1260  1  0.12128483  0.27233217  0.02718071  1.0
  Ni  Ni1261  1  0.12128483  0.60566550  0.02718071  1.0
  Ni  Ni1262  1  0.12128483  0.93899883  0.02718071  1.0
  Ni  Ni1263  1  0.45461817  0.27233217  0.02718071  1.0
  Ni  Ni1264  1  0.45461817  0.60566550  0.02718071  1.0
  Ni  Ni1265  1  0.45461817  0.93899883  0.02718071  1.0
  Ni  Ni1266  1  0.78795150  0.27233217  0.02718071  1.0
  Ni  Ni1267  1  0.78795150  0.60566550  0.02718071  1.0
  Ni  Ni1268  1  0.78795150  0.93899883  0.02718071  1.0
  Ni  Ni1269  1  0.28795150  0.10566550  0.09860929  1.0
  Ni  Ni1270  1  0.28795150  0.43899883  0.09860929  1.0
  Ni  Ni1271  1  0.28795150  0.77233217  0.09860929  1.0
  Ni  Ni1272  1  0.62128483  0.10566550  0.09860929  1.0
  Ni  Ni1273  1  0.62128483  0.43899883  0.09860929  1.0
  Ni  Ni1274  1  0.62128483  0.77233217  0.09860929  1.0
  Ni  Ni1275  1  0.95461817  0.10566550  0.09860929  1.0
  Ni  Ni1276  1  0.95461817  0.43899883  0.09860929  1.0
  Ni  Ni1277  1  0.95461817  0.77233217  0.09860929  1.0
  Ni  Ni1278  1  0.04094917  0.18600117  0.11737771  1.0
  Ni  Ni1279  1  0.04094917  0.51933450  0.11737771  1.0
  Ni  Ni1280  1  0.04094917  0.85266783  0.11737771  1.0
  Ni  Ni1281  1  0.37428250  0.18600117  0.11737771  1.0
  Ni  Ni1282  1  0.37428250  0.51933450  0.11737771  1.0
  Ni  Ni1283  1  0.37428250  0.85266783  0.11737771  1.0
  Ni  Ni1284  1  0.70761583  0.18600117  0.11737771  1.0
  Ni  Ni1285  1  0.70761583  0.51933450  0.11737771  1.0
  Ni  Ni1286  1  0.70761583  0.85266783  0.11737771  1.0
  Ni  Ni1287  1  0.20761583  0.01933450  0.04594914  1.0
  Ni  Ni1288  1  0.20761583  0.35266783  0.04594914  1.0
  Ni  Ni1289  1  0.20761583  0.68600117  0.04594914  1.0
  Ni  Ni1290  1  0.54094917  0.01933450  0.04594914  1.0
  Ni  Ni1291  1  0.54094917  0.35266783  0.04594914  1.0
  Ni  Ni1292  1  0.54094917  0.68600117  0.04594914  1.0
  Ni  Ni1293  1  0.87428250  0.01933450  0.04594914  1.0
  Ni  Ni1294  1  0.87428250  0.35266783  0.04594914  1.0
  Ni  Ni1295  1  0.87428250  0.68600117  0.04594914  1.0
  Ni  Ni1296  1  0.17038183  0.26933450  0.07756771  1.0
  Ni  Ni1297  1  0.17038183  0.60266783  0.07756771  1.0
  Ni  Ni1298  1  0.17038183  0.93600117  0.07756771  1.0
  Ni  Ni1299  1  0.50371517  0.26933450  0.07756771  1.0
  Ni  Ni1300  1  0.50371517  0.60266783  0.07756771  1.0
  Ni  Ni1301  1  0.50371517  0.93600117  0.07756771  1.0
  Ni  Ni1302  1  0.83704850  0.26933450  0.07756771  1.0
  Ni  Ni1303  1  0.83704850  0.60266783  0.07756771  1.0
  Ni  Ni1304  1  0.83704850  0.93600117  0.07756771  1.0
  Ni  Ni1305  1  0.00371517  0.10266783  0.00613914  1.0
  Ni  Ni1306  1  0.00371517  0.43600117  0.00613914  1.0
  Ni  Ni1307  1  0.00371517  0.76933450  0.00613914  1.0
  Ni  Ni1308  1  0.33704850  0.10266783  0.00613914  1.0
  Ni  Ni1309  1  0.33704850  0.43600117  0.00613914  1.0
  Ni  Ni1310  1  0.33704850  0.76933450  0.00613914  1.0
  Ni  Ni1311  1  0.67038183  0.10266783  0.00613914  1.0
  Ni  Ni1312  1  0.67038183  0.43600117  0.00613914  1.0
  Ni  Ni1313  1  0.67038183  0.76933450  0.00613914  1.0
  Ni  Ni1314  1  0.28798900  0.25394700  0.00463450  1.0
  Ni  Ni1315  1  0.28798900  0.58728033  0.00463450  1.0
  Ni  Ni1316  1  0.28798900  0.92061367  0.00463450  1.0
  Ni  Ni1317  1  0.62132233  0.25394700  0.00463450  1.0
  Ni  Ni1318  1  0.62132233  0.58728033  0.00463450  1.0
  Ni  Ni1319  1  0.62132233  0.92061367  0.00463450  1.0
  Ni  Ni1320  1  0.95465567  0.25394700  0.00463450  1.0
  Ni  Ni1321  1  0.95465567  0.58728033  0.00463450  1.0
  Ni  Ni1322  1  0.95465567  0.92061367  0.00463450  1.0
  Ni  Ni1323  1  0.12132233  0.08728033  0.07606307  1.0
  Ni  Ni1324  1  0.12132233  0.42061367  0.07606307  1.0
  Ni  Ni1325  1  0.12132233  0.75394700  0.07606307  1.0
  Ni  Ni1326  1  0.45465567  0.08728033  0.07606307  1.0
  Ni  Ni1327  1  0.45465567  0.42061367  0.07606307  1.0
  Ni  Ni1328  1  0.45465567  0.75394700  0.07606307  1.0
  Ni  Ni1329  1  0.78798900  0.08728033  0.07606307  1.0
  Ni  Ni1330  1  0.78798900  0.42061367  0.07606307  1.0
  Ni  Ni1331  1  0.78798900  0.75394700  0.07606307  1.0
  Ni  Ni1332  1  0.25406083  0.22766783  0.00803886  1.0
  Ni  Ni1333  1  0.25406083  0.56100117  0.00803886  1.0
  Ni  Ni1334  1  0.25406083  0.89433450  0.00803886  1.0
  Ni  Ni1335  1  0.58739417  0.22766783  0.00803886  1.0
  Ni  Ni1336  1  0.58739417  0.56100117  0.00803886  1.0
  Ni  Ni1337  1  0.58739417  0.89433450  0.00803886  1.0
  Ni  Ni1338  1  0.92072750  0.22766783  0.00803886  1.0
  Ni  Ni1339  1  0.92072750  0.56100117  0.00803886  1.0
  Ni  Ni1340  1  0.92072750  0.89433450  0.00803886  1.0
  Ni  Ni1341  1  0.08739417  0.06100117  0.07946743  1.0
  Ni  Ni1342  1  0.08739417  0.39433450  0.07946743  1.0
  Ni  Ni1343  1  0.08739417  0.72766783  0.07946743  1.0
  Ni  Ni1344  1  0.42072750  0.06100117  0.07946743  1.0
  Ni  Ni1345  1  0.42072750  0.39433450  0.07946743  1.0
  Ni  Ni1346  1  0.42072750  0.72766783  0.07946743  1.0
  Ni  Ni1347  1  0.75406083  0.06100117  0.07946743  1.0
  Ni  Ni1348  1  0.75406083  0.39433450  0.07946743  1.0
  Ni  Ni1349  1  0.75406083  0.72766783  0.07946743  1.0
  Ni  Ni1350  1  0.08405083  0.18899883  0.02747700  1.0
  Ni  Ni1351  1  0.08405083  0.52233217  0.02747700  1.0
  Ni  Ni1352  1  0.08405083  0.85566550  0.02747700  1.0
  Ni  Ni1353  1  0.41738417  0.18899883  0.02747700  1.0
  Ni  Ni1354  1  0.41738417  0.52233217  0.02747700  1.0
  Ni  Ni1355  1  0.41738417  0.85566550  0.02747700  1.0
  Ni  Ni1356  1  0.75071750  0.18899883  0.02747700  1.0
  Ni  Ni1357  1  0.75071750  0.52233217  0.02747700  1.0
  Ni  Ni1358  1  0.75071750  0.85566550  0.02747700  1.0
  Ni  Ni1359  1  0.25071750  0.02233217  0.09890557  1.0
  Ni  Ni1360  1  0.25071750  0.35566550  0.09890557  1.0
  Ni  Ni1361  1  0.25071750  0.68899883  0.09890557  1.0
  Ni  Ni1362  1  0.58405083  0.02233217  0.09890557  1.0
  Ni  Ni1363  1  0.58405083  0.35566550  0.09890557  1.0
  Ni  Ni1364  1  0.58405083  0.68899883  0.09890557  1.0
  Ni  Ni1365  1  0.91738417  0.02233217  0.09890557  1.0
  Ni  Ni1366  1  0.91738417  0.35566550  0.09890557  1.0
  Ni  Ni1367  1  0.91738417  0.68899883  0.09890557  1.0
  Ni  Ni1368  1  0.05550250  0.17477683  0.12059743  1.0
  Ni  Ni1369  1  0.05550250  0.50811017  0.12059743  1.0
  Ni  Ni1370  1  0.05550250  0.84144350  0.12059743  1.0
  Ni  Ni1371  1  0.38883583  0.17477683  0.12059743  1.0
  Ni  Ni1372  1  0.38883583  0.50811017  0.12059743  1.0
  Ni  Ni1373  1  0.38883583  0.84144350  0.12059743  1.0
  Ni  Ni1374  1  0.72216917  0.17477683  0.12059743  1.0
  Ni  Ni1375  1  0.72216917  0.50811017  0.12059743  1.0
  Ni  Ni1376  1  0.72216917  0.84144350  0.12059743  1.0
  Ni  Ni1377  1  0.22216917  0.00811017  0.04916886  1.0
  Ni  Ni1378  1  0.22216917  0.34144350  0.04916886  1.0
  Ni  Ni1379  1  0.22216917  0.67477683  0.04916886  1.0
  Ni  Ni1380  1  0.55550250  0.00811017  0.04916886  1.0
  Ni  Ni1381  1  0.55550250  0.34144350  0.04916886  1.0
  Ni  Ni1382  1  0.55550250  0.67477683  0.04916886  1.0
  Ni  Ni1383  1  0.88883583  0.00811017  0.04916886  1.0
  Ni  Ni1384  1  0.88883583  0.34144350  0.04916886  1.0
  Ni  Ni1385  1  0.88883583  0.67477683  0.04916886  1.0
  Ni  Ni1386  1  0.20727017  0.31100117  0.07976371  1.0
  Ni  Ni1387  1  0.20727017  0.64433450  0.07976371  1.0
  Ni  Ni1388  1  0.20727017  0.97766783  0.07976371  1.0
  Ni  Ni1389  1  0.54060350  0.31100117  0.07976371  1.0
  Ni  Ni1390  1  0.54060350  0.64433450  0.07976371  1.0
  Ni  Ni1391  1  0.54060350  0.97766783  0.07976371  1.0
  Ni  Ni1392  1  0.87393683  0.31100117  0.07976371  1.0
  Ni  Ni1393  1  0.87393683  0.64433450  0.07976371  1.0
  Ni  Ni1394  1  0.87393683  0.97766783  0.07976371  1.0
  Ni  Ni1395  1  0.04060350  0.14433450  0.00833514  1.0
  Ni  Ni1396  1  0.04060350  0.47766783  0.00833514  1.0
  Ni  Ni1397  1  0.04060350  0.81100117  0.00833514  1.0
  Ni  Ni1398  1  0.37393683  0.14433450  0.00833514  1.0
  Ni  Ni1399  1  0.37393683  0.47766783  0.00833514  1.0
  Ni  Ni1400  1  0.37393683  0.81100117  0.00833514  1.0
  Ni  Ni1401  1  0.70727017  0.14433450  0.00833514  1.0
  Ni  Ni1402  1  0.70727017  0.47766783  0.00833514  1.0
  Ni  Ni1403  1  0.70727017  0.81100117  0.00833514  1.0
  Ni  Ni1404  1  0.17088300  0.20438633  0.01279336  1.0
  Ni  Ni1405  1  0.17088300  0.53771967  0.01279336  1.0
  Ni  Ni1406  1  0.17088300  0.87105300  0.01279336  1.0
  Ni  Ni1407  1  0.50421633  0.20438633  0.01279336  1.0
  Ni  Ni1408  1  0.50421633  0.53771967  0.01279336  1.0
  Ni  Ni1409  1  0.50421633  0.87105300  0.01279336  1.0
  Ni  Ni1410  1  0.83754967  0.20438633  0.01279336  1.0
  Ni  Ni1411  1  0.83754967  0.53771967  0.01279336  1.0
  Ni  Ni1412  1  0.83754967  0.87105300  0.01279336  1.0
  Ni  Ni1413  1  0.00421633  0.03771967  0.08422193  1.0
  Ni  Ni1414  1  0.00421633  0.37105300  0.08422193  1.0
  Ni  Ni1415  1  0.00421633  0.70438633  0.08422193  1.0
  Ni  Ni1416  1  0.33754967  0.03771967  0.08422193  1.0
  Ni  Ni1417  1  0.33754967  0.37105300  0.08422193  1.0
  Ni  Ni1418  1  0.33754967  0.70438633  0.08422193  1.0
  Ni  Ni1419  1  0.67088300  0.03771967  0.08422193  1.0
  Ni  Ni1420  1  0.67088300  0.37105300  0.08422193  1.0
  Ni  Ni1421  1  0.67088300  0.70438633  0.08422193  1.0
  Ni  Ni1422  1  0.20019767  0.18431367  0.13006379  1.0
  Ni  Ni1423  1  0.20019767  0.51764700  0.13006379  1.0
  Ni  Ni1424  1  0.20019767  0.85098033  0.13006379  1.0
  Ni  Ni1425  1  0.53353100  0.18431367  0.13006379  1.0
  Ni  Ni1426  1  0.53353100  0.51764700  0.13006379  1.0
  Ni  Ni1427  1  0.53353100  0.85098033  0.13006379  1.0
  Ni  Ni1428  1  0.86686433  0.18431367  0.13006379  1.0
  Ni  Ni1429  1  0.86686433  0.51764700  0.13006379  1.0
  Ni  Ni1430  1  0.86686433  0.85098033  0.13006379  1.0
  Ni  Ni1431  1  0.03353100  0.01764700  0.05863521  1.0
  Ni  Ni1432  1  0.03353100  0.35098033  0.05863521  1.0
  Ni  Ni1433  1  0.03353100  0.68431367  0.05863521  1.0
  Ni  Ni1434  1  0.36686433  0.01764700  0.05863521  1.0
  Ni  Ni1435  1  0.36686433  0.35098033  0.05863521  1.0
  Ni  Ni1436  1  0.36686433  0.68431367  0.05863521  1.0
  Ni  Ni1437  1  0.70019767  0.01764700  0.05863521  1.0
  Ni  Ni1438  1  0.70019767  0.35098033  0.05863521  1.0
  Ni  Ni1439  1  0.70019767  0.68431367  0.05863521  1.0
  Y  Y1440  1  0.15277800  0.23511433  0.21855107  1.0
  Y  Y1441  1  0.15277800  0.56844767  0.21855107  1.0
  Y  Y1442  1  0.15277800  0.90178100  0.21855107  1.0
  Y  Y1443  1  0.48611133  0.23511433  0.21855107  1.0
  Y  Y1444  1  0.48611133  0.56844767  0.21855107  1.0
  Y  Y1445  1  0.48611133  0.90178100  0.21855107  1.0
  Y  Y1446  1  0.81944467  0.23511433  0.21855107  1.0
  Y  Y1447  1  0.81944467  0.56844767  0.21855107  1.0
  Y  Y1448  1  0.81944467  0.90178100  0.21855107  1.0
  Y  Y1449  1  0.31944467  0.06844767  0.14712250  1.0
  Y  Y1450  1  0.31944467  0.40178100  0.14712250  1.0
  Y  Y1451  1  0.31944467  0.73511433  0.14712250  1.0
  Y  Y1452  1  0.65277800  0.06844767  0.14712250  1.0
  Y  Y1453  1  0.65277800  0.40178100  0.14712250  1.0
  Y  Y1454  1  0.65277800  0.73511433  0.14712250  1.0
  Y  Y1455  1  0.98611133  0.06844767  0.14712250  1.0
  Y  Y1456  1  0.98611133  0.40178100  0.14712250  1.0
  Y  Y1457  1  0.98611133  0.73511433  0.14712250  1.0
  Y  Y1458  1  0.05946167  0.29407500  0.21613207  1.0
  Y  Y1459  1  0.05946167  0.62740833  0.21613207  1.0
  Y  Y1460  1  0.05946167  0.96074167  0.21613207  1.0
  Y  Y1461  1  0.39279500  0.29407500  0.21613207  1.0
  Y  Y1462  1  0.39279500  0.62740833  0.21613207  1.0
  Y  Y1463  1  0.39279500  0.96074167  0.21613207  1.0
  Y  Y1464  1  0.72612833  0.29407500  0.21613207  1.0
  Y  Y1465  1  0.72612833  0.62740833  0.21613207  1.0
  Y  Y1466  1  0.72612833  0.96074167  0.21613207  1.0
  Y  Y1467  1  0.22612833  0.12740833  0.14470350  1.0
  Y  Y1468  1  0.22612833  0.46074167  0.14470350  1.0
  Y  Y1469  1  0.22612833  0.79407500  0.14470350  1.0
  Y  Y1470  1  0.55946167  0.12740833  0.14470350  1.0
  Y  Y1471  1  0.55946167  0.46074167  0.14470350  1.0
  Y  Y1472  1  0.55946167  0.79407500  0.14470350  1.0
  Y  Y1473  1  0.89279500  0.12740833  0.14470350  1.0
  Y  Y1474  1  0.89279500  0.46074167  0.14470350  1.0
  Y  Y1475  1  0.89279500  0.79407500  0.14470350  1.0
  Y  Y1476  1  0.16681650  0.21976883  0.16616257  1.0
  Y  Y1477  1  0.16681650  0.55310217  0.16616257  1.0
  Y  Y1478  1  0.16681650  0.88643550  0.16616257  1.0
  Y  Y1479  1  0.50014983  0.21976883  0.16616257  1.0
  Y  Y1480  1  0.50014983  0.55310217  0.16616257  1.0
  Y  Y1481  1  0.50014983  0.88643550  0.16616257  1.0
  Y  Y1482  1  0.83348317  0.21976883  0.16616257  1.0
  Y  Y1483  1  0.83348317  0.55310217  0.16616257  1.0
  Y  Y1484  1  0.83348317  0.88643550  0.16616257  1.0
  Y  Y1485  1  0.00014983  0.05310217  0.23759114  1.0
  Y  Y1486  1  0.00014983  0.38643550  0.23759114  1.0
  Y  Y1487  1  0.00014983  0.71976883  0.23759114  1.0
  Y  Y1488  1  0.33348317  0.05310217  0.23759114  1.0
  Y  Y1489  1  0.33348317  0.38643550  0.23759114  1.0
  Y  Y1490  1  0.33348317  0.71976883  0.23759114  1.0
  Y  Y1491  1  0.66681650  0.05310217  0.23759114  1.0
  Y  Y1492  1  0.66681650  0.38643550  0.23759114  1.0
  Y  Y1493  1  0.66681650  0.71976883  0.23759114  1.0
  Y  Y1494  1  0.10221400  0.29166667  0.26775793  1.0
  Y  Y1495  1  0.10221400  0.62500000  0.26775793  1.0
  Y  Y1496  1  0.10221400  0.95833333  0.26775793  1.0
  Y  Y1497  1  0.43554733  0.29166667  0.26775793  1.0
  Y  Y1498  1  0.43554733  0.62500000  0.26775793  1.0
  Y  Y1499  1  0.43554733  0.95833333  0.26775793  1.0
  Y  Y1500  1  0.76888067  0.29166667  0.26775793  1.0
  Y  Y1501  1  0.76888067  0.62500000  0.26775793  1.0
  Y  Y1502  1  0.76888067  0.95833333  0.26775793  1.0
  Y  Y1503  1  0.26888067  0.12500000  0.19632936  1.0
  Y  Y1504  1  0.26888067  0.45833333  0.19632936  1.0
  Y  Y1505  1  0.26888067  0.79166667  0.19632936  1.0
  Y  Y1506  1  0.60221400  0.12500000  0.19632936  1.0
  Y  Y1507  1  0.60221400  0.45833333  0.19632936  1.0
  Y  Y1508  1  0.60221400  0.79166667  0.19632936  1.0
  Y  Y1509  1  0.93554733  0.12500000  0.19632936  1.0
  Y  Y1510  1  0.93554733  0.45833333  0.19632936  1.0
  Y  Y1511  1  0.93554733  0.79166667  0.19632936  1.0
  Y  Y1512  1  0.28008400  0.20833333  0.23204364  1.0
  Y  Y1513  1  0.28008400  0.54166667  0.23204364  1.0
  Y  Y1514  1  0.28008400  0.87500000  0.23204364  1.0
  Y  Y1515  1  0.61341733  0.20833333  0.23204364  1.0
  Y  Y1516  1  0.61341733  0.54166667  0.23204364  1.0
  Y  Y1517  1  0.61341733  0.87500000  0.23204364  1.0
  Y  Y1518  1  0.94675067  0.20833333  0.23204364  1.0
  Y  Y1519  1  0.94675067  0.54166667  0.23204364  1.0
  Y  Y1520  1  0.94675067  0.87500000  0.23204364  1.0
  Y  Y1521  1  0.11341733  0.04166667  0.16061507  1.0
  Y  Y1522  1  0.11341733  0.37500000  0.16061507  1.0
  Y  Y1523  1  0.11341733  0.70833333  0.16061507  1.0
  Y  Y1524  1  0.44675067  0.04166667  0.16061507  1.0
  Y  Y1525  1  0.44675067  0.37500000  0.16061507  1.0
  Y  Y1526  1  0.44675067  0.70833333  0.16061507  1.0
  Y  Y1527  1  0.78008400  0.04166667  0.16061507  1.0
  Y  Y1528  1  0.78008400  0.37500000  0.16061507  1.0
  Y  Y1529  1  0.78008400  0.70833333  0.16061507  1.0
  Y  Y1530  1  0.19581217  0.23456383  0.27096171  1.0
  Y  Y1531  1  0.19581217  0.56789717  0.27096171  1.0
  Y  Y1532  1  0.19581217  0.90123050  0.27096171  1.0
  Y  Y1533  1  0.52914550  0.23456383  0.27096171  1.0
  Y  Y1534  1  0.52914550  0.56789717  0.27096171  1.0
  Y  Y1535  1  0.52914550  0.90123050  0.27096171  1.0
  Y  Y1536  1  0.86247883  0.23456383  0.27096171  1.0
  Y  Y1537  1  0.86247883  0.56789717  0.27096171  1.0
  Y  Y1538  1  0.86247883  0.90123050  0.27096171  1.0
  Y  Y1539  1  0.02914550  0.06789717  0.19953314  1.0
  Y  Y1540  1  0.02914550  0.40123050  0.19953314  1.0
  Y  Y1541  1  0.02914550  0.73456383  0.19953314  1.0
  Y  Y1542  1  0.36247883  0.06789717  0.19953314  1.0
  Y  Y1543  1  0.36247883  0.40123050  0.19953314  1.0
  Y  Y1544  1  0.36247883  0.73456383  0.19953314  1.0
  Y  Y1545  1  0.69581217  0.06789717  0.19953314  1.0
  Y  Y1546  1  0.69581217  0.40123050  0.19953314  1.0
  Y  Y1547  1  0.69581217  0.73456383  0.19953314  1.0
  Y  Y1548  1  0.12665850  0.26143550  0.27993914  1.0
  Y  Y1549  1  0.12665850  0.59476883  0.27993914  1.0
  Y  Y1550  1  0.12665850  0.92810217  0.27993914  1.0
  Y  Y1551  1  0.45999183  0.26143550  0.27993914  1.0
  Y  Y1552  1  0.45999183  0.59476883  0.27993914  1.0
  Y  Y1553  1  0.45999183  0.92810217  0.27993914  1.0
  Y  Y1554  1  0.79332517  0.26143550  0.27993914  1.0
  Y  Y1555  1  0.79332517  0.59476883  0.27993914  1.0
  Y  Y1556  1  0.79332517  0.92810217  0.27993914  1.0
  Y  Y1557  1  0.29332517  0.09476883  0.20851057  1.0
  Y  Y1558  1  0.29332517  0.42810217  0.20851057  1.0
  Y  Y1559  1  0.29332517  0.76143550  0.20851057  1.0
  Y  Y1560  1  0.62665850  0.09476883  0.20851057  1.0
  Y  Y1561  1  0.62665850  0.42810217  0.20851057  1.0
  Y  Y1562  1  0.62665850  0.76143550  0.20851057  1.0
  Y  Y1563  1  0.95999183  0.09476883  0.20851057  1.0
  Y  Y1564  1  0.95999183  0.42810217  0.20851057  1.0
  Y  Y1565  1  0.95999183  0.76143550  0.20851057  1.0
  Y  Y1566  1  0.18945267  0.25000000  0.15894136  1.0
  Y  Y1567  1  0.18945267  0.58333333  0.15894136  1.0
  Y  Y1568  1  0.18945267  0.91666667  0.15894136  1.0
  Y  Y1569  1  0.52278600  0.25000000  0.15894136  1.0
  Y  Y1570  1  0.52278600  0.58333333  0.15894136  1.0
  Y  Y1571  1  0.52278600  0.91666667  0.15894136  1.0
  Y  Y1572  1  0.85611933  0.25000000  0.15894136  1.0
  Y  Y1573  1  0.85611933  0.58333333  0.15894136  1.0
  Y  Y1574  1  0.85611933  0.91666667  0.15894136  1.0
  Y  Y1575  1  0.02278600  0.08333333  0.23036993  1.0
  Y  Y1576  1  0.02278600  0.41666667  0.23036993  1.0
  Y  Y1577  1  0.02278600  0.75000000  0.23036993  1.0
  Y  Y1578  1  0.35611933  0.08333333  0.23036993  1.0
  Y  Y1579  1  0.35611933  0.41666667  0.23036993  1.0
  Y  Y1580  1  0.35611933  0.75000000  0.23036993  1.0
  Y  Y1581  1  0.68945267  0.08333333  0.23036993  1.0
  Y  Y1582  1  0.68945267  0.41666667  0.23036993  1.0
  Y  Y1583  1  0.68945267  0.75000000  0.23036993  1.0
  Y  Y1584  1  0.31025700  0.19344767  0.24745879  1.0
  Y  Y1585  1  0.31025700  0.52678100  0.24745879  1.0
  Y  Y1586  1  0.31025700  0.86011433  0.24745879  1.0
  Y  Y1587  1  0.64359033  0.19344767  0.24745879  1.0
  Y  Y1588  1  0.64359033  0.52678100  0.24745879  1.0
  Y  Y1589  1  0.64359033  0.86011433  0.24745879  1.0
  Y  Y1590  1  0.97692367  0.19344767  0.24745879  1.0
  Y  Y1591  1  0.97692367  0.52678100  0.24745879  1.0
  Y  Y1592  1  0.97692367  0.86011433  0.24745879  1.0
  Y  Y1593  1  0.14359033  0.02678100  0.17603021  1.0
  Y  Y1594  1  0.14359033  0.36011433  0.17603021  1.0
  Y  Y1595  1  0.14359033  0.69344767  0.17603021  1.0
  Y  Y1596  1  0.47692367  0.02678100  0.17603021  1.0
  Y  Y1597  1  0.47692367  0.36011433  0.17603021  1.0
  Y  Y1598  1  0.47692367  0.69344767  0.17603021  1.0
  Y  Y1599  1  0.81025700  0.02678100  0.17603021  1.0
  Y  Y1600  1  0.81025700  0.36011433  0.17603021  1.0
  Y  Y1601  1  0.81025700  0.69344767  0.17603021  1.0
  Y  Y1602  1  0.12485017  0.32189783  0.25557671  1.0
  Y  Y1603  1  0.12485017  0.65523117  0.25557671  1.0
  Y  Y1604  1  0.12485017  0.98856450  0.25557671  1.0
  Y  Y1605  1  0.45818350  0.32189783  0.25557671  1.0
  Y  Y1606  1  0.45818350  0.65523117  0.25557671  1.0
  Y  Y1607  1  0.45818350  0.98856450  0.25557671  1.0
  Y  Y1608  1  0.79151683  0.32189783  0.25557671  1.0
  Y  Y1609  1  0.79151683  0.65523117  0.25557671  1.0
  Y  Y1610  1  0.79151683  0.98856450  0.25557671  1.0
  Y  Y1611  1  0.29151683  0.15523117  0.18414814  1.0
  Y  Y1612  1  0.29151683  0.48856450  0.18414814  1.0
  Y  Y1613  1  0.29151683  0.82189783  0.18414814  1.0
  Y  Y1614  1  0.62485017  0.15523117  0.18414814  1.0
  Y  Y1615  1  0.62485017  0.48856450  0.18414814  1.0
  Y  Y1616  1  0.62485017  0.82189783  0.18414814  1.0
  Y  Y1617  1  0.95818350  0.15523117  0.18414814  1.0
  Y  Y1618  1  0.95818350  0.48856450  0.18414814  1.0
  Y  Y1619  1  0.95818350  0.82189783  0.18414814  1.0
  Y  Y1620  1  0.07215233  0.26488567  0.23131021  1.0
  Y  Y1621  1  0.07215233  0.59821900  0.23131021  1.0
  Y  Y1622  1  0.07215233  0.93155233  0.23131021  1.0
  Y  Y1623  1  0.40548567  0.26488567  0.23131021  1.0
  Y  Y1624  1  0.40548567  0.59821900  0.23131021  1.0
  Y  Y1625  1  0.40548567  0.93155233  0.23131021  1.0
  Y  Y1626  1  0.73881900  0.26488567  0.23131021  1.0
  Y  Y1627  1  0.73881900  0.59821900  0.23131021  1.0
  Y  Y1628  1  0.73881900  0.93155233  0.23131021  1.0
  Y  Y1629  1  0.23881900  0.09821900  0.15988164  1.0
  Y  Y1630  1  0.23881900  0.43155233  0.15988164  1.0
  Y  Y1631  1  0.23881900  0.76488567  0.15988164  1.0
  Y  Y1632  1  0.57215233  0.09821900  0.15988164  1.0
  Y  Y1633  1  0.57215233  0.43155233  0.15988164  1.0
  Y  Y1634  1  0.57215233  0.76488567  0.15988164  1.0
  Y  Y1635  1  0.90548567  0.09821900  0.15988164  1.0
  Y  Y1636  1  0.90548567  0.43155233  0.15988164  1.0
  Y  Y1637  1  0.90548567  0.76488567  0.15988164  1.0
  Y  Y1638  1  0.26020050  0.30429950  0.15365829  1.0
  Y  Y1639  1  0.26020050  0.63763283  0.15365829  1.0
  Y  Y1640  1  0.26020050  0.97096617  0.15365829  1.0
  Y  Y1641  1  0.59353383  0.30429950  0.15365829  1.0
  Y  Y1642  1  0.59353383  0.63763283  0.15365829  1.0
  Y  Y1643  1  0.59353383  0.97096617  0.15365829  1.0
  Y  Y1644  1  0.92686717  0.30429950  0.15365829  1.0
  Y  Y1645  1  0.92686717  0.63763283  0.15365829  1.0
  Y  Y1646  1  0.92686717  0.97096617  0.15365829  1.0
  Y  Y1647  1  0.09353383  0.13763283  0.22508686  1.0
  Y  Y1648  1  0.09353383  0.47096617  0.22508686  1.0
  Y  Y1649  1  0.09353383  0.80429950  0.22508686  1.0
  Y  Y1650  1  0.42686717  0.13763283  0.22508686  1.0
  Y  Y1651  1  0.42686717  0.47096617  0.22508686  1.0
  Y  Y1652  1  0.42686717  0.80429950  0.22508686  1.0
  Y  Y1653  1  0.76020050  0.13763283  0.22508686  1.0
  Y  Y1654  1  0.76020050  0.47096617  0.22508686  1.0
  Y  Y1655  1  0.76020050  0.80429950  0.22508686  1.0
  Y  Y1656  1  0.33134000  0.22321900  0.21662850  1.0
  Y  Y1657  1  0.33134000  0.55655233  0.21662850  1.0
  Y  Y1658  1  0.33134000  0.88988567  0.21662850  1.0
  Y  Y1659  1  0.66467333  0.22321900  0.21662850  1.0
  Y  Y1660  1  0.66467333  0.55655233  0.21662850  1.0
  Y  Y1661  1  0.66467333  0.88988567  0.21662850  1.0
  Y  Y1662  1  0.99800667  0.22321900  0.21662850  1.0
  Y  Y1663  1  0.99800667  0.55655233  0.21662850  1.0
  Y  Y1664  1  0.99800667  0.88988567  0.21662850  1.0
  Y  Y1665  1  0.16467333  0.05655233  0.14519993  1.0
  Y  Y1666  1  0.16467333  0.38988567  0.14519993  1.0
  Y  Y1667  1  0.16467333  0.72321900  0.14519993  1.0
  Y  Y1668  1  0.49800667  0.05655233  0.14519993  1.0
  Y  Y1669  1  0.49800667  0.38988567  0.14519993  1.0
  Y  Y1670  1  0.49800667  0.72321900  0.14519993  1.0
  Y  Y1671  1  0.83134000  0.05655233  0.14519993  1.0
  Y  Y1672  1  0.83134000  0.38988567  0.14519993  1.0
  Y  Y1673  1  0.83134000  0.72321900  0.14519993  1.0
  Y  Y1674  1  0.16500817  0.28023117  0.19207500  1.0
  Y  Y1675  1  0.16500817  0.61356450  0.19207500  1.0
  Y  Y1676  1  0.16500817  0.94689783  0.19207500  1.0
  Y  Y1677  1  0.49834150  0.28023117  0.19207500  1.0
  Y  Y1678  1  0.49834150  0.61356450  0.19207500  1.0
  Y  Y1679  1  0.49834150  0.94689783  0.19207500  1.0
  Y  Y1680  1  0.83167483  0.28023117  0.19207500  1.0
  Y  Y1681  1  0.83167483  0.61356450  0.19207500  1.0
  Y  Y1682  1  0.83167483  0.94689783  0.19207500  1.0
  Y  Y1683  1  0.33167483  0.11356450  0.26350357  1.0
  Y  Y1684  1  0.33167483  0.44689783  0.26350357  1.0
  Y  Y1685  1  0.33167483  0.78023117  0.26350357  1.0
  Y  Y1686  1  0.66500817  0.11356450  0.26350357  1.0
  Y  Y1687  1  0.66500817  0.44689783  0.26350357  1.0
  Y  Y1688  1  0.66500817  0.78023117  0.26350357  1.0
  Y  Y1689  1  0.99834150  0.11356450  0.26350357  1.0
  Y  Y1690  1  0.99834150  0.44689783  0.26350357  1.0
  Y  Y1691  1  0.99834150  0.78023117  0.26350357  1.0
  Y  Y1692  1  0.03993983  0.22376950  0.27066043  1.0
  Y  Y1693  1  0.03993983  0.55710283  0.27066043  1.0
  Y  Y1694  1  0.03993983  0.89043617  0.27066043  1.0
  Y  Y1695  1  0.37327317  0.22376950  0.27066043  1.0
  Y  Y1696  1  0.37327317  0.55710283  0.27066043  1.0
  Y  Y1697  1  0.37327317  0.89043617  0.27066043  1.0
  Y  Y1698  1  0.70660650  0.22376950  0.27066043  1.0
  Y  Y1699  1  0.70660650  0.55710283  0.27066043  1.0
  Y  Y1700  1  0.70660650  0.89043617  0.27066043  1.0
  Y  Y1701  1  0.20660650  0.05710283  0.19923186  1.0
  Y  Y1702  1  0.20660650  0.39043617  0.19923186  1.0
  Y  Y1703  1  0.20660650  0.72376950  0.19923186  1.0
  Y  Y1704  1  0.53993983  0.05710283  0.19923186  1.0
  Y  Y1705  1  0.53993983  0.39043617  0.19923186  1.0
  Y  Y1706  1  0.53993983  0.72376950  0.19923186  1.0
  Y  Y1707  1  0.87327317  0.05710283  0.19923186  1.0
  Y  Y1708  1  0.87327317  0.39043617  0.19923186  1.0
  Y  Y1709  1  0.87327317  0.72376950  0.19923186  1.0
  Y  Y1710  1  0.23007367  0.20592500  0.17835350  1.0
  Y  Y1711  1  0.23007367  0.53925833  0.17835350  1.0
  Y  Y1712  1  0.23007367  0.87259167  0.17835350  1.0
  Y  Y1713  1  0.56340700  0.20592500  0.17835350  1.0
  Y  Y1714  1  0.56340700  0.53925833  0.17835350  1.0
  Y  Y1715  1  0.56340700  0.87259167  0.17835350  1.0
  Y  Y1716  1  0.89674033  0.20592500  0.17835350  1.0
  Y  Y1717  1  0.89674033  0.53925833  0.17835350  1.0
  Y  Y1718  1  0.89674033  0.87259167  0.17835350  1.0
  Y  Y1719  1  0.06340700  0.03925833  0.24978207  1.0
  Y  Y1720  1  0.06340700  0.37259167  0.24978207  1.0
  Y  Y1721  1  0.06340700  0.70592500  0.24978207  1.0
  Y  Y1722  1  0.39674033  0.03925833  0.24978207  1.0
  Y  Y1723  1  0.39674033  0.37259167  0.24978207  1.0
  Y  Y1724  1  0.39674033  0.70592500  0.24978207  1.0
  Y  Y1725  1  0.73007367  0.03925833  0.24978207  1.0
  Y  Y1726  1  0.73007367  0.37259167  0.24978207  1.0
  Y  Y1727  1  0.73007367  0.70592500  0.24978207  1.0
  Y  Y1728  1  0.13888867  0.30655233  0.15307507  1.0
  Y  Y1729  1  0.13888867  0.63988567  0.15307507  1.0
  Y  Y1730  1  0.13888867  0.97321900  0.15307507  1.0
  Y  Y1731  1  0.47222200  0.30655233  0.15307507  1.0
  Y  Y1732  1  0.47222200  0.63988567  0.15307507  1.0
  Y  Y1733  1  0.47222200  0.97321900  0.15307507  1.0
  Y  Y1734  1  0.80555533  0.30655233  0.15307507  1.0
  Y  Y1735  1  0.80555533  0.63988567  0.15307507  1.0
  Y  Y1736  1  0.80555533  0.97321900  0.15307507  1.0
  Y  Y1737  1  0.30555533  0.13988567  0.22450364  1.0
  Y  Y1738  1  0.30555533  0.47321900  0.22450364  1.0
  Y  Y1739  1  0.30555533  0.80655233  0.22450364  1.0
  Y  Y1740  1  0.63888867  0.13988567  0.22450364  1.0
  Y  Y1741  1  0.63888867  0.47321900  0.22450364  1.0
  Y  Y1742  1  0.63888867  0.80655233  0.22450364  1.0
  Y  Y1743  1  0.97222200  0.13988567  0.22450364  1.0
  Y  Y1744  1  0.97222200  0.47321900  0.22450364  1.0
  Y  Y1745  1  0.97222200  0.80655233  0.22450364  1.0
  Y  Y1746  1  0.00660083  0.27903383  0.23900043  1.0
  Y  Y1747  1  0.00660083  0.61236717  0.23900043  1.0
  Y  Y1748  1  0.00660083  0.94570050  0.23900043  1.0
  Y  Y1749  1  0.33993417  0.27903383  0.23900043  1.0
  Y  Y1750  1  0.33993417  0.61236717  0.23900043  1.0
  Y  Y1751  1  0.33993417  0.94570050  0.23900043  1.0
  Y  Y1752  1  0.67326750  0.27903383  0.23900043  1.0
  Y  Y1753  1  0.67326750  0.61236717  0.23900043  1.0
  Y  Y1754  1  0.67326750  0.94570050  0.23900043  1.0
  Y  Y1755  1  0.17326750  0.11236717  0.16757186  1.0
  Y  Y1756  1  0.17326750  0.44570050  0.16757186  1.0
  Y  Y1757  1  0.17326750  0.77903383  0.16757186  1.0
  Y  Y1758  1  0.50660083  0.11236717  0.16757186  1.0
  Y  Y1759  1  0.50660083  0.44570050  0.16757186  1.0
  Y  Y1760  1  0.50660083  0.77903383  0.16757186  1.0
  Y  Y1761  1  0.83993417  0.11236717  0.16757186  1.0
  Y  Y1762  1  0.83993417  0.44570050  0.16757186  1.0
  Y  Y1763  1  0.83993417  0.77903383  0.16757186  1.0
  Y  Y1764  1  0.10047050  0.17810217  0.19395000  1.0
  Y  Y1765  1  0.10047050  0.51143550  0.19395000  1.0
  Y  Y1766  1  0.10047050  0.84476883  0.19395000  1.0
  Y  Y1767  1  0.43380383  0.17810217  0.19395000  1.0
  Y  Y1768  1  0.43380383  0.51143550  0.19395000  1.0
  Y  Y1769  1  0.43380383  0.84476883  0.19395000  1.0
  Y  Y1770  1  0.76713717  0.17810217  0.19395000  1.0
  Y  Y1771  1  0.76713717  0.51143550  0.19395000  1.0
  Y  Y1772  1  0.76713717  0.84476883  0.19395000  1.0
  Y  Y1773  1  0.26713717  0.01143550  0.26537857  1.0
  Y  Y1774  1  0.26713717  0.34476883  0.26537857  1.0
  Y  Y1775  1  0.26713717  0.67810217  0.26537857  1.0
  Y  Y1776  1  0.60047050  0.01143550  0.26537857  1.0
  Y  Y1777  1  0.60047050  0.34476883  0.26537857  1.0
  Y  Y1778  1  0.60047050  0.67810217  0.26537857  1.0
  Y  Y1779  1  0.93380383  0.01143550  0.26537857  1.0
  Y  Y1780  1  0.93380383  0.34476883  0.26537857  1.0
  Y  Y1781  1  0.93380383  0.67810217  0.26537857  1.0
  Y  Y1782  1  0.21991600  0.29166667  0.26775793  1.0
  Y  Y1783  1  0.21991600  0.62500000  0.26775793  1.0
  Y  Y1784  1  0.21991600  0.95833333  0.26775793  1.0
  Y  Y1785  1  0.55324933  0.29166667  0.26775793  1.0
  Y  Y1786  1  0.55324933  0.62500000  0.26775793  1.0
  Y  Y1787  1  0.55324933  0.95833333  0.26775793  1.0
  Y  Y1788  1  0.88658267  0.29166667  0.26775793  1.0
  Y  Y1789  1  0.88658267  0.62500000  0.26775793  1.0
  Y  Y1790  1  0.88658267  0.95833333  0.26775793  1.0
  Y  Y1791  1  0.05324933  0.12500000  0.19632936  1.0
  Y  Y1792  1  0.05324933  0.45833333  0.19632936  1.0
  Y  Y1793  1  0.05324933  0.79166667  0.19632936  1.0
  Y  Y1794  1  0.38658267  0.12500000  0.19632936  1.0
  Y  Y1795  1  0.38658267  0.45833333  0.19632936  1.0
  Y  Y1796  1  0.38658267  0.79166667  0.19632936  1.0
  Y  Y1797  1  0.71991600  0.12500000  0.19632936  1.0
  Y  Y1798  1  0.71991600  0.45833333  0.19632936  1.0
  Y  Y1799  1  0.71991600  0.79166667  0.19632936  1.0
  Y  Y1800  1  0.07713283  0.32070050  0.20157186  1.0
  Y  Y1801  1  0.07713283  0.65403383  0.20157186  1.0
  Y  Y1802  1  0.07713283  0.98736717  0.20157186  1.0
  Y  Y1803  1  0.41046617  0.32070050  0.20157186  1.0
  Y  Y1804  1  0.41046617  0.65403383  0.20157186  1.0
  Y  Y1805  1  0.41046617  0.98736717  0.20157186  1.0
  Y  Y1806  1  0.74379950  0.32070050  0.20157186  1.0
  Y  Y1807  1  0.74379950  0.65403383  0.20157186  1.0
  Y  Y1808  1  0.74379950  0.98736717  0.20157186  1.0
  Y  Y1809  1  0.24379950  0.15403383  0.27300043  1.0
  Y  Y1810  1  0.24379950  0.48736717  0.27300043  1.0
  Y  Y1811  1  0.24379950  0.82070050  0.27300043  1.0
  Y  Y1812  1  0.57713283  0.15403383  0.27300043  1.0
  Y  Y1813  1  0.57713283  0.48736717  0.27300043  1.0
  Y  Y1814  1  0.57713283  0.82070050  0.27300043  1.0
  Y  Y1815  1  0.91046617  0.15403383  0.27300043  1.0
  Y  Y1816  1  0.91046617  0.48736717  0.27300043  1.0
  Y  Y1817  1  0.91046617  0.82070050  0.27300043  1.0
  Y  Y1818  1  0.31285150  0.18210283  0.19312557  1.0
  Y  Y1819  1  0.31285150  0.51543617  0.19312557  1.0
  Y  Y1820  1  0.31285150  0.84876950  0.19312557  1.0
  Y  Y1821  1  0.64618483  0.18210283  0.19312557  1.0
  Y  Y1822  1  0.64618483  0.51543617  0.19312557  1.0
  Y  Y1823  1  0.64618483  0.84876950  0.19312557  1.0
  Y  Y1824  1  0.97951817  0.18210283  0.19312557  1.0
  Y  Y1825  1  0.97951817  0.51543617  0.19312557  1.0
  Y  Y1826  1  0.97951817  0.84876950  0.19312557  1.0
  Y  Y1827  1  0.14618483  0.01543617  0.26455414  1.0
  Y  Y1828  1  0.14618483  0.34876950  0.26455414  1.0
  Y  Y1829  1  0.14618483  0.68210283  0.26455414  1.0
  Y  Y1830  1  0.47951817  0.01543617  0.26455414  1.0
  Y  Y1831  1  0.47951817  0.34876950  0.26455414  1.0
  Y  Y1832  1  0.47951817  0.68210283  0.26455414  1.0
  Y  Y1833  1  0.81285150  0.01543617  0.26455414  1.0
  Y  Y1834  1  0.81285150  0.34876950  0.26455414  1.0
  Y  Y1835  1  0.81285150  0.68210283  0.26455414  1.0
  Y  Y1836  1  0.29366000  0.31844767  0.16134850  1.0
  Y  Y1837  1  0.29366000  0.65178100  0.16134850  1.0
  Y  Y1838  1  0.29366000  0.98511433  0.16134850  1.0
  Y  Y1839  1  0.62699333  0.31844767  0.16134850  1.0
  Y  Y1840  1  0.62699333  0.65178100  0.16134850  1.0
  Y  Y1841  1  0.62699333  0.98511433  0.16134850  1.0
  Y  Y1842  1  0.96032667  0.31844767  0.16134850  1.0
  Y  Y1843  1  0.96032667  0.65178100  0.16134850  1.0
  Y  Y1844  1  0.96032667  0.98511433  0.16134850  1.0
  Y  Y1845  1  0.12699333  0.15178100  0.23277707  1.0
  Y  Y1846  1  0.12699333  0.48511433  0.23277707  1.0
  Y  Y1847  1  0.12699333  0.81844767  0.23277707  1.0
  Y  Y1848  1  0.46032667  0.15178100  0.23277707  1.0
  Y  Y1849  1  0.46032667  0.48511433  0.23277707  1.0
  Y  Y1850  1  0.46032667  0.81844767  0.23277707  1.0
  Y  Y1851  1  0.79366000  0.15178100  0.23277707  1.0
  Y  Y1852  1  0.79366000  0.48511433  0.23277707  1.0
  Y  Y1853  1  0.79366000  0.81844767  0.23277707  1.0
  Y  Y1854  1  0.22825967  0.16907500  0.25055950  1.0
  Y  Y1855  1  0.22825967  0.50240833  0.25055950  1.0
  Y  Y1856  1  0.22825967  0.83574167  0.25055950  1.0
  Y  Y1857  1  0.56159300  0.16907500  0.25055950  1.0
  Y  Y1858  1  0.56159300  0.50240833  0.25055950  1.0
  Y  Y1859  1  0.56159300  0.83574167  0.25055950  1.0
  Y  Y1860  1  0.89492633  0.16907500  0.25055950  1.0
  Y  Y1861  1  0.89492633  0.50240833  0.25055950  1.0
  Y  Y1862  1  0.89492633  0.83574167  0.25055950  1.0
  Y  Y1863  1  0.06159300  0.00240833  0.17913093  1.0
  Y  Y1864  1  0.06159300  0.33574167  0.17913093  1.0
  Y  Y1865  1  0.06159300  0.66907500  0.17913093  1.0
  Y  Y1866  1  0.39492633  0.00240833  0.17913093  1.0
  Y  Y1867  1  0.39492633  0.33574167  0.17913093  1.0
  Y  Y1868  1  0.39492633  0.66907500  0.17913093  1.0
  Y  Y1869  1  0.72825967  0.00240833  0.17913093  1.0
  Y  Y1870  1  0.72825967  0.33574167  0.17913093  1.0
  Y  Y1871  1  0.72825967  0.66907500  0.17913093  1.0
  Y  Y1872  1  0.17824933  0.16666667  0.20425850  1.0
  Y  Y1873  1  0.17824933  0.50000000  0.20425850  1.0
  Y  Y1874  1  0.17824933  0.83333333  0.20425850  1.0
  Y  Y1875  1  0.51158267  0.16666667  0.20425850  1.0
  Y  Y1876  1  0.51158267  0.50000000  0.20425850  1.0
  Y  Y1877  1  0.51158267  0.83333333  0.20425850  1.0
  Y  Y1878  1  0.84491600  0.16666667  0.20425850  1.0
  Y  Y1879  1  0.84491600  0.50000000  0.20425850  1.0
  Y  Y1880  1  0.84491600  0.83333333  0.20425850  1.0
  Y  Y1881  1  0.01158267  0.33333333  0.27568707  1.0
  Y  Y1882  1  0.01158267  0.66666667  0.27568707  1.0
  Y  Y1883  1  0.01158267  1.00000000  0.27568707  1.0
  Y  Y1884  1  0.34491600  0.33333333  0.27568707  1.0
  Y  Y1885  1  0.34491600  0.66666667  0.27568707  1.0
  Y  Y1886  1  0.34491600  1.00000000  0.27568707  1.0
  Y  Y1887  1  0.67824933  0.33333333  0.27568707  1.0
  Y  Y1888  1  0.67824933  0.66666667  0.27568707  1.0
  Y  Y1889  1  0.67824933  1.00000000  0.27568707  1.0
  Y  Y1890  1  0.05205717  0.27623050  0.15028657  1.0
  Y  Y1891  1  0.05205717  0.60956383  0.15028657  1.0
  Y  Y1892  1  0.05205717  0.94289717  0.15028657  1.0
  Y  Y1893  1  0.38539050  0.27623050  0.15028657  1.0
  Y  Y1894  1  0.38539050  0.60956383  0.15028657  1.0
  Y  Y1895  1  0.38539050  0.94289717  0.15028657  1.0
  Y  Y1896  1  0.71872383  0.27623050  0.15028657  1.0
  Y  Y1897  1  0.71872383  0.60956383  0.15028657  1.0
  Y  Y1898  1  0.71872383  0.94289717  0.15028657  1.0
  Y  Y1899  1  0.21872383  0.10956383  0.22171514  1.0
  Y  Y1900  1  0.21872383  0.44289717  0.22171514  1.0
  Y  Y1901  1  0.21872383  0.77623050  0.22171514  1.0
  Y  Y1902  1  0.55205717  0.10956383  0.22171514  1.0
  Y  Y1903  1  0.55205717  0.44289717  0.22171514  1.0
  Y  Y1904  1  0.55205717  0.77623050  0.22171514  1.0
  Y  Y1905  1  0.88539050  0.10956383  0.22171514  1.0
  Y  Y1906  1  0.88539050  0.44289717  0.22171514  1.0
  Y  Y1907  1  0.88539050  0.77623050  0.22171514  1.0
  Y  Y1908  1  0.28506583  0.26263283  0.19108686  1.0
  Y  Y1909  1  0.28506583  0.59596617  0.19108686  1.0
  Y  Y1910  1  0.28506583  0.92929950  0.19108686  1.0
  Y  Y1911  1  0.61839917  0.26263283  0.19108686  1.0
  Y  Y1912  1  0.61839917  0.59596617  0.19108686  1.0
  Y  Y1913  1  0.61839917  0.92929950  0.19108686  1.0
  Y  Y1914  1  0.95173250  0.26263283  0.19108686  1.0
  Y  Y1915  1  0.95173250  0.59596617  0.19108686  1.0
  Y  Y1916  1  0.95173250  0.92929950  0.19108686  1.0
  Y  Y1917  1  0.11839917  0.09596617  0.26251543  1.0
  Y  Y1918  1  0.11839917  0.42929950  0.26251543  1.0
  Y  Y1919  1  0.11839917  0.76263283  0.26251543  1.0
  Y  Y1920  1  0.45173250  0.09596617  0.26251543  1.0
  Y  Y1921  1  0.45173250  0.42929950  0.26251543  1.0
  Y  Y1922  1  0.45173250  0.76263283  0.26251543  1.0
  Y  Y1923  1  0.78506583  0.09596617  0.26251543  1.0
  Y  Y1924  1  0.78506583  0.42929950  0.26251543  1.0
  Y  Y1925  1  0.78506583  0.76263283  0.26251543  1.0
  Y  Y1926  1  0.31031250  0.30310217  0.20058371  1.0
  Y  Y1927  1  0.31031250  0.63643550  0.20058371  1.0
  Y  Y1928  1  0.31031250  0.96976883  0.20058371  1.0
  Y  Y1929  1  0.64364583  0.30310217  0.20058371  1.0
  Y  Y1930  1  0.64364583  0.63643550  0.20058371  1.0
  Y  Y1931  1  0.64364583  0.96976883  0.20058371  1.0
  Y  Y1932  1  0.97697917  0.30310217  0.20058371  1.0
  Y  Y1933  1  0.97697917  0.63643550  0.20058371  1.0
  Y  Y1934  1  0.97697917  0.96976883  0.20058371  1.0
  Y  Y1935  1  0.14364583  0.13643550  0.27201229  1.0
  Y  Y1936  1  0.14364583  0.46976883  0.27201229  1.0
  Y  Y1937  1  0.14364583  0.80310217  0.27201229  1.0
  Y  Y1938  1  0.47697917  0.13643550  0.27201229  1.0
  Y  Y1939  1  0.47697917  0.46976883  0.27201229  1.0
  Y  Y1940  1  0.47697917  0.80310217  0.27201229  1.0
  Y  Y1941  1  0.81031250  0.13643550  0.27201229  1.0
  Y  Y1942  1  0.81031250  0.46976883  0.27201229  1.0
  Y  Y1943  1  0.81031250  0.80310217  0.27201229  1.0
  Y  Y1944  1  0.06054733  0.16666667  0.16228879  1.0
  Y  Y1945  1  0.06054733  0.50000000  0.16228879  1.0
  Y  Y1946  1  0.06054733  0.83333333  0.16228879  1.0
  Y  Y1947  1  0.39388067  0.16666667  0.16228879  1.0
  Y  Y1948  1  0.39388067  0.50000000  0.16228879  1.0
  Y  Y1949  1  0.39388067  0.83333333  0.16228879  1.0
  Y  Y1950  1  0.72721400  0.16666667  0.16228879  1.0
  Y  Y1951  1  0.72721400  0.50000000  0.16228879  1.0
  Y  Y1952  1  0.72721400  0.83333333  0.16228879  1.0
  Y  Y1953  1  0.22721400  0.00000000  0.23371736  1.0
  Y  Y1954  1  0.22721400  0.33333333  0.23371736  1.0
  Y  Y1955  1  0.22721400  0.66666667  0.23371736  1.0
  Y  Y1956  1  0.56054733  0.00000000  0.23371736  1.0
  Y  Y1957  1  0.56054733  0.33333333  0.23371736  1.0
  Y  Y1958  1  0.56054733  0.66666667  0.23371736  1.0
  Y  Y1959  1  0.89388067  0.00000000  0.23371736  1.0
  Y  Y1960  1  0.89388067  0.33333333  0.23371736  1.0
  Y  Y1961  1  0.89388067  0.66666667  0.23371736  1.0
  Y  Y1962  1  0.10238833  0.21074167  0.14287664  1.0
  Y  Y1963  1  0.10238833  0.54407500  0.14287664  1.0
  Y  Y1964  1  0.10238833  0.87740833  0.14287664  1.0
  Y  Y1965  1  0.43572167  0.21074167  0.14287664  1.0
  Y  Y1966  1  0.43572167  0.54407500  0.14287664  1.0
  Y  Y1967  1  0.43572167  0.87740833  0.14287664  1.0
  Y  Y1968  1  0.76905500  0.21074167  0.14287664  1.0
  Y  Y1969  1  0.76905500  0.54407500  0.14287664  1.0
  Y  Y1970  1  0.76905500  0.87740833  0.14287664  1.0
  Y  Y1971  1  0.26905500  0.04407500  0.21430521  1.0
  Y  Y1972  1  0.26905500  0.37740833  0.21430521  1.0
  Y  Y1973  1  0.26905500  0.71074167  0.21430521  1.0
  Y  Y1974  1  0.60238833  0.04407500  0.21430521  1.0
  Y  Y1975  1  0.60238833  0.37740833  0.21430521  1.0
  Y  Y1976  1  0.60238833  0.71074167  0.21430521  1.0
  Y  Y1977  1  0.93572167  0.04407500  0.21430521  1.0
  Y  Y1978  1  0.93572167  0.37740833  0.21430521  1.0
  Y  Y1979  1  0.93572167  0.71074167  0.21430521  1.0
  Y  Y1980  1  0.31468750  0.23856450  0.27013729  1.0
  Y  Y1981  1  0.31468750  0.57189783  0.27013729  1.0
  Y  Y1982  1  0.31468750  0.90523117  0.27013729  1.0
  Y  Y1983  1  0.64802083  0.23856450  0.27013729  1.0
  Y  Y1984  1  0.64802083  0.57189783  0.27013729  1.0
  Y  Y1985  1  0.64802083  0.90523117  0.27013729  1.0
  Y  Y1986  1  0.98135417  0.23856450  0.27013729  1.0
  Y  Y1987  1  0.98135417  0.57189783  0.27013729  1.0
  Y  Y1988  1  0.98135417  0.90523117  0.27013729  1.0
  Y  Y1989  1  0.14802083  0.07189783  0.19870871  1.0
  Y  Y1990  1  0.14802083  0.40523117  0.19870871  1.0
  Y  Y1991  1  0.14802083  0.73856450  0.19870871  1.0
  Y  Y1992  1  0.48135417  0.07189783  0.19870871  1.0
  Y  Y1993  1  0.48135417  0.40523117  0.19870871  1.0
  Y  Y1994  1  0.48135417  0.73856450  0.19870871  1.0
  Y  Y1995  1  0.81468750  0.07189783  0.19870871  1.0
  Y  Y1996  1  0.81468750  0.40523117  0.19870871  1.0
  Y  Y1997  1  0.81468750  0.73856450  0.19870871  1.0
  Y  Y1998  1  0.06445267  0.20833333  0.23204364  1.0
  Y  Y1999  1  0.06445267  0.54166667  0.23204364  1.0
  Y  Y2000  1  0.06445267  0.87500000  0.23204364  1.0
  Y  Y2001  1  0.39778600  0.20833333  0.23204364  1.0
  Y  Y2002  1  0.39778600  0.54166667  0.23204364  1.0
  Y  Y2003  1  0.39778600  0.87500000  0.23204364  1.0
  Y  Y2004  1  0.73111933  0.20833333  0.23204364  1.0
  Y  Y2005  1  0.73111933  0.54166667  0.23204364  1.0
  Y  Y2006  1  0.73111933  0.87500000  0.23204364  1.0
  Y  Y2007  1  0.23111933  0.04166667  0.16061507  1.0
  Y  Y2008  1  0.23111933  0.37500000  0.16061507  1.0
  Y  Y2009  1  0.23111933  0.70833333  0.16061507  1.0
  Y  Y2010  1  0.56445267  0.04166667  0.16061507  1.0
  Y  Y2011  1  0.56445267  0.37500000  0.16061507  1.0
  Y  Y2012  1  0.56445267  0.70833333  0.16061507  1.0
  Y  Y2013  1  0.89778600  0.04166667  0.16061507  1.0
  Y  Y2014  1  0.89778600  0.37500000  0.16061507  1.0
  Y  Y2015  1  0.89778600  0.70833333  0.16061507  1.0
  Y  Y2016  1  0.07175067  0.25000000  0.25982879  1.0
  Y  Y2017  1  0.07175067  0.58333333  0.25982879  1.0
  Y  Y2018  1  0.07175067  0.91666667  0.25982879  1.0
  Y  Y2019  1  0.40508400  0.25000000  0.25982879  1.0
  Y  Y2020  1  0.40508400  0.58333333  0.25982879  1.0
  Y  Y2021  1  0.40508400  0.91666667  0.25982879  1.0
  Y  Y2022  1  0.73841733  0.25000000  0.25982879  1.0
  Y  Y2023  1  0.73841733  0.58333333  0.25982879  1.0
  Y  Y2024  1  0.73841733  0.91666667  0.25982879  1.0
  Y  Y2025  1  0.23841733  0.08333333  0.18840021  1.0
  Y  Y2026  1  0.23841733  0.41666667  0.18840021  1.0
  Y  Y2027  1  0.23841733  0.75000000  0.18840021  1.0
  Y  Y2028  1  0.57175067  0.08333333  0.18840021  1.0
  Y  Y2029  1  0.57175067  0.41666667  0.18840021  1.0
  Y  Y2030  1  0.57175067  0.75000000  0.18840021  1.0
  Y  Y2031  1  0.90508400  0.08333333  0.18840021  1.0
  Y  Y2032  1  0.90508400  0.41666667  0.18840021  1.0
  Y  Y2033  1  0.90508400  0.75000000  0.18840021  1.0
  Y  Y2034  1  0.27474300  0.28925833  0.17652664  1.0
  Y  Y2035  1  0.27474300  0.62259167  0.17652664  1.0
  Y  Y2036  1  0.27474300  0.95592500  0.17652664  1.0
  Y  Y2037  1  0.60807633  0.28925833  0.17652664  1.0
  Y  Y2038  1  0.60807633  0.62259167  0.17652664  1.0
  Y  Y2039  1  0.60807633  0.95592500  0.17652664  1.0
  Y  Y2040  1  0.94140967  0.28925833  0.17652664  1.0
  Y  Y2041  1  0.94140967  0.62259167  0.17652664  1.0
  Y  Y2042  1  0.94140967  0.95592500  0.17652664  1.0
  Y  Y2043  1  0.10807633  0.12259167  0.24795521  1.0
  Y  Y2044  1  0.10807633  0.45592500  0.24795521  1.0
  Y  Y2045  1  0.10807633  0.78925833  0.24795521  1.0
  Y  Y2046  1  0.44140967  0.12259167  0.24795521  1.0
  Y  Y2047  1  0.44140967  0.45592500  0.24795521  1.0
  Y  Y2048  1  0.44140967  0.78925833  0.24795521  1.0
  Y  Y2049  1  0.77474300  0.12259167  0.24795521  1.0
  Y  Y2050  1  0.77474300  0.45592500  0.24795521  1.0
  Y  Y2051  1  0.77474300  0.78925833  0.24795521  1.0
  Y  Y2052  1  0.21453383  0.22096617  0.21411429  1.0
  Y  Y2053  1  0.21453383  0.55429950  0.21411429  1.0
  Y  Y2054  1  0.21453383  0.88763283  0.21411429  1.0
  Y  Y2055  1  0.54786717  0.22096617  0.21411429  1.0
  Y  Y2056  1  0.54786717  0.55429950  0.21411429  1.0
  Y  Y2057  1  0.54786717  0.88763283  0.21411429  1.0
  Y  Y2058  1  0.88120050  0.22096617  0.21411429  1.0
  Y  Y2059  1  0.88120050  0.55429950  0.21411429  1.0
  Y  Y2060  1  0.88120050  0.88763283  0.21411429  1.0
  Y  Y2061  1  0.04786717  0.05429950  0.28554286  1.0
  Y  Y2062  1  0.04786717  0.38763283  0.28554286  1.0
  Y  Y2063  1  0.04786717  0.72096617  0.28554286  1.0
  Y  Y2064  1  0.38120050  0.05429950  0.28554286  1.0
  Y  Y2065  1  0.38120050  0.38763283  0.28554286  1.0
  Y  Y2066  1  0.38120050  0.72096617  0.28554286  1.0
  Y  Y2067  1  0.71453383  0.05429950  0.28554286  1.0
  Y  Y2068  1  0.71453383  0.38763283  0.28554286  1.0
  Y  Y2069  1  0.71453383  0.72096617  0.28554286  1.0
  Y  Y2070  1  0.02452950  0.19689783  0.15506757  1.0
  Y  Y2071  1  0.02452950  0.53023117  0.15506757  1.0
  Y  Y2072  1  0.02452950  0.86356450  0.15506757  1.0
  Y  Y2073  1  0.35786283  0.19689783  0.15506757  1.0
  Y  Y2074  1  0.35786283  0.53023117  0.15506757  1.0
  Y  Y2075  1  0.35786283  0.86356450  0.15506757  1.0
  Y  Y2076  1  0.69119617  0.19689783  0.15506757  1.0
  Y  Y2077  1  0.69119617  0.53023117  0.15506757  1.0
  Y  Y2078  1  0.69119617  0.86356450  0.15506757  1.0
  Y  Y2079  1  0.19119617  0.03023117  0.22649614  1.0
  Y  Y2080  1  0.19119617  0.36356450  0.22649614  1.0
  Y  Y2081  1  0.19119617  0.69689783  0.22649614  1.0
  Y  Y2082  1  0.52452950  0.03023117  0.22649614  1.0
  Y  Y2083  1  0.52452950  0.36356450  0.22649614  1.0
  Y  Y2084  1  0.52452950  0.69689783  0.22649614  1.0
  Y  Y2085  1  0.85786283  0.03023117  0.22649614  1.0
  Y  Y2086  1  0.85786283  0.36356450  0.22649614  1.0
  Y  Y2087  1  0.85786283  0.69689783  0.22649614  1.0
  Y  Y2088  1  0.18927833  0.33092500  0.17706664  1.0
  Y  Y2089  1  0.18927833  0.66425833  0.17706664  1.0
  Y  Y2090  1  0.18927833  0.99759167  0.17706664  1.0
  Y  Y2091  1  0.52261167  0.33092500  0.17706664  1.0
  Y  Y2092  1  0.52261167  0.66425833  0.17706664  1.0
  Y  Y2093  1  0.52261167  0.99759167  0.17706664  1.0
  Y  Y2094  1  0.85594500  0.33092500  0.17706664  1.0
  Y  Y2095  1  0.85594500  0.66425833  0.17706664  1.0
  Y  Y2096  1  0.85594500  0.99759167  0.17706664  1.0
  Y  Y2097  1  0.02261167  0.16425833  0.24849521  1.0
  Y  Y2098  1  0.02261167  0.49759167  0.24849521  1.0
  Y  Y2099  1  0.02261167  0.83092500  0.24849521  1.0
  Y  Y2100  1  0.35594500  0.16425833  0.24849521  1.0
  Y  Y2101  1  0.35594500  0.49759167  0.24849521  1.0
  Y  Y2102  1  0.35594500  0.83092500  0.24849521  1.0
  Y  Y2103  1  0.68927833  0.16425833  0.24849521  1.0
  Y  Y2104  1  0.68927833  0.49759167  0.24849521  1.0
  Y  Y2105  1  0.68927833  0.83092500  0.24849521  1.0
  Y  Y2106  1  0.23960950  0.26543617  0.28419271  1.0
  Y  Y2107  1  0.23960950  0.59876950  0.28419271  1.0
  Y  Y2108  1  0.23960950  0.93210283  0.28419271  1.0
  Y  Y2109  1  0.57294283  0.26543617  0.28419271  1.0
  Y  Y2110  1  0.57294283  0.59876950  0.28419271  1.0
  Y  Y2111  1  0.57294283  0.93210283  0.28419271  1.0
  Y  Y2112  1  0.90627617  0.26543617  0.28419271  1.0
  Y  Y2113  1  0.90627617  0.59876950  0.28419271  1.0
  Y  Y2114  1  0.90627617  0.93210283  0.28419271  1.0
  Y  Y2115  1  0.07294283  0.09876950  0.21276414  1.0
  Y  Y2116  1  0.07294283  0.43210283  0.21276414  1.0
  Y  Y2117  1  0.07294283  0.76543617  0.21276414  1.0
  Y  Y2118  1  0.40627617  0.09876950  0.21276414  1.0
  Y  Y2119  1  0.40627617  0.43210283  0.21276414  1.0
  Y  Y2120  1  0.40627617  0.76543617  0.21276414  1.0
  Y  Y2121  1  0.73960950  0.09876950  0.21276414  1.0
  Y  Y2122  1  0.73960950  0.43210283  0.21276414  1.0
  Y  Y2123  1  0.73960950  0.76543617  0.21276414  1.0
  Y  Y2124  1  0.23220500  0.24759167  0.21352779  1.0
  Y  Y2125  1  0.23220500  0.58092500  0.21352779  1.0
  Y  Y2126  1  0.23220500  0.91425833  0.21352779  1.0
  Y  Y2127  1  0.56553833  0.24759167  0.21352779  1.0
  Y  Y2128  1  0.56553833  0.58092500  0.21352779  1.0
  Y  Y2129  1  0.56553833  0.91425833  0.21352779  1.0
  Y  Y2130  1  0.89887167  0.24759167  0.21352779  1.0
  Y  Y2131  1  0.89887167  0.58092500  0.21352779  1.0
  Y  Y2132  1  0.89887167  0.91425833  0.21352779  1.0
  Y  Y2133  1  0.06553833  0.08092500  0.28495636  1.0
  Y  Y2134  1  0.06553833  0.41425833  0.28495636  1.0
  Y  Y2135  1  0.06553833  0.74759167  0.28495636  1.0
  Y  Y2136  1  0.39887167  0.08092500  0.28495636  1.0
  Y  Y2137  1  0.39887167  0.41425833  0.28495636  1.0
  Y  Y2138  1  0.39887167  0.74759167  0.28495636  1.0
  Y  Y2139  1  0.73220500  0.08092500  0.28495636  1.0
  Y  Y2140  1  0.73220500  0.41425833  0.28495636  1.0
  Y  Y2141  1  0.73220500  0.74759167  0.28495636  1.0
  Y  Y2142  1  0.01692367  0.25240833  0.21559207  1.0
  Y  Y2143  1  0.01692367  0.58574167  0.21559207  1.0
  Y  Y2144  1  0.01692367  0.91907500  0.21559207  1.0
  Y  Y2145  1  0.35025700  0.25240833  0.21559207  1.0
  Y  Y2146  1  0.35025700  0.58574167  0.21559207  1.0
  Y  Y2147  1  0.35025700  0.91907500  0.21559207  1.0
  Y  Y2148  1  0.68359033  0.25240833  0.21559207  1.0
  Y  Y2149  1  0.68359033  0.58574167  0.21559207  1.0
  Y  Y2150  1  0.68359033  0.91907500  0.21559207  1.0
  Y  Y2151  1  0.18359033  0.08574167  0.14416350  1.0
  Y  Y2152  1  0.18359033  0.41907500  0.14416350  1.0
  Y  Y2153  1  0.18359033  0.75240833  0.14416350  1.0
  Y  Y2154  1  0.51692367  0.08574167  0.14416350  1.0
  Y  Y2155  1  0.51692367  0.41907500  0.14416350  1.0
  Y  Y2156  1  0.51692367  0.75240833  0.14416350  1.0
  Y  Y2157  1  0.85025700  0.08574167  0.14416350  1.0
  Y  Y2158  1  0.85025700  0.41907500  0.14416350  1.0
  Y  Y2159  1  0.85025700  0.75240833  0.14416350  1.0
  Y  Y2160  1  0.27300183  0.17929950  0.28382857  1.0
  Y  Y2161  1  0.27300183  0.51263283  0.28382857  1.0
  Y  Y2162  1  0.27300183  0.84596617  0.28382857  1.0
  Y  Y2163  1  0.60633517  0.17929950  0.28382857  1.0
  Y  Y2164  1  0.60633517  0.51263283  0.28382857  1.0
  Y  Y2165  1  0.60633517  0.84596617  0.28382857  1.0
  Y  Y2166  1  0.93966850  0.17929950  0.28382857  1.0
  Y  Y2167  1  0.93966850  0.51263283  0.28382857  1.0
  Y  Y2168  1  0.93966850  0.84596617  0.28382857  1.0
  Y  Y2169  1  0.10633517  0.01263283  0.21240000  1.0
  Y  Y2170  1  0.10633517  0.34596617  0.21240000  1.0
  Y  Y2171  1  0.10633517  0.67929950  0.21240000  1.0
  Y  Y2172  1  0.43966850  0.01263283  0.21240000  1.0
  Y  Y2173  1  0.43966850  0.34596617  0.21240000  1.0
  Y  Y2174  1  0.43966850  0.67929950  0.21240000  1.0
  Y  Y2175  1  0.77300183  0.01263283  0.21240000  1.0
  Y  Y2176  1  0.77300183  0.34596617  0.21240000  1.0
  Y  Y2177  1  0.77300183  0.67929950  0.21240000  1.0
  Y  Y2178  1  0.14807633  0.18155233  0.24553621  1.0
  Y  Y2179  1  0.14807633  0.51488567  0.24553621  1.0
  Y  Y2180  1  0.14807633  0.84821900  0.24553621  1.0
  Y  Y2181  1  0.48140967  0.18155233  0.24553621  1.0
  Y  Y2182  1  0.48140967  0.51488567  0.24553621  1.0
  Y  Y2183  1  0.48140967  0.84821900  0.24553621  1.0
  Y  Y2184  1  0.81474300  0.18155233  0.24553621  1.0
  Y  Y2185  1  0.81474300  0.51488567  0.24553621  1.0
  Y  Y2186  1  0.81474300  0.84821900  0.24553621  1.0
  Y  Y2187  1  0.31474300  0.01488567  0.17410764  1.0
  Y  Y2188  1  0.31474300  0.34821900  0.17410764  1.0
  Y  Y2189  1  0.31474300  0.68155233  0.17410764  1.0
  Y  Y2190  1  0.64807633  0.01488567  0.17410764  1.0
  Y  Y2191  1  0.64807633  0.34821900  0.17410764  1.0
  Y  Y2192  1  0.64807633  0.68155233  0.17410764  1.0
  Y  Y2193  1  0.98140967  0.01488567  0.17410764  1.0
  Y  Y2194  1  0.98140967  0.34821900  0.17410764  1.0
  Y  Y2195  1  0.98140967  0.68155233  0.17410764  1.0
  Y  Y2196  1  0.21951433  0.27678100  0.23958364  1.0
  Y  Y2197  1  0.21951433  0.61011433  0.23958364  1.0
  Y  Y2198  1  0.21951433  0.94344767  0.23958364  1.0
  Y  Y2199  1  0.55284767  0.27678100  0.23958364  1.0
  Y  Y2200  1  0.55284767  0.61011433  0.23958364  1.0
  Y  Y2201  1  0.55284767  0.94344767  0.23958364  1.0
  Y  Y2202  1  0.88618100  0.27678100  0.23958364  1.0
  Y  Y2203  1  0.88618100  0.61011433  0.23958364  1.0
  Y  Y2204  1  0.88618100  0.94344767  0.23958364  1.0
  Y  Y2205  1  0.05284767  0.11011433  0.16815507  1.0
  Y  Y2206  1  0.05284767  0.44344767  0.16815507  1.0
  Y  Y2207  1  0.05284767  0.77678100  0.16815507  1.0
  Y  Y2208  1  0.38618100  0.11011433  0.16815507  1.0
  Y  Y2209  1  0.38618100  0.44344767  0.16815507  1.0
  Y  Y2210  1  0.38618100  0.77678100  0.16815507  1.0
  Y  Y2211  1  0.71951433  0.11011433  0.16815507  1.0
  Y  Y2212  1  0.71951433  0.44344767  0.16815507  1.0
  Y  Y2213  1  0.71951433  0.77678100  0.16815507  1.0
  Y  Y2214  1  0.14548183  0.19289717  0.19342686  1.0
  Y  Y2215  1  0.14548183  0.52623050  0.19342686  1.0
  Y  Y2216  1  0.14548183  0.85956383  0.19342686  1.0
  Y  Y2217  1  0.47881517  0.19289717  0.19342686  1.0
  Y  Y2218  1  0.47881517  0.52623050  0.19342686  1.0
  Y  Y2219  1  0.47881517  0.85956383  0.19342686  1.0
  Y  Y2220  1  0.81214850  0.19289717  0.19342686  1.0
  Y  Y2221  1  0.81214850  0.52623050  0.19342686  1.0
  Y  Y2222  1  0.81214850  0.85956383  0.19342686  1.0
  Y  Y2223  1  0.31214850  0.02623050  0.26485543  1.0
  Y  Y2224  1  0.31214850  0.35956383  0.26485543  1.0
  Y  Y2225  1  0.31214850  0.69289717  0.26485543  1.0
  Y  Y2226  1  0.64548183  0.02623050  0.26485543  1.0
  Y  Y2227  1  0.64548183  0.35956383  0.26485543  1.0
  Y  Y2228  1  0.64548183  0.69289717  0.26485543  1.0
  Y  Y2229  1  0.97881517  0.02623050  0.26485543  1.0
  Y  Y2230  1  0.97881517  0.35956383  0.26485543  1.0
  Y  Y2231  1  0.97881517  0.69289717  0.26485543  1.0
  Y  Y2232  1  0.25172683  0.31789717  0.25132314  1.0
  Y  Y2233  1  0.25172683  0.65123050  0.25132314  1.0
  Y  Y2234  1  0.25172683  0.98456383  0.25132314  1.0
  Y  Y2235  1  0.58506017  0.31789717  0.25132314  1.0
  Y  Y2236  1  0.58506017  0.65123050  0.25132314  1.0
  Y  Y2237  1  0.58506017  0.98456383  0.25132314  1.0
  Y  Y2238  1  0.91839350  0.31789717  0.25132314  1.0
  Y  Y2239  1  0.91839350  0.65123050  0.25132314  1.0
  Y  Y2240  1  0.91839350  0.98456383  0.25132314  1.0
  Y  Y2241  1  0.08506017  0.15123050  0.17989457  1.0
  Y  Y2242  1  0.08506017  0.48456383  0.17989457  1.0
  Y  Y2243  1  0.08506017  0.81789717  0.17989457  1.0
  Y  Y2244  1  0.41839350  0.15123050  0.17989457  1.0
  Y  Y2245  1  0.41839350  0.48456383  0.17989457  1.0
  Y  Y2246  1  0.41839350  0.81789717  0.17989457  1.0
  Y  Y2247  1  0.75172683  0.15123050  0.17989457  1.0
  Y  Y2248  1  0.75172683  0.48456383  0.17989457  1.0
  Y  Y2249  1  0.75172683  0.81789717  0.17989457  1.0
  Y  Y2250  1  0.09585450  0.30710283  0.24237214  1.0
  Y  Y2251  1  0.09585450  0.64043617  0.24237214  1.0
  Y  Y2252  1  0.09585450  0.97376950  0.24237214  1.0
  Y  Y2253  1  0.42918783  0.30710283  0.24237214  1.0
  Y  Y2254  1  0.42918783  0.64043617  0.24237214  1.0
  Y  Y2255  1  0.42918783  0.97376950  0.24237214  1.0
  Y  Y2256  1  0.76252117  0.30710283  0.24237214  1.0
  Y  Y2257  1  0.76252117  0.64043617  0.24237214  1.0
  Y  Y2258  1  0.76252117  0.97376950  0.24237214  1.0
  Y  Y2259  1  0.26252117  0.14043617  0.17094357  1.0
  Y  Y2260  1  0.26252117  0.47376950  0.17094357  1.0
  Y  Y2261  1  0.26252117  0.80710283  0.17094357  1.0
  Y  Y2262  1  0.59585450  0.14043617  0.17094357  1.0
  Y  Y2263  1  0.59585450  0.47376950  0.17094357  1.0
  Y  Y2264  1  0.59585450  0.80710283  0.17094357  1.0
  Y  Y2265  1  0.92918783  0.14043617  0.17094357  1.0
  Y  Y2266  1  0.92918783  0.47376950  0.17094357  1.0
  Y  Y2267  1  0.92918783  0.80710283  0.17094357  1.0
  Y  Y2268  1  0.03146617  0.23736717  0.18025871  1.0
  Y  Y2269  1  0.03146617  0.57070050  0.18025871  1.0
  Y  Y2270  1  0.03146617  0.90403383  0.18025871  1.0
  Y  Y2271  1  0.36479950  0.23736717  0.18025871  1.0
  Y  Y2272  1  0.36479950  0.57070050  0.18025871  1.0
  Y  Y2273  1  0.36479950  0.90403383  0.18025871  1.0
  Y  Y2274  1  0.69813283  0.23736717  0.18025871  1.0
  Y  Y2275  1  0.69813283  0.57070050  0.18025871  1.0
  Y  Y2276  1  0.69813283  0.90403383  0.18025871  1.0
  Y  Y2277  1  0.19813283  0.07070050  0.25168729  1.0
  Y  Y2278  1  0.19813283  0.40403383  0.25168729  1.0
  Y  Y2279  1  0.19813283  0.73736717  0.25168729  1.0
  Y  Y2280  1  0.53146617  0.07070050  0.25168729  1.0
  Y  Y2281  1  0.53146617  0.40403383  0.25168729  1.0
  Y  Y2282  1  0.53146617  0.73736717  0.25168729  1.0
  Y  Y2283  1  0.86479950  0.07070050  0.25168729  1.0
  Y  Y2284  1  0.86479950  0.40403383  0.25168729  1.0
  Y  Y2285  1  0.86479950  0.73736717  0.25168729  1.0
  Y  Y2286  1  0.18533150  0.19570050  0.24997300  1.0
  Y  Y2287  1  0.18533150  0.52903383  0.24997300  1.0
  Y  Y2288  1  0.18533150  0.86236717  0.24997300  1.0
  Y  Y2289  1  0.51866483  0.19570050  0.24997300  1.0
  Y  Y2290  1  0.51866483  0.52903383  0.24997300  1.0
  Y  Y2291  1  0.51866483  0.86236717  0.24997300  1.0
  Y  Y2292  1  0.85199817  0.19570050  0.24997300  1.0
  Y  Y2293  1  0.85199817  0.52903383  0.24997300  1.0
  Y  Y2294  1  0.85199817  0.86236717  0.24997300  1.0
  Y  Y2295  1  0.01866483  0.02903383  0.17854443  1.0
  Y  Y2296  1  0.01866483  0.36236717  0.17854443  1.0
  Y  Y2297  1  0.01866483  0.69570050  0.17854443  1.0
  Y  Y2298  1  0.35199817  0.02903383  0.17854443  1.0
  Y  Y2299  1  0.35199817  0.36236717  0.17854443  1.0
  Y  Y2300  1  0.35199817  0.69570050  0.17854443  1.0
  Y  Y2301  1  0.68533150  0.02903383  0.17854443  1.0
  Y  Y2302  1  0.68533150  0.36236717  0.17854443  1.0
  Y  Y2303  1  0.68533150  0.69570050  0.17854443  1.0
  Ni  Ni2304  1  0.02010833  0.30931367  0.22750207  1.0
  Ni  Ni2305  1  0.02010833  0.64264700  0.22750207  1.0
  Ni  Ni2306  1  0.02010833  0.97598033  0.22750207  1.0
  Ni  Ni2307  1  0.35344167  0.30931367  0.22750207  1.0
  Ni  Ni2308  1  0.35344167  0.64264700  0.22750207  1.0
  Ni  Ni2309  1  0.35344167  0.97598033  0.22750207  1.0
  Ni  Ni2310  1  0.68677500  0.30931367  0.22750207  1.0
  Ni  Ni2311  1  0.68677500  0.64264700  0.22750207  1.0
  Ni  Ni2312  1  0.68677500  0.97598033  0.22750207  1.0
  Ni  Ni2313  1  0.18677500  0.14264700  0.15607350  1.0
  Ni  Ni2314  1  0.18677500  0.47598033  0.15607350  1.0
  Ni  Ni2315  1  0.18677500  0.80931367  0.15607350  1.0
  Ni  Ni2316  1  0.52010833  0.14264700  0.15607350  1.0
  Ni  Ni2317  1  0.52010833  0.47598033  0.15607350  1.0
  Ni  Ni2318  1  0.52010833  0.80931367  0.15607350  1.0
  Ni  Ni2319  1  0.85344167  0.14264700  0.15607350  1.0
  Ni  Ni2320  1  0.85344167  0.47598033  0.15607350  1.0
  Ni  Ni2321  1  0.85344167  0.80931367  0.15607350  1.0
  Ni  Ni2322  1  0.30298133  0.32938633  0.24516707  1.0
  Ni  Ni2323  1  0.30298133  0.66271967  0.24516707  1.0
  Ni  Ni2324  1  0.30298133  0.99605300  0.24516707  1.0
  Ni  Ni2325  1  0.63631467  0.32938633  0.24516707  1.0
  Ni  Ni2326  1  0.63631467  0.66271967  0.24516707  1.0
  Ni  Ni2327  1  0.63631467  0.99605300  0.24516707  1.0
  Ni  Ni2328  1  0.96964800  0.32938633  0.24516707  1.0
  Ni  Ni2329  1  0.96964800  0.66271967  0.24516707  1.0
  Ni  Ni2330  1  0.96964800  0.99605300  0.24516707  1.0
  Ni  Ni2331  1  0.13631467  0.16271967  0.17373850  1.0
  Ni  Ni2332  1  0.13631467  0.49605300  0.17373850  1.0
  Ni  Ni2333  1  0.13631467  0.82938633  0.17373850  1.0
  Ni  Ni2334  1  0.46964800  0.16271967  0.17373850  1.0
  Ni  Ni2335  1  0.46964800  0.49605300  0.17373850  1.0
  Ni  Ni2336  1  0.46964800  0.82938633  0.17373850  1.0
  Ni  Ni2337  1  0.80298133  0.16271967  0.17373850  1.0
  Ni  Ni2338  1  0.80298133  0.49605300  0.17373850  1.0
  Ni  Ni2339  1  0.80298133  0.82938633  0.17373850  1.0
  Ni  Ni2340  1  0.00367767  0.28771967  0.19791079  1.0
  Ni  Ni2341  1  0.00367767  0.62105300  0.19791079  1.0
  Ni  Ni2342  1  0.00367767  0.95438633  0.19791079  1.0
  Ni  Ni2343  1  0.33701100  0.28771967  0.19791079  1.0
  Ni  Ni2344  1  0.33701100  0.62105300  0.19791079  1.0
  Ni  Ni2345  1  0.33701100  0.95438633  0.19791079  1.0
  Ni  Ni2346  1  0.67034433  0.28771967  0.19791079  1.0
  Ni  Ni2347  1  0.67034433  0.62105300  0.19791079  1.0
  Ni  Ni2348  1  0.67034433  0.95438633  0.19791079  1.0
  Ni  Ni2349  1  0.17034433  0.12105300  0.26933936  1.0
  Ni  Ni2350  1  0.17034433  0.45438633  0.26933936  1.0
  Ni  Ni2351  1  0.17034433  0.78771967  0.26933936  1.0
  Ni  Ni2352  1  0.50367767  0.12105300  0.26933936  1.0
  Ni  Ni2353  1  0.50367767  0.45438633  0.26933936  1.0
  Ni  Ni2354  1  0.50367767  0.78771967  0.26933936  1.0
  Ni  Ni2355  1  0.83701100  0.12105300  0.26933936  1.0
  Ni  Ni2356  1  0.83701100  0.45438633  0.26933936  1.0
  Ni  Ni2357  1  0.83701100  0.78771967  0.26933936  1.0
  Ni  Ni2358  1  0.01450833  0.26764700  0.20629236  1.0
  Ni  Ni2359  1  0.01450833  0.60098033  0.20629236  1.0
  Ni  Ni2360  1  0.01450833  0.93431367  0.20629236  1.0
  Ni  Ni2361  1  0.34784167  0.26764700  0.20629236  1.0
  Ni  Ni2362  1  0.34784167  0.60098033  0.20629236  1.0
  Ni  Ni2363  1  0.34784167  0.93431367  0.20629236  1.0
  Ni  Ni2364  1  0.68117500  0.26764700  0.20629236  1.0
  Ni  Ni2365  1  0.68117500  0.60098033  0.20629236  1.0
  Ni  Ni2366  1  0.68117500  0.93431367  0.20629236  1.0
  Ni  Ni2367  1  0.18117500  0.10098033  0.27772093  1.0
  Ni  Ni2368  1  0.18117500  0.43431367  0.27772093  1.0
  Ni  Ni2369  1  0.18117500  0.76764700  0.27772093  1.0
  Ni  Ni2370  1  0.51450833  0.10098033  0.27772093  1.0
  Ni  Ni2371  1  0.51450833  0.43431367  0.27772093  1.0
  Ni  Ni2372  1  0.51450833  0.76764700  0.27772093  1.0
  Ni  Ni2373  1  0.84784167  0.10098033  0.27772093  1.0
  Ni  Ni2374  1  0.84784167  0.43431367  0.27772093  1.0
  Ni  Ni2375  1  0.84784167  0.76764700  0.27772093  1.0
  Ni  Ni2376  1  0.19642850  0.29977683  0.22869400  1.0
  Ni  Ni2377  1  0.19642850  0.63311017  0.22869400  1.0
  Ni  Ni2378  1  0.19642850  0.96644350  0.22869400  1.0
  Ni  Ni2379  1  0.52976183  0.29977683  0.22869400  1.0
  Ni  Ni2380  1  0.52976183  0.63311017  0.22869400  1.0
  Ni  Ni2381  1  0.52976183  0.96644350  0.22869400  1.0
  Ni  Ni2382  1  0.86309517  0.29977683  0.22869400  1.0
  Ni  Ni2383  1  0.86309517  0.63311017  0.22869400  1.0
  Ni  Ni2384  1  0.86309517  0.96644350  0.22869400  1.0
  Ni  Ni2385  1  0.02976183  0.13311017  0.15726543  1.0
  Ni  Ni2386  1  0.02976183  0.46644350  0.15726543  1.0
  Ni  Ni2387  1  0.02976183  0.79977683  0.15726543  1.0
  Ni  Ni2388  1  0.36309517  0.13311017  0.15726543  1.0
  Ni  Ni2389  1  0.36309517  0.46644350  0.15726543  1.0
  Ni  Ni2390  1  0.36309517  0.79977683  0.15726543  1.0
  Ni  Ni2391  1  0.69642850  0.13311017  0.15726543  1.0
  Ni  Ni2392  1  0.69642850  0.46644350  0.15726543  1.0
  Ni  Ni2393  1  0.69642850  0.79977683  0.15726543  1.0
  Ni  Ni2394  1  0.09523817  0.24188983  0.20063271  1.0
  Ni  Ni2395  1  0.09523817  0.57522317  0.20063271  1.0
  Ni  Ni2396  1  0.09523817  0.90855650  0.20063271  1.0
  Ni  Ni2397  1  0.42857150  0.24188983  0.20063271  1.0
  Ni  Ni2398  1  0.42857150  0.57522317  0.20063271  1.0
  Ni  Ni2399  1  0.42857150  0.90855650  0.20063271  1.0
  Ni  Ni2400  1  0.76190483  0.24188983  0.20063271  1.0
  Ni  Ni2401  1  0.76190483  0.57522317  0.20063271  1.0
  Ni  Ni2402  1  0.76190483  0.90855650  0.20063271  1.0
  Ni  Ni2403  1  0.26190483  0.07522317  0.27206129  1.0
  Ni  Ni2404  1  0.26190483  0.40855650  0.27206129  1.0
  Ni  Ni2405  1  0.26190483  0.74188983  0.27206129  1.0
  Ni  Ni2406  1  0.59523817  0.07522317  0.27206129  1.0
  Ni  Ni2407  1  0.59523817  0.40855650  0.27206129  1.0
  Ni  Ni2408  1  0.59523817  0.74188983  0.27206129  1.0
  Ni  Ni2409  1  0.92857150  0.07522317  0.27206129  1.0
  Ni  Ni2410  1  0.92857150  0.40855650  0.27206129  1.0
  Ni  Ni2411  1  0.92857150  0.74188983  0.27206129  1.0
  Ni  Ni2412  1  0.27155833  0.23235300  0.19116636  1.0
  Ni  Ni2413  1  0.27155833  0.56568633  0.19116636  1.0
  Ni  Ni2414  1  0.27155833  0.89901967  0.19116636  1.0
  Ni  Ni2415  1  0.60489167  0.23235300  0.19116636  1.0
  Ni  Ni2416  1  0.60489167  0.56568633  0.19116636  1.0
  Ni  Ni2417  1  0.60489167  0.89901967  0.19116636  1.0
  Ni  Ni2418  1  0.93822500  0.23235300  0.19116636  1.0
  Ni  Ni2419  1  0.93822500  0.56568633  0.19116636  1.0
  Ni  Ni2420  1  0.93822500  0.89901967  0.19116636  1.0
  Ni  Ni2421  1  0.10489167  0.06568633  0.26259493  1.0
  Ni  Ni2422  1  0.10489167  0.39901967  0.26259493  1.0
  Ni  Ni2423  1  0.10489167  0.73235300  0.26259493  1.0
  Ni  Ni2424  1  0.43822500  0.06568633  0.26259493  1.0
  Ni  Ni2425  1  0.43822500  0.39901967  0.26259493  1.0
  Ni  Ni2426  1  0.43822500  0.73235300  0.26259493  1.0
  Ni  Ni2427  1  0.77155833  0.06568633  0.26259493  1.0
  Ni  Ni2428  1  0.77155833  0.39901967  0.26259493  1.0
  Ni  Ni2429  1  0.77155833  0.73235300  0.26259493  1.0
  Ni  Ni2430  1  0.00431550  0.32522317  0.18507443  1.0
  Ni  Ni2431  1  0.00431550  0.65855650  0.18507443  1.0
  Ni  Ni2432  1  0.00431550  0.99188983  0.18507443  1.0
  Ni  Ni2433  1  0.33764883  0.32522317  0.18507443  1.0
  Ni  Ni2434  1  0.33764883  0.65855650  0.18507443  1.0
  Ni  Ni2435  1  0.33764883  0.99188983  0.18507443  1.0
  Ni  Ni2436  1  0.67098217  0.32522317  0.18507443  1.0
  Ni  Ni2437  1  0.67098217  0.65855650  0.18507443  1.0
  Ni  Ni2438  1  0.67098217  0.99188983  0.18507443  1.0
  Ni  Ni2439  1  0.17098217  0.15855650  0.25650300  1.0
  Ni  Ni2440  1  0.17098217  0.49188983  0.25650300  1.0
  Ni  Ni2441  1  0.17098217  0.82522317  0.25650300  1.0
  Ni  Ni2442  1  0.50431550  0.15855650  0.25650300  1.0
  Ni  Ni2443  1  0.50431550  0.49188983  0.25650300  1.0
  Ni  Ni2444  1  0.50431550  0.82522317  0.25650300  1.0
  Ni  Ni2445  1  0.83764883  0.15855650  0.25650300  1.0
  Ni  Ni2446  1  0.83764883  0.49188983  0.25650300  1.0
  Ni  Ni2447  1  0.83764883  0.82522317  0.25650300  1.0
  Ni  Ni2448  1  0.28745033  0.17061367  0.17712164  1.0
  Ni  Ni2449  1  0.28745033  0.50394700  0.17712164  1.0
  Ni  Ni2450  1  0.28745033  0.83728033  0.17712164  1.0
  Ni  Ni2451  1  0.62078367  0.17061367  0.17712164  1.0
  Ni  Ni2452  1  0.62078367  0.50394700  0.17712164  1.0
  Ni  Ni2453  1  0.62078367  0.83728033  0.17712164  1.0
  Ni  Ni2454  1  0.95411700  0.17061367  0.17712164  1.0
  Ni  Ni2455  1  0.95411700  0.50394700  0.17712164  1.0
  Ni  Ni2456  1  0.95411700  0.83728033  0.17712164  1.0
  Ni  Ni2457  1  0.12078367  0.00394700  0.24855021  1.0
  Ni  Ni2458  1  0.12078367  0.33728033  0.24855021  1.0
  Ni  Ni2459  1  0.12078367  0.67061367  0.24855021  1.0
  Ni  Ni2460  1  0.45411700  0.00394700  0.24855021  1.0
  Ni  Ni2461  1  0.45411700  0.33728033  0.24855021  1.0
  Ni  Ni2462  1  0.45411700  0.67061367  0.24855021  1.0
  Ni  Ni2463  1  0.78745033  0.00394700  0.24855021  1.0
  Ni  Ni2464  1  0.78745033  0.33728033  0.24855021  1.0
  Ni  Ni2465  1  0.78745033  0.67061367  0.24855021  1.0
  Ni  Ni2466  1  0.18040233  0.31568633  0.18636636  1.0
  Ni  Ni2467  1  0.18040233  0.64901967  0.18636636  1.0
  Ni  Ni2468  1  0.18040233  0.98235300  0.18636636  1.0
  Ni  Ni2469  1  0.51373567  0.31568633  0.18636636  1.0
  Ni  Ni2470  1  0.51373567  0.64901967  0.18636636  1.0
  Ni  Ni2471  1  0.51373567  0.98235300  0.18636636  1.0
  Ni  Ni2472  1  0.84706900  0.31568633  0.18636636  1.0
  Ni  Ni2473  1  0.84706900  0.64901967  0.18636636  1.0
  Ni  Ni2474  1  0.84706900  0.98235300  0.18636636  1.0
  Ni  Ni2475  1  0.01373567  0.14901967  0.25779493  1.0
  Ni  Ni2476  1  0.01373567  0.48235300  0.25779493  1.0
  Ni  Ni2477  1  0.01373567  0.81568633  0.25779493  1.0
  Ni  Ni2478  1  0.34706900  0.14901967  0.25779493  1.0
  Ni  Ni2479  1  0.34706900  0.48235300  0.25779493  1.0
  Ni  Ni2480  1  0.34706900  0.81568633  0.25779493  1.0
  Ni  Ni2481  1  0.68040233  0.14901967  0.25779493  1.0
  Ni  Ni2482  1  0.68040233  0.48235300  0.25779493  1.0
  Ni  Ni2483  1  0.68040233  0.81568633  0.25779493  1.0
  Ni  Ni2484  1  0.11126433  0.22598033  0.14456836  1.0
  Ni  Ni2485  1  0.11126433  0.55931367  0.14456836  1.0
  Ni  Ni2486  1  0.11126433  0.89264700  0.14456836  1.0
  Ni  Ni2487  1  0.44459767  0.22598033  0.14456836  1.0
  Ni  Ni2488  1  0.44459767  0.55931367  0.14456836  1.0
  Ni  Ni2489  1  0.44459767  0.89264700  0.14456836  1.0
  Ni  Ni2490  1  0.77793100  0.22598033  0.14456836  1.0
  Ni  Ni2491  1  0.77793100  0.55931367  0.14456836  1.0
  Ni  Ni2492  1  0.77793100  0.89264700  0.14456836  1.0
  Ni  Ni2493  1  0.27793100  0.05931367  0.21599693  1.0
  Ni  Ni2494  1  0.27793100  0.39264700  0.21599693  1.0
  Ni  Ni2495  1  0.27793100  0.72598033  0.21599693  1.0
  Ni  Ni2496  1  0.61126433  0.05931367  0.21599693  1.0
  Ni  Ni2497  1  0.61126433  0.39264700  0.21599693  1.0
  Ni  Ni2498  1  0.61126433  0.72598033  0.21599693  1.0
  Ni  Ni2499  1  0.94459767  0.05931367  0.21599693  1.0
  Ni  Ni2500  1  0.94459767  0.39264700  0.21599693  1.0
  Ni  Ni2501  1  0.94459767  0.72598033  0.21599693  1.0
  Ni  Ni2502  1  0.06949750  0.20022317  0.18602814  1.0
  Ni  Ni2503  1  0.06949750  0.53355650  0.18602814  1.0
  Ni  Ni2504  1  0.06949750  0.86688983  0.18602814  1.0
  Ni  Ni2505  1  0.40283083  0.20022317  0.18602814  1.0
  Ni  Ni2506  1  0.40283083  0.53355650  0.18602814  1.0
  Ni  Ni2507  1  0.40283083  0.86688983  0.18602814  1.0
  Ni  Ni2508  1  0.73616417  0.20022317  0.18602814  1.0
  Ni  Ni2509  1  0.73616417  0.53355650  0.18602814  1.0
  Ni  Ni2510  1  0.73616417  0.86688983  0.18602814  1.0
  Ni  Ni2511  1  0.23616417  0.03355650  0.25745671  1.0
  Ni  Ni2512  1  0.23616417  0.36688983  0.25745671  1.0
  Ni  Ni2513  1  0.23616417  0.70022317  0.25745671  1.0
  Ni  Ni2514  1  0.56949750  0.03355650  0.25745671  1.0
  Ni  Ni2515  1  0.56949750  0.36688983  0.25745671  1.0
  Ni  Ni2516  1  0.56949750  0.70022317  0.25745671  1.0
  Ni  Ni2517  1  0.90283083  0.03355650  0.25745671  1.0
  Ni  Ni2518  1  0.90283083  0.36688983  0.25745671  1.0
  Ni  Ni2519  1  0.90283083  0.70022317  0.25745671  1.0
  Ni  Ni2520  1  0.11338950  0.28355650  0.16396471  1.0
  Ni  Ni2521  1  0.11338950  0.61688983  0.16396471  1.0
  Ni  Ni2522  1  0.11338950  0.95022317  0.16396471  1.0
  Ni  Ni2523  1  0.44672283  0.28355650  0.16396471  1.0
  Ni  Ni2524  1  0.44672283  0.61688983  0.16396471  1.0
  Ni  Ni2525  1  0.44672283  0.95022317  0.16396471  1.0
  Ni  Ni2526  1  0.78005617  0.28355650  0.16396471  1.0
  Ni  Ni2527  1  0.78005617  0.61688983  0.16396471  1.0
  Ni  Ni2528  1  0.78005617  0.95022317  0.16396471  1.0
  Ni  Ni2529  1  0.28005617  0.11688983  0.23539329  1.0
  Ni  Ni2530  1  0.28005617  0.45022317  0.23539329  1.0
  Ni  Ni2531  1  0.28005617  0.78355650  0.23539329  1.0
  Ni  Ni2532  1  0.61338950  0.11688983  0.23539329  1.0
  Ni  Ni2533  1  0.61338950  0.45022317  0.23539329  1.0
  Ni  Ni2534  1  0.61338950  0.78355650  0.23539329  1.0
  Ni  Ni2535  1  0.94672283  0.11688983  0.23539329  1.0
  Ni  Ni2536  1  0.94672283  0.45022317  0.23539329  1.0
  Ni  Ni2537  1  0.94672283  0.78355650  0.23539329  1.0
  Ni  Ni2538  1  0.25813567  0.19068633  0.17666179  1.0
  Ni  Ni2539  1  0.25813567  0.52401967  0.17666179  1.0
  Ni  Ni2540  1  0.25813567  0.85735300  0.17666179  1.0
  Ni  Ni2541  1  0.59146900  0.19068633  0.17666179  1.0
  Ni  Ni2542  1  0.59146900  0.52401967  0.17666179  1.0
  Ni  Ni2543  1  0.59146900  0.85735300  0.17666179  1.0
  Ni  Ni2544  1  0.92480233  0.19068633  0.17666179  1.0
  Ni  Ni2545  1  0.92480233  0.52401967  0.17666179  1.0
  Ni  Ni2546  1  0.92480233  0.85735300  0.17666179  1.0
  Ni  Ni2547  1  0.09146900  0.02401967  0.24809036  1.0
  Ni  Ni2548  1  0.09146900  0.35735300  0.24809036  1.0
  Ni  Ni2549  1  0.09146900  0.69068633  0.24809036  1.0
  Ni  Ni2550  1  0.42480233  0.02401967  0.24809036  1.0
  Ni  Ni2551  1  0.42480233  0.35735300  0.24809036  1.0
  Ni  Ni2552  1  0.42480233  0.69068633  0.24809036  1.0
  Ni  Ni2553  1  0.75813567  0.02401967  0.24809036  1.0
  Ni  Ni2554  1  0.75813567  0.35735300  0.24809036  1.0
  Ni  Ni2555  1  0.75813567  0.69068633  0.24809036  1.0
  Ni  Ni2556  1  0.03760583  0.31399883  0.17223386  1.0
  Ni  Ni2557  1  0.03760583  0.64733217  0.17223386  1.0
  Ni  Ni2558  1  0.03760583  0.98066550  0.17223386  1.0
  Ni  Ni2559  1  0.37093917  0.31399883  0.17223386  1.0
  Ni  Ni2560  1  0.37093917  0.64733217  0.17223386  1.0
  Ni  Ni2561  1  0.37093917  0.98066550  0.17223386  1.0
  Ni  Ni2562  1  0.70427250  0.31399883  0.17223386  1.0
  Ni  Ni2563  1  0.70427250  0.64733217  0.17223386  1.0
  Ni  Ni2564  1  0.70427250  0.98066550  0.17223386  1.0
  Ni  Ni2565  1  0.20427250  0.14733217  0.24366243  1.0
  Ni  Ni2566  1  0.20427250  0.48066550  0.24366243  1.0
  Ni  Ni2567  1  0.20427250  0.81399883  0.24366243  1.0
  Ni  Ni2568  1  0.53760583  0.14733217  0.24366243  1.0
  Ni  Ni2569  1  0.53760583  0.48066550  0.24366243  1.0
  Ni  Ni2570  1  0.53760583  0.81399883  0.24366243  1.0
  Ni  Ni2571  1  0.87093917  0.14733217  0.24366243  1.0
  Ni  Ni2572  1  0.87093917  0.48066550  0.24366243  1.0
  Ni  Ni2573  1  0.87093917  0.81399883  0.24366243  1.0
  Ni  Ni2574  1  0.32201867  0.21228033  0.16557964  1.0
  Ni  Ni2575  1  0.32201867  0.54561367  0.16557964  1.0
  Ni  Ni2576  1  0.32201867  0.87894700  0.16557964  1.0
  Ni  Ni2577  1  0.65535200  0.21228033  0.16557964  1.0
  Ni  Ni2578  1  0.65535200  0.54561367  0.16557964  1.0
  Ni  Ni2579  1  0.65535200  0.87894700  0.16557964  1.0
  Ni  Ni2580  1  0.98868533  0.21228033  0.16557964  1.0
  Ni  Ni2581  1  0.98868533  0.54561367  0.16557964  1.0
  Ni  Ni2582  1  0.98868533  0.87894700  0.16557964  1.0
  Ni  Ni2583  1  0.15535200  0.04561367  0.23700821  1.0
  Ni  Ni2584  1  0.15535200  0.37894700  0.23700821  1.0
  Ni  Ni2585  1  0.15535200  0.71228033  0.23700821  1.0
  Ni  Ni2586  1  0.48868533  0.04561367  0.23700821  1.0
  Ni  Ni2587  1  0.48868533  0.37894700  0.23700821  1.0
  Ni  Ni2588  1  0.48868533  0.71228033  0.23700821  1.0
  Ni  Ni2589  1  0.82201867  0.04561367  0.23700821  1.0
  Ni  Ni2590  1  0.82201867  0.37894700  0.23700821  1.0
  Ni  Ni2591  1  0.82201867  0.71228033  0.23700821  1.0
  Ni  Ni2592  1  0.28735117  0.21644350  0.27805914  1.0
  Ni  Ni2593  1  0.28735117  0.54977683  0.27805914  1.0
  Ni  Ni2594  1  0.28735117  0.88311017  0.27805914  1.0
  Ni  Ni2595  1  0.62068450  0.21644350  0.27805914  1.0
  Ni  Ni2596  1  0.62068450  0.54977683  0.27805914  1.0
  Ni  Ni2597  1  0.62068450  0.88311017  0.27805914  1.0
  Ni  Ni2598  1  0.95401783  0.21644350  0.27805914  1.0
  Ni  Ni2599  1  0.95401783  0.54977683  0.27805914  1.0
  Ni  Ni2600  1  0.95401783  0.88311017  0.27805914  1.0
  Ni  Ni2601  1  0.12068450  0.04977683  0.20663057  1.0
  Ni  Ni2602  1  0.12068450  0.38311017  0.20663057  1.0
  Ni  Ni2603  1  0.12068450  0.71644350  0.20663057  1.0
  Ni  Ni2604  1  0.45401783  0.04977683  0.20663057  1.0
  Ni  Ni2605  1  0.45401783  0.38311017  0.20663057  1.0
  Ni  Ni2606  1  0.45401783  0.71644350  0.20663057  1.0
  Ni  Ni2607  1  0.78735117  0.04977683  0.20663057  1.0
  Ni  Ni2608  1  0.78735117  0.38311017  0.20663057  1.0
  Ni  Ni2609  1  0.78735117  0.71644350  0.20663057  1.0
  Ni  Ni2610  1  0.08439650  0.23066550  0.20385243  1.0
  Ni  Ni2611  1  0.08439650  0.56399883  0.20385243  1.0
  Ni  Ni2612  1  0.08439650  0.89733217  0.20385243  1.0
  Ni  Ni2613  1  0.41772983  0.23066550  0.20385243  1.0
  Ni  Ni2614  1  0.41772983  0.56399883  0.20385243  1.0
  Ni  Ni2615  1  0.41772983  0.89733217  0.20385243  1.0
  Ni  Ni2616  1  0.75106317  0.23066550  0.20385243  1.0
  Ni  Ni2617  1  0.75106317  0.56399883  0.20385243  1.0
  Ni  Ni2618  1  0.75106317  0.89733217  0.20385243  1.0
  Ni  Ni2619  1  0.25106317  0.06399883  0.27528100  1.0
  Ni  Ni2620  1  0.25106317  0.39733217  0.27528100  1.0
  Ni  Ni2621  1  0.25106317  0.73066550  0.27528100  1.0
  Ni  Ni2622  1  0.58439650  0.06399883  0.27528100  1.0
  Ni  Ni2623  1  0.58439650  0.39733217  0.27528100  1.0
  Ni  Ni2624  1  0.58439650  0.73066550  0.27528100  1.0
  Ni  Ni2625  1  0.91772983  0.06399883  0.27528100  1.0
  Ni  Ni2626  1  0.91772983  0.39733217  0.27528100  1.0
  Ni  Ni2627  1  0.91772983  0.73066550  0.27528100  1.0
  Ni  Ni2628  1  0.12157933  0.24605300  0.14410850  1.0
  Ni  Ni2629  1  0.12157933  0.57938633  0.14410850  1.0
  Ni  Ni2630  1  0.12157933  0.91271967  0.14410850  1.0
  Ni  Ni2631  1  0.45491267  0.24605300  0.14410850  1.0
  Ni  Ni2632  1  0.45491267  0.57938633  0.14410850  1.0
  Ni  Ni2633  1  0.45491267  0.91271967  0.14410850  1.0
  Ni  Ni2634  1  0.78824600  0.24605300  0.14410850  1.0
  Ni  Ni2635  1  0.78824600  0.57938633  0.14410850  1.0
  Ni  Ni2636  1  0.78824600  0.91271967  0.14410850  1.0
  Ni  Ni2637  1  0.28824600  0.07938633  0.21553707  1.0
  Ni  Ni2638  1  0.28824600  0.41271967  0.21553707  1.0
  Ni  Ni2639  1  0.28824600  0.74605300  0.21553707  1.0
  Ni  Ni2640  1  0.62157933  0.07938633  0.21553707  1.0
  Ni  Ni2641  1  0.62157933  0.41271967  0.21553707  1.0
  Ni  Ni2642  1  0.62157933  0.74605300  0.21553707  1.0
  Ni  Ni2643  1  0.95491267  0.07938633  0.21553707  1.0
  Ni  Ni2644  1  0.95491267  0.41271967  0.21553707  1.0
  Ni  Ni2645  1  0.95491267  0.74605300  0.21553707  1.0
  Ni  Ni2646  1  0.17827717  0.25811017  0.20758429  1.0
  Ni  Ni2647  1  0.17827717  0.59144350  0.20758429  1.0
  Ni  Ni2648  1  0.17827717  0.92477683  0.20758429  1.0
  Ni  Ni2649  1  0.51161050  0.25811017  0.20758429  1.0
  Ni  Ni2650  1  0.51161050  0.59144350  0.20758429  1.0
  Ni  Ni2651  1  0.51161050  0.92477683  0.20758429  1.0
  Ni  Ni2652  1  0.84494383  0.25811017  0.20758429  1.0
  Ni  Ni2653  1  0.84494383  0.59144350  0.20758429  1.0
  Ni  Ni2654  1  0.84494383  0.92477683  0.20758429  1.0
  Ni  Ni2655  1  0.01161050  0.09144350  0.27901286  1.0
  Ni  Ni2656  1  0.01161050  0.42477683  0.27901286  1.0
  Ni  Ni2657  1  0.01161050  0.75811017  0.27901286  1.0
  Ni  Ni2658  1  0.34494383  0.09144350  0.27901286  1.0
  Ni  Ni2659  1  0.34494383  0.42477683  0.27901286  1.0
  Ni  Ni2660  1  0.34494383  0.75811017  0.27901286  1.0
  Ni  Ni2661  1  0.67827717  0.09144350  0.27901286  1.0
  Ni  Ni2662  1  0.67827717  0.42477683  0.27901286  1.0
  Ni  Ni2663  1  0.67827717  0.75811017  0.27901286  1.0
  Ni  Ni2664  1  0.17008733  0.29561367  0.19474793  1.0
  Ni  Ni2665  1  0.17008733  0.62894700  0.19474793  1.0
  Ni  Ni2666  1  0.17008733  0.96228033  0.19474793  1.0
  Ni  Ni2667  1  0.50342067  0.29561367  0.19474793  1.0
  Ni  Ni2668  1  0.50342067  0.62894700  0.19474793  1.0
  Ni  Ni2669  1  0.50342067  0.96228033  0.19474793  1.0
  Ni  Ni2670  1  0.83675400  0.29561367  0.19474793  1.0
  Ni  Ni2671  1  0.83675400  0.62894700  0.19474793  1.0
  Ni  Ni2672  1  0.83675400  0.96228033  0.19474793  1.0
  Ni  Ni2673  1  0.00342067  0.12894700  0.26617650  1.0
  Ni  Ni2674  1  0.00342067  0.46228033  0.26617650  1.0
  Ni  Ni2675  1  0.00342067  0.79561367  0.26617650  1.0
  Ni  Ni2676  1  0.33675400  0.12894700  0.26617650  1.0
  Ni  Ni2677  1  0.33675400  0.46228033  0.26617650  1.0
  Ni  Ni2678  1  0.33675400  0.79561367  0.26617650  1.0
  Ni  Ni2679  1  0.67008733  0.12894700  0.26617650  1.0
  Ni  Ni2680  1  0.67008733  0.46228033  0.26617650  1.0
  Ni  Ni2681  1  0.67008733  0.79561367  0.26617650  1.0
  Ni  Ni2682  1  0.27715833  0.27401967  0.16515664  1.0
  Ni  Ni2683  1  0.27715833  0.60735300  0.16515664  1.0
  Ni  Ni2684  1  0.27715833  0.94068633  0.16515664  1.0
  Ni  Ni2685  1  0.61049167  0.27401967  0.16515664  1.0
  Ni  Ni2686  1  0.61049167  0.60735300  0.16515664  1.0
  Ni  Ni2687  1  0.61049167  0.94068633  0.16515664  1.0
  Ni  Ni2688  1  0.94382500  0.27401967  0.16515664  1.0
  Ni  Ni2689  1  0.94382500  0.60735300  0.16515664  1.0
  Ni  Ni2690  1  0.94382500  0.94068633  0.16515664  1.0
  Ni  Ni2691  1  0.11049167  0.10735300  0.23658521  1.0
  Ni  Ni2692  1  0.11049167  0.44068633  0.23658521  1.0
  Ni  Ni2693  1  0.11049167  0.77401967  0.23658521  1.0
  Ni  Ni2694  1  0.44382500  0.10735300  0.23658521  1.0
  Ni  Ni2695  1  0.44382500  0.44068633  0.23658521  1.0
  Ni  Ni2696  1  0.44382500  0.77401967  0.23658521  1.0
  Ni  Ni2697  1  0.77715833  0.10735300  0.23658521  1.0
  Ni  Ni2698  1  0.77715833  0.44068633  0.23658521  1.0
  Ni  Ni2699  1  0.77715833  0.77401967  0.23658521  1.0
  Ni  Ni2700  1  0.12128483  0.27233217  0.17003786  1.0
  Ni  Ni2701  1  0.12128483  0.60566550  0.17003786  1.0
  Ni  Ni2702  1  0.12128483  0.93899883  0.17003786  1.0
  Ni  Ni2703  1  0.45461817  0.27233217  0.17003786  1.0
  Ni  Ni2704  1  0.45461817  0.60566550  0.17003786  1.0
  Ni  Ni2705  1  0.45461817  0.93899883  0.17003786  1.0
  Ni  Ni2706  1  0.78795150  0.27233217  0.17003786  1.0
  Ni  Ni2707  1  0.78795150  0.60566550  0.17003786  1.0
  Ni  Ni2708  1  0.78795150  0.93899883  0.17003786  1.0
  Ni  Ni2709  1  0.28795150  0.10566550  0.24146643  1.0
  Ni  Ni2710  1  0.28795150  0.43899883  0.24146643  1.0
  Ni  Ni2711  1  0.28795150  0.77233217  0.24146643  1.0
  Ni  Ni2712  1  0.62128483  0.10566550  0.24146643  1.0
  Ni  Ni2713  1  0.62128483  0.43899883  0.24146643  1.0
  Ni  Ni2714  1  0.62128483  0.77233217  0.24146643  1.0
  Ni  Ni2715  1  0.95461817  0.10566550  0.24146643  1.0
  Ni  Ni2716  1  0.95461817  0.43899883  0.24146643  1.0
  Ni  Ni2717  1  0.95461817  0.77233217  0.24146643  1.0
  Ni  Ni2718  1  0.04094917  0.18600117  0.26023486  1.0
  Ni  Ni2719  1  0.04094917  0.51933450  0.26023486  1.0
  Ni  Ni2720  1  0.04094917  0.85266783  0.26023486  1.0
  Ni  Ni2721  1  0.37428250  0.18600117  0.26023486  1.0
  Ni  Ni2722  1  0.37428250  0.51933450  0.26023486  1.0
  Ni  Ni2723  1  0.37428250  0.85266783  0.26023486  1.0
  Ni  Ni2724  1  0.70761583  0.18600117  0.26023486  1.0
  Ni  Ni2725  1  0.70761583  0.51933450  0.26023486  1.0
  Ni  Ni2726  1  0.70761583  0.85266783  0.26023486  1.0
  Ni  Ni2727  1  0.20761583  0.01933450  0.18880629  1.0
  Ni  Ni2728  1  0.20761583  0.35266783  0.18880629  1.0
  Ni  Ni2729  1  0.20761583  0.68600117  0.18880629  1.0
  Ni  Ni2730  1  0.54094917  0.01933450  0.18880629  1.0
  Ni  Ni2731  1  0.54094917  0.35266783  0.18880629  1.0
  Ni  Ni2732  1  0.54094917  0.68600117  0.18880629  1.0
  Ni  Ni2733  1  0.87428250  0.01933450  0.18880629  1.0
  Ni  Ni2734  1  0.87428250  0.35266783  0.18880629  1.0
  Ni  Ni2735  1  0.87428250  0.68600117  0.18880629  1.0
  Ni  Ni2736  1  0.17038183  0.26933450  0.22042486  1.0
  Ni  Ni2737  1  0.17038183  0.60266783  0.22042486  1.0
  Ni  Ni2738  1  0.17038183  0.93600117  0.22042486  1.0
  Ni  Ni2739  1  0.50371517  0.26933450  0.22042486  1.0
  Ni  Ni2740  1  0.50371517  0.60266783  0.22042486  1.0
  Ni  Ni2741  1  0.50371517  0.93600117  0.22042486  1.0
  Ni  Ni2742  1  0.83704850  0.26933450  0.22042486  1.0
  Ni  Ni2743  1  0.83704850  0.60266783  0.22042486  1.0
  Ni  Ni2744  1  0.83704850  0.93600117  0.22042486  1.0
  Ni  Ni2745  1  0.00371517  0.10266783  0.14899629  1.0
  Ni  Ni2746  1  0.00371517  0.43600117  0.14899629  1.0
  Ni  Ni2747  1  0.00371517  0.76933450  0.14899629  1.0
  Ni  Ni2748  1  0.33704850  0.10266783  0.14899629  1.0
  Ni  Ni2749  1  0.33704850  0.43600117  0.14899629  1.0
  Ni  Ni2750  1  0.33704850  0.76933450  0.14899629  1.0
  Ni  Ni2751  1  0.67038183  0.10266783  0.14899629  1.0
  Ni  Ni2752  1  0.67038183  0.43600117  0.14899629  1.0
  Ni  Ni2753  1  0.67038183  0.76933450  0.14899629  1.0
  Ni  Ni2754  1  0.28798900  0.25394700  0.14749164  1.0
  Ni  Ni2755  1  0.28798900  0.58728033  0.14749164  1.0
  Ni  Ni2756  1  0.28798900  0.92061367  0.14749164  1.0
  Ni  Ni2757  1  0.62132233  0.25394700  0.14749164  1.0
  Ni  Ni2758  1  0.62132233  0.58728033  0.14749164  1.0
  Ni  Ni2759  1  0.62132233  0.92061367  0.14749164  1.0
  Ni  Ni2760  1  0.95465567  0.25394700  0.14749164  1.0
  Ni  Ni2761  1  0.95465567  0.58728033  0.14749164  1.0
  Ni  Ni2762  1  0.95465567  0.92061367  0.14749164  1.0
  Ni  Ni2763  1  0.12132233  0.08728033  0.21892021  1.0
  Ni  Ni2764  1  0.12132233  0.42061367  0.21892021  1.0
  Ni  Ni2765  1  0.12132233  0.75394700  0.21892021  1.0
  Ni  Ni2766  1  0.45465567  0.08728033  0.21892021  1.0
  Ni  Ni2767  1  0.45465567  0.42061367  0.21892021  1.0
  Ni  Ni2768  1  0.45465567  0.75394700  0.21892021  1.0
  Ni  Ni2769  1  0.78798900  0.08728033  0.21892021  1.0
  Ni  Ni2770  1  0.78798900  0.42061367  0.21892021  1.0
  Ni  Ni2771  1  0.78798900  0.75394700  0.21892021  1.0
  Ni  Ni2772  1  0.25406083  0.22766783  0.15089600  1.0
  Ni  Ni2773  1  0.25406083  0.56100117  0.15089600  1.0
  Ni  Ni2774  1  0.25406083  0.89433450  0.15089600  1.0
  Ni  Ni2775  1  0.58739417  0.22766783  0.15089600  1.0
  Ni  Ni2776  1  0.58739417  0.56100117  0.15089600  1.0
  Ni  Ni2777  1  0.58739417  0.89433450  0.15089600  1.0
  Ni  Ni2778  1  0.92072750  0.22766783  0.15089600  1.0
  Ni  Ni2779  1  0.92072750  0.56100117  0.15089600  1.0
  Ni  Ni2780  1  0.92072750  0.89433450  0.15089600  1.0
  Ni  Ni2781  1  0.08739417  0.06100117  0.22232457  1.0
  Ni  Ni2782  1  0.08739417  0.39433450  0.22232457  1.0
  Ni  Ni2783  1  0.08739417  0.72766783  0.22232457  1.0
  Ni  Ni2784  1  0.42072750  0.06100117  0.22232457  1.0
  Ni  Ni2785  1  0.42072750  0.39433450  0.22232457  1.0
  Ni  Ni2786  1  0.42072750  0.72766783  0.22232457  1.0
  Ni  Ni2787  1  0.75406083  0.06100117  0.22232457  1.0
  Ni  Ni2788  1  0.75406083  0.39433450  0.22232457  1.0
  Ni  Ni2789  1  0.75406083  0.72766783  0.22232457  1.0
  Ni  Ni2790  1  0.08405083  0.18899883  0.17033414  1.0
  Ni  Ni2791  1  0.08405083  0.52233217  0.17033414  1.0
  Ni  Ni2792  1  0.08405083  0.85566550  0.17033414  1.0
  Ni  Ni2793  1  0.41738417  0.18899883  0.17033414  1.0
  Ni  Ni2794  1  0.41738417  0.52233217  0.17033414  1.0
  Ni  Ni2795  1  0.41738417  0.85566550  0.17033414  1.0
  Ni  Ni2796  1  0.75071750  0.18899883  0.17033414  1.0
  Ni  Ni2797  1  0.75071750  0.52233217  0.17033414  1.0
  Ni  Ni2798  1  0.75071750  0.85566550  0.17033414  1.0
  Ni  Ni2799  1  0.25071750  0.02233217  0.24176271  1.0
  Ni  Ni2800  1  0.25071750  0.35566550  0.24176271  1.0
  Ni  Ni2801  1  0.25071750  0.68899883  0.24176271  1.0
  Ni  Ni2802  1  0.58405083  0.02233217  0.24176271  1.0
  Ni  Ni2803  1  0.58405083  0.35566550  0.24176271  1.0
  Ni  Ni2804  1  0.58405083  0.68899883  0.24176271  1.0
  Ni  Ni2805  1  0.91738417  0.02233217  0.24176271  1.0
  Ni  Ni2806  1  0.91738417  0.35566550  0.24176271  1.0
  Ni  Ni2807  1  0.91738417  0.68899883  0.24176271  1.0
  Ni  Ni2808  1  0.05550250  0.17477683  0.26345457  1.0
  Ni  Ni2809  1  0.05550250  0.50811017  0.26345457  1.0
  Ni  Ni2810  1  0.05550250  0.84144350  0.26345457  1.0
  Ni  Ni2811  1  0.38883583  0.17477683  0.26345457  1.0
  Ni  Ni2812  1  0.38883583  0.50811017  0.26345457  1.0
  Ni  Ni2813  1  0.38883583  0.84144350  0.26345457  1.0
  Ni  Ni2814  1  0.72216917  0.17477683  0.26345457  1.0
  Ni  Ni2815  1  0.72216917  0.50811017  0.26345457  1.0
  Ni  Ni2816  1  0.72216917  0.84144350  0.26345457  1.0
  Ni  Ni2817  1  0.22216917  0.00811017  0.19202600  1.0
  Ni  Ni2818  1  0.22216917  0.34144350  0.19202600  1.0
  Ni  Ni2819  1  0.22216917  0.67477683  0.19202600  1.0
  Ni  Ni2820  1  0.55550250  0.00811017  0.19202600  1.0
  Ni  Ni2821  1  0.55550250  0.34144350  0.19202600  1.0
  Ni  Ni2822  1  0.55550250  0.67477683  0.19202600  1.0
  Ni  Ni2823  1  0.88883583  0.00811017  0.19202600  1.0
  Ni  Ni2824  1  0.88883583  0.34144350  0.19202600  1.0
  Ni  Ni2825  1  0.88883583  0.67477683  0.19202600  1.0
  Ni  Ni2826  1  0.20727017  0.31100117  0.22262086  1.0
  Ni  Ni2827  1  0.20727017  0.64433450  0.22262086  1.0
  Ni  Ni2828  1  0.20727017  0.97766783  0.22262086  1.0
  Ni  Ni2829  1  0.54060350  0.31100117  0.22262086  1.0
  Ni  Ni2830  1  0.54060350  0.64433450  0.22262086  1.0
  Ni  Ni2831  1  0.54060350  0.97766783  0.22262086  1.0
  Ni  Ni2832  1  0.87393683  0.31100117  0.22262086  1.0
  Ni  Ni2833  1  0.87393683  0.64433450  0.22262086  1.0
  Ni  Ni2834  1  0.87393683  0.97766783  0.22262086  1.0
  Ni  Ni2835  1  0.04060350  0.14433450  0.15119229  1.0
  Ni  Ni2836  1  0.04060350  0.47766783  0.15119229  1.0
  Ni  Ni2837  1  0.04060350  0.81100117  0.15119229  1.0
  Ni  Ni2838  1  0.37393683  0.14433450  0.15119229  1.0
  Ni  Ni2839  1  0.37393683  0.47766783  0.15119229  1.0
  Ni  Ni2840  1  0.37393683  0.81100117  0.15119229  1.0
  Ni  Ni2841  1  0.70727017  0.14433450  0.15119229  1.0
  Ni  Ni2842  1  0.70727017  0.47766783  0.15119229  1.0
  Ni  Ni2843  1  0.70727017  0.81100117  0.15119229  1.0
  Ni  Ni2844  1  0.17088300  0.20438633  0.15565050  1.0
  Ni  Ni2845  1  0.17088300  0.53771967  0.15565050  1.0
  Ni  Ni2846  1  0.17088300  0.87105300  0.15565050  1.0
  Ni  Ni2847  1  0.50421633  0.20438633  0.15565050  1.0
  Ni  Ni2848  1  0.50421633  0.53771967  0.15565050  1.0
  Ni  Ni2849  1  0.50421633  0.87105300  0.15565050  1.0
  Ni  Ni2850  1  0.83754967  0.20438633  0.15565050  1.0
  Ni  Ni2851  1  0.83754967  0.53771967  0.15565050  1.0
  Ni  Ni2852  1  0.83754967  0.87105300  0.15565050  1.0
  Ni  Ni2853  1  0.00421633  0.03771967  0.22707907  1.0
  Ni  Ni2854  1  0.00421633  0.37105300  0.22707907  1.0
  Ni  Ni2855  1  0.00421633  0.70438633  0.22707907  1.0
  Ni  Ni2856  1  0.33754967  0.03771967  0.22707907  1.0
  Ni  Ni2857  1  0.33754967  0.37105300  0.22707907  1.0
  Ni  Ni2858  1  0.33754967  0.70438633  0.22707907  1.0
  Ni  Ni2859  1  0.67088300  0.03771967  0.22707907  1.0
  Ni  Ni2860  1  0.67088300  0.37105300  0.22707907  1.0
  Ni  Ni2861  1  0.67088300  0.70438633  0.22707907  1.0
  Ni  Ni2862  1  0.20019767  0.18431367  0.27292093  1.0
  Ni  Ni2863  1  0.20019767  0.51764700  0.27292093  1.0
  Ni  Ni2864  1  0.20019767  0.85098033  0.27292093  1.0
  Ni  Ni2865  1  0.53353100  0.18431367  0.27292093  1.0
  Ni  Ni2866  1  0.53353100  0.51764700  0.27292093  1.0
  Ni  Ni2867  1  0.53353100  0.85098033  0.27292093  1.0
  Ni  Ni2868  1  0.86686433  0.18431367  0.27292093  1.0
  Ni  Ni2869  1  0.86686433  0.51764700  0.27292093  1.0
  Ni  Ni2870  1  0.86686433  0.85098033  0.27292093  1.0
  Ni  Ni2871  1  0.03353100  0.01764700  0.20149236  1.0
  Ni  Ni2872  1  0.03353100  0.35098033  0.20149236  1.0
  Ni  Ni2873  1  0.03353100  0.68431367  0.20149236  1.0
  Ni  Ni2874  1  0.36686433  0.01764700  0.20149236  1.0
  Ni  Ni2875  1  0.36686433  0.35098033  0.20149236  1.0
  Ni  Ni2876  1  0.36686433  0.68431367  0.20149236  1.0
  Ni  Ni2877  1  0.70019767  0.01764700  0.20149236  1.0
  Ni  Ni2878  1  0.70019767  0.35098033  0.20149236  1.0
  Ni  Ni2879  1  0.70019767  0.68431367  0.20149236  1.0
  Y  Y2880  1  0.15277800  0.23511433  0.36140821  1.0
  Y  Y2881  1  0.15277800  0.56844767  0.36140821  1.0
  Y  Y2882  1  0.15277800  0.90178100  0.36140821  1.0
  Y  Y2883  1  0.48611133  0.23511433  0.36140821  1.0
  Y  Y2884  1  0.48611133  0.56844767  0.36140821  1.0
  Y  Y2885  1  0.48611133  0.90178100  0.36140821  1.0
  Y  Y2886  1  0.81944467  0.23511433  0.36140821  1.0
  Y  Y2887  1  0.81944467  0.56844767  0.36140821  1.0
  Y  Y2888  1  0.81944467  0.90178100  0.36140821  1.0
  Y  Y2889  1  0.31944467  0.06844767  0.28997964  1.0
  Y  Y2890  1  0.31944467  0.40178100  0.28997964  1.0
  Y  Y2891  1  0.31944467  0.73511433  0.28997964  1.0
  Y  Y2892  1  0.65277800  0.06844767  0.28997964  1.0
  Y  Y2893  1  0.65277800  0.40178100  0.28997964  1.0
  Y  Y2894  1  0.65277800  0.73511433  0.28997964  1.0
  Y  Y2895  1  0.98611133  0.06844767  0.28997964  1.0
  Y  Y2896  1  0.98611133  0.40178100  0.28997964  1.0
  Y  Y2897  1  0.98611133  0.73511433  0.28997964  1.0
  Y  Y2898  1  0.05946167  0.29407500  0.35898921  1.0
  Y  Y2899  1  0.05946167  0.62740833  0.35898921  1.0
  Y  Y2900  1  0.05946167  0.96074167  0.35898921  1.0
  Y  Y2901  1  0.39279500  0.29407500  0.35898921  1.0
  Y  Y2902  1  0.39279500  0.62740833  0.35898921  1.0
  Y  Y2903  1  0.39279500  0.96074167  0.35898921  1.0
  Y  Y2904  1  0.72612833  0.29407500  0.35898921  1.0
  Y  Y2905  1  0.72612833  0.62740833  0.35898921  1.0
  Y  Y2906  1  0.72612833  0.96074167  0.35898921  1.0
  Y  Y2907  1  0.22612833  0.12740833  0.28756064  1.0
  Y  Y2908  1  0.22612833  0.46074167  0.28756064  1.0
  Y  Y2909  1  0.22612833  0.79407500  0.28756064  1.0
  Y  Y2910  1  0.55946167  0.12740833  0.28756064  1.0
  Y  Y2911  1  0.55946167  0.46074167  0.28756064  1.0
  Y  Y2912  1  0.55946167  0.79407500  0.28756064  1.0
  Y  Y2913  1  0.89279500  0.12740833  0.28756064  1.0
  Y  Y2914  1  0.89279500  0.46074167  0.28756064  1.0
  Y  Y2915  1  0.89279500  0.79407500  0.28756064  1.0
  Y  Y2916  1  0.16681650  0.21976883  0.30901971  1.0
  Y  Y2917  1  0.16681650  0.55310217  0.30901971  1.0
  Y  Y2918  1  0.16681650  0.88643550  0.30901971  1.0
  Y  Y2919  1  0.50014983  0.21976883  0.30901971  1.0
  Y  Y2920  1  0.50014983  0.55310217  0.30901971  1.0
  Y  Y2921  1  0.50014983  0.88643550  0.30901971  1.0
  Y  Y2922  1  0.83348317  0.21976883  0.30901971  1.0
  Y  Y2923  1  0.83348317  0.55310217  0.30901971  1.0
  Y  Y2924  1  0.83348317  0.88643550  0.30901971  1.0
  Y  Y2925  1  0.00014983  0.05310217  0.38044829  1.0
  Y  Y2926  1  0.00014983  0.38643550  0.38044829  1.0
  Y  Y2927  1  0.00014983  0.71976883  0.38044829  1.0
  Y  Y2928  1  0.33348317  0.05310217  0.38044829  1.0
  Y  Y2929  1  0.33348317  0.38643550  0.38044829  1.0
  Y  Y2930  1  0.33348317  0.71976883  0.38044829  1.0
  Y  Y2931  1  0.66681650  0.05310217  0.38044829  1.0
  Y  Y2932  1  0.66681650  0.38643550  0.38044829  1.0
  Y  Y2933  1  0.66681650  0.71976883  0.38044829  1.0
  Y  Y2934  1  0.10221400  0.29166667  0.41061507  1.0
  Y  Y2935  1  0.10221400  0.62500000  0.41061507  1.0
  Y  Y2936  1  0.10221400  0.95833333  0.41061507  1.0
  Y  Y2937  1  0.43554733  0.29166667  0.41061507  1.0
  Y  Y2938  1  0.43554733  0.62500000  0.41061507  1.0
  Y  Y2939  1  0.43554733  0.95833333  0.41061507  1.0
  Y  Y2940  1  0.76888067  0.29166667  0.41061507  1.0
  Y  Y2941  1  0.76888067  0.62500000  0.41061507  1.0
  Y  Y2942  1  0.76888067  0.95833333  0.41061507  1.0
  Y  Y2943  1  0.26888067  0.12500000  0.33918650  1.0
  Y  Y2944  1  0.26888067  0.45833333  0.33918650  1.0
  Y  Y2945  1  0.26888067  0.79166667  0.33918650  1.0
  Y  Y2946  1  0.60221400  0.12500000  0.33918650  1.0
  Y  Y2947  1  0.60221400  0.45833333  0.33918650  1.0
  Y  Y2948  1  0.60221400  0.79166667  0.33918650  1.0
  Y  Y2949  1  0.93554733  0.12500000  0.33918650  1.0
  Y  Y2950  1  0.93554733  0.45833333  0.33918650  1.0
  Y  Y2951  1  0.93554733  0.79166667  0.33918650  1.0
  Y  Y2952  1  0.28008400  0.20833333  0.37490079  1.0
  Y  Y2953  1  0.28008400  0.54166667  0.37490079  1.0
  Y  Y2954  1  0.28008400  0.87500000  0.37490079  1.0
  Y  Y2955  1  0.61341733  0.20833333  0.37490079  1.0
  Y  Y2956  1  0.61341733  0.54166667  0.37490079  1.0
  Y  Y2957  1  0.61341733  0.87500000  0.37490079  1.0
  Y  Y2958  1  0.94675067  0.20833333  0.37490079  1.0
  Y  Y2959  1  0.94675067  0.54166667  0.37490079  1.0
  Y  Y2960  1  0.94675067  0.87500000  0.37490079  1.0
  Y  Y2961  1  0.11341733  0.04166667  0.30347221  1.0
  Y  Y2962  1  0.11341733  0.37500000  0.30347221  1.0
  Y  Y2963  1  0.11341733  0.70833333  0.30347221  1.0
  Y  Y2964  1  0.44675067  0.04166667  0.30347221  1.0
  Y  Y2965  1  0.44675067  0.37500000  0.30347221  1.0
  Y  Y2966  1  0.44675067  0.70833333  0.30347221  1.0
  Y  Y2967  1  0.78008400  0.04166667  0.30347221  1.0
  Y  Y2968  1  0.78008400  0.37500000  0.30347221  1.0
  Y  Y2969  1  0.78008400  0.70833333  0.30347221  1.0
  Y  Y2970  1  0.19581217  0.23456383  0.41381886  1.0
  Y  Y2971  1  0.19581217  0.56789717  0.41381886  1.0
  Y  Y2972  1  0.19581217  0.90123050  0.41381886  1.0
  Y  Y2973  1  0.52914550  0.23456383  0.41381886  1.0
  Y  Y2974  1  0.52914550  0.56789717  0.41381886  1.0
  Y  Y2975  1  0.52914550  0.90123050  0.41381886  1.0
  Y  Y2976  1  0.86247883  0.23456383  0.41381886  1.0
  Y  Y2977  1  0.86247883  0.56789717  0.41381886  1.0
  Y  Y2978  1  0.86247883  0.90123050  0.41381886  1.0
  Y  Y2979  1  0.02914550  0.06789717  0.34239029  1.0
  Y  Y2980  1  0.02914550  0.40123050  0.34239029  1.0
  Y  Y2981  1  0.02914550  0.73456383  0.34239029  1.0
  Y  Y2982  1  0.36247883  0.06789717  0.34239029  1.0
  Y  Y2983  1  0.36247883  0.40123050  0.34239029  1.0
  Y  Y2984  1  0.36247883  0.73456383  0.34239029  1.0
  Y  Y2985  1  0.69581217  0.06789717  0.34239029  1.0
  Y  Y2986  1  0.69581217  0.40123050  0.34239029  1.0
  Y  Y2987  1  0.69581217  0.73456383  0.34239029  1.0
  Y  Y2988  1  0.12665850  0.26143550  0.42279629  1.0
  Y  Y2989  1  0.12665850  0.59476883  0.42279629  1.0
  Y  Y2990  1  0.12665850  0.92810217  0.42279629  1.0
  Y  Y2991  1  0.45999183  0.26143550  0.42279629  1.0
  Y  Y2992  1  0.45999183  0.59476883  0.42279629  1.0
  Y  Y2993  1  0.45999183  0.92810217  0.42279629  1.0
  Y  Y2994  1  0.79332517  0.26143550  0.42279629  1.0
  Y  Y2995  1  0.79332517  0.59476883  0.42279629  1.0
  Y  Y2996  1  0.79332517  0.92810217  0.42279629  1.0
  Y  Y2997  1  0.29332517  0.09476883  0.35136771  1.0
  Y  Y2998  1  0.29332517  0.42810217  0.35136771  1.0
  Y  Y2999  1  0.29332517  0.76143550  0.35136771  1.0
  Y  Y3000  1  0.62665850  0.09476883  0.35136771  1.0
  Y  Y3001  1  0.62665850  0.42810217  0.35136771  1.0
  Y  Y3002  1  0.62665850  0.76143550  0.35136771  1.0
  Y  Y3003  1  0.95999183  0.09476883  0.35136771  1.0
  Y  Y3004  1  0.95999183  0.42810217  0.35136771  1.0
  Y  Y3005  1  0.95999183  0.76143550  0.35136771  1.0
  Y  Y3006  1  0.18945267  0.25000000  0.30179850  1.0
  Y  Y3007  1  0.18945267  0.58333333  0.30179850  1.0
  Y  Y3008  1  0.18945267  0.91666667  0.30179850  1.0
  Y  Y3009  1  0.52278600  0.25000000  0.30179850  1.0
  Y  Y3010  1  0.52278600  0.58333333  0.30179850  1.0
  Y  Y3011  1  0.52278600  0.91666667  0.30179850  1.0
  Y  Y3012  1  0.85611933  0.25000000  0.30179850  1.0
  Y  Y3013  1  0.85611933  0.58333333  0.30179850  1.0
  Y  Y3014  1  0.85611933  0.91666667  0.30179850  1.0
  Y  Y3015  1  0.02278600  0.08333333  0.37322707  1.0
  Y  Y3016  1  0.02278600  0.41666667  0.37322707  1.0
  Y  Y3017  1  0.02278600  0.75000000  0.37322707  1.0
  Y  Y3018  1  0.35611933  0.08333333  0.37322707  1.0
  Y  Y3019  1  0.35611933  0.41666667  0.37322707  1.0
  Y  Y3020  1  0.35611933  0.75000000  0.37322707  1.0
  Y  Y3021  1  0.68945267  0.08333333  0.37322707  1.0
  Y  Y3022  1  0.68945267  0.41666667  0.37322707  1.0
  Y  Y3023  1  0.68945267  0.75000000  0.37322707  1.0
  Y  Y3024  1  0.31025700  0.19344767  0.39031593  1.0
  Y  Y3025  1  0.31025700  0.52678100  0.39031593  1.0
  Y  Y3026  1  0.31025700  0.86011433  0.39031593  1.0
  Y  Y3027  1  0.64359033  0.19344767  0.39031593  1.0
  Y  Y3028  1  0.64359033  0.52678100  0.39031593  1.0
  Y  Y3029  1  0.64359033  0.86011433  0.39031593  1.0
  Y  Y3030  1  0.97692367  0.19344767  0.39031593  1.0
  Y  Y3031  1  0.97692367  0.52678100  0.39031593  1.0
  Y  Y3032  1  0.97692367  0.86011433  0.39031593  1.0
  Y  Y3033  1  0.14359033  0.02678100  0.31888736  1.0
  Y  Y3034  1  0.14359033  0.36011433  0.31888736  1.0
  Y  Y3035  1  0.14359033  0.69344767  0.31888736  1.0
  Y  Y3036  1  0.47692367  0.02678100  0.31888736  1.0
  Y  Y3037  1  0.47692367  0.36011433  0.31888736  1.0
  Y  Y3038  1  0.47692367  0.69344767  0.31888736  1.0
  Y  Y3039  1  0.81025700  0.02678100  0.31888736  1.0
  Y  Y3040  1  0.81025700  0.36011433  0.31888736  1.0
  Y  Y3041  1  0.81025700  0.69344767  0.31888736  1.0
  Y  Y3042  1  0.12485017  0.32189783  0.39843386  1.0
  Y  Y3043  1  0.12485017  0.65523117  0.39843386  1.0
  Y  Y3044  1  0.12485017  0.98856450  0.39843386  1.0
  Y  Y3045  1  0.45818350  0.32189783  0.39843386  1.0
  Y  Y3046  1  0.45818350  0.65523117  0.39843386  1.0
  Y  Y3047  1  0.45818350  0.98856450  0.39843386  1.0
  Y  Y3048  1  0.79151683  0.32189783  0.39843386  1.0
  Y  Y3049  1  0.79151683  0.65523117  0.39843386  1.0
  Y  Y3050  1  0.79151683  0.98856450  0.39843386  1.0
  Y  Y3051  1  0.29151683  0.15523117  0.32700529  1.0
  Y  Y3052  1  0.29151683  0.48856450  0.32700529  1.0
  Y  Y3053  1  0.29151683  0.82189783  0.32700529  1.0
  Y  Y3054  1  0.62485017  0.15523117  0.32700529  1.0
  Y  Y3055  1  0.62485017  0.48856450  0.32700529  1.0
  Y  Y3056  1  0.62485017  0.82189783  0.32700529  1.0
  Y  Y3057  1  0.95818350  0.15523117  0.32700529  1.0
  Y  Y3058  1  0.95818350  0.48856450  0.32700529  1.0
  Y  Y3059  1  0.95818350  0.82189783  0.32700529  1.0
  Y  Y3060  1  0.07215233  0.26488567  0.37416736  1.0
  Y  Y3061  1  0.07215233  0.59821900  0.37416736  1.0
  Y  Y3062  1  0.07215233  0.93155233  0.37416736  1.0
  Y  Y3063  1  0.40548567  0.26488567  0.37416736  1.0
  Y  Y3064  1  0.40548567  0.59821900  0.37416736  1.0
  Y  Y3065  1  0.40548567  0.93155233  0.37416736  1.0
  Y  Y3066  1  0.73881900  0.26488567  0.37416736  1.0
  Y  Y3067  1  0.73881900  0.59821900  0.37416736  1.0
  Y  Y3068  1  0.73881900  0.93155233  0.37416736  1.0
  Y  Y3069  1  0.23881900  0.09821900  0.30273879  1.0
  Y  Y3070  1  0.23881900  0.43155233  0.30273879  1.0
  Y  Y3071  1  0.23881900  0.76488567  0.30273879  1.0
  Y  Y3072  1  0.57215233  0.09821900  0.30273879  1.0
  Y  Y3073  1  0.57215233  0.43155233  0.30273879  1.0
  Y  Y3074  1  0.57215233  0.76488567  0.30273879  1.0
  Y  Y3075  1  0.90548567  0.09821900  0.30273879  1.0
  Y  Y3076  1  0.90548567  0.43155233  0.30273879  1.0
  Y  Y3077  1  0.90548567  0.76488567  0.30273879  1.0
  Y  Y3078  1  0.26020050  0.30429950  0.29651543  1.0
  Y  Y3079  1  0.26020050  0.63763283  0.29651543  1.0
  Y  Y3080  1  0.26020050  0.97096617  0.29651543  1.0
  Y  Y3081  1  0.59353383  0.30429950  0.29651543  1.0
  Y  Y3082  1  0.59353383  0.63763283  0.29651543  1.0
  Y  Y3083  1  0.59353383  0.97096617  0.29651543  1.0
  Y  Y3084  1  0.92686717  0.30429950  0.29651543  1.0
  Y  Y3085  1  0.92686717  0.63763283  0.29651543  1.0
  Y  Y3086  1  0.92686717  0.97096617  0.29651543  1.0
  Y  Y3087  1  0.09353383  0.13763283  0.36794400  1.0
  Y  Y3088  1  0.09353383  0.47096617  0.36794400  1.0
  Y  Y3089  1  0.09353383  0.80429950  0.36794400  1.0
  Y  Y3090  1  0.42686717  0.13763283  0.36794400  1.0
  Y  Y3091  1  0.42686717  0.47096617  0.36794400  1.0
  Y  Y3092  1  0.42686717  0.80429950  0.36794400  1.0
  Y  Y3093  1  0.76020050  0.13763283  0.36794400  1.0
  Y  Y3094  1  0.76020050  0.47096617  0.36794400  1.0
  Y  Y3095  1  0.76020050  0.80429950  0.36794400  1.0
  Y  Y3096  1  0.33134000  0.22321900  0.35948564  1.0
  Y  Y3097  1  0.33134000  0.55655233  0.35948564  1.0
  Y  Y3098  1  0.33134000  0.88988567  0.35948564  1.0
  Y  Y3099  1  0.66467333  0.22321900  0.35948564  1.0
  Y  Y3100  1  0.66467333  0.55655233  0.35948564  1.0
  Y  Y3101  1  0.66467333  0.88988567  0.35948564  1.0
  Y  Y3102  1  0.99800667  0.22321900  0.35948564  1.0
  Y  Y3103  1  0.99800667  0.55655233  0.35948564  1.0
  Y  Y3104  1  0.99800667  0.88988567  0.35948564  1.0
  Y  Y3105  1  0.16467333  0.05655233  0.28805707  1.0
  Y  Y3106  1  0.16467333  0.38988567  0.28805707  1.0
  Y  Y3107  1  0.16467333  0.72321900  0.28805707  1.0
  Y  Y3108  1  0.49800667  0.05655233  0.28805707  1.0
  Y  Y3109  1  0.49800667  0.38988567  0.28805707  1.0
  Y  Y3110  1  0.49800667  0.72321900  0.28805707  1.0
  Y  Y3111  1  0.83134000  0.05655233  0.28805707  1.0
  Y  Y3112  1  0.83134000  0.38988567  0.28805707  1.0
  Y  Y3113  1  0.83134000  0.72321900  0.28805707  1.0
  Y  Y3114  1  0.16500817  0.28023117  0.33493214  1.0
  Y  Y3115  1  0.16500817  0.61356450  0.33493214  1.0
  Y  Y3116  1  0.16500817  0.94689783  0.33493214  1.0
  Y  Y3117  1  0.49834150  0.28023117  0.33493214  1.0
  Y  Y3118  1  0.49834150  0.61356450  0.33493214  1.0
  Y  Y3119  1  0.49834150  0.94689783  0.33493214  1.0
  Y  Y3120  1  0.83167483  0.28023117  0.33493214  1.0
  Y  Y3121  1  0.83167483  0.61356450  0.33493214  1.0
  Y  Y3122  1  0.83167483  0.94689783  0.33493214  1.0
  Y  Y3123  1  0.33167483  0.11356450  0.40636071  1.0
  Y  Y3124  1  0.33167483  0.44689783  0.40636071  1.0
  Y  Y3125  1  0.33167483  0.78023117  0.40636071  1.0
  Y  Y3126  1  0.66500817  0.11356450  0.40636071  1.0
  Y  Y3127  1  0.66500817  0.44689783  0.40636071  1.0
  Y  Y3128  1  0.66500817  0.78023117  0.40636071  1.0
  Y  Y3129  1  0.99834150  0.11356450  0.40636071  1.0
  Y  Y3130  1  0.99834150  0.44689783  0.40636071  1.0
  Y  Y3131  1  0.99834150  0.78023117  0.40636071  1.0
  Y  Y3132  1  0.03993983  0.22376950  0.41351757  1.0
  Y  Y3133  1  0.03993983  0.55710283  0.41351757  1.0
  Y  Y3134  1  0.03993983  0.89043617  0.41351757  1.0
  Y  Y3135  1  0.37327317  0.22376950  0.41351757  1.0
  Y  Y3136  1  0.37327317  0.55710283  0.41351757  1.0
  Y  Y3137  1  0.37327317  0.89043617  0.41351757  1.0
  Y  Y3138  1  0.70660650  0.22376950  0.41351757  1.0
  Y  Y3139  1  0.70660650  0.55710283  0.41351757  1.0
  Y  Y3140  1  0.70660650  0.89043617  0.41351757  1.0
  Y  Y3141  1  0.20660650  0.05710283  0.34208900  1.0
  Y  Y3142  1  0.20660650  0.39043617  0.34208900  1.0
  Y  Y3143  1  0.20660650  0.72376950  0.34208900  1.0
  Y  Y3144  1  0.53993983  0.05710283  0.34208900  1.0
  Y  Y3145  1  0.53993983  0.39043617  0.34208900  1.0
  Y  Y3146  1  0.53993983  0.72376950  0.34208900  1.0
  Y  Y3147  1  0.87327317  0.05710283  0.34208900  1.0
  Y  Y3148  1  0.87327317  0.39043617  0.34208900  1.0
  Y  Y3149  1  0.87327317  0.72376950  0.34208900  1.0
  Y  Y3150  1  0.23007367  0.20592500  0.32121064  1.0
  Y  Y3151  1  0.23007367  0.53925833  0.32121064  1.0
  Y  Y3152  1  0.23007367  0.87259167  0.32121064  1.0
  Y  Y3153  1  0.56340700  0.20592500  0.32121064  1.0
  Y  Y3154  1  0.56340700  0.53925833  0.32121064  1.0
  Y  Y3155  1  0.56340700  0.87259167  0.32121064  1.0
  Y  Y3156  1  0.89674033  0.20592500  0.32121064  1.0
  Y  Y3157  1  0.89674033  0.53925833  0.32121064  1.0
  Y  Y3158  1  0.89674033  0.87259167  0.32121064  1.0
  Y  Y3159  1  0.06340700  0.03925833  0.39263921  1.0
  Y  Y3160  1  0.06340700  0.37259167  0.39263921  1.0
  Y  Y3161  1  0.06340700  0.70592500  0.39263921  1.0
  Y  Y3162  1  0.39674033  0.03925833  0.39263921  1.0
  Y  Y3163  1  0.39674033  0.37259167  0.39263921  1.0
  Y  Y3164  1  0.39674033  0.70592500  0.39263921  1.0
  Y  Y3165  1  0.73007367  0.03925833  0.39263921  1.0
  Y  Y3166  1  0.73007367  0.37259167  0.39263921  1.0
  Y  Y3167  1  0.73007367  0.70592500  0.39263921  1.0
  Y  Y3168  1  0.13888867  0.30655233  0.29593221  1.0
  Y  Y3169  1  0.13888867  0.63988567  0.29593221  1.0
  Y  Y3170  1  0.13888867  0.97321900  0.29593221  1.0
  Y  Y3171  1  0.47222200  0.30655233  0.29593221  1.0
  Y  Y3172  1  0.47222200  0.63988567  0.29593221  1.0
  Y  Y3173  1  0.47222200  0.97321900  0.29593221  1.0
  Y  Y3174  1  0.80555533  0.30655233  0.29593221  1.0
  Y  Y3175  1  0.80555533  0.63988567  0.29593221  1.0
  Y  Y3176  1  0.80555533  0.97321900  0.29593221  1.0
  Y  Y3177  1  0.30555533  0.13988567  0.36736079  1.0
  Y  Y3178  1  0.30555533  0.47321900  0.36736079  1.0
  Y  Y3179  1  0.30555533  0.80655233  0.36736079  1.0
  Y  Y3180  1  0.63888867  0.13988567  0.36736079  1.0
  Y  Y3181  1  0.63888867  0.47321900  0.36736079  1.0
  Y  Y3182  1  0.63888867  0.80655233  0.36736079  1.0
  Y  Y3183  1  0.97222200  0.13988567  0.36736079  1.0
  Y  Y3184  1  0.97222200  0.47321900  0.36736079  1.0
  Y  Y3185  1  0.97222200  0.80655233  0.36736079  1.0
  Y  Y3186  1  0.00660083  0.27903383  0.38185757  1.0
  Y  Y3187  1  0.00660083  0.61236717  0.38185757  1.0
  Y  Y3188  1  0.00660083  0.94570050  0.38185757  1.0
  Y  Y3189  1  0.33993417  0.27903383  0.38185757  1.0
  Y  Y3190  1  0.33993417  0.61236717  0.38185757  1.0
  Y  Y3191  1  0.33993417  0.94570050  0.38185757  1.0
  Y  Y3192  1  0.67326750  0.27903383  0.38185757  1.0
  Y  Y3193  1  0.67326750  0.61236717  0.38185757  1.0
  Y  Y3194  1  0.67326750  0.94570050  0.38185757  1.0
  Y  Y3195  1  0.17326750  0.11236717  0.31042900  1.0
  Y  Y3196  1  0.17326750  0.44570050  0.31042900  1.0
  Y  Y3197  1  0.17326750  0.77903383  0.31042900  1.0
  Y  Y3198  1  0.50660083  0.11236717  0.31042900  1.0
  Y  Y3199  1  0.50660083  0.44570050  0.31042900  1.0
  Y  Y3200  1  0.50660083  0.77903383  0.31042900  1.0
  Y  Y3201  1  0.83993417  0.11236717  0.31042900  1.0
  Y  Y3202  1  0.83993417  0.44570050  0.31042900  1.0
  Y  Y3203  1  0.83993417  0.77903383  0.31042900  1.0
  Y  Y3204  1  0.10047050  0.17810217  0.33680714  1.0
  Y  Y3205  1  0.10047050  0.51143550  0.33680714  1.0
  Y  Y3206  1  0.10047050  0.84476883  0.33680714  1.0
  Y  Y3207  1  0.43380383  0.17810217  0.33680714  1.0
  Y  Y3208  1  0.43380383  0.51143550  0.33680714  1.0
  Y  Y3209  1  0.43380383  0.84476883  0.33680714  1.0
  Y  Y3210  1  0.76713717  0.17810217  0.33680714  1.0
  Y  Y3211  1  0.76713717  0.51143550  0.33680714  1.0
  Y  Y3212  1  0.76713717  0.84476883  0.33680714  1.0
  Y  Y3213  1  0.26713717  0.01143550  0.40823571  1.0
  Y  Y3214  1  0.26713717  0.34476883  0.40823571  1.0
  Y  Y3215  1  0.26713717  0.67810217  0.40823571  1.0
  Y  Y3216  1  0.60047050  0.01143550  0.40823571  1.0
  Y  Y3217  1  0.60047050  0.34476883  0.40823571  1.0
  Y  Y3218  1  0.60047050  0.67810217  0.40823571  1.0
  Y  Y3219  1  0.93380383  0.01143550  0.40823571  1.0
  Y  Y3220  1  0.93380383  0.34476883  0.40823571  1.0
  Y  Y3221  1  0.93380383  0.67810217  0.40823571  1.0
  Y  Y3222  1  0.21991600  0.29166667  0.41061507  1.0
  Y  Y3223  1  0.21991600  0.62500000  0.41061507  1.0
  Y  Y3224  1  0.21991600  0.95833333  0.41061507  1.0
  Y  Y3225  1  0.55324933  0.29166667  0.41061507  1.0
  Y  Y3226  1  0.55324933  0.62500000  0.41061507  1.0
  Y  Y3227  1  0.55324933  0.95833333  0.41061507  1.0
  Y  Y3228  1  0.88658267  0.29166667  0.41061507  1.0
  Y  Y3229  1  0.88658267  0.62500000  0.41061507  1.0
  Y  Y3230  1  0.88658267  0.95833333  0.41061507  1.0
  Y  Y3231  1  0.05324933  0.12500000  0.33918650  1.0
  Y  Y3232  1  0.05324933  0.45833333  0.33918650  1.0
  Y  Y3233  1  0.05324933  0.79166667  0.33918650  1.0
  Y  Y3234  1  0.38658267  0.12500000  0.33918650  1.0
  Y  Y3235  1  0.38658267  0.45833333  0.33918650  1.0
  Y  Y3236  1  0.38658267  0.79166667  0.33918650  1.0
  Y  Y3237  1  0.71991600  0.12500000  0.33918650  1.0
  Y  Y3238  1  0.71991600  0.45833333  0.33918650  1.0
  Y  Y3239  1  0.71991600  0.79166667  0.33918650  1.0
  Y  Y3240  1  0.07713283  0.32070050  0.34442900  1.0
  Y  Y3241  1  0.07713283  0.65403383  0.34442900  1.0
  Y  Y3242  1  0.07713283  0.98736717  0.34442900  1.0
  Y  Y3243  1  0.41046617  0.32070050  0.34442900  1.0
  Y  Y3244  1  0.41046617  0.65403383  0.34442900  1.0
  Y  Y3245  1  0.41046617  0.98736717  0.34442900  1.0
  Y  Y3246  1  0.74379950  0.32070050  0.34442900  1.0
  Y  Y3247  1  0.74379950  0.65403383  0.34442900  1.0
  Y  Y3248  1  0.74379950  0.98736717  0.34442900  1.0
  Y  Y3249  1  0.24379950  0.15403383  0.41585757  1.0
  Y  Y3250  1  0.24379950  0.48736717  0.41585757  1.0
  Y  Y3251  1  0.24379950  0.82070050  0.41585757  1.0
  Y  Y3252  1  0.57713283  0.15403383  0.41585757  1.0
  Y  Y3253  1  0.57713283  0.48736717  0.41585757  1.0
  Y  Y3254  1  0.57713283  0.82070050  0.41585757  1.0
  Y  Y3255  1  0.91046617  0.15403383  0.41585757  1.0
  Y  Y3256  1  0.91046617  0.48736717  0.41585757  1.0
  Y  Y3257  1  0.91046617  0.82070050  0.41585757  1.0
  Y  Y3258  1  0.31285150  0.18210283  0.33598271  1.0
  Y  Y3259  1  0.31285150  0.51543617  0.33598271  1.0
  Y  Y3260  1  0.31285150  0.84876950  0.33598271  1.0
  Y  Y3261  1  0.64618483  0.18210283  0.33598271  1.0
  Y  Y3262  1  0.64618483  0.51543617  0.33598271  1.0
  Y  Y3263  1  0.64618483  0.84876950  0.33598271  1.0
  Y  Y3264  1  0.97951817  0.18210283  0.33598271  1.0
  Y  Y3265  1  0.97951817  0.51543617  0.33598271  1.0
  Y  Y3266  1  0.97951817  0.84876950  0.33598271  1.0
  Y  Y3267  1  0.14618483  0.01543617  0.40741129  1.0
  Y  Y3268  1  0.14618483  0.34876950  0.40741129  1.0
  Y  Y3269  1  0.14618483  0.68210283  0.40741129  1.0
  Y  Y3270  1  0.47951817  0.01543617  0.40741129  1.0
  Y  Y3271  1  0.47951817  0.34876950  0.40741129  1.0
  Y  Y3272  1  0.47951817  0.68210283  0.40741129  1.0
  Y  Y3273  1  0.81285150  0.01543617  0.40741129  1.0
  Y  Y3274  1  0.81285150  0.34876950  0.40741129  1.0
  Y  Y3275  1  0.81285150  0.68210283  0.40741129  1.0
  Y  Y3276  1  0.29366000  0.31844767  0.30420564  1.0
  Y  Y3277  1  0.29366000  0.65178100  0.30420564  1.0
  Y  Y3278  1  0.29366000  0.98511433  0.30420564  1.0
  Y  Y3279  1  0.62699333  0.31844767  0.30420564  1.0
  Y  Y3280  1  0.62699333  0.65178100  0.30420564  1.0
  Y  Y3281  1  0.62699333  0.98511433  0.30420564  1.0
  Y  Y3282  1  0.96032667  0.31844767  0.30420564  1.0
  Y  Y3283  1  0.96032667  0.65178100  0.30420564  1.0
  Y  Y3284  1  0.96032667  0.98511433  0.30420564  1.0
  Y  Y3285  1  0.12699333  0.15178100  0.37563421  1.0
  Y  Y3286  1  0.12699333  0.48511433  0.37563421  1.0
  Y  Y3287  1  0.12699333  0.81844767  0.37563421  1.0
  Y  Y3288  1  0.46032667  0.15178100  0.37563421  1.0
  Y  Y3289  1  0.46032667  0.48511433  0.37563421  1.0
  Y  Y3290  1  0.46032667  0.81844767  0.37563421  1.0
  Y  Y3291  1  0.79366000  0.15178100  0.37563421  1.0
  Y  Y3292  1  0.79366000  0.48511433  0.37563421  1.0
  Y  Y3293  1  0.79366000  0.81844767  0.37563421  1.0
  Y  Y3294  1  0.22825967  0.16907500  0.39341664  1.0
  Y  Y3295  1  0.22825967  0.50240833  0.39341664  1.0
  Y  Y3296  1  0.22825967  0.83574167  0.39341664  1.0
  Y  Y3297  1  0.56159300  0.16907500  0.39341664  1.0
  Y  Y3298  1  0.56159300  0.50240833  0.39341664  1.0
  Y  Y3299  1  0.56159300  0.83574167  0.39341664  1.0
  Y  Y3300  1  0.89492633  0.16907500  0.39341664  1.0
  Y  Y3301  1  0.89492633  0.50240833  0.39341664  1.0
  Y  Y3302  1  0.89492633  0.83574167  0.39341664  1.0
  Y  Y3303  1  0.06159300  0.00240833  0.32198807  1.0
  Y  Y3304  1  0.06159300  0.33574167  0.32198807  1.0
  Y  Y3305  1  0.06159300  0.66907500  0.32198807  1.0
  Y  Y3306  1  0.39492633  0.00240833  0.32198807  1.0
  Y  Y3307  1  0.39492633  0.33574167  0.32198807  1.0
  Y  Y3308  1  0.39492633  0.66907500  0.32198807  1.0
  Y  Y3309  1  0.72825967  0.00240833  0.32198807  1.0
  Y  Y3310  1  0.72825967  0.33574167  0.32198807  1.0
  Y  Y3311  1  0.72825967  0.66907500  0.32198807  1.0
  Y  Y3312  1  0.17824933  0.16666667  0.34711564  1.0
  Y  Y3313  1  0.17824933  0.50000000  0.34711564  1.0
  Y  Y3314  1  0.17824933  0.83333333  0.34711564  1.0
  Y  Y3315  1  0.51158267  0.16666667  0.34711564  1.0
  Y  Y3316  1  0.51158267  0.50000000  0.34711564  1.0
  Y  Y3317  1  0.51158267  0.83333333  0.34711564  1.0
  Y  Y3318  1  0.84491600  0.16666667  0.34711564  1.0
  Y  Y3319  1  0.84491600  0.50000000  0.34711564  1.0
  Y  Y3320  1  0.84491600  0.83333333  0.34711564  1.0
  Y  Y3321  1  0.01158267  0.33333333  0.41854421  1.0
  Y  Y3322  1  0.01158267  0.66666667  0.41854421  1.0
  Y  Y3323  1  0.01158267  1.00000000  0.41854421  1.0
  Y  Y3324  1  0.34491600  0.33333333  0.41854421  1.0
  Y  Y3325  1  0.34491600  0.66666667  0.41854421  1.0
  Y  Y3326  1  0.34491600  1.00000000  0.41854421  1.0
  Y  Y3327  1  0.67824933  0.33333333  0.41854421  1.0
  Y  Y3328  1  0.67824933  0.66666667  0.41854421  1.0
  Y  Y3329  1  0.67824933  1.00000000  0.41854421  1.0
  Y  Y3330  1  0.05205717  0.27623050  0.29314371  1.0
  Y  Y3331  1  0.05205717  0.60956383  0.29314371  1.0
  Y  Y3332  1  0.05205717  0.94289717  0.29314371  1.0
  Y  Y3333  1  0.38539050  0.27623050  0.29314371  1.0
  Y  Y3334  1  0.38539050  0.60956383  0.29314371  1.0
  Y  Y3335  1  0.38539050  0.94289717  0.29314371  1.0
  Y  Y3336  1  0.71872383  0.27623050  0.29314371  1.0
  Y  Y3337  1  0.71872383  0.60956383  0.29314371  1.0
  Y  Y3338  1  0.71872383  0.94289717  0.29314371  1.0
  Y  Y3339  1  0.21872383  0.10956383  0.36457229  1.0
  Y  Y3340  1  0.21872383  0.44289717  0.36457229  1.0
  Y  Y3341  1  0.21872383  0.77623050  0.36457229  1.0
  Y  Y3342  1  0.55205717  0.10956383  0.36457229  1.0
  Y  Y3343  1  0.55205717  0.44289717  0.36457229  1.0
  Y  Y3344  1  0.55205717  0.77623050  0.36457229  1.0
  Y  Y3345  1  0.88539050  0.10956383  0.36457229  1.0
  Y  Y3346  1  0.88539050  0.44289717  0.36457229  1.0
  Y  Y3347  1  0.88539050  0.77623050  0.36457229  1.0
  Y  Y3348  1  0.28506583  0.26263283  0.33394400  1.0
  Y  Y3349  1  0.28506583  0.59596617  0.33394400  1.0
  Y  Y3350  1  0.28506583  0.92929950  0.33394400  1.0
  Y  Y3351  1  0.61839917  0.26263283  0.33394400  1.0
  Y  Y3352  1  0.61839917  0.59596617  0.33394400  1.0
  Y  Y3353  1  0.61839917  0.92929950  0.33394400  1.0
  Y  Y3354  1  0.95173250  0.26263283  0.33394400  1.0
  Y  Y3355  1  0.95173250  0.59596617  0.33394400  1.0
  Y  Y3356  1  0.95173250  0.92929950  0.33394400  1.0
  Y  Y3357  1  0.11839917  0.09596617  0.40537257  1.0
  Y  Y3358  1  0.11839917  0.42929950  0.40537257  1.0
  Y  Y3359  1  0.11839917  0.76263283  0.40537257  1.0
  Y  Y3360  1  0.45173250  0.09596617  0.40537257  1.0
  Y  Y3361  1  0.45173250  0.42929950  0.40537257  1.0
  Y  Y3362  1  0.45173250  0.76263283  0.40537257  1.0
  Y  Y3363  1  0.78506583  0.09596617  0.40537257  1.0
  Y  Y3364  1  0.78506583  0.42929950  0.40537257  1.0
  Y  Y3365  1  0.78506583  0.76263283  0.40537257  1.0
  Y  Y3366  1  0.31031250  0.30310217  0.34344086  1.0
  Y  Y3367  1  0.31031250  0.63643550  0.34344086  1.0
  Y  Y3368  1  0.31031250  0.96976883  0.34344086  1.0
  Y  Y3369  1  0.64364583  0.30310217  0.34344086  1.0
  Y  Y3370  1  0.64364583  0.63643550  0.34344086  1.0
  Y  Y3371  1  0.64364583  0.96976883  0.34344086  1.0
  Y  Y3372  1  0.97697917  0.30310217  0.34344086  1.0
  Y  Y3373  1  0.97697917  0.63643550  0.34344086  1.0
  Y  Y3374  1  0.97697917  0.96976883  0.34344086  1.0
  Y  Y3375  1  0.14364583  0.13643550  0.41486943  1.0
  Y  Y3376  1  0.14364583  0.46976883  0.41486943  1.0
  Y  Y3377  1  0.14364583  0.80310217  0.41486943  1.0
  Y  Y3378  1  0.47697917  0.13643550  0.41486943  1.0
  Y  Y3379  1  0.47697917  0.46976883  0.41486943  1.0
  Y  Y3380  1  0.47697917  0.80310217  0.41486943  1.0
  Y  Y3381  1  0.81031250  0.13643550  0.41486943  1.0
  Y  Y3382  1  0.81031250  0.46976883  0.41486943  1.0
  Y  Y3383  1  0.81031250  0.80310217  0.41486943  1.0
  Y  Y3384  1  0.06054733  0.16666667  0.30514593  1.0
  Y  Y3385  1  0.06054733  0.50000000  0.30514593  1.0
  Y  Y3386  1  0.06054733  0.83333333  0.30514593  1.0
  Y  Y3387  1  0.39388067  0.16666667  0.30514593  1.0
  Y  Y3388  1  0.39388067  0.50000000  0.30514593  1.0
  Y  Y3389  1  0.39388067  0.83333333  0.30514593  1.0
  Y  Y3390  1  0.72721400  0.16666667  0.30514593  1.0
  Y  Y3391  1  0.72721400  0.50000000  0.30514593  1.0
  Y  Y3392  1  0.72721400  0.83333333  0.30514593  1.0
  Y  Y3393  1  0.22721400  0.00000000  0.37657450  1.0
  Y  Y3394  1  0.22721400  0.33333333  0.37657450  1.0
  Y  Y3395  1  0.22721400  0.66666667  0.37657450  1.0
  Y  Y3396  1  0.56054733  0.00000000  0.37657450  1.0
  Y  Y3397  1  0.56054733  0.33333333  0.37657450  1.0
  Y  Y3398  1  0.56054733  0.66666667  0.37657450  1.0
  Y  Y3399  1  0.89388067  0.00000000  0.37657450  1.0
  Y  Y3400  1  0.89388067  0.33333333  0.37657450  1.0
  Y  Y3401  1  0.89388067  0.66666667  0.37657450  1.0
  Y  Y3402  1  0.10238833  0.21074167  0.28573379  1.0
  Y  Y3403  1  0.10238833  0.54407500  0.28573379  1.0
  Y  Y3404  1  0.10238833  0.87740833  0.28573379  1.0
  Y  Y3405  1  0.43572167  0.21074167  0.28573379  1.0
  Y  Y3406  1  0.43572167  0.54407500  0.28573379  1.0
  Y  Y3407  1  0.43572167  0.87740833  0.28573379  1.0
  Y  Y3408  1  0.76905500  0.21074167  0.28573379  1.0
  Y  Y3409  1  0.76905500  0.54407500  0.28573379  1.0
  Y  Y3410  1  0.76905500  0.87740833  0.28573379  1.0
  Y  Y3411  1  0.26905500  0.04407500  0.35716236  1.0
  Y  Y3412  1  0.26905500  0.37740833  0.35716236  1.0
  Y  Y3413  1  0.26905500  0.71074167  0.35716236  1.0
  Y  Y3414  1  0.60238833  0.04407500  0.35716236  1.0
  Y  Y3415  1  0.60238833  0.37740833  0.35716236  1.0
  Y  Y3416  1  0.60238833  0.71074167  0.35716236  1.0
  Y  Y3417  1  0.93572167  0.04407500  0.35716236  1.0
  Y  Y3418  1  0.93572167  0.37740833  0.35716236  1.0
  Y  Y3419  1  0.93572167  0.71074167  0.35716236  1.0
  Y  Y3420  1  0.31468750  0.23856450  0.41299443  1.0
  Y  Y3421  1  0.31468750  0.57189783  0.41299443  1.0
  Y  Y3422  1  0.31468750  0.90523117  0.41299443  1.0
  Y  Y3423  1  0.64802083  0.23856450  0.41299443  1.0
  Y  Y3424  1  0.64802083  0.57189783  0.41299443  1.0
  Y  Y3425  1  0.64802083  0.90523117  0.41299443  1.0
  Y  Y3426  1  0.98135417  0.23856450  0.41299443  1.0
  Y  Y3427  1  0.98135417  0.57189783  0.41299443  1.0
  Y  Y3428  1  0.98135417  0.90523117  0.41299443  1.0
  Y  Y3429  1  0.14802083  0.07189783  0.34156586  1.0
  Y  Y3430  1  0.14802083  0.40523117  0.34156586  1.0
  Y  Y3431  1  0.14802083  0.73856450  0.34156586  1.0
  Y  Y3432  1  0.48135417  0.07189783  0.34156586  1.0
  Y  Y3433  1  0.48135417  0.40523117  0.34156586  1.0
  Y  Y3434  1  0.48135417  0.73856450  0.34156586  1.0
  Y  Y3435  1  0.81468750  0.07189783  0.34156586  1.0
  Y  Y3436  1  0.81468750  0.40523117  0.34156586  1.0
  Y  Y3437  1  0.81468750  0.73856450  0.34156586  1.0
  Y  Y3438  1  0.06445267  0.20833333  0.37490079  1.0
  Y  Y3439  1  0.06445267  0.54166667  0.37490079  1.0
  Y  Y3440  1  0.06445267  0.87500000  0.37490079  1.0
  Y  Y3441  1  0.39778600  0.20833333  0.37490079  1.0
  Y  Y3442  1  0.39778600  0.54166667  0.37490079  1.0
  Y  Y3443  1  0.39778600  0.87500000  0.37490079  1.0
  Y  Y3444  1  0.73111933  0.20833333  0.37490079  1.0
  Y  Y3445  1  0.73111933  0.54166667  0.37490079  1.0
  Y  Y3446  1  0.73111933  0.87500000  0.37490079  1.0
  Y  Y3447  1  0.23111933  0.04166667  0.30347221  1.0
  Y  Y3448  1  0.23111933  0.37500000  0.30347221  1.0
  Y  Y3449  1  0.23111933  0.70833333  0.30347221  1.0
  Y  Y3450  1  0.56445267  0.04166667  0.30347221  1.0
  Y  Y3451  1  0.56445267  0.37500000  0.30347221  1.0
  Y  Y3452  1  0.56445267  0.70833333  0.30347221  1.0
  Y  Y3453  1  0.89778600  0.04166667  0.30347221  1.0
  Y  Y3454  1  0.89778600  0.37500000  0.30347221  1.0
  Y  Y3455  1  0.89778600  0.70833333  0.30347221  1.0
  Y  Y3456  1  0.07175067  0.25000000  0.40268593  1.0
  Y  Y3457  1  0.07175067  0.58333333  0.40268593  1.0
  Y  Y3458  1  0.07175067  0.91666667  0.40268593  1.0
  Y  Y3459  1  0.40508400  0.25000000  0.40268593  1.0
  Y  Y3460  1  0.40508400  0.58333333  0.40268593  1.0
  Y  Y3461  1  0.40508400  0.91666667  0.40268593  1.0
  Y  Y3462  1  0.73841733  0.25000000  0.40268593  1.0
  Y  Y3463  1  0.73841733  0.58333333  0.40268593  1.0
  Y  Y3464  1  0.73841733  0.91666667  0.40268593  1.0
  Y  Y3465  1  0.23841733  0.08333333  0.33125736  1.0
  Y  Y3466  1  0.23841733  0.41666667  0.33125736  1.0
  Y  Y3467  1  0.23841733  0.75000000  0.33125736  1.0
  Y  Y3468  1  0.57175067  0.08333333  0.33125736  1.0
  Y  Y3469  1  0.57175067  0.41666667  0.33125736  1.0
  Y  Y3470  1  0.57175067  0.75000000  0.33125736  1.0
  Y  Y3471  1  0.90508400  0.08333333  0.33125736  1.0
  Y  Y3472  1  0.90508400  0.41666667  0.33125736  1.0
  Y  Y3473  1  0.90508400  0.75000000  0.33125736  1.0
  Y  Y3474  1  0.27474300  0.28925833  0.31938379  1.0
  Y  Y3475  1  0.27474300  0.62259167  0.31938379  1.0
  Y  Y3476  1  0.27474300  0.95592500  0.31938379  1.0
  Y  Y3477  1  0.60807633  0.28925833  0.31938379  1.0
  Y  Y3478  1  0.60807633  0.62259167  0.31938379  1.0
  Y  Y3479  1  0.60807633  0.95592500  0.31938379  1.0
  Y  Y3480  1  0.94140967  0.28925833  0.31938379  1.0
  Y  Y3481  1  0.94140967  0.62259167  0.31938379  1.0
  Y  Y3482  1  0.94140967  0.95592500  0.31938379  1.0
  Y  Y3483  1  0.10807633  0.12259167  0.39081236  1.0
  Y  Y3484  1  0.10807633  0.45592500  0.39081236  1.0
  Y  Y3485  1  0.10807633  0.78925833  0.39081236  1.0
  Y  Y3486  1  0.44140967  0.12259167  0.39081236  1.0
  Y  Y3487  1  0.44140967  0.45592500  0.39081236  1.0
  Y  Y3488  1  0.44140967  0.78925833  0.39081236  1.0
  Y  Y3489  1  0.77474300  0.12259167  0.39081236  1.0
  Y  Y3490  1  0.77474300  0.45592500  0.39081236  1.0
  Y  Y3491  1  0.77474300  0.78925833  0.39081236  1.0
  Y  Y3492  1  0.21453383  0.22096617  0.35697143  1.0
  Y  Y3493  1  0.21453383  0.55429950  0.35697143  1.0
  Y  Y3494  1  0.21453383  0.88763283  0.35697143  1.0
  Y  Y3495  1  0.54786717  0.22096617  0.35697143  1.0
  Y  Y3496  1  0.54786717  0.55429950  0.35697143  1.0
  Y  Y3497  1  0.54786717  0.88763283  0.35697143  1.0
  Y  Y3498  1  0.88120050  0.22096617  0.35697143  1.0
  Y  Y3499  1  0.88120050  0.55429950  0.35697143  1.0
  Y  Y3500  1  0.88120050  0.88763283  0.35697143  1.0
  Y  Y3501  1  0.04786717  0.05429950  0.42840000  1.0
  Y  Y3502  1  0.04786717  0.38763283  0.42840000  1.0
  Y  Y3503  1  0.04786717  0.72096617  0.42840000  1.0
  Y  Y3504  1  0.38120050  0.05429950  0.42840000  1.0
  Y  Y3505  1  0.38120050  0.38763283  0.42840000  1.0
  Y  Y3506  1  0.38120050  0.72096617  0.42840000  1.0
  Y  Y3507  1  0.71453383  0.05429950  0.42840000  1.0
  Y  Y3508  1  0.71453383  0.38763283  0.42840000  1.0
  Y  Y3509  1  0.71453383  0.72096617  0.42840000  1.0
  Y  Y3510  1  0.02452950  0.19689783  0.29792471  1.0
  Y  Y3511  1  0.02452950  0.53023117  0.29792471  1.0
  Y  Y3512  1  0.02452950  0.86356450  0.29792471  1.0
  Y  Y3513  1  0.35786283  0.19689783  0.29792471  1.0
  Y  Y3514  1  0.35786283  0.53023117  0.29792471  1.0
  Y  Y3515  1  0.35786283  0.86356450  0.29792471  1.0
  Y  Y3516  1  0.69119617  0.19689783  0.29792471  1.0
  Y  Y3517  1  0.69119617  0.53023117  0.29792471  1.0
  Y  Y3518  1  0.69119617  0.86356450  0.29792471  1.0
  Y  Y3519  1  0.19119617  0.03023117  0.36935329  1.0
  Y  Y3520  1  0.19119617  0.36356450  0.36935329  1.0
  Y  Y3521  1  0.19119617  0.69689783  0.36935329  1.0
  Y  Y3522  1  0.52452950  0.03023117  0.36935329  1.0
  Y  Y3523  1  0.52452950  0.36356450  0.36935329  1.0
  Y  Y3524  1  0.52452950  0.69689783  0.36935329  1.0
  Y  Y3525  1  0.85786283  0.03023117  0.36935329  1.0
  Y  Y3526  1  0.85786283  0.36356450  0.36935329  1.0
  Y  Y3527  1  0.85786283  0.69689783  0.36935329  1.0
  Y  Y3528  1  0.18927833  0.33092500  0.31992379  1.0
  Y  Y3529  1  0.18927833  0.66425833  0.31992379  1.0
  Y  Y3530  1  0.18927833  0.99759167  0.31992379  1.0
  Y  Y3531  1  0.52261167  0.33092500  0.31992379  1.0
  Y  Y3532  1  0.52261167  0.66425833  0.31992379  1.0
  Y  Y3533  1  0.52261167  0.99759167  0.31992379  1.0
  Y  Y3534  1  0.85594500  0.33092500  0.31992379  1.0
  Y  Y3535  1  0.85594500  0.66425833  0.31992379  1.0
  Y  Y3536  1  0.85594500  0.99759167  0.31992379  1.0
  Y  Y3537  1  0.02261167  0.16425833  0.39135236  1.0
  Y  Y3538  1  0.02261167  0.49759167  0.39135236  1.0
  Y  Y3539  1  0.02261167  0.83092500  0.39135236  1.0
  Y  Y3540  1  0.35594500  0.16425833  0.39135236  1.0
  Y  Y3541  1  0.35594500  0.49759167  0.39135236  1.0
  Y  Y3542  1  0.35594500  0.83092500  0.39135236  1.0
  Y  Y3543  1  0.68927833  0.16425833  0.39135236  1.0
  Y  Y3544  1  0.68927833  0.49759167  0.39135236  1.0
  Y  Y3545  1  0.68927833  0.83092500  0.39135236  1.0
  Y  Y3546  1  0.23960950  0.26543617  0.42704986  1.0
  Y  Y3547  1  0.23960950  0.59876950  0.42704986  1.0
  Y  Y3548  1  0.23960950  0.93210283  0.42704986  1.0
  Y  Y3549  1  0.57294283  0.26543617  0.42704986  1.0
  Y  Y3550  1  0.57294283  0.59876950  0.42704986  1.0
  Y  Y3551  1  0.57294283  0.93210283  0.42704986  1.0
  Y  Y3552  1  0.90627617  0.26543617  0.42704986  1.0
  Y  Y3553  1  0.90627617  0.59876950  0.42704986  1.0
  Y  Y3554  1  0.90627617  0.93210283  0.42704986  1.0
  Y  Y3555  1  0.07294283  0.09876950  0.35562129  1.0
  Y  Y3556  1  0.07294283  0.43210283  0.35562129  1.0
  Y  Y3557  1  0.07294283  0.76543617  0.35562129  1.0
  Y  Y3558  1  0.40627617  0.09876950  0.35562129  1.0
  Y  Y3559  1  0.40627617  0.43210283  0.35562129  1.0
  Y  Y3560  1  0.40627617  0.76543617  0.35562129  1.0
  Y  Y3561  1  0.73960950  0.09876950  0.35562129  1.0
  Y  Y3562  1  0.73960950  0.43210283  0.35562129  1.0
  Y  Y3563  1  0.73960950  0.76543617  0.35562129  1.0
  Y  Y3564  1  0.23220500  0.24759167  0.35638493  1.0
  Y  Y3565  1  0.23220500  0.58092500  0.35638493  1.0
  Y  Y3566  1  0.23220500  0.91425833  0.35638493  1.0
  Y  Y3567  1  0.56553833  0.24759167  0.35638493  1.0
  Y  Y3568  1  0.56553833  0.58092500  0.35638493  1.0
  Y  Y3569  1  0.56553833  0.91425833  0.35638493  1.0
  Y  Y3570  1  0.89887167  0.24759167  0.35638493  1.0
  Y  Y3571  1  0.89887167  0.58092500  0.35638493  1.0
  Y  Y3572  1  0.89887167  0.91425833  0.35638493  1.0
  Y  Y3573  1  0.06553833  0.08092500  0.42781350  1.0
  Y  Y3574  1  0.06553833  0.41425833  0.42781350  1.0
  Y  Y3575  1  0.06553833  0.74759167  0.42781350  1.0
  Y  Y3576  1  0.39887167  0.08092500  0.42781350  1.0
  Y  Y3577  1  0.39887167  0.41425833  0.42781350  1.0
  Y  Y3578  1  0.39887167  0.74759167  0.42781350  1.0
  Y  Y3579  1  0.73220500  0.08092500  0.42781350  1.0
  Y  Y3580  1  0.73220500  0.41425833  0.42781350  1.0
  Y  Y3581  1  0.73220500  0.74759167  0.42781350  1.0
  Y  Y3582  1  0.01692367  0.25240833  0.35844921  1.0
  Y  Y3583  1  0.01692367  0.58574167  0.35844921  1.0
  Y  Y3584  1  0.01692367  0.91907500  0.35844921  1.0
  Y  Y3585  1  0.35025700  0.25240833  0.35844921  1.0
  Y  Y3586  1  0.35025700  0.58574167  0.35844921  1.0
  Y  Y3587  1  0.35025700  0.91907500  0.35844921  1.0
  Y  Y3588  1  0.68359033  0.25240833  0.35844921  1.0
  Y  Y3589  1  0.68359033  0.58574167  0.35844921  1.0
  Y  Y3590  1  0.68359033  0.91907500  0.35844921  1.0
  Y  Y3591  1  0.18359033  0.08574167  0.28702064  1.0
  Y  Y3592  1  0.18359033  0.41907500  0.28702064  1.0
  Y  Y3593  1  0.18359033  0.75240833  0.28702064  1.0
  Y  Y3594  1  0.51692367  0.08574167  0.28702064  1.0
  Y  Y3595  1  0.51692367  0.41907500  0.28702064  1.0
  Y  Y3596  1  0.51692367  0.75240833  0.28702064  1.0
  Y  Y3597  1  0.85025700  0.08574167  0.28702064  1.0
  Y  Y3598  1  0.85025700  0.41907500  0.28702064  1.0
  Y  Y3599  1  0.85025700  0.75240833  0.28702064  1.0
  Y  Y3600  1  0.27300183  0.17929950  0.42668571  1.0
  Y  Y3601  1  0.27300183  0.51263283  0.42668571  1.0
  Y  Y3602  1  0.27300183  0.84596617  0.42668571  1.0
  Y  Y3603  1  0.60633517  0.17929950  0.42668571  1.0
  Y  Y3604  1  0.60633517  0.51263283  0.42668571  1.0
  Y  Y3605  1  0.60633517  0.84596617  0.42668571  1.0
  Y  Y3606  1  0.93966850  0.17929950  0.42668571  1.0
  Y  Y3607  1  0.93966850  0.51263283  0.42668571  1.0
  Y  Y3608  1  0.93966850  0.84596617  0.42668571  1.0
  Y  Y3609  1  0.10633517  0.01263283  0.35525714  1.0
  Y  Y3610  1  0.10633517  0.34596617  0.35525714  1.0
  Y  Y3611  1  0.10633517  0.67929950  0.35525714  1.0
  Y  Y3612  1  0.43966850  0.01263283  0.35525714  1.0
  Y  Y3613  1  0.43966850  0.34596617  0.35525714  1.0
  Y  Y3614  1  0.43966850  0.67929950  0.35525714  1.0
  Y  Y3615  1  0.77300183  0.01263283  0.35525714  1.0
  Y  Y3616  1  0.77300183  0.34596617  0.35525714  1.0
  Y  Y3617  1  0.77300183  0.67929950  0.35525714  1.0
  Y  Y3618  1  0.14807633  0.18155233  0.38839336  1.0
  Y  Y3619  1  0.14807633  0.51488567  0.38839336  1.0
  Y  Y3620  1  0.14807633  0.84821900  0.38839336  1.0
  Y  Y3621  1  0.48140967  0.18155233  0.38839336  1.0
  Y  Y3622  1  0.48140967  0.51488567  0.38839336  1.0
  Y  Y3623  1  0.48140967  0.84821900  0.38839336  1.0
  Y  Y3624  1  0.81474300  0.18155233  0.38839336  1.0
  Y  Y3625  1  0.81474300  0.51488567  0.38839336  1.0
  Y  Y3626  1  0.81474300  0.84821900  0.38839336  1.0
  Y  Y3627  1  0.31474300  0.01488567  0.31696479  1.0
  Y  Y3628  1  0.31474300  0.34821900  0.31696479  1.0
  Y  Y3629  1  0.31474300  0.68155233  0.31696479  1.0
  Y  Y3630  1  0.64807633  0.01488567  0.31696479  1.0
  Y  Y3631  1  0.64807633  0.34821900  0.31696479  1.0
  Y  Y3632  1  0.64807633  0.68155233  0.31696479  1.0
  Y  Y3633  1  0.98140967  0.01488567  0.31696479  1.0
  Y  Y3634  1  0.98140967  0.34821900  0.31696479  1.0
  Y  Y3635  1  0.98140967  0.68155233  0.31696479  1.0
  Y  Y3636  1  0.21951433  0.27678100  0.38244079  1.0
  Y  Y3637  1  0.21951433  0.61011433  0.38244079  1.0
  Y  Y3638  1  0.21951433  0.94344767  0.38244079  1.0
  Y  Y3639  1  0.55284767  0.27678100  0.38244079  1.0
  Y  Y3640  1  0.55284767  0.61011433  0.38244079  1.0
  Y  Y3641  1  0.55284767  0.94344767  0.38244079  1.0
  Y  Y3642  1  0.88618100  0.27678100  0.38244079  1.0
  Y  Y3643  1  0.88618100  0.61011433  0.38244079  1.0
  Y  Y3644  1  0.88618100  0.94344767  0.38244079  1.0
  Y  Y3645  1  0.05284767  0.11011433  0.31101221  1.0
  Y  Y3646  1  0.05284767  0.44344767  0.31101221  1.0
  Y  Y3647  1  0.05284767  0.77678100  0.31101221  1.0
  Y  Y3648  1  0.38618100  0.11011433  0.31101221  1.0
  Y  Y3649  1  0.38618100  0.44344767  0.31101221  1.0
  Y  Y3650  1  0.38618100  0.77678100  0.31101221  1.0
  Y  Y3651  1  0.71951433  0.11011433  0.31101221  1.0
  Y  Y3652  1  0.71951433  0.44344767  0.31101221  1.0
  Y  Y3653  1  0.71951433  0.77678100  0.31101221  1.0
  Y  Y3654  1  0.14548183  0.19289717  0.33628400  1.0
  Y  Y3655  1  0.14548183  0.52623050  0.33628400  1.0
  Y  Y3656  1  0.14548183  0.85956383  0.33628400  1.0
  Y  Y3657  1  0.47881517  0.19289717  0.33628400  1.0
  Y  Y3658  1  0.47881517  0.52623050  0.33628400  1.0
  Y  Y3659  1  0.47881517  0.85956383  0.33628400  1.0
  Y  Y3660  1  0.81214850  0.19289717  0.33628400  1.0
  Y  Y3661  1  0.81214850  0.52623050  0.33628400  1.0
  Y  Y3662  1  0.81214850  0.85956383  0.33628400  1.0
  Y  Y3663  1  0.31214850  0.02623050  0.40771257  1.0
  Y  Y3664  1  0.31214850  0.35956383  0.40771257  1.0
  Y  Y3665  1  0.31214850  0.69289717  0.40771257  1.0
  Y  Y3666  1  0.64548183  0.02623050  0.40771257  1.0
  Y  Y3667  1  0.64548183  0.35956383  0.40771257  1.0
  Y  Y3668  1  0.64548183  0.69289717  0.40771257  1.0
  Y  Y3669  1  0.97881517  0.02623050  0.40771257  1.0
  Y  Y3670  1  0.97881517  0.35956383  0.40771257  1.0
  Y  Y3671  1  0.97881517  0.69289717  0.40771257  1.0
  Y  Y3672  1  0.25172683  0.31789717  0.39418029  1.0
  Y  Y3673  1  0.25172683  0.65123050  0.39418029  1.0
  Y  Y3674  1  0.25172683  0.98456383  0.39418029  1.0
  Y  Y3675  1  0.58506017  0.31789717  0.39418029  1.0
  Y  Y3676  1  0.58506017  0.65123050  0.39418029  1.0
  Y  Y3677  1  0.58506017  0.98456383  0.39418029  1.0
  Y  Y3678  1  0.91839350  0.31789717  0.39418029  1.0
  Y  Y3679  1  0.91839350  0.65123050  0.39418029  1.0
  Y  Y3680  1  0.91839350  0.98456383  0.39418029  1.0
  Y  Y3681  1  0.08506017  0.15123050  0.32275171  1.0
  Y  Y3682  1  0.08506017  0.48456383  0.32275171  1.0
  Y  Y3683  1  0.08506017  0.81789717  0.32275171  1.0
  Y  Y3684  1  0.41839350  0.15123050  0.32275171  1.0
  Y  Y3685  1  0.41839350  0.48456383  0.32275171  1.0
  Y  Y3686  1  0.41839350  0.81789717  0.32275171  1.0
  Y  Y3687  1  0.75172683  0.15123050  0.32275171  1.0
  Y  Y3688  1  0.75172683  0.48456383  0.32275171  1.0
  Y  Y3689  1  0.75172683  0.81789717  0.32275171  1.0
  Y  Y3690  1  0.09585450  0.30710283  0.38522929  1.0
  Y  Y3691  1  0.09585450  0.64043617  0.38522929  1.0
  Y  Y3692  1  0.09585450  0.97376950  0.38522929  1.0
  Y  Y3693  1  0.42918783  0.30710283  0.38522929  1.0
  Y  Y3694  1  0.42918783  0.64043617  0.38522929  1.0
  Y  Y3695  1  0.42918783  0.97376950  0.38522929  1.0
  Y  Y3696  1  0.76252117  0.30710283  0.38522929  1.0
  Y  Y3697  1  0.76252117  0.64043617  0.38522929  1.0
  Y  Y3698  1  0.76252117  0.97376950  0.38522929  1.0
  Y  Y3699  1  0.26252117  0.14043617  0.31380071  1.0
  Y  Y3700  1  0.26252117  0.47376950  0.31380071  1.0
  Y  Y3701  1  0.26252117  0.80710283  0.31380071  1.0
  Y  Y3702  1  0.59585450  0.14043617  0.31380071  1.0
  Y  Y3703  1  0.59585450  0.47376950  0.31380071  1.0
  Y  Y3704  1  0.59585450  0.80710283  0.31380071  1.0
  Y  Y3705  1  0.92918783  0.14043617  0.31380071  1.0
  Y  Y3706  1  0.92918783  0.47376950  0.31380071  1.0
  Y  Y3707  1  0.92918783  0.80710283  0.31380071  1.0
  Y  Y3708  1  0.03146617  0.23736717  0.32311586  1.0
  Y  Y3709  1  0.03146617  0.57070050  0.32311586  1.0
  Y  Y3710  1  0.03146617  0.90403383  0.32311586  1.0
  Y  Y3711  1  0.36479950  0.23736717  0.32311586  1.0
  Y  Y3712  1  0.36479950  0.57070050  0.32311586  1.0
  Y  Y3713  1  0.36479950  0.90403383  0.32311586  1.0
  Y  Y3714  1  0.69813283  0.23736717  0.32311586  1.0
  Y  Y3715  1  0.69813283  0.57070050  0.32311586  1.0
  Y  Y3716  1  0.69813283  0.90403383  0.32311586  1.0
  Y  Y3717  1  0.19813283  0.07070050  0.39454443  1.0
  Y  Y3718  1  0.19813283  0.40403383  0.39454443  1.0
  Y  Y3719  1  0.19813283  0.73736717  0.39454443  1.0
  Y  Y3720  1  0.53146617  0.07070050  0.39454443  1.0
  Y  Y3721  1  0.53146617  0.40403383  0.39454443  1.0
  Y  Y3722  1  0.53146617  0.73736717  0.39454443  1.0
  Y  Y3723  1  0.86479950  0.07070050  0.39454443  1.0
  Y  Y3724  1  0.86479950  0.40403383  0.39454443  1.0
  Y  Y3725  1  0.86479950  0.73736717  0.39454443  1.0
  Y  Y3726  1  0.18533150  0.19570050  0.39283014  1.0
  Y  Y3727  1  0.18533150  0.52903383  0.39283014  1.0
  Y  Y3728  1  0.18533150  0.86236717  0.39283014  1.0
  Y  Y3729  1  0.51866483  0.19570050  0.39283014  1.0
  Y  Y3730  1  0.51866483  0.52903383  0.39283014  1.0
  Y  Y3731  1  0.51866483  0.86236717  0.39283014  1.0
  Y  Y3732  1  0.85199817  0.19570050  0.39283014  1.0
  Y  Y3733  1  0.85199817  0.52903383  0.39283014  1.0
  Y  Y3734  1  0.85199817  0.86236717  0.39283014  1.0
  Y  Y3735  1  0.01866483  0.02903383  0.32140157  1.0
  Y  Y3736  1  0.01866483  0.36236717  0.32140157  1.0
  Y  Y3737  1  0.01866483  0.69570050  0.32140157  1.0
  Y  Y3738  1  0.35199817  0.02903383  0.32140157  1.0
  Y  Y3739  1  0.35199817  0.36236717  0.32140157  1.0
  Y  Y3740  1  0.35199817  0.69570050  0.32140157  1.0
  Y  Y3741  1  0.68533150  0.02903383  0.32140157  1.0
  Y  Y3742  1  0.68533150  0.36236717  0.32140157  1.0
  Y  Y3743  1  0.68533150  0.69570050  0.32140157  1.0
  Ni  Ni3744  1  0.02010833  0.30931367  0.37035921  1.0
  Ni  Ni3745  1  0.02010833  0.64264700  0.37035921  1.0
  Ni  Ni3746  1  0.02010833  0.97598033  0.37035921  1.0
  Ni  Ni3747  1  0.35344167  0.30931367  0.37035921  1.0
  Ni  Ni3748  1  0.35344167  0.64264700  0.37035921  1.0
  Ni  Ni3749  1  0.35344167  0.97598033  0.37035921  1.0
  Ni  Ni3750  1  0.68677500  0.30931367  0.37035921  1.0
  Ni  Ni3751  1  0.68677500  0.64264700  0.37035921  1.0
  Ni  Ni3752  1  0.68677500  0.97598033  0.37035921  1.0
  Ni  Ni3753  1  0.18677500  0.14264700  0.29893064  1.0
  Ni  Ni3754  1  0.18677500  0.47598033  0.29893064  1.0
  Ni  Ni3755  1  0.18677500  0.80931367  0.29893064  1.0
  Ni  Ni3756  1  0.52010833  0.14264700  0.29893064  1.0
  Ni  Ni3757  1  0.52010833  0.47598033  0.29893064  1.0
  Ni  Ni3758  1  0.52010833  0.80931367  0.29893064  1.0
  Ni  Ni3759  1  0.85344167  0.14264700  0.29893064  1.0
  Ni  Ni3760  1  0.85344167  0.47598033  0.29893064  1.0
  Ni  Ni3761  1  0.85344167  0.80931367  0.29893064  1.0
  Ni  Ni3762  1  0.30298133  0.32938633  0.38802421  1.0
  Ni  Ni3763  1  0.30298133  0.66271967  0.38802421  1.0
  Ni  Ni3764  1  0.30298133  0.99605300  0.38802421  1.0
  Ni  Ni3765  1  0.63631467  0.32938633  0.38802421  1.0
  Ni  Ni3766  1  0.63631467  0.66271967  0.38802421  1.0
  Ni  Ni3767  1  0.63631467  0.99605300  0.38802421  1.0
  Ni  Ni3768  1  0.96964800  0.32938633  0.38802421  1.0
  Ni  Ni3769  1  0.96964800  0.66271967  0.38802421  1.0
  Ni  Ni3770  1  0.96964800  0.99605300  0.38802421  1.0
  Ni  Ni3771  1  0.13631467  0.16271967  0.31659564  1.0
  Ni  Ni3772  1  0.13631467  0.49605300  0.31659564  1.0
  Ni  Ni3773  1  0.13631467  0.82938633  0.31659564  1.0
  Ni  Ni3774  1  0.46964800  0.16271967  0.31659564  1.0
  Ni  Ni3775  1  0.46964800  0.49605300  0.31659564  1.0
  Ni  Ni3776  1  0.46964800  0.82938633  0.31659564  1.0
  Ni  Ni3777  1  0.80298133  0.16271967  0.31659564  1.0
  Ni  Ni3778  1  0.80298133  0.49605300  0.31659564  1.0
  Ni  Ni3779  1  0.80298133  0.82938633  0.31659564  1.0
  Ni  Ni3780  1  0.00367767  0.28771967  0.34076793  1.0
  Ni  Ni3781  1  0.00367767  0.62105300  0.34076793  1.0
  Ni  Ni3782  1  0.00367767  0.95438633  0.34076793  1.0
  Ni  Ni3783  1  0.33701100  0.28771967  0.34076793  1.0
  Ni  Ni3784  1  0.33701100  0.62105300  0.34076793  1.0
  Ni  Ni3785  1  0.33701100  0.95438633  0.34076793  1.0
  Ni  Ni3786  1  0.67034433  0.28771967  0.34076793  1.0
  Ni  Ni3787  1  0.67034433  0.62105300  0.34076793  1.0
  Ni  Ni3788  1  0.67034433  0.95438633  0.34076793  1.0
  Ni  Ni3789  1  0.17034433  0.12105300  0.41219650  1.0
  Ni  Ni3790  1  0.17034433  0.45438633  0.41219650  1.0
  Ni  Ni3791  1  0.17034433  0.78771967  0.41219650  1.0
  Ni  Ni3792  1  0.50367767  0.12105300  0.41219650  1.0
  Ni  Ni3793  1  0.50367767  0.45438633  0.41219650  1.0
  Ni  Ni3794  1  0.50367767  0.78771967  0.41219650  1.0
  Ni  Ni3795  1  0.83701100  0.12105300  0.41219650  1.0
  Ni  Ni3796  1  0.83701100  0.45438633  0.41219650  1.0
  Ni  Ni3797  1  0.83701100  0.78771967  0.41219650  1.0
  Ni  Ni3798  1  0.01450833  0.26764700  0.34914950  1.0
  Ni  Ni3799  1  0.01450833  0.60098033  0.34914950  1.0
  Ni  Ni3800  1  0.01450833  0.93431367  0.34914950  1.0
  Ni  Ni3801  1  0.34784167  0.26764700  0.34914950  1.0
  Ni  Ni3802  1  0.34784167  0.60098033  0.34914950  1.0
  Ni  Ni3803  1  0.34784167  0.93431367  0.34914950  1.0
  Ni  Ni3804  1  0.68117500  0.26764700  0.34914950  1.0
  Ni  Ni3805  1  0.68117500  0.60098033  0.34914950  1.0
  Ni  Ni3806  1  0.68117500  0.93431367  0.34914950  1.0
  Ni  Ni3807  1  0.18117500  0.10098033  0.42057807  1.0
  Ni  Ni3808  1  0.18117500  0.43431367  0.42057807  1.0
  Ni  Ni3809  1  0.18117500  0.76764700  0.42057807  1.0
  Ni  Ni3810  1  0.51450833  0.10098033  0.42057807  1.0
  Ni  Ni3811  1  0.51450833  0.43431367  0.42057807  1.0
  Ni  Ni3812  1  0.51450833  0.76764700  0.42057807  1.0
  Ni  Ni3813  1  0.84784167  0.10098033  0.42057807  1.0
  Ni  Ni3814  1  0.84784167  0.43431367  0.42057807  1.0
  Ni  Ni3815  1  0.84784167  0.76764700  0.42057807  1.0
  Ni  Ni3816  1  0.19642850  0.29977683  0.37155114  1.0
  Ni  Ni3817  1  0.19642850  0.63311017  0.37155114  1.0
  Ni  Ni3818  1  0.19642850  0.96644350  0.37155114  1.0
  Ni  Ni3819  1  0.52976183  0.29977683  0.37155114  1.0
  Ni  Ni3820  1  0.52976183  0.63311017  0.37155114  1.0
  Ni  Ni3821  1  0.52976183  0.96644350  0.37155114  1.0
  Ni  Ni3822  1  0.86309517  0.29977683  0.37155114  1.0
  Ni  Ni3823  1  0.86309517  0.63311017  0.37155114  1.0
  Ni  Ni3824  1  0.86309517  0.96644350  0.37155114  1.0
  Ni  Ni3825  1  0.02976183  0.13311017  0.30012257  1.0
  Ni  Ni3826  1  0.02976183  0.46644350  0.30012257  1.0
  Ni  Ni3827  1  0.02976183  0.79977683  0.30012257  1.0
  Ni  Ni3828  1  0.36309517  0.13311017  0.30012257  1.0
  Ni  Ni3829  1  0.36309517  0.46644350  0.30012257  1.0
  Ni  Ni3830  1  0.36309517  0.79977683  0.30012257  1.0
  Ni  Ni3831  1  0.69642850  0.13311017  0.30012257  1.0
  Ni  Ni3832  1  0.69642850  0.46644350  0.30012257  1.0
  Ni  Ni3833  1  0.69642850  0.79977683  0.30012257  1.0
  Ni  Ni3834  1  0.09523817  0.24188983  0.34348986  1.0
  Ni  Ni3835  1  0.09523817  0.57522317  0.34348986  1.0
  Ni  Ni3836  1  0.09523817  0.90855650  0.34348986  1.0
  Ni  Ni3837  1  0.42857150  0.24188983  0.34348986  1.0
  Ni  Ni3838  1  0.42857150  0.57522317  0.34348986  1.0
  Ni  Ni3839  1  0.42857150  0.90855650  0.34348986  1.0
  Ni  Ni3840  1  0.76190483  0.24188983  0.34348986  1.0
  Ni  Ni3841  1  0.76190483  0.57522317  0.34348986  1.0
  Ni  Ni3842  1  0.76190483  0.90855650  0.34348986  1.0
  Ni  Ni3843  1  0.26190483  0.07522317  0.41491843  1.0
  Ni  Ni3844  1  0.26190483  0.40855650  0.41491843  1.0
  Ni  Ni3845  1  0.26190483  0.74188983  0.41491843  1.0
  Ni  Ni3846  1  0.59523817  0.07522317  0.41491843  1.0
  Ni  Ni3847  1  0.59523817  0.40855650  0.41491843  1.0
  Ni  Ni3848  1  0.59523817  0.74188983  0.41491843  1.0
  Ni  Ni3849  1  0.92857150  0.07522317  0.41491843  1.0
  Ni  Ni3850  1  0.92857150  0.40855650  0.41491843  1.0
  Ni  Ni3851  1  0.92857150  0.74188983  0.41491843  1.0
  Ni  Ni3852  1  0.27155833  0.23235300  0.33402350  1.0
  Ni  Ni3853  1  0.27155833  0.56568633  0.33402350  1.0
  Ni  Ni3854  1  0.27155833  0.89901967  0.33402350  1.0
  Ni  Ni3855  1  0.60489167  0.23235300  0.33402350  1.0
  Ni  Ni3856  1  0.60489167  0.56568633  0.33402350  1.0
  Ni  Ni3857  1  0.60489167  0.89901967  0.33402350  1.0
  Ni  Ni3858  1  0.93822500  0.23235300  0.33402350  1.0
  Ni  Ni3859  1  0.93822500  0.56568633  0.33402350  1.0
  Ni  Ni3860  1  0.93822500  0.89901967  0.33402350  1.0
  Ni  Ni3861  1  0.10489167  0.06568633  0.40545207  1.0
  Ni  Ni3862  1  0.10489167  0.39901967  0.40545207  1.0
  Ni  Ni3863  1  0.10489167  0.73235300  0.40545207  1.0
  Ni  Ni3864  1  0.43822500  0.06568633  0.40545207  1.0
  Ni  Ni3865  1  0.43822500  0.39901967  0.40545207  1.0
  Ni  Ni3866  1  0.43822500  0.73235300  0.40545207  1.0
  Ni  Ni3867  1  0.77155833  0.06568633  0.40545207  1.0
  Ni  Ni3868  1  0.77155833  0.39901967  0.40545207  1.0
  Ni  Ni3869  1  0.77155833  0.73235300  0.40545207  1.0
  Ni  Ni3870  1  0.00431550  0.32522317  0.32793157  1.0
  Ni  Ni3871  1  0.00431550  0.65855650  0.32793157  1.0
  Ni  Ni3872  1  0.00431550  0.99188983  0.32793157  1.0
  Ni  Ni3873  1  0.33764883  0.32522317  0.32793157  1.0
  Ni  Ni3874  1  0.33764883  0.65855650  0.32793157  1.0
  Ni  Ni3875  1  0.33764883  0.99188983  0.32793157  1.0
  Ni  Ni3876  1  0.67098217  0.32522317  0.32793157  1.0
  Ni  Ni3877  1  0.67098217  0.65855650  0.32793157  1.0
  Ni  Ni3878  1  0.67098217  0.99188983  0.32793157  1.0
  Ni  Ni3879  1  0.17098217  0.15855650  0.39936014  1.0
  Ni  Ni3880  1  0.17098217  0.49188983  0.39936014  1.0
  Ni  Ni3881  1  0.17098217  0.82522317  0.39936014  1.0
  Ni  Ni3882  1  0.50431550  0.15855650  0.39936014  1.0
  Ni  Ni3883  1  0.50431550  0.49188983  0.39936014  1.0
  Ni  Ni3884  1  0.50431550  0.82522317  0.39936014  1.0
  Ni  Ni3885  1  0.83764883  0.15855650  0.39936014  1.0
  Ni  Ni3886  1  0.83764883  0.49188983  0.39936014  1.0
  Ni  Ni3887  1  0.83764883  0.82522317  0.39936014  1.0
  Ni  Ni3888  1  0.28745033  0.17061367  0.31997879  1.0
  Ni  Ni3889  1  0.28745033  0.50394700  0.31997879  1.0
  Ni  Ni3890  1  0.28745033  0.83728033  0.31997879  1.0
  Ni  Ni3891  1  0.62078367  0.17061367  0.31997879  1.0
  Ni  Ni3892  1  0.62078367  0.50394700  0.31997879  1.0
  Ni  Ni3893  1  0.62078367  0.83728033  0.31997879  1.0
  Ni  Ni3894  1  0.95411700  0.17061367  0.31997879  1.0
  Ni  Ni3895  1  0.95411700  0.50394700  0.31997879  1.0
  Ni  Ni3896  1  0.95411700  0.83728033  0.31997879  1.0
  Ni  Ni3897  1  0.12078367  0.00394700  0.39140736  1.0
  Ni  Ni3898  1  0.12078367  0.33728033  0.39140736  1.0
  Ni  Ni3899  1  0.12078367  0.67061367  0.39140736  1.0
  Ni  Ni3900  1  0.45411700  0.00394700  0.39140736  1.0
  Ni  Ni3901  1  0.45411700  0.33728033  0.39140736  1.0
  Ni  Ni3902  1  0.45411700  0.67061367  0.39140736  1.0
  Ni  Ni3903  1  0.78745033  0.00394700  0.39140736  1.0
  Ni  Ni3904  1  0.78745033  0.33728033  0.39140736  1.0
  Ni  Ni3905  1  0.78745033  0.67061367  0.39140736  1.0
  Ni  Ni3906  1  0.18040233  0.31568633  0.32922350  1.0
  Ni  Ni3907  1  0.18040233  0.64901967  0.32922350  1.0
  Ni  Ni3908  1  0.18040233  0.98235300  0.32922350  1.0
  Ni  Ni3909  1  0.51373567  0.31568633  0.32922350  1.0
  Ni  Ni3910  1  0.51373567  0.64901967  0.32922350  1.0
  Ni  Ni3911  1  0.51373567  0.98235300  0.32922350  1.0
  Ni  Ni3912  1  0.84706900  0.31568633  0.32922350  1.0
  Ni  Ni3913  1  0.84706900  0.64901967  0.32922350  1.0
  Ni  Ni3914  1  0.84706900  0.98235300  0.32922350  1.0
  Ni  Ni3915  1  0.01373567  0.14901967  0.40065207  1.0
  Ni  Ni3916  1  0.01373567  0.48235300  0.40065207  1.0
  Ni  Ni3917  1  0.01373567  0.81568633  0.40065207  1.0
  Ni  Ni3918  1  0.34706900  0.14901967  0.40065207  1.0
  Ni  Ni3919  1  0.34706900  0.48235300  0.40065207  1.0
  Ni  Ni3920  1  0.34706900  0.81568633  0.40065207  1.0
  Ni  Ni3921  1  0.68040233  0.14901967  0.40065207  1.0
  Ni  Ni3922  1  0.68040233  0.48235300  0.40065207  1.0
  Ni  Ni3923  1  0.68040233  0.81568633  0.40065207  1.0
  Ni  Ni3924  1  0.11126433  0.22598033  0.28742550  1.0
  Ni  Ni3925  1  0.11126433  0.55931367  0.28742550  1.0
  Ni  Ni3926  1  0.11126433  0.89264700  0.28742550  1.0
  Ni  Ni3927  1  0.44459767  0.22598033  0.28742550  1.0
  Ni  Ni3928  1  0.44459767  0.55931367  0.28742550  1.0
  Ni  Ni3929  1  0.44459767  0.89264700  0.28742550  1.0
  Ni  Ni3930  1  0.77793100  0.22598033  0.28742550  1.0
  Ni  Ni3931  1  0.77793100  0.55931367  0.28742550  1.0
  Ni  Ni3932  1  0.77793100  0.89264700  0.28742550  1.0
  Ni  Ni3933  1  0.27793100  0.05931367  0.35885407  1.0
  Ni  Ni3934  1  0.27793100  0.39264700  0.35885407  1.0
  Ni  Ni3935  1  0.27793100  0.72598033  0.35885407  1.0
  Ni  Ni3936  1  0.61126433  0.05931367  0.35885407  1.0
  Ni  Ni3937  1  0.61126433  0.39264700  0.35885407  1.0
  Ni  Ni3938  1  0.61126433  0.72598033  0.35885407  1.0
  Ni  Ni3939  1  0.94459767  0.05931367  0.35885407  1.0
  Ni  Ni3940  1  0.94459767  0.39264700  0.35885407  1.0
  Ni  Ni3941  1  0.94459767  0.72598033  0.35885407  1.0
  Ni  Ni3942  1  0.06949750  0.20022317  0.32888529  1.0
  Ni  Ni3943  1  0.06949750  0.53355650  0.32888529  1.0
  Ni  Ni3944  1  0.06949750  0.86688983  0.32888529  1.0
  Ni  Ni3945  1  0.40283083  0.20022317  0.32888529  1.0
  Ni  Ni3946  1  0.40283083  0.53355650  0.32888529  1.0
  Ni  Ni3947  1  0.40283083  0.86688983  0.32888529  1.0
  Ni  Ni3948  1  0.73616417  0.20022317  0.32888529  1.0
  Ni  Ni3949  1  0.73616417  0.53355650  0.32888529  1.0
  Ni  Ni3950  1  0.73616417  0.86688983  0.32888529  1.0
  Ni  Ni3951  1  0.23616417  0.03355650  0.40031386  1.0
  Ni  Ni3952  1  0.23616417  0.36688983  0.40031386  1.0
  Ni  Ni3953  1  0.23616417  0.70022317  0.40031386  1.0
  Ni  Ni3954  1  0.56949750  0.03355650  0.40031386  1.0
  Ni  Ni3955  1  0.56949750  0.36688983  0.40031386  1.0
  Ni  Ni3956  1  0.56949750  0.70022317  0.40031386  1.0
  Ni  Ni3957  1  0.90283083  0.03355650  0.40031386  1.0
  Ni  Ni3958  1  0.90283083  0.36688983  0.40031386  1.0
  Ni  Ni3959  1  0.90283083  0.70022317  0.40031386  1.0
  Ni  Ni3960  1  0.11338950  0.28355650  0.30682186  1.0
  Ni  Ni3961  1  0.11338950  0.61688983  0.30682186  1.0
  Ni  Ni3962  1  0.11338950  0.95022317  0.30682186  1.0
  Ni  Ni3963  1  0.44672283  0.28355650  0.30682186  1.0
  Ni  Ni3964  1  0.44672283  0.61688983  0.30682186  1.0
  Ni  Ni3965  1  0.44672283  0.95022317  0.30682186  1.0
  Ni  Ni3966  1  0.78005617  0.28355650  0.30682186  1.0
  Ni  Ni3967  1  0.78005617  0.61688983  0.30682186  1.0
  Ni  Ni3968  1  0.78005617  0.95022317  0.30682186  1.0
  Ni  Ni3969  1  0.28005617  0.11688983  0.37825043  1.0
  Ni  Ni3970  1  0.28005617  0.45022317  0.37825043  1.0
  Ni  Ni3971  1  0.28005617  0.78355650  0.37825043  1.0
  Ni  Ni3972  1  0.61338950  0.11688983  0.37825043  1.0
  Ni  Ni3973  1  0.61338950  0.45022317  0.37825043  1.0
  Ni  Ni3974  1  0.61338950  0.78355650  0.37825043  1.0
  Ni  Ni3975  1  0.94672283  0.11688983  0.37825043  1.0
  Ni  Ni3976  1  0.94672283  0.45022317  0.37825043  1.0
  Ni  Ni3977  1  0.94672283  0.78355650  0.37825043  1.0
  Ni  Ni3978  1  0.25813567  0.19068633  0.31951893  1.0
  Ni  Ni3979  1  0.25813567  0.52401967  0.31951893  1.0
  Ni  Ni3980  1  0.25813567  0.85735300  0.31951893  1.0
  Ni  Ni3981  1  0.59146900  0.19068633  0.31951893  1.0
  Ni  Ni3982  1  0.59146900  0.52401967  0.31951893  1.0
  Ni  Ni3983  1  0.59146900  0.85735300  0.31951893  1.0
  Ni  Ni3984  1  0.92480233  0.19068633  0.31951893  1.0
  Ni  Ni3985  1  0.92480233  0.52401967  0.31951893  1.0
  Ni  Ni3986  1  0.92480233  0.85735300  0.31951893  1.0
  Ni  Ni3987  1  0.09146900  0.02401967  0.39094750  1.0
  Ni  Ni3988  1  0.09146900  0.35735300  0.39094750  1.0
  Ni  Ni3989  1  0.09146900  0.69068633  0.39094750  1.0
  Ni  Ni3990  1  0.42480233  0.02401967  0.39094750  1.0
  Ni  Ni3991  1  0.42480233  0.35735300  0.39094750  1.0
  Ni  Ni3992  1  0.42480233  0.69068633  0.39094750  1.0
  Ni  Ni3993  1  0.75813567  0.02401967  0.39094750  1.0
  Ni  Ni3994  1  0.75813567  0.35735300  0.39094750  1.0
  Ni  Ni3995  1  0.75813567  0.69068633  0.39094750  1.0
  Ni  Ni3996  1  0.03760583  0.31399883  0.31509100  1.0
  Ni  Ni3997  1  0.03760583  0.64733217  0.31509100  1.0
  Ni  Ni3998  1  0.03760583  0.98066550  0.31509100  1.0
  Ni  Ni3999  1  0.37093917  0.31399883  0.31509100  1.0
  Ni  Ni4000  1  0.37093917  0.64733217  0.31509100  1.0
  Ni  Ni4001  1  0.37093917  0.98066550  0.31509100  1.0
  Ni  Ni4002  1  0.70427250  0.31399883  0.31509100  1.0
  Ni  Ni4003  1  0.70427250  0.64733217  0.31509100  1.0
  Ni  Ni4004  1  0.70427250  0.98066550  0.31509100  1.0
  Ni  Ni4005  1  0.20427250  0.14733217  0.38651957  1.0
  Ni  Ni4006  1  0.20427250  0.48066550  0.38651957  1.0
  Ni  Ni4007  1  0.20427250  0.81399883  0.38651957  1.0
  Ni  Ni4008  1  0.53760583  0.14733217  0.38651957  1.0
  Ni  Ni4009  1  0.53760583  0.48066550  0.38651957  1.0
  Ni  Ni4010  1  0.53760583  0.81399883  0.38651957  1.0
  Ni  Ni4011  1  0.87093917  0.14733217  0.38651957  1.0
  Ni  Ni4012  1  0.87093917  0.48066550  0.38651957  1.0
  Ni  Ni4013  1  0.87093917  0.81399883  0.38651957  1.0
  Ni  Ni4014  1  0.32201867  0.21228033  0.30843679  1.0
  Ni  Ni4015  1  0.32201867  0.54561367  0.30843679  1.0
  Ni  Ni4016  1  0.32201867  0.87894700  0.30843679  1.0
  Ni  Ni4017  1  0.65535200  0.21228033  0.30843679  1.0
  Ni  Ni4018  1  0.65535200  0.54561367  0.30843679  1.0
  Ni  Ni4019  1  0.65535200  0.87894700  0.30843679  1.0
  Ni  Ni4020  1  0.98868533  0.21228033  0.30843679  1.0
  Ni  Ni4021  1  0.98868533  0.54561367  0.30843679  1.0
  Ni  Ni4022  1  0.98868533  0.87894700  0.30843679  1.0
  Ni  Ni4023  1  0.15535200  0.04561367  0.37986536  1.0
  Ni  Ni4024  1  0.15535200  0.37894700  0.37986536  1.0
  Ni  Ni4025  1  0.15535200  0.71228033  0.37986536  1.0
  Ni  Ni4026  1  0.48868533  0.04561367  0.37986536  1.0
  Ni  Ni4027  1  0.48868533  0.37894700  0.37986536  1.0
  Ni  Ni4028  1  0.48868533  0.71228033  0.37986536  1.0
  Ni  Ni4029  1  0.82201867  0.04561367  0.37986536  1.0
  Ni  Ni4030  1  0.82201867  0.37894700  0.37986536  1.0
  Ni  Ni4031  1  0.82201867  0.71228033  0.37986536  1.0
  Ni  Ni4032  1  0.28735117  0.21644350  0.42091629  1.0
  Ni  Ni4033  1  0.28735117  0.54977683  0.42091629  1.0
  Ni  Ni4034  1  0.28735117  0.88311017  0.42091629  1.0
  Ni  Ni4035  1  0.62068450  0.21644350  0.42091629  1.0
  Ni  Ni4036  1  0.62068450  0.54977683  0.42091629  1.0
  Ni  Ni4037  1  0.62068450  0.88311017  0.42091629  1.0
  Ni  Ni4038  1  0.95401783  0.21644350  0.42091629  1.0
  Ni  Ni4039  1  0.95401783  0.54977683  0.42091629  1.0
  Ni  Ni4040  1  0.95401783  0.88311017  0.42091629  1.0
  Ni  Ni4041  1  0.12068450  0.04977683  0.34948771  1.0
  Ni  Ni4042  1  0.12068450  0.38311017  0.34948771  1.0
  Ni  Ni4043  1  0.12068450  0.71644350  0.34948771  1.0
  Ni  Ni4044  1  0.45401783  0.04977683  0.34948771  1.0
  Ni  Ni4045  1  0.45401783  0.38311017  0.34948771  1.0
  Ni  Ni4046  1  0.45401783  0.71644350  0.34948771  1.0
  Ni  Ni4047  1  0.78735117  0.04977683  0.34948771  1.0
  Ni  Ni4048  1  0.78735117  0.38311017  0.34948771  1.0
  Ni  Ni4049  1  0.78735117  0.71644350  0.34948771  1.0
  Ni  Ni4050  1  0.08439650  0.23066550  0.34670957  1.0
  Ni  Ni4051  1  0.08439650  0.56399883  0.34670957  1.0
  Ni  Ni4052  1  0.08439650  0.89733217  0.34670957  1.0
  Ni  Ni4053  1  0.41772983  0.23066550  0.34670957  1.0
  Ni  Ni4054  1  0.41772983  0.56399883  0.34670957  1.0
  Ni  Ni4055  1  0.41772983  0.89733217  0.34670957  1.0
  Ni  Ni4056  1  0.75106317  0.23066550  0.34670957  1.0
  Ni  Ni4057  1  0.75106317  0.56399883  0.34670957  1.0
  Ni  Ni4058  1  0.75106317  0.89733217  0.34670957  1.0
  Ni  Ni4059  1  0.25106317  0.06399883  0.41813814  1.0
  Ni  Ni4060  1  0.25106317  0.39733217  0.41813814  1.0
  Ni  Ni4061  1  0.25106317  0.73066550  0.41813814  1.0
  Ni  Ni4062  1  0.58439650  0.06399883  0.41813814  1.0
  Ni  Ni4063  1  0.58439650  0.39733217  0.41813814  1.0
  Ni  Ni4064  1  0.58439650  0.73066550  0.41813814  1.0
  Ni  Ni4065  1  0.91772983  0.06399883  0.41813814  1.0
  Ni  Ni4066  1  0.91772983  0.39733217  0.41813814  1.0
  Ni  Ni4067  1  0.91772983  0.73066550  0.41813814  1.0
  Ni  Ni4068  1  0.12157933  0.24605300  0.28696564  1.0
  Ni  Ni4069  1  0.12157933  0.57938633  0.28696564  1.0
  Ni  Ni4070  1  0.12157933  0.91271967  0.28696564  1.0
  Ni  Ni4071  1  0.45491267  0.24605300  0.28696564  1.0
  Ni  Ni4072  1  0.45491267  0.57938633  0.28696564  1.0
  Ni  Ni4073  1  0.45491267  0.91271967  0.28696564  1.0
  Ni  Ni4074  1  0.78824600  0.24605300  0.28696564  1.0
  Ni  Ni4075  1  0.78824600  0.57938633  0.28696564  1.0
  Ni  Ni4076  1  0.78824600  0.91271967  0.28696564  1.0
  Ni  Ni4077  1  0.28824600  0.07938633  0.35839421  1.0
  Ni  Ni4078  1  0.28824600  0.41271967  0.35839421  1.0
  Ni  Ni4079  1  0.28824600  0.74605300  0.35839421  1.0
  Ni  Ni4080  1  0.62157933  0.07938633  0.35839421  1.0
  Ni  Ni4081  1  0.62157933  0.41271967  0.35839421  1.0
  Ni  Ni4082  1  0.62157933  0.74605300  0.35839421  1.0
  Ni  Ni4083  1  0.95491267  0.07938633  0.35839421  1.0
  Ni  Ni4084  1  0.95491267  0.41271967  0.35839421  1.0
  Ni  Ni4085  1  0.95491267  0.74605300  0.35839421  1.0
  Ni  Ni4086  1  0.17827717  0.25811017  0.35044143  1.0
  Ni  Ni4087  1  0.17827717  0.59144350  0.35044143  1.0
  Ni  Ni4088  1  0.17827717  0.92477683  0.35044143  1.0
  Ni  Ni4089  1  0.51161050  0.25811017  0.35044143  1.0
  Ni  Ni4090  1  0.51161050  0.59144350  0.35044143  1.0
  Ni  Ni4091  1  0.51161050  0.92477683  0.35044143  1.0
  Ni  Ni4092  1  0.84494383  0.25811017  0.35044143  1.0
  Ni  Ni4093  1  0.84494383  0.59144350  0.35044143  1.0
  Ni  Ni4094  1  0.84494383  0.92477683  0.35044143  1.0
  Ni  Ni4095  1  0.01161050  0.09144350  0.42187000  1.0
  Ni  Ni4096  1  0.01161050  0.42477683  0.42187000  1.0
  Ni  Ni4097  1  0.01161050  0.75811017  0.42187000  1.0
  Ni  Ni4098  1  0.34494383  0.09144350  0.42187000  1.0
  Ni  Ni4099  1  0.34494383  0.42477683  0.42187000  1.0
  Ni  Ni4100  1  0.34494383  0.75811017  0.42187000  1.0
  Ni  Ni4101  1  0.67827717  0.09144350  0.42187000  1.0
  Ni  Ni4102  1  0.67827717  0.42477683  0.42187000  1.0
  Ni  Ni4103  1  0.67827717  0.75811017  0.42187000  1.0
  Ni  Ni4104  1  0.17008733  0.29561367  0.33760507  1.0
  Ni  Ni4105  1  0.17008733  0.62894700  0.33760507  1.0
  Ni  Ni4106  1  0.17008733  0.96228033  0.33760507  1.0
  Ni  Ni4107  1  0.50342067  0.29561367  0.33760507  1.0
  Ni  Ni4108  1  0.50342067  0.62894700  0.33760507  1.0
  Ni  Ni4109  1  0.50342067  0.96228033  0.33760507  1.0
  Ni  Ni4110  1  0.83675400  0.29561367  0.33760507  1.0
  Ni  Ni4111  1  0.83675400  0.62894700  0.33760507  1.0
  Ni  Ni4112  1  0.83675400  0.96228033  0.33760507  1.0
  Ni  Ni4113  1  0.00342067  0.12894700  0.40903364  1.0
  Ni  Ni4114  1  0.00342067  0.46228033  0.40903364  1.0
  Ni  Ni4115  1  0.00342067  0.79561367  0.40903364  1.0
  Ni  Ni4116  1  0.33675400  0.12894700  0.40903364  1.0
  Ni  Ni4117  1  0.33675400  0.46228033  0.40903364  1.0
  Ni  Ni4118  1  0.33675400  0.79561367  0.40903364  1.0
  Ni  Ni4119  1  0.67008733  0.12894700  0.40903364  1.0
  Ni  Ni4120  1  0.67008733  0.46228033  0.40903364  1.0
  Ni  Ni4121  1  0.67008733  0.79561367  0.40903364  1.0
  Ni  Ni4122  1  0.27715833  0.27401967  0.30801379  1.0
  Ni  Ni4123  1  0.27715833  0.60735300  0.30801379  1.0
  Ni  Ni4124  1  0.27715833  0.94068633  0.30801379  1.0
  Ni  Ni4125  1  0.61049167  0.27401967  0.30801379  1.0
  Ni  Ni4126  1  0.61049167  0.60735300  0.30801379  1.0
  Ni  Ni4127  1  0.61049167  0.94068633  0.30801379  1.0
  Ni  Ni4128  1  0.94382500  0.27401967  0.30801379  1.0
  Ni  Ni4129  1  0.94382500  0.60735300  0.30801379  1.0
  Ni  Ni4130  1  0.94382500  0.94068633  0.30801379  1.0
  Ni  Ni4131  1  0.11049167  0.10735300  0.37944236  1.0
  Ni  Ni4132  1  0.11049167  0.44068633  0.37944236  1.0
  Ni  Ni4133  1  0.11049167  0.77401967  0.37944236  1.0
  Ni  Ni4134  1  0.44382500  0.10735300  0.37944236  1.0
  Ni  Ni4135  1  0.44382500  0.44068633  0.37944236  1.0
  Ni  Ni4136  1  0.44382500  0.77401967  0.37944236  1.0
  Ni  Ni4137  1  0.77715833  0.10735300  0.37944236  1.0
  Ni  Ni4138  1  0.77715833  0.44068633  0.37944236  1.0
  Ni  Ni4139  1  0.77715833  0.77401967  0.37944236  1.0
  Ni  Ni4140  1  0.12128483  0.27233217  0.31289500  1.0
  Ni  Ni4141  1  0.12128483  0.60566550  0.31289500  1.0
  Ni  Ni4142  1  0.12128483  0.93899883  0.31289500  1.0
  Ni  Ni4143  1  0.45461817  0.27233217  0.31289500  1.0
  Ni  Ni4144  1  0.45461817  0.60566550  0.31289500  1.0
  Ni  Ni4145  1  0.45461817  0.93899883  0.31289500  1.0
  Ni  Ni4146  1  0.78795150  0.27233217  0.31289500  1.0
  Ni  Ni4147  1  0.78795150  0.60566550  0.31289500  1.0
  Ni  Ni4148  1  0.78795150  0.93899883  0.31289500  1.0
  Ni  Ni4149  1  0.28795150  0.10566550  0.38432357  1.0
  Ni  Ni4150  1  0.28795150  0.43899883  0.38432357  1.0
  Ni  Ni4151  1  0.28795150  0.77233217  0.38432357  1.0
  Ni  Ni4152  1  0.62128483  0.10566550  0.38432357  1.0
  Ni  Ni4153  1  0.62128483  0.43899883  0.38432357  1.0
  Ni  Ni4154  1  0.62128483  0.77233217  0.38432357  1.0
  Ni  Ni4155  1  0.95461817  0.10566550  0.38432357  1.0
  Ni  Ni4156  1  0.95461817  0.43899883  0.38432357  1.0
  Ni  Ni4157  1  0.95461817  0.77233217  0.38432357  1.0
  Ni  Ni4158  1  0.04094917  0.18600117  0.40309200  1.0
  Ni  Ni4159  1  0.04094917  0.51933450  0.40309200  1.0
  Ni  Ni4160  1  0.04094917  0.85266783  0.40309200  1.0
  Ni  Ni4161  1  0.37428250  0.18600117  0.40309200  1.0
  Ni  Ni4162  1  0.37428250  0.51933450  0.40309200  1.0
  Ni  Ni4163  1  0.37428250  0.85266783  0.40309200  1.0
  Ni  Ni4164  1  0.70761583  0.18600117  0.40309200  1.0
  Ni  Ni4165  1  0.70761583  0.51933450  0.40309200  1.0
  Ni  Ni4166  1  0.70761583  0.85266783  0.40309200  1.0
  Ni  Ni4167  1  0.20761583  0.01933450  0.33166343  1.0
  Ni  Ni4168  1  0.20761583  0.35266783  0.33166343  1.0
  Ni  Ni4169  1  0.20761583  0.68600117  0.33166343  1.0
  Ni  Ni4170  1  0.54094917  0.01933450  0.33166343  1.0
  Ni  Ni4171  1  0.54094917  0.35266783  0.33166343  1.0
  Ni  Ni4172  1  0.54094917  0.68600117  0.33166343  1.0
  Ni  Ni4173  1  0.87428250  0.01933450  0.33166343  1.0
  Ni  Ni4174  1  0.87428250  0.35266783  0.33166343  1.0
  Ni  Ni4175  1  0.87428250  0.68600117  0.33166343  1.0
  Ni  Ni4176  1  0.17038183  0.26933450  0.36328200  1.0
  Ni  Ni4177  1  0.17038183  0.60266783  0.36328200  1.0
  Ni  Ni4178  1  0.17038183  0.93600117  0.36328200  1.0
  Ni  Ni4179  1  0.50371517  0.26933450  0.36328200  1.0
  Ni  Ni4180  1  0.50371517  0.60266783  0.36328200  1.0
  Ni  Ni4181  1  0.50371517  0.93600117  0.36328200  1.0
  Ni  Ni4182  1  0.83704850  0.26933450  0.36328200  1.0
  Ni  Ni4183  1  0.83704850  0.60266783  0.36328200  1.0
  Ni  Ni4184  1  0.83704850  0.93600117  0.36328200  1.0
  Ni  Ni4185  1  0.00371517  0.10266783  0.29185343  1.0
  Ni  Ni4186  1  0.00371517  0.43600117  0.29185343  1.0
  Ni  Ni4187  1  0.00371517  0.76933450  0.29185343  1.0
  Ni  Ni4188  1  0.33704850  0.10266783  0.29185343  1.0
  Ni  Ni4189  1  0.33704850  0.43600117  0.29185343  1.0
  Ni  Ni4190  1  0.33704850  0.76933450  0.29185343  1.0
  Ni  Ni4191  1  0.67038183  0.10266783  0.29185343  1.0
  Ni  Ni4192  1  0.67038183  0.43600117  0.29185343  1.0
  Ni  Ni4193  1  0.67038183  0.76933450  0.29185343  1.0
  Ni  Ni4194  1  0.28798900  0.25394700  0.29034879  1.0
  Ni  Ni4195  1  0.28798900  0.58728033  0.29034879  1.0
  Ni  Ni4196  1  0.28798900  0.92061367  0.29034879  1.0
  Ni  Ni4197  1  0.62132233  0.25394700  0.29034879  1.0
  Ni  Ni4198  1  0.62132233  0.58728033  0.29034879  1.0
  Ni  Ni4199  1  0.62132233  0.92061367  0.29034879  1.0
  Ni  Ni4200  1  0.95465567  0.25394700  0.29034879  1.0
  Ni  Ni4201  1  0.95465567  0.58728033  0.29034879  1.0
  Ni  Ni4202  1  0.95465567  0.92061367  0.29034879  1.0
  Ni  Ni4203  1  0.12132233  0.08728033  0.36177736  1.0
  Ni  Ni4204  1  0.12132233  0.42061367  0.36177736  1.0
  Ni  Ni4205  1  0.12132233  0.75394700  0.36177736  1.0
  Ni  Ni4206  1  0.45465567  0.08728033  0.36177736  1.0
  Ni  Ni4207  1  0.45465567  0.42061367  0.36177736  1.0
  Ni  Ni4208  1  0.45465567  0.75394700  0.36177736  1.0
  Ni  Ni4209  1  0.78798900  0.08728033  0.36177736  1.0
  Ni  Ni4210  1  0.78798900  0.42061367  0.36177736  1.0
  Ni  Ni4211  1  0.78798900  0.75394700  0.36177736  1.0
  Ni  Ni4212  1  0.25406083  0.22766783  0.29375314  1.0
  Ni  Ni4213  1  0.25406083  0.56100117  0.29375314  1.0
  Ni  Ni4214  1  0.25406083  0.89433450  0.29375314  1.0
  Ni  Ni4215  1  0.58739417  0.22766783  0.29375314  1.0
  Ni  Ni4216  1  0.58739417  0.56100117  0.29375314  1.0
  Ni  Ni4217  1  0.58739417  0.89433450  0.29375314  1.0
  Ni  Ni4218  1  0.92072750  0.22766783  0.29375314  1.0
  Ni  Ni4219  1  0.92072750  0.56100117  0.29375314  1.0
  Ni  Ni4220  1  0.92072750  0.89433450  0.29375314  1.0
  Ni  Ni4221  1  0.08739417  0.06100117  0.36518171  1.0
  Ni  Ni4222  1  0.08739417  0.39433450  0.36518171  1.0
  Ni  Ni4223  1  0.08739417  0.72766783  0.36518171  1.0
  Ni  Ni4224  1  0.42072750  0.06100117  0.36518171  1.0
  Ni  Ni4225  1  0.42072750  0.39433450  0.36518171  1.0
  Ni  Ni4226  1  0.42072750  0.72766783  0.36518171  1.0
  Ni  Ni4227  1  0.75406083  0.06100117  0.36518171  1.0
  Ni  Ni4228  1  0.75406083  0.39433450  0.36518171  1.0
  Ni  Ni4229  1  0.75406083  0.72766783  0.36518171  1.0
  Ni  Ni4230  1  0.08405083  0.18899883  0.31319129  1.0
  Ni  Ni4231  1  0.08405083  0.52233217  0.31319129  1.0
  Ni  Ni4232  1  0.08405083  0.85566550  0.31319129  1.0
  Ni  Ni4233  1  0.41738417  0.18899883  0.31319129  1.0
  Ni  Ni4234  1  0.41738417  0.52233217  0.31319129  1.0
  Ni  Ni4235  1  0.41738417  0.85566550  0.31319129  1.0
  Ni  Ni4236  1  0.75071750  0.18899883  0.31319129  1.0
  Ni  Ni4237  1  0.75071750  0.52233217  0.31319129  1.0
  Ni  Ni4238  1  0.75071750  0.85566550  0.31319129  1.0
  Ni  Ni4239  1  0.25071750  0.02233217  0.38461986  1.0
  Ni  Ni4240  1  0.25071750  0.35566550  0.38461986  1.0
  Ni  Ni4241  1  0.25071750  0.68899883  0.38461986  1.0
  Ni  Ni4242  1  0.58405083  0.02233217  0.38461986  1.0
  Ni  Ni4243  1  0.58405083  0.35566550  0.38461986  1.0
  Ni  Ni4244  1  0.58405083  0.68899883  0.38461986  1.0
  Ni  Ni4245  1  0.91738417  0.02233217  0.38461986  1.0
  Ni  Ni4246  1  0.91738417  0.35566550  0.38461986  1.0
  Ni  Ni4247  1  0.91738417  0.68899883  0.38461986  1.0
  Ni  Ni4248  1  0.05550250  0.17477683  0.40631171  1.0
  Ni  Ni4249  1  0.05550250  0.50811017  0.40631171  1.0
  Ni  Ni4250  1  0.05550250  0.84144350  0.40631171  1.0
  Ni  Ni4251  1  0.38883583  0.17477683  0.40631171  1.0
  Ni  Ni4252  1  0.38883583  0.50811017  0.40631171  1.0
  Ni  Ni4253  1  0.38883583  0.84144350  0.40631171  1.0
  Ni  Ni4254  1  0.72216917  0.17477683  0.40631171  1.0
  Ni  Ni4255  1  0.72216917  0.50811017  0.40631171  1.0
  Ni  Ni4256  1  0.72216917  0.84144350  0.40631171  1.0
  Ni  Ni4257  1  0.22216917  0.00811017  0.33488314  1.0
  Ni  Ni4258  1  0.22216917  0.34144350  0.33488314  1.0
  Ni  Ni4259  1  0.22216917  0.67477683  0.33488314  1.0
  Ni  Ni4260  1  0.55550250  0.00811017  0.33488314  1.0
  Ni  Ni4261  1  0.55550250  0.34144350  0.33488314  1.0
  Ni  Ni4262  1  0.55550250  0.67477683  0.33488314  1.0
  Ni  Ni4263  1  0.88883583  0.00811017  0.33488314  1.0
  Ni  Ni4264  1  0.88883583  0.34144350  0.33488314  1.0
  Ni  Ni4265  1  0.88883583  0.67477683  0.33488314  1.0
  Ni  Ni4266  1  0.20727017  0.31100117  0.36547800  1.0
  Ni  Ni4267  1  0.20727017  0.64433450  0.36547800  1.0
  Ni  Ni4268  1  0.20727017  0.97766783  0.36547800  1.0
  Ni  Ni4269  1  0.54060350  0.31100117  0.36547800  1.0
  Ni  Ni4270  1  0.54060350  0.64433450  0.36547800  1.0
  Ni  Ni4271  1  0.54060350  0.97766783  0.36547800  1.0
  Ni  Ni4272  1  0.87393683  0.31100117  0.36547800  1.0
  Ni  Ni4273  1  0.87393683  0.64433450  0.36547800  1.0
  Ni  Ni4274  1  0.87393683  0.97766783  0.36547800  1.0
  Ni  Ni4275  1  0.04060350  0.14433450  0.29404943  1.0
  Ni  Ni4276  1  0.04060350  0.47766783  0.29404943  1.0
  Ni  Ni4277  1  0.04060350  0.81100117  0.29404943  1.0
  Ni  Ni4278  1  0.37393683  0.14433450  0.29404943  1.0
  Ni  Ni4279  1  0.37393683  0.47766783  0.29404943  1.0
  Ni  Ni4280  1  0.37393683  0.81100117  0.29404943  1.0
  Ni  Ni4281  1  0.70727017  0.14433450  0.29404943  1.0
  Ni  Ni4282  1  0.70727017  0.47766783  0.29404943  1.0
  Ni  Ni4283  1  0.70727017  0.81100117  0.29404943  1.0
  Ni  Ni4284  1  0.17088300  0.20438633  0.29850764  1.0
  Ni  Ni4285  1  0.17088300  0.53771967  0.29850764  1.0
  Ni  Ni4286  1  0.17088300  0.87105300  0.29850764  1.0
  Ni  Ni4287  1  0.50421633  0.20438633  0.29850764  1.0
  Ni  Ni4288  1  0.50421633  0.53771967  0.29850764  1.0
  Ni  Ni4289  1  0.50421633  0.87105300  0.29850764  1.0
  Ni  Ni4290  1  0.83754967  0.20438633  0.29850764  1.0
  Ni  Ni4291  1  0.83754967  0.53771967  0.29850764  1.0
  Ni  Ni4292  1  0.83754967  0.87105300  0.29850764  1.0
  Ni  Ni4293  1  0.00421633  0.03771967  0.36993621  1.0
  Ni  Ni4294  1  0.00421633  0.37105300  0.36993621  1.0
  Ni  Ni4295  1  0.00421633  0.70438633  0.36993621  1.0
  Ni  Ni4296  1  0.33754967  0.03771967  0.36993621  1.0
  Ni  Ni4297  1  0.33754967  0.37105300  0.36993621  1.0
  Ni  Ni4298  1  0.33754967  0.70438633  0.36993621  1.0
  Ni  Ni4299  1  0.67088300  0.03771967  0.36993621  1.0
  Ni  Ni4300  1  0.67088300  0.37105300  0.36993621  1.0
  Ni  Ni4301  1  0.67088300  0.70438633  0.36993621  1.0
  Ni  Ni4302  1  0.20019767  0.18431367  0.41577807  1.0
  Ni  Ni4303  1  0.20019767  0.51764700  0.41577807  1.0
  Ni  Ni4304  1  0.20019767  0.85098033  0.41577807  1.0
  Ni  Ni4305  1  0.53353100  0.18431367  0.41577807  1.0
  Ni  Ni4306  1  0.53353100  0.51764700  0.41577807  1.0
  Ni  Ni4307  1  0.53353100  0.85098033  0.41577807  1.0
  Ni  Ni4308  1  0.86686433  0.18431367  0.41577807  1.0
  Ni  Ni4309  1  0.86686433  0.51764700  0.41577807  1.0
  Ni  Ni4310  1  0.86686433  0.85098033  0.41577807  1.0
  Ni  Ni4311  1  0.03353100  0.01764700  0.34434950  1.0
  Ni  Ni4312  1  0.03353100  0.35098033  0.34434950  1.0
  Ni  Ni4313  1  0.03353100  0.68431367  0.34434950  1.0
  Ni  Ni4314  1  0.36686433  0.01764700  0.34434950  1.0
  Ni  Ni4315  1  0.36686433  0.35098033  0.34434950  1.0
  Ni  Ni4316  1  0.36686433  0.68431367  0.34434950  1.0
  Ni  Ni4317  1  0.70019767  0.01764700  0.34434950  1.0
  Ni  Ni4318  1  0.70019767  0.35098033  0.34434950  1.0
  Ni  Ni4319  1  0.70019767  0.68431367  0.34434950  1.0
