# generated using pymatgen
data_Y3Ni2
_symmetry_space_group_name_H-M   'P 1'
_cell_length_a   47.43346180
_cell_length_b   94.86692361
_cell_length_c   37.36590461
_cell_angle_alpha   94.85467841
_cell_angle_beta   99.74465443
_cell_angle_gamma   90.00000000
_symmetry_Int_Tables_number   1
_chemical_formula_structural   Y3Ni2
_chemical_formula_sum   'Y1728 Ni1152'
_cell_volume   165103.55235140
_cell_formula_units_Z   576
loop_
 _symmetry_equiv_pos_site_id
 _symmetry_equiv_pos_as_xyz
  1  'x, y, z'
loop_
 _atom_site_type_symbol
 _atom_site_label
 _atom_site_symmetry_multiplicity
 _atom_site_fract_x
 _atom_site_fract_y
 _atom_site_fract_z
 _atom_site_occupancy
  Ni  Ni0  1  0.12949860  0.28559873  0.14411800  1.0
  Ni  Ni1  1  0.12949860  0.61893207  0.14411800  1.0
  Ni  Ni2  1  0.12949860  0.95226540  0.14411800  1.0
  Ni  Ni3  1  0.46283193  0.28559873  0.14411800  1.0
  Ni  Ni4  1  0.46283193  0.61893207  0.14411800  1.0
  Ni  Ni5  1  0.46283193  0.95226540  0.14411800  1.0
  Ni  Ni6  1  0.79616527  0.28559873  0.14411800  1.0
  Ni  Ni7  1  0.79616527  0.61893207  0.14411800  1.0
  Ni  Ni8  1  0.79616527  0.95226540  0.14411800  1.0
  Ni  Ni9  1  0.26283193  0.31893207  0.14411800  1.0
  Ni  Ni10  1  0.26283193  0.65226540  0.14411800  1.0
  Ni  Ni11  1  0.26283193  0.98559873  0.14411800  1.0
  Ni  Ni12  1  0.59616527  0.31893207  0.14411800  1.0
  Ni  Ni13  1  0.59616527  0.65226540  0.14411800  1.0
  Ni  Ni14  1  0.59616527  0.98559873  0.14411800  1.0
  Ni  Ni15  1  0.92949860  0.31893207  0.14411800  1.0
  Ni  Ni16  1  0.92949860  0.65226540  0.14411800  1.0
  Ni  Ni17  1  0.92949860  0.98559873  0.14411800  1.0
  Ni  Ni18  1  0.12321480  0.27643087  0.02368200  1.0
  Ni  Ni19  1  0.12321480  0.60976420  0.02368200  1.0
  Ni  Ni20  1  0.12321480  0.94309753  0.02368200  1.0
  Ni  Ni21  1  0.45654813  0.27643087  0.02368200  1.0
  Ni  Ni22  1  0.45654813  0.60976420  0.02368200  1.0
  Ni  Ni23  1  0.45654813  0.94309753  0.02368200  1.0
  Ni  Ni24  1  0.78988147  0.27643087  0.02368200  1.0
  Ni  Ni25  1  0.78988147  0.60976420  0.02368200  1.0
  Ni  Ni26  1  0.78988147  0.94309753  0.02368200  1.0
  Ni  Ni27  1  0.25654813  0.30976420  0.02368200  1.0
  Ni  Ni28  1  0.25654813  0.64309753  0.02368200  1.0
  Ni  Ni29  1  0.25654813  0.97643087  0.02368200  1.0
  Ni  Ni30  1  0.58988147  0.30976420  0.02368200  1.0
  Ni  Ni31  1  0.58988147  0.64309753  0.02368200  1.0
  Ni  Ni32  1  0.58988147  0.97643087  0.02368200  1.0
  Ni  Ni33  1  0.92321480  0.30976420  0.02368200  1.0
  Ni  Ni34  1  0.92321480  0.64309753  0.02368200  1.0
  Ni  Ni35  1  0.92321480  0.97643087  0.02368200  1.0
  Ni  Ni36  1  0.18856953  0.29086030  0.27368200  1.0
  Ni  Ni37  1  0.18856953  0.62419363  0.27368200  1.0
  Ni  Ni38  1  0.18856953  0.95752697  0.27368200  1.0
  Ni  Ni39  1  0.52190287  0.29086030  0.27368200  1.0
  Ni  Ni40  1  0.52190287  0.62419363  0.27368200  1.0
  Ni  Ni41  1  0.52190287  0.95752697  0.27368200  1.0
  Ni  Ni42  1  0.85523620  0.29086030  0.27368200  1.0
  Ni  Ni43  1  0.85523620  0.62419363  0.27368200  1.0
  Ni  Ni44  1  0.85523620  0.95752697  0.27368200  1.0
  Ni  Ni45  1  0.32190287  0.32419363  0.27368200  1.0
  Ni  Ni46  1  0.32190287  0.65752697  0.27368200  1.0
  Ni  Ni47  1  0.32190287  0.99086030  0.27368200  1.0
  Ni  Ni48  1  0.65523620  0.32419363  0.27368200  1.0
  Ni  Ni49  1  0.65523620  0.65752697  0.27368200  1.0
  Ni  Ni50  1  0.65523620  0.99086030  0.27368200  1.0
  Ni  Ni51  1  0.98856953  0.32419363  0.27368200  1.0
  Ni  Ni52  1  0.98856953  0.65752697  0.27368200  1.0
  Ni  Ni53  1  0.98856953  0.99086030  0.27368200  1.0
  Ni  Ni54  1  0.19432100  0.28998767  0.39411800  1.0
  Ni  Ni55  1  0.19432100  0.62332100  0.39411800  1.0
  Ni  Ni56  1  0.19432100  0.95665433  0.39411800  1.0
  Ni  Ni57  1  0.52765433  0.28998767  0.39411800  1.0
  Ni  Ni58  1  0.52765433  0.62332100  0.39411800  1.0
  Ni  Ni59  1  0.52765433  0.95665433  0.39411800  1.0
  Ni  Ni60  1  0.86098767  0.28998767  0.39411800  1.0
  Ni  Ni61  1  0.86098767  0.62332100  0.39411800  1.0
  Ni  Ni62  1  0.86098767  0.95665433  0.39411800  1.0
  Ni  Ni63  1  0.32765433  0.32332100  0.39411800  1.0
  Ni  Ni64  1  0.32765433  0.65665433  0.39411800  1.0
  Ni  Ni65  1  0.32765433  0.98998767  0.39411800  1.0
  Ni  Ni66  1  0.66098767  0.32332100  0.39411800  1.0
  Ni  Ni67  1  0.66098767  0.65665433  0.39411800  1.0
  Ni  Ni68  1  0.66098767  0.98998767  0.39411800  1.0
  Ni  Ni69  1  0.99432100  0.32332100  0.39411800  1.0
  Ni  Ni70  1  0.99432100  0.65665433  0.39411800  1.0
  Ni  Ni71  1  0.99432100  0.98998767  0.39411800  1.0
  Ni  Ni72  1  0.23213087  0.26961930  0.20133900  1.0
  Ni  Ni73  1  0.23213087  0.60295263  0.20133900  1.0
  Ni  Ni74  1  0.23213087  0.93628597  0.20133900  1.0
  Ni  Ni75  1  0.56546420  0.26961930  0.20133900  1.0
  Ni  Ni76  1  0.56546420  0.60295263  0.20133900  1.0
  Ni  Ni77  1  0.56546420  0.93628597  0.20133900  1.0
  Ni  Ni78  1  0.89879753  0.26961930  0.20133900  1.0
  Ni  Ni79  1  0.89879753  0.60295263  0.20133900  1.0
  Ni  Ni80  1  0.89879753  0.93628597  0.20133900  1.0
  Ni  Ni81  1  0.03213087  0.30295263  0.20133900  1.0
  Ni  Ni82  1  0.03213087  0.63628597  0.20133900  1.0
  Ni  Ni83  1  0.03213087  0.96961930  0.20133900  1.0
  Ni  Ni84  1  0.36546420  0.30295263  0.20133900  1.0
  Ni  Ni85  1  0.36546420  0.63628597  0.20133900  1.0
  Ni  Ni86  1  0.36546420  0.96961930  0.20133900  1.0
  Ni  Ni87  1  0.69879753  0.30295263  0.20133900  1.0
  Ni  Ni88  1  0.69879753  0.63628597  0.20133900  1.0
  Ni  Ni89  1  0.69879753  0.96961930  0.20133900  1.0
  Ni  Ni90  1  0.17692260  0.29938123  0.54866100  1.0
  Ni  Ni91  1  0.17692260  0.63271457  0.54866100  1.0
  Ni  Ni92  1  0.17692260  0.96604790  0.54866100  1.0
  Ni  Ni93  1  0.51025593  0.29938123  0.54866100  1.0
  Ni  Ni94  1  0.51025593  0.63271457  0.54866100  1.0
  Ni  Ni95  1  0.51025593  0.96604790  0.54866100  1.0
  Ni  Ni96  1  0.84358927  0.29938123  0.54866100  1.0
  Ni  Ni97  1  0.84358927  0.63271457  0.54866100  1.0
  Ni  Ni98  1  0.84358927  0.96604790  0.54866100  1.0
  Ni  Ni99  1  0.31025593  0.33271457  0.54866100  1.0
  Ni  Ni100  1  0.31025593  0.66604790  0.54866100  1.0
  Ni  Ni101  1  0.31025593  0.99938123  0.54866100  1.0
  Ni  Ni102  1  0.64358927  0.33271457  0.54866100  1.0
  Ni  Ni103  1  0.64358927  0.66604790  0.54866100  1.0
  Ni  Ni104  1  0.64358927  0.99938123  0.54866100  1.0
  Ni  Ni105  1  0.97692260  0.33271457  0.54866100  1.0
  Ni  Ni106  1  0.97692260  0.66604790  0.54866100  1.0
  Ni  Ni107  1  0.97692260  0.99938123  0.54866100  1.0
  Ni  Ni108  1  0.28950260  0.28588873  0.60588200  1.0
  Ni  Ni109  1  0.28950260  0.61922207  0.60588200  1.0
  Ni  Ni110  1  0.28950260  0.95255540  0.60588200  1.0
  Ni  Ni111  1  0.62283593  0.28588873  0.60588200  1.0
  Ni  Ni112  1  0.62283593  0.61922207  0.60588200  1.0
  Ni  Ni113  1  0.62283593  0.95255540  0.60588200  1.0
  Ni  Ni114  1  0.95616927  0.28588873  0.60588200  1.0
  Ni  Ni115  1  0.95616927  0.61922207  0.60588200  1.0
  Ni  Ni116  1  0.95616927  0.95255540  0.60588200  1.0
  Ni  Ni117  1  0.08950260  0.31922207  0.60588200  1.0
  Ni  Ni118  1  0.08950260  0.65255540  0.60588200  1.0
  Ni  Ni119  1  0.08950260  0.98588873  0.60588200  1.0
  Ni  Ni120  1  0.42283593  0.31922207  0.60588200  1.0
  Ni  Ni121  1  0.42283593  0.65255540  0.60588200  1.0
  Ni  Ni122  1  0.42283593  0.98588873  0.60588200  1.0
  Ni  Ni123  1  0.75616927  0.31922207  0.60588200  1.0
  Ni  Ni124  1  0.75616927  0.65255540  0.60588200  1.0
  Ni  Ni125  1  0.75616927  0.98588873  0.60588200  1.0
  Ni  Ni126  1  0.16266393  0.29391923  0.04866100  1.0
  Ni  Ni127  1  0.16266393  0.62725257  0.04866100  1.0
  Ni  Ni128  1  0.16266393  0.96058590  0.04866100  1.0
  Ni  Ni129  1  0.49599727  0.29391923  0.04866100  1.0
  Ni  Ni130  1  0.49599727  0.62725257  0.04866100  1.0
  Ni  Ni131  1  0.49599727  0.96058590  0.04866100  1.0
  Ni  Ni132  1  0.82933060  0.29391923  0.04866100  1.0
  Ni  Ni133  1  0.82933060  0.62725257  0.04866100  1.0
  Ni  Ni134  1  0.82933060  0.96058590  0.04866100  1.0
  Ni  Ni135  1  0.29599727  0.32725257  0.04866100  1.0
  Ni  Ni136  1  0.29599727  0.66058590  0.04866100  1.0
  Ni  Ni137  1  0.29599727  0.99391923  0.04866100  1.0
  Ni  Ni138  1  0.62933060  0.32725257  0.04866100  1.0
  Ni  Ni139  1  0.62933060  0.66058590  0.04866100  1.0
  Ni  Ni140  1  0.62933060  0.99391923  0.04866100  1.0
  Ni  Ni141  1  0.96266393  0.32725257  0.04866100  1.0
  Ni  Ni142  1  0.96266393  0.66058590  0.04866100  1.0
  Ni  Ni143  1  0.96266393  0.99391923  0.04866100  1.0
  Ni  Ni144  1  0.02148180  0.29075503  0.97631800  1.0
  Ni  Ni145  1  0.02148180  0.62408837  0.97631800  1.0
  Ni  Ni146  1  0.02148180  0.95742170  0.97631800  1.0
  Ni  Ni147  1  0.35481513  0.29075503  0.97631800  1.0
  Ni  Ni148  1  0.35481513  0.62408837  0.97631800  1.0
  Ni  Ni149  1  0.35481513  0.95742170  0.97631800  1.0
  Ni  Ni150  1  0.68814847  0.29075503  0.97631800  1.0
  Ni  Ni151  1  0.68814847  0.62408837  0.97631800  1.0
  Ni  Ni152  1  0.68814847  0.95742170  0.97631800  1.0
  Ni  Ni153  1  0.15481513  0.32408837  0.97631800  1.0
  Ni  Ni154  1  0.15481513  0.65742170  0.97631800  1.0
  Ni  Ni155  1  0.15481513  0.99075503  0.97631800  1.0
  Ni  Ni156  1  0.48814847  0.32408837  0.97631800  1.0
  Ni  Ni157  1  0.48814847  0.65742170  0.97631800  1.0
  Ni  Ni158  1  0.48814847  0.99075503  0.97631800  1.0
  Ni  Ni159  1  0.82148180  0.32408837  0.97631800  1.0
  Ni  Ni160  1  0.82148180  0.65742170  0.97631800  1.0
  Ni  Ni161  1  0.82148180  0.99075503  0.97631800  1.0
  Ni  Ni162  1  0.06534287  0.31122647  0.10588200  1.0
  Ni  Ni163  1  0.06534287  0.64455980  0.10588200  1.0
  Ni  Ni164  1  0.06534287  0.97789313  0.10588200  1.0
  Ni  Ni165  1  0.39867620  0.31122647  0.10588200  1.0
  Ni  Ni166  1  0.39867620  0.64455980  0.10588200  1.0
  Ni  Ni167  1  0.39867620  0.97789313  0.10588200  1.0
  Ni  Ni168  1  0.73200953  0.31122647  0.10588200  1.0
  Ni  Ni169  1  0.73200953  0.64455980  0.10588200  1.0
  Ni  Ni170  1  0.73200953  0.97789313  0.10588200  1.0
  Ni  Ni171  1  0.26534287  0.27789313  0.10588200  1.0
  Ni  Ni172  1  0.26534287  0.61122647  0.10588200  1.0
  Ni  Ni173  1  0.26534287  0.94455980  0.10588200  1.0
  Ni  Ni174  1  0.59867620  0.27789313  0.10588200  1.0
  Ni  Ni175  1  0.59867620  0.61122647  0.10588200  1.0
  Ni  Ni176  1  0.59867620  0.94455980  0.10588200  1.0
  Ni  Ni177  1  0.93200953  0.27789313  0.10588200  1.0
  Ni  Ni178  1  0.93200953  0.61122647  0.10588200  1.0
  Ni  Ni179  1  0.93200953  0.94455980  0.10588200  1.0
  Ni  Ni180  1  0.23554313  0.31406553  0.64411800  1.0
  Ni  Ni181  1  0.23554313  0.64739887  0.64411800  1.0
  Ni  Ni182  1  0.23554313  0.98073220  0.64411800  1.0
  Ni  Ni183  1  0.56887647  0.31406553  0.64411800  1.0
  Ni  Ni184  1  0.56887647  0.64739887  0.64411800  1.0
  Ni  Ni185  1  0.56887647  0.98073220  0.64411800  1.0
  Ni  Ni186  1  0.90220980  0.31406553  0.64411800  1.0
  Ni  Ni187  1  0.90220980  0.64739887  0.64411800  1.0
  Ni  Ni188  1  0.90220980  0.98073220  0.64411800  1.0
  Ni  Ni189  1  0.10220980  0.28073220  0.64411800  1.0
  Ni  Ni190  1  0.10220980  0.61406553  0.64411800  1.0
  Ni  Ni191  1  0.10220980  0.94739887  0.64411800  1.0
  Ni  Ni192  1  0.43554313  0.28073220  0.64411800  1.0
  Ni  Ni193  1  0.43554313  0.61406553  0.64411800  1.0
  Ni  Ni194  1  0.43554313  0.94739887  0.64411800  1.0
  Ni  Ni195  1  0.76887647  0.28073220  0.64411800  1.0
  Ni  Ni196  1  0.76887647  0.61406553  0.64411800  1.0
  Ni  Ni197  1  0.76887647  0.94739887  0.64411800  1.0
  Ni  Ni198  1  0.24766460  0.30021490  0.79866100  1.0
  Ni  Ni199  1  0.24766460  0.63354823  0.79866100  1.0
  Ni  Ni200  1  0.24766460  0.96688157  0.79866100  1.0
  Ni  Ni201  1  0.58099793  0.30021490  0.79866100  1.0
  Ni  Ni202  1  0.58099793  0.63354823  0.79866100  1.0
  Ni  Ni203  1  0.58099793  0.96688157  0.79866100  1.0
  Ni  Ni204  1  0.91433127  0.30021490  0.79866100  1.0
  Ni  Ni205  1  0.91433127  0.63354823  0.79866100  1.0
  Ni  Ni206  1  0.91433127  0.96688157  0.79866100  1.0
  Ni  Ni207  1  0.11433127  0.26688157  0.79866100  1.0
  Ni  Ni208  1  0.11433127  0.60021490  0.79866100  1.0
  Ni  Ni209  1  0.11433127  0.93354823  0.79866100  1.0
  Ni  Ni210  1  0.44766460  0.26688157  0.79866100  1.0
  Ni  Ni211  1  0.44766460  0.60021490  0.79866100  1.0
  Ni  Ni212  1  0.44766460  0.93354823  0.79866100  1.0
  Ni  Ni213  1  0.78099793  0.26688157  0.79866100  1.0
  Ni  Ni214  1  0.78099793  0.60021490  0.79866100  1.0
  Ni  Ni215  1  0.78099793  0.93354823  0.79866100  1.0
  Ni  Ni216  1  0.15858860  0.30975223  0.29866100  1.0
  Ni  Ni217  1  0.15858860  0.64308557  0.29866100  1.0
  Ni  Ni218  1  0.15858860  0.97641890  0.29866100  1.0
  Ni  Ni219  1  0.49192193  0.30975223  0.29866100  1.0
  Ni  Ni220  1  0.49192193  0.64308557  0.29866100  1.0
  Ni  Ni221  1  0.49192193  0.97641890  0.29866100  1.0
  Ni  Ni222  1  0.82525527  0.30975223  0.29866100  1.0
  Ni  Ni223  1  0.82525527  0.64308557  0.29866100  1.0
  Ni  Ni224  1  0.82525527  0.97641890  0.29866100  1.0
  Ni  Ni225  1  0.02525527  0.27641890  0.29866100  1.0
  Ni  Ni226  1  0.02525527  0.60975223  0.29866100  1.0
  Ni  Ni227  1  0.02525527  0.94308557  0.29866100  1.0
  Ni  Ni228  1  0.35858860  0.27641890  0.29866100  1.0
  Ni  Ni229  1  0.35858860  0.60975223  0.29866100  1.0
  Ni  Ni230  1  0.35858860  0.94308557  0.29866100  1.0
  Ni  Ni231  1  0.69192193  0.27641890  0.29866100  1.0
  Ni  Ni232  1  0.69192193  0.60975223  0.29866100  1.0
  Ni  Ni233  1  0.69192193  0.94308557  0.29866100  1.0
  Ni  Ni234  1  0.01942713  0.28793087  0.85588200  1.0
  Ni  Ni235  1  0.01942713  0.62126420  0.85588200  1.0
  Ni  Ni236  1  0.01942713  0.95459753  0.85588200  1.0
  Ni  Ni237  1  0.35276047  0.28793087  0.85588200  1.0
  Ni  Ni238  1  0.35276047  0.62126420  0.85588200  1.0
  Ni  Ni239  1  0.35276047  0.95459753  0.85588200  1.0
  Ni  Ni240  1  0.68609380  0.28793087  0.85588200  1.0
  Ni  Ni241  1  0.68609380  0.62126420  0.85588200  1.0
  Ni  Ni242  1  0.68609380  0.95459753  0.85588200  1.0
  Ni  Ni243  1  0.15276047  0.32126420  0.85588200  1.0
  Ni  Ni244  1  0.15276047  0.65459753  0.85588200  1.0
  Ni  Ni245  1  0.15276047  0.98793087  0.85588200  1.0
  Ni  Ni246  1  0.48609380  0.32126420  0.85588200  1.0
  Ni  Ni247  1  0.48609380  0.65459753  0.85588200  1.0
  Ni  Ni248  1  0.48609380  0.98793087  0.85588200  1.0
  Ni  Ni249  1  0.81942713  0.32126420  0.85588200  1.0
  Ni  Ni250  1  0.81942713  0.65459753  0.85588200  1.0
  Ni  Ni251  1  0.81942713  0.98793087  0.85588200  1.0
  Ni  Ni252  1  0.16589860  0.30024440  0.11600700  1.0
  Ni  Ni253  1  0.16589860  0.63357773  0.11600700  1.0
  Ni  Ni254  1  0.16589860  0.96691107  0.11600700  1.0
  Ni  Ni255  1  0.49923193  0.30024440  0.11600700  1.0
  Ni  Ni256  1  0.49923193  0.63357773  0.11600700  1.0
  Ni  Ni257  1  0.49923193  0.96691107  0.11600700  1.0
  Ni  Ni258  1  0.83256527  0.30024440  0.11600700  1.0
  Ni  Ni259  1  0.83256527  0.63357773  0.11600700  1.0
  Ni  Ni260  1  0.83256527  0.96691107  0.11600700  1.0
  Ni  Ni261  1  0.03256527  0.26691107  0.11600700  1.0
  Ni  Ni262  1  0.03256527  0.60024440  0.11600700  1.0
  Ni  Ni263  1  0.03256527  0.93357773  0.11600700  1.0
  Ni  Ni264  1  0.36589860  0.26691107  0.11600700  1.0
  Ni  Ni265  1  0.36589860  0.60024440  0.11600700  1.0
  Ni  Ni266  1  0.36589860  0.93357773  0.11600700  1.0
  Ni  Ni267  1  0.69923193  0.26691107  0.11600700  1.0
  Ni  Ni268  1  0.69923193  0.60024440  0.11600700  1.0
  Ni  Ni269  1  0.69923193  0.93357773  0.11600700  1.0
  Ni  Ni270  1  0.30318000  0.29690500  0.72631800  1.0
  Ni  Ni271  1  0.30318000  0.63023833  0.72631800  1.0
  Ni  Ni272  1  0.30318000  0.96357167  0.72631800  1.0
  Ni  Ni273  1  0.63651333  0.29690500  0.72631800  1.0
  Ni  Ni274  1  0.63651333  0.63023833  0.72631800  1.0
  Ni  Ni275  1  0.63651333  0.96357167  0.72631800  1.0
  Ni  Ni276  1  0.96984667  0.29690500  0.72631800  1.0
  Ni  Ni277  1  0.96984667  0.63023833  0.72631800  1.0
  Ni  Ni278  1  0.96984667  0.96357167  0.72631800  1.0
  Ni  Ni279  1  0.10318000  0.33023833  0.72631800  1.0
  Ni  Ni280  1  0.10318000  0.66357167  0.72631800  1.0
  Ni  Ni281  1  0.10318000  0.99690500  0.72631800  1.0
  Ni  Ni282  1  0.43651333  0.33023833  0.72631800  1.0
  Ni  Ni283  1  0.43651333  0.66357167  0.72631800  1.0
  Ni  Ni284  1  0.43651333  0.99690500  0.72631800  1.0
  Ni  Ni285  1  0.76984667  0.33023833  0.72631800  1.0
  Ni  Ni286  1  0.76984667  0.66357167  0.72631800  1.0
  Ni  Ni287  1  0.76984667  0.99690500  0.72631800  1.0
  Ni  Ni288  1  0.21483647  0.26719303  0.70133900  1.0
  Ni  Ni289  1  0.21483647  0.60052637  0.70133900  1.0
  Ni  Ni290  1  0.21483647  0.93385970  0.70133900  1.0
  Ni  Ni291  1  0.54816980  0.26719303  0.70133900  1.0
  Ni  Ni292  1  0.54816980  0.60052637  0.70133900  1.0
  Ni  Ni293  1  0.54816980  0.93385970  0.70133900  1.0
  Ni  Ni294  1  0.88150313  0.26719303  0.70133900  1.0
  Ni  Ni295  1  0.88150313  0.60052637  0.70133900  1.0
  Ni  Ni296  1  0.88150313  0.93385970  0.70133900  1.0
  Ni  Ni297  1  0.01483647  0.30052637  0.70133900  1.0
  Ni  Ni298  1  0.01483647  0.63385970  0.70133900  1.0
  Ni  Ni299  1  0.01483647  0.96719303  0.70133900  1.0
  Ni  Ni300  1  0.34816980  0.30052637  0.70133900  1.0
  Ni  Ni301  1  0.34816980  0.63385970  0.70133900  1.0
  Ni  Ni302  1  0.34816980  0.96719303  0.70133900  1.0
  Ni  Ni303  1  0.68150313  0.30052637  0.70133900  1.0
  Ni  Ni304  1  0.68150313  0.63385970  0.70133900  1.0
  Ni  Ni305  1  0.68150313  0.96719303  0.70133900  1.0
  Ni  Ni306  1  0.19164687  0.29754580  0.61600700  1.0
  Ni  Ni307  1  0.19164687  0.63087913  0.61600700  1.0
  Ni  Ni308  1  0.19164687  0.96421247  0.61600700  1.0
  Ni  Ni309  1  0.52498020  0.29754580  0.61600700  1.0
  Ni  Ni310  1  0.52498020  0.63087913  0.61600700  1.0
  Ni  Ni311  1  0.52498020  0.96421247  0.61600700  1.0
  Ni  Ni312  1  0.85831353  0.29754580  0.61600700  1.0
  Ni  Ni313  1  0.85831353  0.63087913  0.61600700  1.0
  Ni  Ni314  1  0.85831353  0.96421247  0.61600700  1.0
  Ni  Ni315  1  0.32498020  0.33087913  0.61600700  1.0
  Ni  Ni316  1  0.32498020  0.66421247  0.61600700  1.0
  Ni  Ni317  1  0.32498020  0.99754580  0.61600700  1.0
  Ni  Ni318  1  0.65831353  0.33087913  0.61600700  1.0
  Ni  Ni319  1  0.65831353  0.66421247  0.61600700  1.0
  Ni  Ni320  1  0.65831353  0.99754580  0.61600700  1.0
  Ni  Ni321  1  0.99164687  0.33087913  0.61600700  1.0
  Ni  Ni322  1  0.99164687  0.66421247  0.61600700  1.0
  Ni  Ni323  1  0.99164687  0.99754580  0.61600700  1.0
  Ni  Ni324  1  0.20971067  0.31520433  0.52368200  1.0
  Ni  Ni325  1  0.20971067  0.64853767  0.52368200  1.0
  Ni  Ni326  1  0.20971067  0.98187100  0.52368200  1.0
  Ni  Ni327  1  0.54304400  0.31520433  0.52368200  1.0
  Ni  Ni328  1  0.54304400  0.64853767  0.52368200  1.0
  Ni  Ni329  1  0.54304400  0.98187100  0.52368200  1.0
  Ni  Ni330  1  0.87637733  0.31520433  0.52368200  1.0
  Ni  Ni331  1  0.87637733  0.64853767  0.52368200  1.0
  Ni  Ni332  1  0.87637733  0.98187100  0.52368200  1.0
  Ni  Ni333  1  0.07637733  0.28187100  0.52368200  1.0
  Ni  Ni334  1  0.07637733  0.61520433  0.52368200  1.0
  Ni  Ni335  1  0.07637733  0.94853767  0.52368200  1.0
  Ni  Ni336  1  0.40971067  0.28187100  0.52368200  1.0
  Ni  Ni337  1  0.40971067  0.61520433  0.52368200  1.0
  Ni  Ni338  1  0.40971067  0.94853767  0.52368200  1.0
  Ni  Ni339  1  0.74304400  0.28187100  0.52368200  1.0
  Ni  Ni340  1  0.74304400  0.61520433  0.52368200  1.0
  Ni  Ni341  1  0.74304400  0.94853767  0.52368200  1.0
  Ni  Ni342  1  0.10439073  0.30606310  0.45133900  1.0
  Ni  Ni343  1  0.10439073  0.63939643  0.45133900  1.0
  Ni  Ni344  1  0.10439073  0.97272977  0.45133900  1.0
  Ni  Ni345  1  0.43772407  0.30606310  0.45133900  1.0
  Ni  Ni346  1  0.43772407  0.63939643  0.45133900  1.0
  Ni  Ni347  1  0.43772407  0.97272977  0.45133900  1.0
  Ni  Ni348  1  0.77105740  0.30606310  0.45133900  1.0
  Ni  Ni349  1  0.77105740  0.63939643  0.45133900  1.0
  Ni  Ni350  1  0.77105740  0.97272977  0.45133900  1.0
  Ni  Ni351  1  0.30439073  0.27272977  0.45133900  1.0
  Ni  Ni352  1  0.30439073  0.60606310  0.45133900  1.0
  Ni  Ni353  1  0.30439073  0.93939643  0.45133900  1.0
  Ni  Ni354  1  0.63772407  0.27272977  0.45133900  1.0
  Ni  Ni355  1  0.63772407  0.60606310  0.45133900  1.0
  Ni  Ni356  1  0.63772407  0.93939643  0.45133900  1.0
  Ni  Ni357  1  0.97105740  0.27272977  0.45133900  1.0
  Ni  Ni358  1  0.97105740  0.60606310  0.45133900  1.0
  Ni  Ni359  1  0.97105740  0.93939643  0.45133900  1.0
  Ni  Ni360  1  0.08378173  0.30823927  0.22631800  1.0
  Ni  Ni361  1  0.08378173  0.64157260  0.22631800  1.0
  Ni  Ni362  1  0.08378173  0.97490593  0.22631800  1.0
  Ni  Ni363  1  0.41711507  0.30823927  0.22631800  1.0
  Ni  Ni364  1  0.41711507  0.64157260  0.22631800  1.0
  Ni  Ni365  1  0.41711507  0.97490593  0.22631800  1.0
  Ni  Ni366  1  0.75044840  0.30823927  0.22631800  1.0
  Ni  Ni367  1  0.75044840  0.64157260  0.22631800  1.0
  Ni  Ni368  1  0.75044840  0.97490593  0.22631800  1.0
  Ni  Ni369  1  0.28378173  0.27490593  0.22631800  1.0
  Ni  Ni370  1  0.28378173  0.60823927  0.22631800  1.0
  Ni  Ni371  1  0.28378173  0.94157260  0.22631800  1.0
  Ni  Ni372  1  0.61711507  0.27490593  0.22631800  1.0
  Ni  Ni373  1  0.61711507  0.60823927  0.22631800  1.0
  Ni  Ni374  1  0.61711507  0.94157260  0.22631800  1.0
  Ni  Ni375  1  0.95044840  0.27490593  0.22631800  1.0
  Ni  Ni376  1  0.95044840  0.60823927  0.22631800  1.0
  Ni  Ni377  1  0.95044840  0.94157260  0.22631800  1.0
  Ni  Ni378  1  0.06875167  0.32585100  0.35588200  1.0
  Ni  Ni379  1  0.06875167  0.65918433  0.35588200  1.0
  Ni  Ni380  1  0.06875167  0.99251767  0.35588200  1.0
  Ni  Ni381  1  0.40208500  0.32585100  0.35588200  1.0
  Ni  Ni382  1  0.40208500  0.65918433  0.35588200  1.0
  Ni  Ni383  1  0.40208500  0.99251767  0.35588200  1.0
  Ni  Ni384  1  0.73541833  0.32585100  0.35588200  1.0
  Ni  Ni385  1  0.73541833  0.65918433  0.35588200  1.0
  Ni  Ni386  1  0.73541833  0.99251767  0.35588200  1.0
  Ni  Ni387  1  0.26875167  0.29251767  0.35588200  1.0
  Ni  Ni388  1  0.26875167  0.62585100  0.35588200  1.0
  Ni  Ni389  1  0.26875167  0.95918433  0.35588200  1.0
  Ni  Ni390  1  0.60208500  0.29251767  0.35588200  1.0
  Ni  Ni391  1  0.60208500  0.62585100  0.35588200  1.0
  Ni  Ni392  1  0.60208500  0.95918433  0.35588200  1.0
  Ni  Ni393  1  0.93541833  0.29251767  0.35588200  1.0
  Ni  Ni394  1  0.93541833  0.62585100  0.35588200  1.0
  Ni  Ni395  1  0.93541833  0.95918433  0.35588200  1.0
  Ni  Ni396  1  0.15940747  0.30912470  0.36600700  1.0
  Ni  Ni397  1  0.15940747  0.64245803  0.36600700  1.0
  Ni  Ni398  1  0.15940747  0.97579137  0.36600700  1.0
  Ni  Ni399  1  0.49274080  0.30912470  0.36600700  1.0
  Ni  Ni400  1  0.49274080  0.64245803  0.36600700  1.0
  Ni  Ni401  1  0.49274080  0.97579137  0.36600700  1.0
  Ni  Ni402  1  0.82607413  0.30912470  0.36600700  1.0
  Ni  Ni403  1  0.82607413  0.64245803  0.36600700  1.0
  Ni  Ni404  1  0.82607413  0.97579137  0.36600700  1.0
  Ni  Ni405  1  0.02607413  0.27579137  0.36600700  1.0
  Ni  Ni406  1  0.02607413  0.60912470  0.36600700  1.0
  Ni  Ni407  1  0.02607413  0.94245803  0.36600700  1.0
  Ni  Ni408  1  0.35940747  0.27579137  0.36600700  1.0
  Ni  Ni409  1  0.35940747  0.60912470  0.36600700  1.0
  Ni  Ni410  1  0.35940747  0.94245803  0.36600700  1.0
  Ni  Ni411  1  0.69274080  0.27579137  0.36600700  1.0
  Ni  Ni412  1  0.69274080  0.60912470  0.36600700  1.0
  Ni  Ni413  1  0.69274080  0.94245803  0.36600700  1.0
  Ni  Ni414  1  0.20975600  0.28004517  0.88399300  1.0
  Ni  Ni415  1  0.20975600  0.61337850  0.88399300  1.0
  Ni  Ni416  1  0.20975600  0.94671183  0.88399300  1.0
  Ni  Ni417  1  0.54308933  0.28004517  0.88399300  1.0
  Ni  Ni418  1  0.54308933  0.61337850  0.88399300  1.0
  Ni  Ni419  1  0.54308933  0.94671183  0.88399300  1.0
  Ni  Ni420  1  0.87642267  0.28004517  0.88399300  1.0
  Ni  Ni421  1  0.87642267  0.61337850  0.88399300  1.0
  Ni  Ni422  1  0.87642267  0.94671183  0.88399300  1.0
  Ni  Ni423  1  0.00975600  0.31337850  0.88399300  1.0
  Ni  Ni424  1  0.00975600  0.64671183  0.88399300  1.0
  Ni  Ni425  1  0.00975600  0.98004517  0.88399300  1.0
  Ni  Ni426  1  0.34308933  0.31337850  0.88399300  1.0
  Ni  Ni427  1  0.34308933  0.64671183  0.88399300  1.0
  Ni  Ni428  1  0.34308933  0.98004517  0.88399300  1.0
  Ni  Ni429  1  0.67642267  0.31337850  0.88399300  1.0
  Ni  Ni430  1  0.67642267  0.64671183  0.88399300  1.0
  Ni  Ni431  1  0.67642267  0.98004517  0.88399300  1.0
  Ni  Ni432  1  0.28591907  0.26894410  0.38399300  1.0
  Ni  Ni433  1  0.28591907  0.60227743  0.38399300  1.0
  Ni  Ni434  1  0.28591907  0.93561077  0.38399300  1.0
  Ni  Ni435  1  0.61925240  0.26894410  0.38399300  1.0
  Ni  Ni436  1  0.61925240  0.60227743  0.38399300  1.0
  Ni  Ni437  1  0.61925240  0.93561077  0.38399300  1.0
  Ni  Ni438  1  0.95258573  0.26894410  0.38399300  1.0
  Ni  Ni439  1  0.95258573  0.60227743  0.38399300  1.0
  Ni  Ni440  1  0.95258573  0.93561077  0.38399300  1.0
  Ni  Ni441  1  0.08591907  0.30227743  0.38399300  1.0
  Ni  Ni442  1  0.08591907  0.63561077  0.38399300  1.0
  Ni  Ni443  1  0.08591907  0.96894410  0.38399300  1.0
  Ni  Ni444  1  0.41925240  0.30227743  0.38399300  1.0
  Ni  Ni445  1  0.41925240  0.63561077  0.38399300  1.0
  Ni  Ni446  1  0.41925240  0.96894410  0.38399300  1.0
  Ni  Ni447  1  0.75258573  0.30227743  0.38399300  1.0
  Ni  Ni448  1  0.75258573  0.63561077  0.38399300  1.0
  Ni  Ni449  1  0.75258573  0.96894410  0.38399300  1.0
  Ni  Ni450  1  0.09881327  0.33105590  0.47631800  1.0
  Ni  Ni451  1  0.09881327  0.66438923  0.47631800  1.0
  Ni  Ni452  1  0.09881327  0.99772257  0.47631800  1.0
  Ni  Ni453  1  0.43214660  0.33105590  0.47631800  1.0
  Ni  Ni454  1  0.43214660  0.66438923  0.47631800  1.0
  Ni  Ni455  1  0.43214660  0.99772257  0.47631800  1.0
  Ni  Ni456  1  0.76547993  0.33105590  0.47631800  1.0
  Ni  Ni457  1  0.76547993  0.66438923  0.47631800  1.0
  Ni  Ni458  1  0.76547993  0.99772257  0.47631800  1.0
  Ni  Ni459  1  0.29881327  0.29772257  0.47631800  1.0
  Ni  Ni460  1  0.29881327  0.63105590  0.47631800  1.0
  Ni  Ni461  1  0.29881327  0.96438923  0.47631800  1.0
  Ni  Ni462  1  0.63214660  0.29772257  0.47631800  1.0
  Ni  Ni463  1  0.63214660  0.63105590  0.47631800  1.0
  Ni  Ni464  1  0.63214660  0.96438923  0.47631800  1.0
  Ni  Ni465  1  0.96547993  0.29772257  0.47631800  1.0
  Ni  Ni466  1  0.96547993  0.63105590  0.47631800  1.0
  Ni  Ni467  1  0.96547993  0.96438923  0.47631800  1.0
  Ni  Ni468  1  0.14227193  0.32686873  0.63399300  1.0
  Ni  Ni469  1  0.14227193  0.66020207  0.63399300  1.0
  Ni  Ni470  1  0.14227193  0.99353540  0.63399300  1.0
  Ni  Ni471  1  0.47560527  0.32686873  0.63399300  1.0
  Ni  Ni472  1  0.47560527  0.66020207  0.63399300  1.0
  Ni  Ni473  1  0.47560527  0.99353540  0.63399300  1.0
  Ni  Ni474  1  0.80893860  0.32686873  0.63399300  1.0
  Ni  Ni475  1  0.80893860  0.66020207  0.63399300  1.0
  Ni  Ni476  1  0.80893860  0.99353540  0.63399300  1.0
  Ni  Ni477  1  0.00893860  0.29353540  0.63399300  1.0
  Ni  Ni478  1  0.00893860  0.62686873  0.63399300  1.0
  Ni  Ni479  1  0.00893860  0.96020207  0.63399300  1.0
  Ni  Ni480  1  0.34227193  0.29353540  0.63399300  1.0
  Ni  Ni481  1  0.34227193  0.62686873  0.63399300  1.0
  Ni  Ni482  1  0.34227193  0.96020207  0.63399300  1.0
  Ni  Ni483  1  0.67560527  0.29353540  0.63399300  1.0
  Ni  Ni484  1  0.67560527  0.62686873  0.63399300  1.0
  Ni  Ni485  1  0.67560527  0.96020207  0.63399300  1.0
  Ni  Ni486  1  0.26480467  0.30533217  0.86600700  1.0
  Ni  Ni487  1  0.26480467  0.63866550  0.86600700  1.0
  Ni  Ni488  1  0.26480467  0.97199883  0.86600700  1.0
  Ni  Ni489  1  0.59813800  0.30533217  0.86600700  1.0
  Ni  Ni490  1  0.59813800  0.63866550  0.86600700  1.0
  Ni  Ni491  1  0.59813800  0.97199883  0.86600700  1.0
  Ni  Ni492  1  0.93147133  0.30533217  0.86600700  1.0
  Ni  Ni493  1  0.93147133  0.63866550  0.86600700  1.0
  Ni  Ni494  1  0.93147133  0.97199883  0.86600700  1.0
  Ni  Ni495  1  0.13147133  0.27199883  0.86600700  1.0
  Ni  Ni496  1  0.13147133  0.60533217  0.86600700  1.0
  Ni  Ni497  1  0.13147133  0.93866550  0.86600700  1.0
  Ni  Ni498  1  0.46480467  0.27199883  0.86600700  1.0
  Ni  Ni499  1  0.46480467  0.60533217  0.86600700  1.0
  Ni  Ni500  1  0.46480467  0.93866550  0.86600700  1.0
  Ni  Ni501  1  0.79813800  0.27199883  0.86600700  1.0
  Ni  Ni502  1  0.79813800  0.60533217  0.86600700  1.0
  Ni  Ni503  1  0.79813800  0.93866550  0.86600700  1.0
  Ni  Ni504  1  0.00924327  0.31408257  0.95133900  1.0
  Ni  Ni505  1  0.00924327  0.64741590  0.95133900  1.0
  Ni  Ni506  1  0.00924327  0.98074923  0.95133900  1.0
  Ni  Ni507  1  0.34257660  0.31408257  0.95133900  1.0
  Ni  Ni508  1  0.34257660  0.64741590  0.95133900  1.0
  Ni  Ni509  1  0.34257660  0.98074923  0.95133900  1.0
  Ni  Ni510  1  0.67590993  0.31408257  0.95133900  1.0
  Ni  Ni511  1  0.67590993  0.64741590  0.95133900  1.0
  Ni  Ni512  1  0.67590993  0.98074923  0.95133900  1.0
  Ni  Ni513  1  0.20924327  0.28074923  0.95133900  1.0
  Ni  Ni514  1  0.20924327  0.61408257  0.95133900  1.0
  Ni  Ni515  1  0.20924327  0.94741590  0.95133900  1.0
  Ni  Ni516  1  0.54257660  0.28074923  0.95133900  1.0
  Ni  Ni517  1  0.54257660  0.61408257  0.95133900  1.0
  Ni  Ni518  1  0.54257660  0.94741590  0.95133900  1.0
  Ni  Ni519  1  0.87590993  0.28074923  0.95133900  1.0
  Ni  Ni520  1  0.87590993  0.61408257  0.95133900  1.0
  Ni  Ni521  1  0.87590993  0.94741590  0.95133900  1.0
  Ni  Ni522  1  0.22006980  0.27212053  0.13399300  1.0
  Ni  Ni523  1  0.22006980  0.60545387  0.13399300  1.0
  Ni  Ni524  1  0.22006980  0.93878720  0.13399300  1.0
  Ni  Ni525  1  0.55340313  0.27212053  0.13399300  1.0
  Ni  Ni526  1  0.55340313  0.60545387  0.13399300  1.0
  Ni  Ni527  1  0.55340313  0.93878720  0.13399300  1.0
  Ni  Ni528  1  0.88673647  0.27212053  0.13399300  1.0
  Ni  Ni529  1  0.88673647  0.60545387  0.13399300  1.0
  Ni  Ni530  1  0.88673647  0.93878720  0.13399300  1.0
  Ni  Ni531  1  0.02006980  0.30545387  0.13399300  1.0
  Ni  Ni532  1  0.02006980  0.63878720  0.13399300  1.0
  Ni  Ni533  1  0.02006980  0.97212053  0.13399300  1.0
  Ni  Ni534  1  0.35340313  0.30545387  0.13399300  1.0
  Ni  Ni535  1  0.35340313  0.63878720  0.13399300  1.0
  Ni  Ni536  1  0.35340313  0.97212053  0.13399300  1.0
  Ni  Ni537  1  0.68673647  0.30545387  0.13399300  1.0
  Ni  Ni538  1  0.68673647  0.63878720  0.13399300  1.0
  Ni  Ni539  1  0.68673647  0.97212053  0.13399300  1.0
  Ni  Ni540  1  0.21102260  0.31744157  0.77368200  1.0
  Ni  Ni541  1  0.21102260  0.65077490  0.77368200  1.0
  Ni  Ni542  1  0.21102260  0.98410823  0.77368200  1.0
  Ni  Ni543  1  0.54435593  0.31744157  0.77368200  1.0
  Ni  Ni544  1  0.54435593  0.65077490  0.77368200  1.0
  Ni  Ni545  1  0.54435593  0.98410823  0.77368200  1.0
  Ni  Ni546  1  0.87768927  0.31744157  0.77368200  1.0
  Ni  Ni547  1  0.87768927  0.65077490  0.77368200  1.0
  Ni  Ni548  1  0.87768927  0.98410823  0.77368200  1.0
  Ni  Ni549  1  0.07768927  0.28410823  0.77368200  1.0
  Ni  Ni550  1  0.07768927  0.61744157  0.77368200  1.0
  Ni  Ni551  1  0.07768927  0.95077490  0.77368200  1.0
  Ni  Ni552  1  0.41102260  0.28410823  0.77368200  1.0
  Ni  Ni553  1  0.41102260  0.61744157  0.77368200  1.0
  Ni  Ni554  1  0.41102260  0.95077490  0.77368200  1.0
  Ni  Ni555  1  0.74435593  0.28410823  0.77368200  1.0
  Ni  Ni556  1  0.74435593  0.61744157  0.77368200  1.0
  Ni  Ni557  1  0.74435593  0.95077490  0.77368200  1.0
  Ni  Ni558  1  0.23738740  0.32634327  0.89411800  1.0
  Ni  Ni559  1  0.23738740  0.65967660  0.89411800  1.0
  Ni  Ni560  1  0.23738740  0.99300993  0.89411800  1.0
  Ni  Ni561  1  0.57072073  0.32634327  0.89411800  1.0
  Ni  Ni562  1  0.57072073  0.65967660  0.89411800  1.0
  Ni  Ni563  1  0.57072073  0.99300993  0.89411800  1.0
  Ni  Ni564  1  0.90405407  0.32634327  0.89411800  1.0
  Ni  Ni565  1  0.90405407  0.65967660  0.89411800  1.0
  Ni  Ni566  1  0.90405407  0.99300993  0.89411800  1.0
  Ni  Ni567  1  0.10405407  0.29300993  0.89411800  1.0
  Ni  Ni568  1  0.10405407  0.62634327  0.89411800  1.0
  Ni  Ni569  1  0.10405407  0.95967660  0.89411800  1.0
  Ni  Ni570  1  0.43738740  0.29300993  0.89411800  1.0
  Ni  Ni571  1  0.43738740  0.62634327  0.89411800  1.0
  Ni  Ni572  1  0.43738740  0.95967660  0.89411800  1.0
  Ni  Ni573  1  0.77072073  0.29300993  0.89411800  1.0
  Ni  Ni574  1  0.77072073  0.62634327  0.89411800  1.0
  Ni  Ni575  1  0.77072073  0.95967660  0.89411800  1.0
  Ni  Ni576  1  0.19616527  0.21893207  0.14411800  1.0
  Ni  Ni577  1  0.19616527  0.55226540  0.14411800  1.0
  Ni  Ni578  1  0.19616527  0.88559873  0.14411800  1.0
  Ni  Ni579  1  0.52949860  0.21893207  0.14411800  1.0
  Ni  Ni580  1  0.52949860  0.55226540  0.14411800  1.0
  Ni  Ni581  1  0.52949860  0.88559873  0.14411800  1.0
  Ni  Ni582  1  0.86283193  0.21893207  0.14411800  1.0
  Ni  Ni583  1  0.86283193  0.55226540  0.14411800  1.0
  Ni  Ni584  1  0.86283193  0.88559873  0.14411800  1.0
  Ni  Ni585  1  0.32949860  0.25226540  0.14411800  1.0
  Ni  Ni586  1  0.32949860  0.58559873  0.14411800  1.0
  Ni  Ni587  1  0.32949860  0.91893207  0.14411800  1.0
  Ni  Ni588  1  0.66283193  0.25226540  0.14411800  1.0
  Ni  Ni589  1  0.66283193  0.58559873  0.14411800  1.0
  Ni  Ni590  1  0.66283193  0.91893207  0.14411800  1.0
  Ni  Ni591  1  0.99616527  0.25226540  0.14411800  1.0
  Ni  Ni592  1  0.99616527  0.58559873  0.14411800  1.0
  Ni  Ni593  1  0.99616527  0.91893207  0.14411800  1.0
  Ni  Ni594  1  0.18988147  0.20976420  0.02368200  1.0
  Ni  Ni595  1  0.18988147  0.54309753  0.02368200  1.0
  Ni  Ni596  1  0.18988147  0.87643087  0.02368200  1.0
  Ni  Ni597  1  0.52321480  0.20976420  0.02368200  1.0
  Ni  Ni598  1  0.52321480  0.54309753  0.02368200  1.0
  Ni  Ni599  1  0.52321480  0.87643087  0.02368200  1.0
  Ni  Ni600  1  0.85654813  0.20976420  0.02368200  1.0
  Ni  Ni601  1  0.85654813  0.54309753  0.02368200  1.0
  Ni  Ni602  1  0.85654813  0.87643087  0.02368200  1.0
  Ni  Ni603  1  0.32321480  0.24309753  0.02368200  1.0
  Ni  Ni604  1  0.32321480  0.57643087  0.02368200  1.0
  Ni  Ni605  1  0.32321480  0.90976420  0.02368200  1.0
  Ni  Ni606  1  0.65654813  0.24309753  0.02368200  1.0
  Ni  Ni607  1  0.65654813  0.57643087  0.02368200  1.0
  Ni  Ni608  1  0.65654813  0.90976420  0.02368200  1.0
  Ni  Ni609  1  0.98988147  0.24309753  0.02368200  1.0
  Ni  Ni610  1  0.98988147  0.57643087  0.02368200  1.0
  Ni  Ni611  1  0.98988147  0.90976420  0.02368200  1.0
  Ni  Ni612  1  0.25523620  0.22419363  0.27368200  1.0
  Ni  Ni613  1  0.25523620  0.55752697  0.27368200  1.0
  Ni  Ni614  1  0.25523620  0.89086030  0.27368200  1.0
  Ni  Ni615  1  0.58856953  0.22419363  0.27368200  1.0
  Ni  Ni616  1  0.58856953  0.55752697  0.27368200  1.0
  Ni  Ni617  1  0.58856953  0.89086030  0.27368200  1.0
  Ni  Ni618  1  0.92190287  0.22419363  0.27368200  1.0
  Ni  Ni619  1  0.92190287  0.55752697  0.27368200  1.0
  Ni  Ni620  1  0.92190287  0.89086030  0.27368200  1.0
  Ni  Ni621  1  0.05523620  0.25752697  0.27368200  1.0
  Ni  Ni622  1  0.05523620  0.59086030  0.27368200  1.0
  Ni  Ni623  1  0.05523620  0.92419363  0.27368200  1.0
  Ni  Ni624  1  0.38856953  0.25752697  0.27368200  1.0
  Ni  Ni625  1  0.38856953  0.59086030  0.27368200  1.0
  Ni  Ni626  1  0.38856953  0.92419363  0.27368200  1.0
  Ni  Ni627  1  0.72190287  0.25752697  0.27368200  1.0
  Ni  Ni628  1  0.72190287  0.59086030  0.27368200  1.0
  Ni  Ni629  1  0.72190287  0.92419363  0.27368200  1.0
  Ni  Ni630  1  0.26098767  0.22332100  0.39411800  1.0
  Ni  Ni631  1  0.26098767  0.55665433  0.39411800  1.0
  Ni  Ni632  1  0.26098767  0.88998767  0.39411800  1.0
  Ni  Ni633  1  0.59432100  0.22332100  0.39411800  1.0
  Ni  Ni634  1  0.59432100  0.55665433  0.39411800  1.0
  Ni  Ni635  1  0.59432100  0.88998767  0.39411800  1.0
  Ni  Ni636  1  0.92765433  0.22332100  0.39411800  1.0
  Ni  Ni637  1  0.92765433  0.55665433  0.39411800  1.0
  Ni  Ni638  1  0.92765433  0.88998767  0.39411800  1.0
  Ni  Ni639  1  0.06098767  0.25665433  0.39411800  1.0
  Ni  Ni640  1  0.06098767  0.58998767  0.39411800  1.0
  Ni  Ni641  1  0.06098767  0.92332100  0.39411800  1.0
  Ni  Ni642  1  0.39432100  0.25665433  0.39411800  1.0
  Ni  Ni643  1  0.39432100  0.58998767  0.39411800  1.0
  Ni  Ni644  1  0.39432100  0.92332100  0.39411800  1.0
  Ni  Ni645  1  0.72765433  0.25665433  0.39411800  1.0
  Ni  Ni646  1  0.72765433  0.58998767  0.39411800  1.0
  Ni  Ni647  1  0.72765433  0.92332100  0.39411800  1.0
  Ni  Ni648  1  0.29879753  0.20295263  0.20133900  1.0
  Ni  Ni649  1  0.29879753  0.53628597  0.20133900  1.0
  Ni  Ni650  1  0.29879753  0.86961930  0.20133900  1.0
  Ni  Ni651  1  0.63213087  0.20295263  0.20133900  1.0
  Ni  Ni652  1  0.63213087  0.53628597  0.20133900  1.0
  Ni  Ni653  1  0.63213087  0.86961930  0.20133900  1.0
  Ni  Ni654  1  0.96546420  0.20295263  0.20133900  1.0
  Ni  Ni655  1  0.96546420  0.53628597  0.20133900  1.0
  Ni  Ni656  1  0.96546420  0.86961930  0.20133900  1.0
  Ni  Ni657  1  0.09879753  0.23628597  0.20133900  1.0
  Ni  Ni658  1  0.09879753  0.56961930  0.20133900  1.0
  Ni  Ni659  1  0.09879753  0.90295263  0.20133900  1.0
  Ni  Ni660  1  0.43213087  0.23628597  0.20133900  1.0
  Ni  Ni661  1  0.43213087  0.56961930  0.20133900  1.0
  Ni  Ni662  1  0.43213087  0.90295263  0.20133900  1.0
  Ni  Ni663  1  0.76546420  0.23628597  0.20133900  1.0
  Ni  Ni664  1  0.76546420  0.56961930  0.20133900  1.0
  Ni  Ni665  1  0.76546420  0.90295263  0.20133900  1.0
  Ni  Ni666  1  0.24358927  0.23271457  0.54866100  1.0
  Ni  Ni667  1  0.24358927  0.56604790  0.54866100  1.0
  Ni  Ni668  1  0.24358927  0.89938123  0.54866100  1.0
  Ni  Ni669  1  0.57692260  0.23271457  0.54866100  1.0
  Ni  Ni670  1  0.57692260  0.56604790  0.54866100  1.0
  Ni  Ni671  1  0.57692260  0.89938123  0.54866100  1.0
  Ni  Ni672  1  0.91025593  0.23271457  0.54866100  1.0
  Ni  Ni673  1  0.91025593  0.56604790  0.54866100  1.0
  Ni  Ni674  1  0.91025593  0.89938123  0.54866100  1.0
  Ni  Ni675  1  0.04358927  0.26604790  0.54866100  1.0
  Ni  Ni676  1  0.04358927  0.59938123  0.54866100  1.0
  Ni  Ni677  1  0.04358927  0.93271457  0.54866100  1.0
  Ni  Ni678  1  0.37692260  0.26604790  0.54866100  1.0
  Ni  Ni679  1  0.37692260  0.59938123  0.54866100  1.0
  Ni  Ni680  1  0.37692260  0.93271457  0.54866100  1.0
  Ni  Ni681  1  0.71025593  0.26604790  0.54866100  1.0
  Ni  Ni682  1  0.71025593  0.59938123  0.54866100  1.0
  Ni  Ni683  1  0.71025593  0.93271457  0.54866100  1.0
  Ni  Ni684  1  0.02283593  0.21922207  0.60588200  1.0
  Ni  Ni685  1  0.02283593  0.55255540  0.60588200  1.0
  Ni  Ni686  1  0.02283593  0.88588873  0.60588200  1.0
  Ni  Ni687  1  0.35616927  0.21922207  0.60588200  1.0
  Ni  Ni688  1  0.35616927  0.55255540  0.60588200  1.0
  Ni  Ni689  1  0.35616927  0.88588873  0.60588200  1.0
  Ni  Ni690  1  0.68950260  0.21922207  0.60588200  1.0
  Ni  Ni691  1  0.68950260  0.55255540  0.60588200  1.0
  Ni  Ni692  1  0.68950260  0.88588873  0.60588200  1.0
  Ni  Ni693  1  0.15616927  0.25255540  0.60588200  1.0
  Ni  Ni694  1  0.15616927  0.58588873  0.60588200  1.0
  Ni  Ni695  1  0.15616927  0.91922207  0.60588200  1.0
  Ni  Ni696  1  0.48950260  0.25255540  0.60588200  1.0
  Ni  Ni697  1  0.48950260  0.58588873  0.60588200  1.0
  Ni  Ni698  1  0.48950260  0.91922207  0.60588200  1.0
  Ni  Ni699  1  0.82283593  0.25255540  0.60588200  1.0
  Ni  Ni700  1  0.82283593  0.58588873  0.60588200  1.0
  Ni  Ni701  1  0.82283593  0.91922207  0.60588200  1.0
  Ni  Ni702  1  0.22933060  0.22725257  0.04866100  1.0
  Ni  Ni703  1  0.22933060  0.56058590  0.04866100  1.0
  Ni  Ni704  1  0.22933060  0.89391923  0.04866100  1.0
  Ni  Ni705  1  0.56266393  0.22725257  0.04866100  1.0
  Ni  Ni706  1  0.56266393  0.56058590  0.04866100  1.0
  Ni  Ni707  1  0.56266393  0.89391923  0.04866100  1.0
  Ni  Ni708  1  0.89599727  0.22725257  0.04866100  1.0
  Ni  Ni709  1  0.89599727  0.56058590  0.04866100  1.0
  Ni  Ni710  1  0.89599727  0.89391923  0.04866100  1.0
  Ni  Ni711  1  0.02933060  0.26058590  0.04866100  1.0
  Ni  Ni712  1  0.02933060  0.59391923  0.04866100  1.0
  Ni  Ni713  1  0.02933060  0.92725257  0.04866100  1.0
  Ni  Ni714  1  0.36266393  0.26058590  0.04866100  1.0
  Ni  Ni715  1  0.36266393  0.59391923  0.04866100  1.0
  Ni  Ni716  1  0.36266393  0.92725257  0.04866100  1.0
  Ni  Ni717  1  0.69599727  0.26058590  0.04866100  1.0
  Ni  Ni718  1  0.69599727  0.59391923  0.04866100  1.0
  Ni  Ni719  1  0.69599727  0.92725257  0.04866100  1.0
  Ni  Ni720  1  0.08814847  0.22408837  0.97631800  1.0
  Ni  Ni721  1  0.08814847  0.55742170  0.97631800  1.0
  Ni  Ni722  1  0.08814847  0.89075503  0.97631800  1.0
  Ni  Ni723  1  0.42148180  0.22408837  0.97631800  1.0
  Ni  Ni724  1  0.42148180  0.55742170  0.97631800  1.0
  Ni  Ni725  1  0.42148180  0.89075503  0.97631800  1.0
  Ni  Ni726  1  0.75481513  0.22408837  0.97631800  1.0
  Ni  Ni727  1  0.75481513  0.55742170  0.97631800  1.0
  Ni  Ni728  1  0.75481513  0.89075503  0.97631800  1.0
  Ni  Ni729  1  0.22148180  0.25742170  0.97631800  1.0
  Ni  Ni730  1  0.22148180  0.59075503  0.97631800  1.0
  Ni  Ni731  1  0.22148180  0.92408837  0.97631800  1.0
  Ni  Ni732  1  0.55481513  0.25742170  0.97631800  1.0
  Ni  Ni733  1  0.55481513  0.59075503  0.97631800  1.0
  Ni  Ni734  1  0.55481513  0.92408837  0.97631800  1.0
  Ni  Ni735  1  0.88814847  0.25742170  0.97631800  1.0
  Ni  Ni736  1  0.88814847  0.59075503  0.97631800  1.0
  Ni  Ni737  1  0.88814847  0.92408837  0.97631800  1.0
  Ni  Ni738  1  0.13200953  0.24455980  0.10588200  1.0
  Ni  Ni739  1  0.13200953  0.57789313  0.10588200  1.0
  Ni  Ni740  1  0.13200953  0.91122647  0.10588200  1.0
  Ni  Ni741  1  0.46534287  0.24455980  0.10588200  1.0
  Ni  Ni742  1  0.46534287  0.57789313  0.10588200  1.0
  Ni  Ni743  1  0.46534287  0.91122647  0.10588200  1.0
  Ni  Ni744  1  0.79867620  0.24455980  0.10588200  1.0
  Ni  Ni745  1  0.79867620  0.57789313  0.10588200  1.0
  Ni  Ni746  1  0.79867620  0.91122647  0.10588200  1.0
  Ni  Ni747  1  0.33200953  0.21122647  0.10588200  1.0
  Ni  Ni748  1  0.33200953  0.54455980  0.10588200  1.0
  Ni  Ni749  1  0.33200953  0.87789313  0.10588200  1.0
  Ni  Ni750  1  0.66534287  0.21122647  0.10588200  1.0
  Ni  Ni751  1  0.66534287  0.54455980  0.10588200  1.0
  Ni  Ni752  1  0.66534287  0.87789313  0.10588200  1.0
  Ni  Ni753  1  0.99867620  0.21122647  0.10588200  1.0
  Ni  Ni754  1  0.99867620  0.54455980  0.10588200  1.0
  Ni  Ni755  1  0.99867620  0.87789313  0.10588200  1.0
  Ni  Ni756  1  0.30220980  0.24739887  0.64411800  1.0
  Ni  Ni757  1  0.30220980  0.58073220  0.64411800  1.0
  Ni  Ni758  1  0.30220980  0.91406553  0.64411800  1.0
  Ni  Ni759  1  0.63554313  0.24739887  0.64411800  1.0
  Ni  Ni760  1  0.63554313  0.58073220  0.64411800  1.0
  Ni  Ni761  1  0.63554313  0.91406553  0.64411800  1.0
  Ni  Ni762  1  0.96887647  0.24739887  0.64411800  1.0
  Ni  Ni763  1  0.96887647  0.58073220  0.64411800  1.0
  Ni  Ni764  1  0.96887647  0.91406553  0.64411800  1.0
  Ni  Ni765  1  0.16887647  0.21406553  0.64411800  1.0
  Ni  Ni766  1  0.16887647  0.54739887  0.64411800  1.0
  Ni  Ni767  1  0.16887647  0.88073220  0.64411800  1.0
  Ni  Ni768  1  0.50220980  0.21406553  0.64411800  1.0
  Ni  Ni769  1  0.50220980  0.54739887  0.64411800  1.0
  Ni  Ni770  1  0.50220980  0.88073220  0.64411800  1.0
  Ni  Ni771  1  0.83554313  0.21406553  0.64411800  1.0
  Ni  Ni772  1  0.83554313  0.54739887  0.64411800  1.0
  Ni  Ni773  1  0.83554313  0.88073220  0.64411800  1.0
  Ni  Ni774  1  0.31433127  0.23354823  0.79866100  1.0
  Ni  Ni775  1  0.31433127  0.56688157  0.79866100  1.0
  Ni  Ni776  1  0.31433127  0.90021490  0.79866100  1.0
  Ni  Ni777  1  0.64766460  0.23354823  0.79866100  1.0
  Ni  Ni778  1  0.64766460  0.56688157  0.79866100  1.0
  Ni  Ni779  1  0.64766460  0.90021490  0.79866100  1.0
  Ni  Ni780  1  0.98099793  0.23354823  0.79866100  1.0
  Ni  Ni781  1  0.98099793  0.56688157  0.79866100  1.0
  Ni  Ni782  1  0.98099793  0.90021490  0.79866100  1.0
  Ni  Ni783  1  0.18099793  0.20021490  0.79866100  1.0
  Ni  Ni784  1  0.18099793  0.53354823  0.79866100  1.0
  Ni  Ni785  1  0.18099793  0.86688157  0.79866100  1.0
  Ni  Ni786  1  0.51433127  0.20021490  0.79866100  1.0
  Ni  Ni787  1  0.51433127  0.53354823  0.79866100  1.0
  Ni  Ni788  1  0.51433127  0.86688157  0.79866100  1.0
  Ni  Ni789  1  0.84766460  0.20021490  0.79866100  1.0
  Ni  Ni790  1  0.84766460  0.53354823  0.79866100  1.0
  Ni  Ni791  1  0.84766460  0.86688157  0.79866100  1.0
  Ni  Ni792  1  0.22525527  0.24308557  0.29866100  1.0
  Ni  Ni793  1  0.22525527  0.57641890  0.29866100  1.0
  Ni  Ni794  1  0.22525527  0.90975223  0.29866100  1.0
  Ni  Ni795  1  0.55858860  0.24308557  0.29866100  1.0
  Ni  Ni796  1  0.55858860  0.57641890  0.29866100  1.0
  Ni  Ni797  1  0.55858860  0.90975223  0.29866100  1.0
  Ni  Ni798  1  0.89192193  0.24308557  0.29866100  1.0
  Ni  Ni799  1  0.89192193  0.57641890  0.29866100  1.0
  Ni  Ni800  1  0.89192193  0.90975223  0.29866100  1.0
  Ni  Ni801  1  0.09192193  0.20975223  0.29866100  1.0
  Ni  Ni802  1  0.09192193  0.54308557  0.29866100  1.0
  Ni  Ni803  1  0.09192193  0.87641890  0.29866100  1.0
  Ni  Ni804  1  0.42525527  0.20975223  0.29866100  1.0
  Ni  Ni805  1  0.42525527  0.54308557  0.29866100  1.0
  Ni  Ni806  1  0.42525527  0.87641890  0.29866100  1.0
  Ni  Ni807  1  0.75858860  0.20975223  0.29866100  1.0
  Ni  Ni808  1  0.75858860  0.54308557  0.29866100  1.0
  Ni  Ni809  1  0.75858860  0.87641890  0.29866100  1.0
  Ni  Ni810  1  0.08609380  0.22126420  0.85588200  1.0
  Ni  Ni811  1  0.08609380  0.55459753  0.85588200  1.0
  Ni  Ni812  1  0.08609380  0.88793087  0.85588200  1.0
  Ni  Ni813  1  0.41942713  0.22126420  0.85588200  1.0
  Ni  Ni814  1  0.41942713  0.55459753  0.85588200  1.0
  Ni  Ni815  1  0.41942713  0.88793087  0.85588200  1.0
  Ni  Ni816  1  0.75276047  0.22126420  0.85588200  1.0
  Ni  Ni817  1  0.75276047  0.55459753  0.85588200  1.0
  Ni  Ni818  1  0.75276047  0.88793087  0.85588200  1.0
  Ni  Ni819  1  0.21942713  0.25459753  0.85588200  1.0
  Ni  Ni820  1  0.21942713  0.58793087  0.85588200  1.0
  Ni  Ni821  1  0.21942713  0.92126420  0.85588200  1.0
  Ni  Ni822  1  0.55276047  0.25459753  0.85588200  1.0
  Ni  Ni823  1  0.55276047  0.58793087  0.85588200  1.0
  Ni  Ni824  1  0.55276047  0.92126420  0.85588200  1.0
  Ni  Ni825  1  0.88609380  0.25459753  0.85588200  1.0
  Ni  Ni826  1  0.88609380  0.58793087  0.85588200  1.0
  Ni  Ni827  1  0.88609380  0.92126420  0.85588200  1.0
  Ni  Ni828  1  0.23256527  0.23357773  0.11600700  1.0
  Ni  Ni829  1  0.23256527  0.56691107  0.11600700  1.0
  Ni  Ni830  1  0.23256527  0.90024440  0.11600700  1.0
  Ni  Ni831  1  0.56589860  0.23357773  0.11600700  1.0
  Ni  Ni832  1  0.56589860  0.56691107  0.11600700  1.0
  Ni  Ni833  1  0.56589860  0.90024440  0.11600700  1.0
  Ni  Ni834  1  0.89923193  0.23357773  0.11600700  1.0
  Ni  Ni835  1  0.89923193  0.56691107  0.11600700  1.0
  Ni  Ni836  1  0.89923193  0.90024440  0.11600700  1.0
  Ni  Ni837  1  0.09923193  0.20024440  0.11600700  1.0
  Ni  Ni838  1  0.09923193  0.53357773  0.11600700  1.0
  Ni  Ni839  1  0.09923193  0.86691107  0.11600700  1.0
  Ni  Ni840  1  0.43256527  0.20024440  0.11600700  1.0
  Ni  Ni841  1  0.43256527  0.53357773  0.11600700  1.0
  Ni  Ni842  1  0.43256527  0.86691107  0.11600700  1.0
  Ni  Ni843  1  0.76589860  0.20024440  0.11600700  1.0
  Ni  Ni844  1  0.76589860  0.53357773  0.11600700  1.0
  Ni  Ni845  1  0.76589860  0.86691107  0.11600700  1.0
  Ni  Ni846  1  0.03651333  0.23023833  0.72631800  1.0
  Ni  Ni847  1  0.03651333  0.56357167  0.72631800  1.0
  Ni  Ni848  1  0.03651333  0.89690500  0.72631800  1.0
  Ni  Ni849  1  0.36984667  0.23023833  0.72631800  1.0
  Ni  Ni850  1  0.36984667  0.56357167  0.72631800  1.0
  Ni  Ni851  1  0.36984667  0.89690500  0.72631800  1.0
  Ni  Ni852  1  0.70318000  0.23023833  0.72631800  1.0
  Ni  Ni853  1  0.70318000  0.56357167  0.72631800  1.0
  Ni  Ni854  1  0.70318000  0.89690500  0.72631800  1.0
  Ni  Ni855  1  0.16984667  0.26357167  0.72631800  1.0
  Ni  Ni856  1  0.16984667  0.59690500  0.72631800  1.0
  Ni  Ni857  1  0.16984667  0.93023833  0.72631800  1.0
  Ni  Ni858  1  0.50318000  0.26357167  0.72631800  1.0
  Ni  Ni859  1  0.50318000  0.59690500  0.72631800  1.0
  Ni  Ni860  1  0.50318000  0.93023833  0.72631800  1.0
  Ni  Ni861  1  0.83651333  0.26357167  0.72631800  1.0
  Ni  Ni862  1  0.83651333  0.59690500  0.72631800  1.0
  Ni  Ni863  1  0.83651333  0.93023833  0.72631800  1.0
  Ni  Ni864  1  0.28150313  0.20052637  0.70133900  1.0
  Ni  Ni865  1  0.28150313  0.53385970  0.70133900  1.0
  Ni  Ni866  1  0.28150313  0.86719303  0.70133900  1.0
  Ni  Ni867  1  0.61483647  0.20052637  0.70133900  1.0
  Ni  Ni868  1  0.61483647  0.53385970  0.70133900  1.0
  Ni  Ni869  1  0.61483647  0.86719303  0.70133900  1.0
  Ni  Ni870  1  0.94816980  0.20052637  0.70133900  1.0
  Ni  Ni871  1  0.94816980  0.53385970  0.70133900  1.0
  Ni  Ni872  1  0.94816980  0.86719303  0.70133900  1.0
  Ni  Ni873  1  0.08150313  0.23385970  0.70133900  1.0
  Ni  Ni874  1  0.08150313  0.56719303  0.70133900  1.0
  Ni  Ni875  1  0.08150313  0.90052637  0.70133900  1.0
  Ni  Ni876  1  0.41483647  0.23385970  0.70133900  1.0
  Ni  Ni877  1  0.41483647  0.56719303  0.70133900  1.0
  Ni  Ni878  1  0.41483647  0.90052637  0.70133900  1.0
  Ni  Ni879  1  0.74816980  0.23385970  0.70133900  1.0
  Ni  Ni880  1  0.74816980  0.56719303  0.70133900  1.0
  Ni  Ni881  1  0.74816980  0.90052637  0.70133900  1.0
  Ni  Ni882  1  0.25831353  0.23087913  0.61600700  1.0
  Ni  Ni883  1  0.25831353  0.56421247  0.61600700  1.0
  Ni  Ni884  1  0.25831353  0.89754580  0.61600700  1.0
  Ni  Ni885  1  0.59164687  0.23087913  0.61600700  1.0
  Ni  Ni886  1  0.59164687  0.56421247  0.61600700  1.0
  Ni  Ni887  1  0.59164687  0.89754580  0.61600700  1.0
  Ni  Ni888  1  0.92498020  0.23087913  0.61600700  1.0
  Ni  Ni889  1  0.92498020  0.56421247  0.61600700  1.0
  Ni  Ni890  1  0.92498020  0.89754580  0.61600700  1.0
  Ni  Ni891  1  0.05831353  0.26421247  0.61600700  1.0
  Ni  Ni892  1  0.05831353  0.59754580  0.61600700  1.0
  Ni  Ni893  1  0.05831353  0.93087913  0.61600700  1.0
  Ni  Ni894  1  0.39164687  0.26421247  0.61600700  1.0
  Ni  Ni895  1  0.39164687  0.59754580  0.61600700  1.0
  Ni  Ni896  1  0.39164687  0.93087913  0.61600700  1.0
  Ni  Ni897  1  0.72498020  0.26421247  0.61600700  1.0
  Ni  Ni898  1  0.72498020  0.59754580  0.61600700  1.0
  Ni  Ni899  1  0.72498020  0.93087913  0.61600700  1.0
  Ni  Ni900  1  0.27637733  0.24853767  0.52368200  1.0
  Ni  Ni901  1  0.27637733  0.58187100  0.52368200  1.0
  Ni  Ni902  1  0.27637733  0.91520433  0.52368200  1.0
  Ni  Ni903  1  0.60971067  0.24853767  0.52368200  1.0
  Ni  Ni904  1  0.60971067  0.58187100  0.52368200  1.0
  Ni  Ni905  1  0.60971067  0.91520433  0.52368200  1.0
  Ni  Ni906  1  0.94304400  0.24853767  0.52368200  1.0
  Ni  Ni907  1  0.94304400  0.58187100  0.52368200  1.0
  Ni  Ni908  1  0.94304400  0.91520433  0.52368200  1.0
  Ni  Ni909  1  0.14304400  0.21520433  0.52368200  1.0
  Ni  Ni910  1  0.14304400  0.54853767  0.52368200  1.0
  Ni  Ni911  1  0.14304400  0.88187100  0.52368200  1.0
  Ni  Ni912  1  0.47637733  0.21520433  0.52368200  1.0
  Ni  Ni913  1  0.47637733  0.54853767  0.52368200  1.0
  Ni  Ni914  1  0.47637733  0.88187100  0.52368200  1.0
  Ni  Ni915  1  0.80971067  0.21520433  0.52368200  1.0
  Ni  Ni916  1  0.80971067  0.54853767  0.52368200  1.0
  Ni  Ni917  1  0.80971067  0.88187100  0.52368200  1.0
  Ni  Ni918  1  0.17105740  0.23939643  0.45133900  1.0
  Ni  Ni919  1  0.17105740  0.57272977  0.45133900  1.0
  Ni  Ni920  1  0.17105740  0.90606310  0.45133900  1.0
  Ni  Ni921  1  0.50439073  0.23939643  0.45133900  1.0
  Ni  Ni922  1  0.50439073  0.57272977  0.45133900  1.0
  Ni  Ni923  1  0.50439073  0.90606310  0.45133900  1.0
  Ni  Ni924  1  0.83772407  0.23939643  0.45133900  1.0
  Ni  Ni925  1  0.83772407  0.57272977  0.45133900  1.0
  Ni  Ni926  1  0.83772407  0.90606310  0.45133900  1.0
  Ni  Ni927  1  0.03772407  0.20606310  0.45133900  1.0
  Ni  Ni928  1  0.03772407  0.53939643  0.45133900  1.0
  Ni  Ni929  1  0.03772407  0.87272977  0.45133900  1.0
  Ni  Ni930  1  0.37105740  0.20606310  0.45133900  1.0
  Ni  Ni931  1  0.37105740  0.53939643  0.45133900  1.0
  Ni  Ni932  1  0.37105740  0.87272977  0.45133900  1.0
  Ni  Ni933  1  0.70439073  0.20606310  0.45133900  1.0
  Ni  Ni934  1  0.70439073  0.53939643  0.45133900  1.0
  Ni  Ni935  1  0.70439073  0.87272977  0.45133900  1.0
  Ni  Ni936  1  0.15044840  0.24157260  0.22631800  1.0
  Ni  Ni937  1  0.15044840  0.57490593  0.22631800  1.0
  Ni  Ni938  1  0.15044840  0.90823927  0.22631800  1.0
  Ni  Ni939  1  0.48378173  0.24157260  0.22631800  1.0
  Ni  Ni940  1  0.48378173  0.57490593  0.22631800  1.0
  Ni  Ni941  1  0.48378173  0.90823927  0.22631800  1.0
  Ni  Ni942  1  0.81711507  0.24157260  0.22631800  1.0
  Ni  Ni943  1  0.81711507  0.57490593  0.22631800  1.0
  Ni  Ni944  1  0.81711507  0.90823927  0.22631800  1.0
  Ni  Ni945  1  0.01711507  0.20823927  0.22631800  1.0
  Ni  Ni946  1  0.01711507  0.54157260  0.22631800  1.0
  Ni  Ni947  1  0.01711507  0.87490593  0.22631800  1.0
  Ni  Ni948  1  0.35044840  0.20823927  0.22631800  1.0
  Ni  Ni949  1  0.35044840  0.54157260  0.22631800  1.0
  Ni  Ni950  1  0.35044840  0.87490593  0.22631800  1.0
  Ni  Ni951  1  0.68378173  0.20823927  0.22631800  1.0
  Ni  Ni952  1  0.68378173  0.54157260  0.22631800  1.0
  Ni  Ni953  1  0.68378173  0.87490593  0.22631800  1.0
  Ni  Ni954  1  0.13541833  0.25918433  0.35588200  1.0
  Ni  Ni955  1  0.13541833  0.59251767  0.35588200  1.0
  Ni  Ni956  1  0.13541833  0.92585100  0.35588200  1.0
  Ni  Ni957  1  0.46875167  0.25918433  0.35588200  1.0
  Ni  Ni958  1  0.46875167  0.59251767  0.35588200  1.0
  Ni  Ni959  1  0.46875167  0.92585100  0.35588200  1.0
  Ni  Ni960  1  0.80208500  0.25918433  0.35588200  1.0
  Ni  Ni961  1  0.80208500  0.59251767  0.35588200  1.0
  Ni  Ni962  1  0.80208500  0.92585100  0.35588200  1.0
  Ni  Ni963  1  0.00208500  0.22585100  0.35588200  1.0
  Ni  Ni964  1  0.00208500  0.55918433  0.35588200  1.0
  Ni  Ni965  1  0.00208500  0.89251767  0.35588200  1.0
  Ni  Ni966  1  0.33541833  0.22585100  0.35588200  1.0
  Ni  Ni967  1  0.33541833  0.55918433  0.35588200  1.0
  Ni  Ni968  1  0.33541833  0.89251767  0.35588200  1.0
  Ni  Ni969  1  0.66875167  0.22585100  0.35588200  1.0
  Ni  Ni970  1  0.66875167  0.55918433  0.35588200  1.0
  Ni  Ni971  1  0.66875167  0.89251767  0.35588200  1.0
  Ni  Ni972  1  0.22607413  0.24245803  0.36600700  1.0
  Ni  Ni973  1  0.22607413  0.57579137  0.36600700  1.0
  Ni  Ni974  1  0.22607413  0.90912470  0.36600700  1.0
  Ni  Ni975  1  0.55940747  0.24245803  0.36600700  1.0
  Ni  Ni976  1  0.55940747  0.57579137  0.36600700  1.0
  Ni  Ni977  1  0.55940747  0.90912470  0.36600700  1.0
  Ni  Ni978  1  0.89274080  0.24245803  0.36600700  1.0
  Ni  Ni979  1  0.89274080  0.57579137  0.36600700  1.0
  Ni  Ni980  1  0.89274080  0.90912470  0.36600700  1.0
  Ni  Ni981  1  0.09274080  0.20912470  0.36600700  1.0
  Ni  Ni982  1  0.09274080  0.54245803  0.36600700  1.0
  Ni  Ni983  1  0.09274080  0.87579137  0.36600700  1.0
  Ni  Ni984  1  0.42607413  0.20912470  0.36600700  1.0
  Ni  Ni985  1  0.42607413  0.54245803  0.36600700  1.0
  Ni  Ni986  1  0.42607413  0.87579137  0.36600700  1.0
  Ni  Ni987  1  0.75940747  0.20912470  0.36600700  1.0
  Ni  Ni988  1  0.75940747  0.54245803  0.36600700  1.0
  Ni  Ni989  1  0.75940747  0.87579137  0.36600700  1.0
  Ni  Ni990  1  0.27642267  0.21337850  0.88399300  1.0
  Ni  Ni991  1  0.27642267  0.54671183  0.88399300  1.0
  Ni  Ni992  1  0.27642267  0.88004517  0.88399300  1.0
  Ni  Ni993  1  0.60975600  0.21337850  0.88399300  1.0
  Ni  Ni994  1  0.60975600  0.54671183  0.88399300  1.0
  Ni  Ni995  1  0.60975600  0.88004517  0.88399300  1.0
  Ni  Ni996  1  0.94308933  0.21337850  0.88399300  1.0
  Ni  Ni997  1  0.94308933  0.54671183  0.88399300  1.0
  Ni  Ni998  1  0.94308933  0.88004517  0.88399300  1.0
  Ni  Ni999  1  0.07642267  0.24671183  0.88399300  1.0
  Ni  Ni1000  1  0.07642267  0.58004517  0.88399300  1.0
  Ni  Ni1001  1  0.07642267  0.91337850  0.88399300  1.0
  Ni  Ni1002  1  0.40975600  0.24671183  0.88399300  1.0
  Ni  Ni1003  1  0.40975600  0.58004517  0.88399300  1.0
  Ni  Ni1004  1  0.40975600  0.91337850  0.88399300  1.0
  Ni  Ni1005  1  0.74308933  0.24671183  0.88399300  1.0
  Ni  Ni1006  1  0.74308933  0.58004517  0.88399300  1.0
  Ni  Ni1007  1  0.74308933  0.91337850  0.88399300  1.0
  Ni  Ni1008  1  0.01925240  0.20227743  0.38399300  1.0
  Ni  Ni1009  1  0.01925240  0.53561077  0.38399300  1.0
  Ni  Ni1010  1  0.01925240  0.86894410  0.38399300  1.0
  Ni  Ni1011  1  0.35258573  0.20227743  0.38399300  1.0
  Ni  Ni1012  1  0.35258573  0.53561077  0.38399300  1.0
  Ni  Ni1013  1  0.35258573  0.86894410  0.38399300  1.0
  Ni  Ni1014  1  0.68591907  0.20227743  0.38399300  1.0
  Ni  Ni1015  1  0.68591907  0.53561077  0.38399300  1.0
  Ni  Ni1016  1  0.68591907  0.86894410  0.38399300  1.0
  Ni  Ni1017  1  0.15258573  0.23561077  0.38399300  1.0
  Ni  Ni1018  1  0.15258573  0.56894410  0.38399300  1.0
  Ni  Ni1019  1  0.15258573  0.90227743  0.38399300  1.0
  Ni  Ni1020  1  0.48591907  0.23561077  0.38399300  1.0
  Ni  Ni1021  1  0.48591907  0.56894410  0.38399300  1.0
  Ni  Ni1022  1  0.48591907  0.90227743  0.38399300  1.0
  Ni  Ni1023  1  0.81925240  0.23561077  0.38399300  1.0
  Ni  Ni1024  1  0.81925240  0.56894410  0.38399300  1.0
  Ni  Ni1025  1  0.81925240  0.90227743  0.38399300  1.0
  Ni  Ni1026  1  0.16547993  0.26438923  0.47631800  1.0
  Ni  Ni1027  1  0.16547993  0.59772257  0.47631800  1.0
  Ni  Ni1028  1  0.16547993  0.93105590  0.47631800  1.0
  Ni  Ni1029  1  0.49881327  0.26438923  0.47631800  1.0
  Ni  Ni1030  1  0.49881327  0.59772257  0.47631800  1.0
  Ni  Ni1031  1  0.49881327  0.93105590  0.47631800  1.0
  Ni  Ni1032  1  0.83214660  0.26438923  0.47631800  1.0
  Ni  Ni1033  1  0.83214660  0.59772257  0.47631800  1.0
  Ni  Ni1034  1  0.83214660  0.93105590  0.47631800  1.0
  Ni  Ni1035  1  0.03214660  0.23105590  0.47631800  1.0
  Ni  Ni1036  1  0.03214660  0.56438923  0.47631800  1.0
  Ni  Ni1037  1  0.03214660  0.89772257  0.47631800  1.0
  Ni  Ni1038  1  0.36547993  0.23105590  0.47631800  1.0
  Ni  Ni1039  1  0.36547993  0.56438923  0.47631800  1.0
  Ni  Ni1040  1  0.36547993  0.89772257  0.47631800  1.0
  Ni  Ni1041  1  0.69881327  0.23105590  0.47631800  1.0
  Ni  Ni1042  1  0.69881327  0.56438923  0.47631800  1.0
  Ni  Ni1043  1  0.69881327  0.89772257  0.47631800  1.0
  Ni  Ni1044  1  0.20893860  0.26020207  0.63399300  1.0
  Ni  Ni1045  1  0.20893860  0.59353540  0.63399300  1.0
  Ni  Ni1046  1  0.20893860  0.92686873  0.63399300  1.0
  Ni  Ni1047  1  0.54227193  0.26020207  0.63399300  1.0
  Ni  Ni1048  1  0.54227193  0.59353540  0.63399300  1.0
  Ni  Ni1049  1  0.54227193  0.92686873  0.63399300  1.0
  Ni  Ni1050  1  0.87560527  0.26020207  0.63399300  1.0
  Ni  Ni1051  1  0.87560527  0.59353540  0.63399300  1.0
  Ni  Ni1052  1  0.87560527  0.92686873  0.63399300  1.0
  Ni  Ni1053  1  0.07560527  0.22686873  0.63399300  1.0
  Ni  Ni1054  1  0.07560527  0.56020207  0.63399300  1.0
  Ni  Ni1055  1  0.07560527  0.89353540  0.63399300  1.0
  Ni  Ni1056  1  0.40893860  0.22686873  0.63399300  1.0
  Ni  Ni1057  1  0.40893860  0.56020207  0.63399300  1.0
  Ni  Ni1058  1  0.40893860  0.89353540  0.63399300  1.0
  Ni  Ni1059  1  0.74227193  0.22686873  0.63399300  1.0
  Ni  Ni1060  1  0.74227193  0.56020207  0.63399300  1.0
  Ni  Ni1061  1  0.74227193  0.89353540  0.63399300  1.0
  Ni  Ni1062  1  0.33147133  0.23866550  0.86600700  1.0
  Ni  Ni1063  1  0.33147133  0.57199883  0.86600700  1.0
  Ni  Ni1064  1  0.33147133  0.90533217  0.86600700  1.0
  Ni  Ni1065  1  0.66480467  0.23866550  0.86600700  1.0
  Ni  Ni1066  1  0.66480467  0.57199883  0.86600700  1.0
  Ni  Ni1067  1  0.66480467  0.90533217  0.86600700  1.0
  Ni  Ni1068  1  0.99813800  0.23866550  0.86600700  1.0
  Ni  Ni1069  1  0.99813800  0.57199883  0.86600700  1.0
  Ni  Ni1070  1  0.99813800  0.90533217  0.86600700  1.0
  Ni  Ni1071  1  0.19813800  0.20533217  0.86600700  1.0
  Ni  Ni1072  1  0.19813800  0.53866550  0.86600700  1.0
  Ni  Ni1073  1  0.19813800  0.87199883  0.86600700  1.0
  Ni  Ni1074  1  0.53147133  0.20533217  0.86600700  1.0
  Ni  Ni1075  1  0.53147133  0.53866550  0.86600700  1.0
  Ni  Ni1076  1  0.53147133  0.87199883  0.86600700  1.0
  Ni  Ni1077  1  0.86480467  0.20533217  0.86600700  1.0
  Ni  Ni1078  1  0.86480467  0.53866550  0.86600700  1.0
  Ni  Ni1079  1  0.86480467  0.87199883  0.86600700  1.0
  Ni  Ni1080  1  0.07590993  0.24741590  0.95133900  1.0
  Ni  Ni1081  1  0.07590993  0.58074923  0.95133900  1.0
  Ni  Ni1082  1  0.07590993  0.91408257  0.95133900  1.0
  Ni  Ni1083  1  0.40924327  0.24741590  0.95133900  1.0
  Ni  Ni1084  1  0.40924327  0.58074923  0.95133900  1.0
  Ni  Ni1085  1  0.40924327  0.91408257  0.95133900  1.0
  Ni  Ni1086  1  0.74257660  0.24741590  0.95133900  1.0
  Ni  Ni1087  1  0.74257660  0.58074923  0.95133900  1.0
  Ni  Ni1088  1  0.74257660  0.91408257  0.95133900  1.0
  Ni  Ni1089  1  0.27590993  0.21408257  0.95133900  1.0
  Ni  Ni1090  1  0.27590993  0.54741590  0.95133900  1.0
  Ni  Ni1091  1  0.27590993  0.88074923  0.95133900  1.0
  Ni  Ni1092  1  0.60924327  0.21408257  0.95133900  1.0
  Ni  Ni1093  1  0.60924327  0.54741590  0.95133900  1.0
  Ni  Ni1094  1  0.60924327  0.88074923  0.95133900  1.0
  Ni  Ni1095  1  0.94257660  0.21408257  0.95133900  1.0
  Ni  Ni1096  1  0.94257660  0.54741590  0.95133900  1.0
  Ni  Ni1097  1  0.94257660  0.88074923  0.95133900  1.0
  Ni  Ni1098  1  0.28673647  0.20545387  0.13399300  1.0
  Ni  Ni1099  1  0.28673647  0.53878720  0.13399300  1.0
  Ni  Ni1100  1  0.28673647  0.87212053  0.13399300  1.0
  Ni  Ni1101  1  0.62006980  0.20545387  0.13399300  1.0
  Ni  Ni1102  1  0.62006980  0.53878720  0.13399300  1.0
  Ni  Ni1103  1  0.62006980  0.87212053  0.13399300  1.0
  Ni  Ni1104  1  0.95340313  0.20545387  0.13399300  1.0
  Ni  Ni1105  1  0.95340313  0.53878720  0.13399300  1.0
  Ni  Ni1106  1  0.95340313  0.87212053  0.13399300  1.0
  Ni  Ni1107  1  0.08673647  0.23878720  0.13399300  1.0
  Ni  Ni1108  1  0.08673647  0.57212053  0.13399300  1.0
  Ni  Ni1109  1  0.08673647  0.90545387  0.13399300  1.0
  Ni  Ni1110  1  0.42006980  0.23878720  0.13399300  1.0
  Ni  Ni1111  1  0.42006980  0.57212053  0.13399300  1.0
  Ni  Ni1112  1  0.42006980  0.90545387  0.13399300  1.0
  Ni  Ni1113  1  0.75340313  0.23878720  0.13399300  1.0
  Ni  Ni1114  1  0.75340313  0.57212053  0.13399300  1.0
  Ni  Ni1115  1  0.75340313  0.90545387  0.13399300  1.0
  Ni  Ni1116  1  0.27768927  0.25077490  0.77368200  1.0
  Ni  Ni1117  1  0.27768927  0.58410823  0.77368200  1.0
  Ni  Ni1118  1  0.27768927  0.91744157  0.77368200  1.0
  Ni  Ni1119  1  0.61102260  0.25077490  0.77368200  1.0
  Ni  Ni1120  1  0.61102260  0.58410823  0.77368200  1.0
  Ni  Ni1121  1  0.61102260  0.91744157  0.77368200  1.0
  Ni  Ni1122  1  0.94435593  0.25077490  0.77368200  1.0
  Ni  Ni1123  1  0.94435593  0.58410823  0.77368200  1.0
  Ni  Ni1124  1  0.94435593  0.91744157  0.77368200  1.0
  Ni  Ni1125  1  0.14435593  0.21744157  0.77368200  1.0
  Ni  Ni1126  1  0.14435593  0.55077490  0.77368200  1.0
  Ni  Ni1127  1  0.14435593  0.88410823  0.77368200  1.0
  Ni  Ni1128  1  0.47768927  0.21744157  0.77368200  1.0
  Ni  Ni1129  1  0.47768927  0.55077490  0.77368200  1.0
  Ni  Ni1130  1  0.47768927  0.88410823  0.77368200  1.0
  Ni  Ni1131  1  0.81102260  0.21744157  0.77368200  1.0
  Ni  Ni1132  1  0.81102260  0.55077490  0.77368200  1.0
  Ni  Ni1133  1  0.81102260  0.88410823  0.77368200  1.0
  Ni  Ni1134  1  0.30405407  0.25967660  0.89411800  1.0
  Ni  Ni1135  1  0.30405407  0.59300993  0.89411800  1.0
  Ni  Ni1136  1  0.30405407  0.92634327  0.89411800  1.0
  Ni  Ni1137  1  0.63738740  0.25967660  0.89411800  1.0
  Ni  Ni1138  1  0.63738740  0.59300993  0.89411800  1.0
  Ni  Ni1139  1  0.63738740  0.92634327  0.89411800  1.0
  Ni  Ni1140  1  0.97072073  0.25967660  0.89411800  1.0
  Ni  Ni1141  1  0.97072073  0.59300993  0.89411800  1.0
  Ni  Ni1142  1  0.97072073  0.92634327  0.89411800  1.0
  Ni  Ni1143  1  0.17072073  0.22634327  0.89411800  1.0
  Ni  Ni1144  1  0.17072073  0.55967660  0.89411800  1.0
  Ni  Ni1145  1  0.17072073  0.89300993  0.89411800  1.0
  Ni  Ni1146  1  0.50405407  0.22634327  0.89411800  1.0
  Ni  Ni1147  1  0.50405407  0.55967660  0.89411800  1.0
  Ni  Ni1148  1  0.50405407  0.89300993  0.89411800  1.0
  Ni  Ni1149  1  0.83738740  0.22634327  0.89411800  1.0
  Ni  Ni1150  1  0.83738740  0.55967660  0.89411800  1.0
  Ni  Ni1151  1  0.83738740  0.89300993  0.89411800  1.0
  Y  Y1152  1  0.13245040  0.30095427  0.58931400  1.0
  Y  Y1153  1  0.13245040  0.63428760  0.58931400  1.0
  Y  Y1154  1  0.13245040  0.96762093  0.58931400  1.0
  Y  Y1155  1  0.46578373  0.30095427  0.58931400  1.0
  Y  Y1156  1  0.46578373  0.63428760  0.58931400  1.0
  Y  Y1157  1  0.46578373  0.96762093  0.58931400  1.0
  Y  Y1158  1  0.79911707  0.30095427  0.58931400  1.0
  Y  Y1159  1  0.79911707  0.63428760  0.58931400  1.0
  Y  Y1160  1  0.79911707  0.96762093  0.58931400  1.0
  Y  Y1161  1  0.33245040  0.26762093  0.58931400  1.0
  Y  Y1162  1  0.33245040  0.60095427  0.58931400  1.0
  Y  Y1163  1  0.33245040  0.93428760  0.58931400  1.0
  Y  Y1164  1  0.66578373  0.26762093  0.58931400  1.0
  Y  Y1165  1  0.66578373  0.60095427  0.58931400  1.0
  Y  Y1166  1  0.66578373  0.93428760  0.58931400  1.0
  Y  Y1167  1  0.99911707  0.26762093  0.58931400  1.0
  Y  Y1168  1  0.99911707  0.60095427  0.58931400  1.0
  Y  Y1169  1  0.99911707  0.93428760  0.58931400  1.0
  Y  Y1170  1  0.13173727  0.29218707  0.23555000  1.0
  Y  Y1171  1  0.13173727  0.62552040  0.23555000  1.0
  Y  Y1172  1  0.13173727  0.95885373  0.23555000  1.0
  Y  Y1173  1  0.46507060  0.29218707  0.23555000  1.0
  Y  Y1174  1  0.46507060  0.62552040  0.23555000  1.0
  Y  Y1175  1  0.46507060  0.95885373  0.23555000  1.0
  Y  Y1176  1  0.79840393  0.29218707  0.23555000  1.0
  Y  Y1177  1  0.79840393  0.62552040  0.23555000  1.0
  Y  Y1178  1  0.79840393  0.95885373  0.23555000  1.0
  Y  Y1179  1  0.26507060  0.32552040  0.23555000  1.0
  Y  Y1180  1  0.26507060  0.65885373  0.23555000  1.0
  Y  Y1181  1  0.26507060  0.99218707  0.23555000  1.0
  Y  Y1182  1  0.59840393  0.32552040  0.23555000  1.0
  Y  Y1183  1  0.59840393  0.65885373  0.23555000  1.0
  Y  Y1184  1  0.59840393  0.99218707  0.23555000  1.0
  Y  Y1185  1  0.93173727  0.32552040  0.23555000  1.0
  Y  Y1186  1  0.93173727  0.65885373  0.23555000  1.0
  Y  Y1187  1  0.93173727  0.99218707  0.23555000  1.0
  Y  Y1188  1  0.18826873  0.31458210  0.68138700  1.0
  Y  Y1189  1  0.18826873  0.64791543  0.68138700  1.0
  Y  Y1190  1  0.18826873  0.98124877  0.68138700  1.0
  Y  Y1191  1  0.52160207  0.31458210  0.68138700  1.0
  Y  Y1192  1  0.52160207  0.64791543  0.68138700  1.0
  Y  Y1193  1  0.52160207  0.98124877  0.68138700  1.0
  Y  Y1194  1  0.85493540  0.31458210  0.68138700  1.0
  Y  Y1195  1  0.85493540  0.64791543  0.68138700  1.0
  Y  Y1196  1  0.85493540  0.98124877  0.68138700  1.0
  Y  Y1197  1  0.05493540  0.28124877  0.68138700  1.0
  Y  Y1198  1  0.05493540  0.61458210  0.68138700  1.0
  Y  Y1199  1  0.05493540  0.94791543  0.68138700  1.0
  Y  Y1200  1  0.38826873  0.28124877  0.68138700  1.0
  Y  Y1201  1  0.38826873  0.61458210  0.68138700  1.0
  Y  Y1202  1  0.38826873  0.94791543  0.68138700  1.0
  Y  Y1203  1  0.72160207  0.28124877  0.68138700  1.0
  Y  Y1204  1  0.72160207  0.61458210  0.68138700  1.0
  Y  Y1205  1  0.72160207  0.94791543  0.68138700  1.0
  Y  Y1206  1  0.19364340  0.31774960  0.25000000  1.0
  Y  Y1207  1  0.19364340  0.65108293  0.25000000  1.0
  Y  Y1208  1  0.19364340  0.98441627  0.25000000  1.0
  Y  Y1209  1  0.52697673  0.31774960  0.25000000  1.0
  Y  Y1210  1  0.52697673  0.65108293  0.25000000  1.0
  Y  Y1211  1  0.52697673  0.98441627  0.25000000  1.0
  Y  Y1212  1  0.86031007  0.31774960  0.25000000  1.0
  Y  Y1213  1  0.86031007  0.65108293  0.25000000  1.0
  Y  Y1214  1  0.86031007  0.98441627  0.25000000  1.0
  Y  Y1215  1  0.06031007  0.28441627  0.25000000  1.0
  Y  Y1216  1  0.06031007  0.61774960  0.25000000  1.0
  Y  Y1217  1  0.06031007  0.95108293  0.25000000  1.0
  Y  Y1218  1  0.39364340  0.28441627  0.25000000  1.0
  Y  Y1219  1  0.39364340  0.61774960  0.25000000  1.0
  Y  Y1220  1  0.39364340  0.95108293  0.25000000  1.0
  Y  Y1221  1  0.72697673  0.28441627  0.25000000  1.0
  Y  Y1222  1  0.72697673  0.61774960  0.25000000  1.0
  Y  Y1223  1  0.72697673  0.95108293  0.25000000  1.0
  Y  Y1224  1  0.27025473  0.27720327  0.75000000  1.0
  Y  Y1225  1  0.27025473  0.61053660  0.75000000  1.0
  Y  Y1226  1  0.27025473  0.94386993  0.75000000  1.0
  Y  Y1227  1  0.60358807  0.27720327  0.75000000  1.0
  Y  Y1228  1  0.60358807  0.61053660  0.75000000  1.0
  Y  Y1229  1  0.60358807  0.94386993  0.75000000  1.0
  Y  Y1230  1  0.93692140  0.27720327  0.75000000  1.0
  Y  Y1231  1  0.93692140  0.61053660  0.75000000  1.0
  Y  Y1232  1  0.93692140  0.94386993  0.75000000  1.0
  Y  Y1233  1  0.07025473  0.31053660  0.75000000  1.0
  Y  Y1234  1  0.07025473  0.64386993  0.75000000  1.0
  Y  Y1235  1  0.07025473  0.97720327  0.75000000  1.0
  Y  Y1236  1  0.40358807  0.31053660  0.75000000  1.0
  Y  Y1237  1  0.40358807  0.64386993  0.75000000  1.0
  Y  Y1238  1  0.40358807  0.97720327  0.75000000  1.0
  Y  Y1239  1  0.73692140  0.31053660  0.75000000  1.0
  Y  Y1240  1  0.73692140  0.64386993  0.75000000  1.0
  Y  Y1241  1  0.73692140  0.97720327  0.75000000  1.0
  Y  Y1242  1  0.19159713  0.32636187  0.59261700  1.0
  Y  Y1243  1  0.19159713  0.65969520  0.59261700  1.0
  Y  Y1244  1  0.19159713  0.99302853  0.59261700  1.0
  Y  Y1245  1  0.52493047  0.32636187  0.59261700  1.0
  Y  Y1246  1  0.52493047  0.65969520  0.59261700  1.0
  Y  Y1247  1  0.52493047  0.99302853  0.59261700  1.0
  Y  Y1248  1  0.85826380  0.32636187  0.59261700  1.0
  Y  Y1249  1  0.85826380  0.65969520  0.59261700  1.0
  Y  Y1250  1  0.85826380  0.99302853  0.59261700  1.0
  Y  Y1251  1  0.05826380  0.29302853  0.59261700  1.0
  Y  Y1252  1  0.05826380  0.62636187  0.59261700  1.0
  Y  Y1253  1  0.05826380  0.95969520  0.59261700  1.0
  Y  Y1254  1  0.39159713  0.29302853  0.59261700  1.0
  Y  Y1255  1  0.39159713  0.62636187  0.59261700  1.0
  Y  Y1256  1  0.39159713  0.95969520  0.59261700  1.0
  Y  Y1257  1  0.72493047  0.29302853  0.59261700  1.0
  Y  Y1258  1  0.72493047  0.62636187  0.59261700  1.0
  Y  Y1259  1  0.72493047  0.95969520  0.59261700  1.0
  Y  Y1260  1  0.19783873  0.31735177  0.43138700  1.0
  Y  Y1261  1  0.19783873  0.65068510  0.43138700  1.0
  Y  Y1262  1  0.19783873  0.98401843  0.43138700  1.0
  Y  Y1263  1  0.53117207  0.31735177  0.43138700  1.0
  Y  Y1264  1  0.53117207  0.65068510  0.43138700  1.0
  Y  Y1265  1  0.53117207  0.98401843  0.43138700  1.0
  Y  Y1266  1  0.86450540  0.31735177  0.43138700  1.0
  Y  Y1267  1  0.86450540  0.65068510  0.43138700  1.0
  Y  Y1268  1  0.86450540  0.98401843  0.43138700  1.0
  Y  Y1269  1  0.06450540  0.28401843  0.43138700  1.0
  Y  Y1270  1  0.06450540  0.61735177  0.43138700  1.0
  Y  Y1271  1  0.06450540  0.95068510  0.43138700  1.0
  Y  Y1272  1  0.39783873  0.28401843  0.43138700  1.0
  Y  Y1273  1  0.39783873  0.61735177  0.43138700  1.0
  Y  Y1274  1  0.39783873  0.95068510  0.43138700  1.0
  Y  Y1275  1  0.73117207  0.28401843  0.43138700  1.0
  Y  Y1276  1  0.73117207  0.61735177  0.43138700  1.0
  Y  Y1277  1  0.73117207  0.95068510  0.43138700  1.0
  Y  Y1278  1  0.15119567  0.31853067  0.50000000  1.0
  Y  Y1279  1  0.15119567  0.65186400  0.50000000  1.0
  Y  Y1280  1  0.15119567  0.98519733  0.50000000  1.0
  Y  Y1281  1  0.48452900  0.31853067  0.50000000  1.0
  Y  Y1282  1  0.48452900  0.65186400  0.50000000  1.0
  Y  Y1283  1  0.48452900  0.98519733  0.50000000  1.0
  Y  Y1284  1  0.81786233  0.31853067  0.50000000  1.0
  Y  Y1285  1  0.81786233  0.65186400  0.50000000  1.0
  Y  Y1286  1  0.81786233  0.98519733  0.50000000  1.0
  Y  Y1287  1  0.01786233  0.28519733  0.50000000  1.0
  Y  Y1288  1  0.01786233  0.61853067  0.50000000  1.0
  Y  Y1289  1  0.01786233  0.95186400  0.50000000  1.0
  Y  Y1290  1  0.35119567  0.28519733  0.50000000  1.0
  Y  Y1291  1  0.35119567  0.61853067  0.50000000  1.0
  Y  Y1292  1  0.35119567  0.95186400  0.50000000  1.0
  Y  Y1293  1  0.68452900  0.28519733  0.50000000  1.0
  Y  Y1294  1  0.68452900  0.61853067  0.50000000  1.0
  Y  Y1295  1  0.68452900  0.95186400  0.50000000  1.0
  Y  Y1296  1  0.25264913  0.27662370  0.83931400  1.0
  Y  Y1297  1  0.25264913  0.60995703  0.83931400  1.0
  Y  Y1298  1  0.25264913  0.94329037  0.83931400  1.0
  Y  Y1299  1  0.58598247  0.27662370  0.83931400  1.0
  Y  Y1300  1  0.58598247  0.60995703  0.83931400  1.0
  Y  Y1301  1  0.58598247  0.94329037  0.83931400  1.0
  Y  Y1302  1  0.91931580  0.27662370  0.83931400  1.0
  Y  Y1303  1  0.91931580  0.60995703  0.83931400  1.0
  Y  Y1304  1  0.91931580  0.94329037  0.83931400  1.0
  Y  Y1305  1  0.05264913  0.30995703  0.83931400  1.0
  Y  Y1306  1  0.05264913  0.64329037  0.83931400  1.0
  Y  Y1307  1  0.05264913  0.97662370  0.83931400  1.0
  Y  Y1308  1  0.38598247  0.30995703  0.83931400  1.0
  Y  Y1309  1  0.38598247  0.64329037  0.83931400  1.0
  Y  Y1310  1  0.38598247  0.97662370  0.83931400  1.0
  Y  Y1311  1  0.71931580  0.30995703  0.83931400  1.0
  Y  Y1312  1  0.71931580  0.64329037  0.83931400  1.0
  Y  Y1313  1  0.71931580  0.97662370  0.83931400  1.0
  Y  Y1314  1  0.16119967  0.32285550  0.06861300  1.0
  Y  Y1315  1  0.16119967  0.65618883  0.06861300  1.0
  Y  Y1316  1  0.16119967  0.98952217  0.06861300  1.0
  Y  Y1317  1  0.49453300  0.32285550  0.06861300  1.0
  Y  Y1318  1  0.49453300  0.65618883  0.06861300  1.0
  Y  Y1319  1  0.49453300  0.98952217  0.06861300  1.0
  Y  Y1320  1  0.82786633  0.32285550  0.06861300  1.0
  Y  Y1321  1  0.82786633  0.65618883  0.06861300  1.0
  Y  Y1322  1  0.82786633  0.98952217  0.06861300  1.0
  Y  Y1323  1  0.02786633  0.28952217  0.06861300  1.0
  Y  Y1324  1  0.02786633  0.62285550  0.06861300  1.0
  Y  Y1325  1  0.02786633  0.95618883  0.06861300  1.0
  Y  Y1326  1  0.36119967  0.28952217  0.06861300  1.0
  Y  Y1327  1  0.36119967  0.62285550  0.06861300  1.0
  Y  Y1328  1  0.36119967  0.95618883  0.06861300  1.0
  Y  Y1329  1  0.69453300  0.28952217  0.06861300  1.0
  Y  Y1330  1  0.69453300  0.62285550  0.06861300  1.0
  Y  Y1331  1  0.69453300  0.95618883  0.06861300  1.0
  Y  Y1332  1  0.13914593  0.28991457  0.41068600  1.0
  Y  Y1333  1  0.13914593  0.62324790  0.41068600  1.0
  Y  Y1334  1  0.13914593  0.95658123  0.41068600  1.0
  Y  Y1335  1  0.47247927  0.28991457  0.41068600  1.0
  Y  Y1336  1  0.47247927  0.62324790  0.41068600  1.0
  Y  Y1337  1  0.47247927  0.95658123  0.41068600  1.0
  Y  Y1338  1  0.80581260  0.28991457  0.41068600  1.0
  Y  Y1339  1  0.80581260  0.62324790  0.41068600  1.0
  Y  Y1340  1  0.80581260  0.95658123  0.41068600  1.0
  Y  Y1341  1  0.27247927  0.32324790  0.41068600  1.0
  Y  Y1342  1  0.27247927  0.65658123  0.41068600  1.0
  Y  Y1343  1  0.27247927  0.98991457  0.41068600  1.0
  Y  Y1344  1  0.60581260  0.32324790  0.41068600  1.0
  Y  Y1345  1  0.60581260  0.65658123  0.41068600  1.0
  Y  Y1346  1  0.60581260  0.98991457  0.41068600  1.0
  Y  Y1347  1  0.93914593  0.32324790  0.41068600  1.0
  Y  Y1348  1  0.93914593  0.65658123  0.41068600  1.0
  Y  Y1349  1  0.93914593  0.98991457  0.41068600  1.0
  Y  Y1350  1  0.05937833  0.32683817  0.17420300  1.0
  Y  Y1351  1  0.05937833  0.66017150  0.17420300  1.0
  Y  Y1352  1  0.05937833  0.99350483  0.17420300  1.0
  Y  Y1353  1  0.39271167  0.32683817  0.17420300  1.0
  Y  Y1354  1  0.39271167  0.66017150  0.17420300  1.0
  Y  Y1355  1  0.39271167  0.99350483  0.17420300  1.0
  Y  Y1356  1  0.72604500  0.32683817  0.17420300  1.0
  Y  Y1357  1  0.72604500  0.66017150  0.17420300  1.0
  Y  Y1358  1  0.72604500  0.99350483  0.17420300  1.0
  Y  Y1359  1  0.25937833  0.29350483  0.17420300  1.0
  Y  Y1360  1  0.25937833  0.62683817  0.17420300  1.0
  Y  Y1361  1  0.25937833  0.96017150  0.17420300  1.0
  Y  Y1362  1  0.59271167  0.29350483  0.17420300  1.0
  Y  Y1363  1  0.59271167  0.62683817  0.17420300  1.0
  Y  Y1364  1  0.59271167  0.96017150  0.17420300  1.0
  Y  Y1365  1  0.92604500  0.29350483  0.17420300  1.0
  Y  Y1366  1  0.92604500  0.62683817  0.17420300  1.0
  Y  Y1367  1  0.92604500  0.96017150  0.17420300  1.0
  Y  Y1368  1  0.23900293  0.28592573  0.66068600  1.0
  Y  Y1369  1  0.23900293  0.61925907  0.66068600  1.0
  Y  Y1370  1  0.23900293  0.95259240  0.66068600  1.0
  Y  Y1371  1  0.57233627  0.28592573  0.66068600  1.0
  Y  Y1372  1  0.57233627  0.61925907  0.66068600  1.0
  Y  Y1373  1  0.57233627  0.95259240  0.66068600  1.0
  Y  Y1374  1  0.90566960  0.28592573  0.66068600  1.0
  Y  Y1375  1  0.90566960  0.61925907  0.66068600  1.0
  Y  Y1376  1  0.90566960  0.95259240  0.66068600  1.0
  Y  Y1377  1  0.03900293  0.31925907  0.66068600  1.0
  Y  Y1378  1  0.03900293  0.65259240  0.66068600  1.0
  Y  Y1379  1  0.03900293  0.98592573  0.66068600  1.0
  Y  Y1380  1  0.37233627  0.31925907  0.66068600  1.0
  Y  Y1381  1  0.37233627  0.65259240  0.66068600  1.0
  Y  Y1382  1  0.37233627  0.98592573  0.66068600  1.0
  Y  Y1383  1  0.70566960  0.31925907  0.66068600  1.0
  Y  Y1384  1  0.70566960  0.65259240  0.66068600  1.0
  Y  Y1385  1  0.70566960  0.98592573  0.66068600  1.0
  Y  Y1386  1  0.10470647  0.30835503  0.31861300  1.0
  Y  Y1387  1  0.10470647  0.64168837  0.31861300  1.0
  Y  Y1388  1  0.10470647  0.97502170  0.31861300  1.0
  Y  Y1389  1  0.43803980  0.30835503  0.31861300  1.0
  Y  Y1390  1  0.43803980  0.64168837  0.31861300  1.0
  Y  Y1391  1  0.43803980  0.97502170  0.31861300  1.0
  Y  Y1392  1  0.77137313  0.30835503  0.31861300  1.0
  Y  Y1393  1  0.77137313  0.64168837  0.31861300  1.0
  Y  Y1394  1  0.77137313  0.97502170  0.31861300  1.0
  Y  Y1395  1  0.30470647  0.27502170  0.31861300  1.0
  Y  Y1396  1  0.30470647  0.60835503  0.31861300  1.0
  Y  Y1397  1  0.30470647  0.94168837  0.31861300  1.0
  Y  Y1398  1  0.63803980  0.27502170  0.31861300  1.0
  Y  Y1399  1  0.63803980  0.60835503  0.31861300  1.0
  Y  Y1400  1  0.63803980  0.94168837  0.31861300  1.0
  Y  Y1401  1  0.97137313  0.27502170  0.31861300  1.0
  Y  Y1402  1  0.97137313  0.60835503  0.31861300  1.0
  Y  Y1403  1  0.97137313  0.94168837  0.31861300  1.0
  Y  Y1404  1  0.29619607  0.31084493  0.65738300  1.0
  Y  Y1405  1  0.29619607  0.64417827  0.65738300  1.0
  Y  Y1406  1  0.29619607  0.97751160  0.65738300  1.0
  Y  Y1407  1  0.62952940  0.31084493  0.65738300  1.0
  Y  Y1408  1  0.62952940  0.64417827  0.65738300  1.0
  Y  Y1409  1  0.62952940  0.97751160  0.65738300  1.0
  Y  Y1410  1  0.96286273  0.31084493  0.65738300  1.0
  Y  Y1411  1  0.96286273  0.64417827  0.65738300  1.0
  Y  Y1412  1  0.96286273  0.97751160  0.65738300  1.0
  Y  Y1413  1  0.16286273  0.27751160  0.65738300  1.0
  Y  Y1414  1  0.16286273  0.61084493  0.65738300  1.0
  Y  Y1415  1  0.16286273  0.94417827  0.65738300  1.0
  Y  Y1416  1  0.49619607  0.27751160  0.65738300  1.0
  Y  Y1417  1  0.49619607  0.61084493  0.65738300  1.0
  Y  Y1418  1  0.49619607  0.94417827  0.65738300  1.0
  Y  Y1419  1  0.82952940  0.27751160  0.65738300  1.0
  Y  Y1420  1  0.82952940  0.61084493  0.65738300  1.0
  Y  Y1421  1  0.82952940  0.94417827  0.65738300  1.0
  Y  Y1422  1  0.15278007  0.31806327  0.76445000  1.0
  Y  Y1423  1  0.15278007  0.65139660  0.76445000  1.0
  Y  Y1424  1  0.15278007  0.98472993  0.76445000  1.0
  Y  Y1425  1  0.48611340  0.31806327  0.76445000  1.0
  Y  Y1426  1  0.48611340  0.65139660  0.76445000  1.0
  Y  Y1427  1  0.48611340  0.98472993  0.76445000  1.0
  Y  Y1428  1  0.81944673  0.31806327  0.76445000  1.0
  Y  Y1429  1  0.81944673  0.65139660  0.76445000  1.0
  Y  Y1430  1  0.81944673  0.98472993  0.76445000  1.0
  Y  Y1431  1  0.01944673  0.28472993  0.76445000  1.0
  Y  Y1432  1  0.01944673  0.61806327  0.76445000  1.0
  Y  Y1433  1  0.01944673  0.95139660  0.76445000  1.0
  Y  Y1434  1  0.35278007  0.28472993  0.76445000  1.0
  Y  Y1435  1  0.35278007  0.61806327  0.76445000  1.0
  Y  Y1436  1  0.35278007  0.95139660  0.76445000  1.0
  Y  Y1437  1  0.68611340  0.28472993  0.76445000  1.0
  Y  Y1438  1  0.68611340  0.61806327  0.76445000  1.0
  Y  Y1439  1  0.68611340  0.95139660  0.76445000  1.0
  Y  Y1440  1  0.13045693  0.31484307  0.16068600  1.0
  Y  Y1441  1  0.13045693  0.64817640  0.16068600  1.0
  Y  Y1442  1  0.13045693  0.98150973  0.16068600  1.0
  Y  Y1443  1  0.46379027  0.31484307  0.16068600  1.0
  Y  Y1444  1  0.46379027  0.64817640  0.16068600  1.0
  Y  Y1445  1  0.46379027  0.98150973  0.16068600  1.0
  Y  Y1446  1  0.79712360  0.31484307  0.16068600  1.0
  Y  Y1447  1  0.79712360  0.64817640  0.16068600  1.0
  Y  Y1448  1  0.79712360  0.98150973  0.16068600  1.0
  Y  Y1449  1  0.33045693  0.28150973  0.16068600  1.0
  Y  Y1450  1  0.33045693  0.61484307  0.16068600  1.0
  Y  Y1451  1  0.33045693  0.94817640  0.16068600  1.0
  Y  Y1452  1  0.66379027  0.28150973  0.16068600  1.0
  Y  Y1453  1  0.66379027  0.61484307  0.16068600  1.0
  Y  Y1454  1  0.66379027  0.94817640  0.16068600  1.0
  Y  Y1455  1  0.99712360  0.28150973  0.16068600  1.0
  Y  Y1456  1  0.99712360  0.61484307  0.16068600  1.0
  Y  Y1457  1  0.99712360  0.94817640  0.16068600  1.0
  Y  Y1458  1  0.15715113  0.28156503  0.32579700  1.0
  Y  Y1459  1  0.15715113  0.61489837  0.32579700  1.0
  Y  Y1460  1  0.15715113  0.94823170  0.32579700  1.0
  Y  Y1461  1  0.49048447  0.28156503  0.32579700  1.0
  Y  Y1462  1  0.49048447  0.61489837  0.32579700  1.0
  Y  Y1463  1  0.49048447  0.94823170  0.32579700  1.0
  Y  Y1464  1  0.82381780  0.28156503  0.32579700  1.0
  Y  Y1465  1  0.82381780  0.61489837  0.32579700  1.0
  Y  Y1466  1  0.82381780  0.94823170  0.32579700  1.0
  Y  Y1467  1  0.29048447  0.31489837  0.32579700  1.0
  Y  Y1468  1  0.29048447  0.64823170  0.32579700  1.0
  Y  Y1469  1  0.29048447  0.98156503  0.32579700  1.0
  Y  Y1470  1  0.62381780  0.31489837  0.32579700  1.0
  Y  Y1471  1  0.62381780  0.64823170  0.32579700  1.0
  Y  Y1472  1  0.62381780  0.98156503  0.32579700  1.0
  Y  Y1473  1  0.95715113  0.31489837  0.32579700  1.0
  Y  Y1474  1  0.95715113  0.64823170  0.32579700  1.0
  Y  Y1475  1  0.95715113  0.98156503  0.32579700  1.0
  Y  Y1476  1  0.24380807  0.30146377  0.93138700  1.0
  Y  Y1477  1  0.24380807  0.63479710  0.93138700  1.0
  Y  Y1478  1  0.24380807  0.96813043  0.93138700  1.0
  Y  Y1479  1  0.57714140  0.30146377  0.93138700  1.0
  Y  Y1480  1  0.57714140  0.63479710  0.93138700  1.0
  Y  Y1481  1  0.57714140  0.96813043  0.93138700  1.0
  Y  Y1482  1  0.91047473  0.30146377  0.93138700  1.0
  Y  Y1483  1  0.91047473  0.63479710  0.93138700  1.0
  Y  Y1484  1  0.91047473  0.96813043  0.93138700  1.0
  Y  Y1485  1  0.11047473  0.26813043  0.93138700  1.0
  Y  Y1486  1  0.11047473  0.60146377  0.93138700  1.0
  Y  Y1487  1  0.11047473  0.93479710  0.93138700  1.0
  Y  Y1488  1  0.44380807  0.26813043  0.93138700  1.0
  Y  Y1489  1  0.44380807  0.60146377  0.93138700  1.0
  Y  Y1490  1  0.44380807  0.93479710  0.93138700  1.0
  Y  Y1491  1  0.77714140  0.26813043  0.93138700  1.0
  Y  Y1492  1  0.77714140  0.60146377  0.93138700  1.0
  Y  Y1493  1  0.77714140  0.93479710  0.93138700  1.0
  Y  Y1494  1  0.12302220  0.32951980  0.25000000  1.0
  Y  Y1495  1  0.12302220  0.66285313  0.25000000  1.0
  Y  Y1496  1  0.12302220  0.99618647  0.25000000  1.0
  Y  Y1497  1  0.45635553  0.32951980  0.25000000  1.0
  Y  Y1498  1  0.45635553  0.66285313  0.25000000  1.0
  Y  Y1499  1  0.45635553  0.99618647  0.25000000  1.0
  Y  Y1500  1  0.78968887  0.32951980  0.25000000  1.0
  Y  Y1501  1  0.78968887  0.66285313  0.25000000  1.0
  Y  Y1502  1  0.78968887  0.99618647  0.25000000  1.0
  Y  Y1503  1  0.32302220  0.29618647  0.25000000  1.0
  Y  Y1504  1  0.32302220  0.62951980  0.25000000  1.0
  Y  Y1505  1  0.32302220  0.96285313  0.25000000  1.0
  Y  Y1506  1  0.65635553  0.29618647  0.25000000  1.0
  Y  Y1507  1  0.65635553  0.62951980  0.25000000  1.0
  Y  Y1508  1  0.65635553  0.96285313  0.25000000  1.0
  Y  Y1509  1  0.98968887  0.29618647  0.25000000  1.0
  Y  Y1510  1  0.98968887  0.62951980  0.25000000  1.0
  Y  Y1511  1  0.98968887  0.96285313  0.25000000  1.0
  Y  Y1512  1  0.10809860  0.29735157  0.07579700  1.0
  Y  Y1513  1  0.10809860  0.63068490  0.07579700  1.0
  Y  Y1514  1  0.10809860  0.96401823  0.07579700  1.0
  Y  Y1515  1  0.44143193  0.29735157  0.07579700  1.0
  Y  Y1516  1  0.44143193  0.63068490  0.07579700  1.0
  Y  Y1517  1  0.44143193  0.96401823  0.07579700  1.0
  Y  Y1518  1  0.77476527  0.29735157  0.07579700  1.0
  Y  Y1519  1  0.77476527  0.63068490  0.07579700  1.0
  Y  Y1520  1  0.77476527  0.96401823  0.07579700  1.0
  Y  Y1521  1  0.24143193  0.33068490  0.07579700  1.0
  Y  Y1522  1  0.24143193  0.66401823  0.07579700  1.0
  Y  Y1523  1  0.24143193  0.99735157  0.07579700  1.0
  Y  Y1524  1  0.57476527  0.33068490  0.07579700  1.0
  Y  Y1525  1  0.57476527  0.66401823  0.07579700  1.0
  Y  Y1526  1  0.57476527  0.99735157  0.07579700  1.0
  Y  Y1527  1  0.90809860  0.33068490  0.07579700  1.0
  Y  Y1528  1  0.90809860  0.66401823  0.07579700  1.0
  Y  Y1529  1  0.90809860  0.99735157  0.07579700  1.0
  Y  Y1530  1  0.31314827  0.28956090  0.90738300  1.0
  Y  Y1531  1  0.31314827  0.62289423  0.90738300  1.0
  Y  Y1532  1  0.31314827  0.95622757  0.90738300  1.0
  Y  Y1533  1  0.64648160  0.28956090  0.90738300  1.0
  Y  Y1534  1  0.64648160  0.62289423  0.90738300  1.0
  Y  Y1535  1  0.64648160  0.95622757  0.90738300  1.0
  Y  Y1536  1  0.97981493  0.28956090  0.90738300  1.0
  Y  Y1537  1  0.97981493  0.62289423  0.90738300  1.0
  Y  Y1538  1  0.97981493  0.95622757  0.90738300  1.0
  Y  Y1539  1  0.11314827  0.32289423  0.90738300  1.0
  Y  Y1540  1  0.11314827  0.65622757  0.90738300  1.0
  Y  Y1541  1  0.11314827  0.98956090  0.90738300  1.0
  Y  Y1542  1  0.44648160  0.32289423  0.90738300  1.0
  Y  Y1543  1  0.44648160  0.65622757  0.90738300  1.0
  Y  Y1544  1  0.44648160  0.98956090  0.90738300  1.0
  Y  Y1545  1  0.77981493  0.32289423  0.90738300  1.0
  Y  Y1546  1  0.77981493  0.65622757  0.90738300  1.0
  Y  Y1547  1  0.77981493  0.98956090  0.90738300  1.0
  Y  Y1548  1  0.21797693  0.29505640  0.08931400  1.0
  Y  Y1549  1  0.21797693  0.62838973  0.08931400  1.0
  Y  Y1550  1  0.21797693  0.96172307  0.08931400  1.0
  Y  Y1551  1  0.55131027  0.29505640  0.08931400  1.0
  Y  Y1552  1  0.55131027  0.62838973  0.08931400  1.0
  Y  Y1553  1  0.55131027  0.96172307  0.08931400  1.0
  Y  Y1554  1  0.88464360  0.29505640  0.08931400  1.0
  Y  Y1555  1  0.88464360  0.62838973  0.08931400  1.0
  Y  Y1556  1  0.88464360  0.96172307  0.08931400  1.0
  Y  Y1557  1  0.01797693  0.32838973  0.08931400  1.0
  Y  Y1558  1  0.01797693  0.66172307  0.08931400  1.0
  Y  Y1559  1  0.01797693  0.99505640  0.08931400  1.0
  Y  Y1560  1  0.35131027  0.32838973  0.08931400  1.0
  Y  Y1561  1  0.35131027  0.66172307  0.08931400  1.0
  Y  Y1562  1  0.35131027  0.99505640  0.08931400  1.0
  Y  Y1563  1  0.68464360  0.32838973  0.08931400  1.0
  Y  Y1564  1  0.68464360  0.66172307  0.08931400  1.0
  Y  Y1565  1  0.68464360  0.99505640  0.08931400  1.0
  Y  Y1566  1  0.32332620  0.26770047  0.98555000  1.0
  Y  Y1567  1  0.32332620  0.60103380  0.98555000  1.0
  Y  Y1568  1  0.32332620  0.93436713  0.98555000  1.0
  Y  Y1569  1  0.65665953  0.26770047  0.98555000  1.0
  Y  Y1570  1  0.65665953  0.60103380  0.98555000  1.0
  Y  Y1571  1  0.65665953  0.93436713  0.98555000  1.0
  Y  Y1572  1  0.98999287  0.26770047  0.98555000  1.0
  Y  Y1573  1  0.98999287  0.60103380  0.98555000  1.0
  Y  Y1574  1  0.98999287  0.93436713  0.98555000  1.0
  Y  Y1575  1  0.12332620  0.30103380  0.98555000  1.0
  Y  Y1576  1  0.12332620  0.63436713  0.98555000  1.0
  Y  Y1577  1  0.12332620  0.96770047  0.98555000  1.0
  Y  Y1578  1  0.45665953  0.30103380  0.98555000  1.0
  Y  Y1579  1  0.45665953  0.63436713  0.98555000  1.0
  Y  Y1580  1  0.45665953  0.96770047  0.98555000  1.0
  Y  Y1581  1  0.78999287  0.30103380  0.98555000  1.0
  Y  Y1582  1  0.78999287  0.63436713  0.98555000  1.0
  Y  Y1583  1  0.78999287  0.96770047  0.98555000  1.0
  Y  Y1584  1  0.19895500  0.30683633  0.00000000  1.0
  Y  Y1585  1  0.19895500  0.64016967  0.00000000  1.0
  Y  Y1586  1  0.19895500  0.97350300  0.00000000  1.0
  Y  Y1587  1  0.53228833  0.30683633  0.00000000  1.0
  Y  Y1588  1  0.53228833  0.64016967  0.00000000  1.0
  Y  Y1589  1  0.53228833  0.97350300  0.00000000  1.0
  Y  Y1590  1  0.86562167  0.30683633  0.00000000  1.0
  Y  Y1591  1  0.86562167  0.64016967  0.00000000  1.0
  Y  Y1592  1  0.86562167  0.97350300  0.00000000  1.0
  Y  Y1593  1  0.06562167  0.27350300  0.00000000  1.0
  Y  Y1594  1  0.06562167  0.60683633  0.00000000  1.0
  Y  Y1595  1  0.06562167  0.94016967  0.00000000  1.0
  Y  Y1596  1  0.39895500  0.27350300  0.00000000  1.0
  Y  Y1597  1  0.39895500  0.60683633  0.00000000  1.0
  Y  Y1598  1  0.39895500  0.94016967  0.00000000  1.0
  Y  Y1599  1  0.73228833  0.27350300  0.00000000  1.0
  Y  Y1600  1  0.73228833  0.60683633  0.00000000  1.0
  Y  Y1601  1  0.73228833  0.94016967  0.00000000  1.0
  Y  Y1602  1  0.21548027  0.30681057  0.34261700  1.0
  Y  Y1603  1  0.21548027  0.64014390  0.34261700  1.0
  Y  Y1604  1  0.21548027  0.97347723  0.34261700  1.0
  Y  Y1605  1  0.54881360  0.30681057  0.34261700  1.0
  Y  Y1606  1  0.54881360  0.64014390  0.34261700  1.0
  Y  Y1607  1  0.54881360  0.97347723  0.34261700  1.0
  Y  Y1608  1  0.88214693  0.30681057  0.34261700  1.0
  Y  Y1609  1  0.88214693  0.64014390  0.34261700  1.0
  Y  Y1610  1  0.88214693  0.97347723  0.34261700  1.0
  Y  Y1611  1  0.08214693  0.27347723  0.34261700  1.0
  Y  Y1612  1  0.08214693  0.60681057  0.34261700  1.0
  Y  Y1613  1  0.08214693  0.94014390  0.34261700  1.0
  Y  Y1614  1  0.41548027  0.27347723  0.34261700  1.0
  Y  Y1615  1  0.41548027  0.60681057  0.34261700  1.0
  Y  Y1616  1  0.41548027  0.94014390  0.34261700  1.0
  Y  Y1617  1  0.74881360  0.27347723  0.34261700  1.0
  Y  Y1618  1  0.74881360  0.60681057  0.34261700  1.0
  Y  Y1619  1  0.74881360  0.94014390  0.34261700  1.0
  Y  Y1620  1  0.25119247  0.28725803  0.42420300  1.0
  Y  Y1621  1  0.25119247  0.62059137  0.42420300  1.0
  Y  Y1622  1  0.25119247  0.95392470  0.42420300  1.0
  Y  Y1623  1  0.58452580  0.28725803  0.42420300  1.0
  Y  Y1624  1  0.58452580  0.62059137  0.42420300  1.0
  Y  Y1625  1  0.58452580  0.95392470  0.42420300  1.0
  Y  Y1626  1  0.91785913  0.28725803  0.42420300  1.0
  Y  Y1627  1  0.91785913  0.62059137  0.42420300  1.0
  Y  Y1628  1  0.91785913  0.95392470  0.42420300  1.0
  Y  Y1629  1  0.05119247  0.32059137  0.42420300  1.0
  Y  Y1630  1  0.05119247  0.65392470  0.42420300  1.0
  Y  Y1631  1  0.05119247  0.98725803  0.42420300  1.0
  Y  Y1632  1  0.38452580  0.32059137  0.42420300  1.0
  Y  Y1633  1  0.38452580  0.65392470  0.42420300  1.0
  Y  Y1634  1  0.38452580  0.98725803  0.42420300  1.0
  Y  Y1635  1  0.71785913  0.32059137  0.42420300  1.0
  Y  Y1636  1  0.71785913  0.65392470  0.42420300  1.0
  Y  Y1637  1  0.71785913  0.98725803  0.42420300  1.0
  Y  Y1638  1  0.18671140  0.28756677  0.18138700  1.0
  Y  Y1639  1  0.18671140  0.62090010  0.18138700  1.0
  Y  Y1640  1  0.18671140  0.95423343  0.18138700  1.0
  Y  Y1641  1  0.52004473  0.28756677  0.18138700  1.0
  Y  Y1642  1  0.52004473  0.62090010  0.18138700  1.0
  Y  Y1643  1  0.52004473  0.95423343  0.18138700  1.0
  Y  Y1644  1  0.85337807  0.28756677  0.18138700  1.0
  Y  Y1645  1  0.85337807  0.62090010  0.18138700  1.0
  Y  Y1646  1  0.85337807  0.95423343  0.18138700  1.0
  Y  Y1647  1  0.32004473  0.32090010  0.18138700  1.0
  Y  Y1648  1  0.32004473  0.65423343  0.18138700  1.0
  Y  Y1649  1  0.32004473  0.98756677  0.18138700  1.0
  Y  Y1650  1  0.65337807  0.32090010  0.18138700  1.0
  Y  Y1651  1  0.65337807  0.65423343  0.18138700  1.0
  Y  Y1652  1  0.65337807  0.98756677  0.18138700  1.0
  Y  Y1653  1  0.98671140  0.32090010  0.18138700  1.0
  Y  Y1654  1  0.98671140  0.65423343  0.18138700  1.0
  Y  Y1655  1  0.98671140  0.98756677  0.18138700  1.0
  Y  Y1656  1  0.30874793  0.30485907  0.00000000  1.0
  Y  Y1657  1  0.30874793  0.63819240  0.00000000  1.0
  Y  Y1658  1  0.30874793  0.97152573  0.00000000  1.0
  Y  Y1659  1  0.64208127  0.30485907  0.00000000  1.0
  Y  Y1660  1  0.64208127  0.63819240  0.00000000  1.0
  Y  Y1661  1  0.64208127  0.97152573  0.00000000  1.0
  Y  Y1662  1  0.97541460  0.30485907  0.00000000  1.0
  Y  Y1663  1  0.97541460  0.63819240  0.00000000  1.0
  Y  Y1664  1  0.97541460  0.97152573  0.00000000  1.0
  Y  Y1665  1  0.17541460  0.27152573  0.00000000  1.0
  Y  Y1666  1  0.17541460  0.60485907  0.00000000  1.0
  Y  Y1667  1  0.17541460  0.93819240  0.00000000  1.0
  Y  Y1668  1  0.50874793  0.27152573  0.00000000  1.0
  Y  Y1669  1  0.50874793  0.60485907  0.00000000  1.0
  Y  Y1670  1  0.50874793  0.93819240  0.00000000  1.0
  Y  Y1671  1  0.84208127  0.27152573  0.00000000  1.0
  Y  Y1672  1  0.84208127  0.60485907  0.00000000  1.0
  Y  Y1673  1  0.84208127  0.93819240  0.00000000  1.0
  Y  Y1674  1  0.25768633  0.31357267  0.73555000  1.0
  Y  Y1675  1  0.25768633  0.64690600  0.73555000  1.0
  Y  Y1676  1  0.25768633  0.98023933  0.73555000  1.0
  Y  Y1677  1  0.59101967  0.31357267  0.73555000  1.0
  Y  Y1678  1  0.59101967  0.64690600  0.73555000  1.0
  Y  Y1679  1  0.59101967  0.98023933  0.73555000  1.0
  Y  Y1680  1  0.92435300  0.31357267  0.73555000  1.0
  Y  Y1681  1  0.92435300  0.64690600  0.73555000  1.0
  Y  Y1682  1  0.92435300  0.98023933  0.73555000  1.0
  Y  Y1683  1  0.12435300  0.28023933  0.73555000  1.0
  Y  Y1684  1  0.12435300  0.61357267  0.73555000  1.0
  Y  Y1685  1  0.12435300  0.94690600  0.73555000  1.0
  Y  Y1686  1  0.45768633  0.28023933  0.73555000  1.0
  Y  Y1687  1  0.45768633  0.61357267  0.73555000  1.0
  Y  Y1688  1  0.45768633  0.94690600  0.73555000  1.0
  Y  Y1689  1  0.79101967  0.28023933  0.73555000  1.0
  Y  Y1690  1  0.79101967  0.61357267  0.73555000  1.0
  Y  Y1691  1  0.79101967  0.94690600  0.73555000  1.0
  Y  Y1692  1  0.18370740  0.27177510  0.56861300  1.0
  Y  Y1693  1  0.18370740  0.60510843  0.56861300  1.0
  Y  Y1694  1  0.18370740  0.93844177  0.56861300  1.0
  Y  Y1695  1  0.51704073  0.27177510  0.56861300  1.0
  Y  Y1696  1  0.51704073  0.60510843  0.56861300  1.0
  Y  Y1697  1  0.51704073  0.93844177  0.56861300  1.0
  Y  Y1698  1  0.85037407  0.27177510  0.56861300  1.0
  Y  Y1699  1  0.85037407  0.60510843  0.56861300  1.0
  Y  Y1700  1  0.85037407  0.93844177  0.56861300  1.0
  Y  Y1701  1  0.31704073  0.30510843  0.56861300  1.0
  Y  Y1702  1  0.31704073  0.63844177  0.56861300  1.0
  Y  Y1703  1  0.31704073  0.97177510  0.56861300  1.0
  Y  Y1704  1  0.65037407  0.30510843  0.56861300  1.0
  Y  Y1705  1  0.65037407  0.63844177  0.56861300  1.0
  Y  Y1706  1  0.65037407  0.97177510  0.56861300  1.0
  Y  Y1707  1  0.98370740  0.30510843  0.56861300  1.0
  Y  Y1708  1  0.98370740  0.63844177  0.56861300  1.0
  Y  Y1709  1  0.98370740  0.97177510  0.56861300  1.0
  Y  Y1710  1  0.19963353  0.28897347  0.75000000  1.0
  Y  Y1711  1  0.19963353  0.62230680  0.75000000  1.0
  Y  Y1712  1  0.19963353  0.95564013  0.75000000  1.0
  Y  Y1713  1  0.53296687  0.28897347  0.75000000  1.0
  Y  Y1714  1  0.53296687  0.62230680  0.75000000  1.0
  Y  Y1715  1  0.53296687  0.95564013  0.75000000  1.0
  Y  Y1716  1  0.86630020  0.28897347  0.75000000  1.0
  Y  Y1717  1  0.86630020  0.62230680  0.75000000  1.0
  Y  Y1718  1  0.86630020  0.95564013  0.75000000  1.0
  Y  Y1719  1  0.33296687  0.32230680  0.75000000  1.0
  Y  Y1720  1  0.33296687  0.65564013  0.75000000  1.0
  Y  Y1721  1  0.33296687  0.98897347  0.75000000  1.0
  Y  Y1722  1  0.66630020  0.32230680  0.75000000  1.0
  Y  Y1723  1  0.66630020  0.65564013  0.75000000  1.0
  Y  Y1724  1  0.66630020  0.98897347  0.75000000  1.0
  Y  Y1725  1  0.99963353  0.32230680  0.75000000  1.0
  Y  Y1726  1  0.99963353  0.65564013  0.75000000  1.0
  Y  Y1727  1  0.99963353  0.98897347  0.75000000  1.0
  Y  Y1728  1  0.26098860  0.31655340  0.50000000  1.0
  Y  Y1729  1  0.26098860  0.64988673  0.50000000  1.0
  Y  Y1730  1  0.26098860  0.98322007  0.50000000  1.0
  Y  Y1731  1  0.59432193  0.31655340  0.50000000  1.0
  Y  Y1732  1  0.59432193  0.64988673  0.50000000  1.0
  Y  Y1733  1  0.59432193  0.98322007  0.50000000  1.0
  Y  Y1734  1  0.92765527  0.31655340  0.50000000  1.0
  Y  Y1735  1  0.92765527  0.64988673  0.50000000  1.0
  Y  Y1736  1  0.92765527  0.98322007  0.50000000  1.0
  Y  Y1737  1  0.12765527  0.28322007  0.50000000  1.0
  Y  Y1738  1  0.12765527  0.61655340  0.50000000  1.0
  Y  Y1739  1  0.12765527  0.94988673  0.50000000  1.0
  Y  Y1740  1  0.46098860  0.28322007  0.50000000  1.0
  Y  Y1741  1  0.46098860  0.61655340  0.50000000  1.0
  Y  Y1742  1  0.46098860  0.94988673  0.50000000  1.0
  Y  Y1743  1  0.79432193  0.28322007  0.50000000  1.0
  Y  Y1744  1  0.79432193  0.61655340  0.50000000  1.0
  Y  Y1745  1  0.79432193  0.94988673  0.50000000  1.0
  Y  Y1746  1  0.24435020  0.28962313  0.26445000  1.0
  Y  Y1747  1  0.24435020  0.62295647  0.26445000  1.0
  Y  Y1748  1  0.24435020  0.95628980  0.26445000  1.0
  Y  Y1749  1  0.57768353  0.28962313  0.26445000  1.0
  Y  Y1750  1  0.57768353  0.62295647  0.26445000  1.0
  Y  Y1751  1  0.57768353  0.95628980  0.26445000  1.0
  Y  Y1752  1  0.91101687  0.28962313  0.26445000  1.0
  Y  Y1753  1  0.91101687  0.62295647  0.26445000  1.0
  Y  Y1754  1  0.91101687  0.95628980  0.26445000  1.0
  Y  Y1755  1  0.04435020  0.32295647  0.26445000  1.0
  Y  Y1756  1  0.04435020  0.65628980  0.26445000  1.0
  Y  Y1757  1  0.04435020  0.98962313  0.26445000  1.0
  Y  Y1758  1  0.37768353  0.32295647  0.26445000  1.0
  Y  Y1759  1  0.37768353  0.65628980  0.26445000  1.0
  Y  Y1760  1  0.37768353  0.98962313  0.26445000  1.0
  Y  Y1761  1  0.71101687  0.32295647  0.26445000  1.0
  Y  Y1762  1  0.71101687  0.65628980  0.26445000  1.0
  Y  Y1763  1  0.71101687  0.98962313  0.26445000  1.0
  Y  Y1764  1  0.31368607  0.27483177  0.67420300  1.0
  Y  Y1765  1  0.31368607  0.60816510  0.67420300  1.0
  Y  Y1766  1  0.31368607  0.94149843  0.67420300  1.0
  Y  Y1767  1  0.64701940  0.27483177  0.67420300  1.0
  Y  Y1768  1  0.64701940  0.60816510  0.67420300  1.0
  Y  Y1769  1  0.64701940  0.94149843  0.67420300  1.0
  Y  Y1770  1  0.98035273  0.27483177  0.67420300  1.0
  Y  Y1771  1  0.98035273  0.60816510  0.67420300  1.0
  Y  Y1772  1  0.98035273  0.94149843  0.67420300  1.0
  Y  Y1773  1  0.11368607  0.30816510  0.67420300  1.0
  Y  Y1774  1  0.11368607  0.64149843  0.67420300  1.0
  Y  Y1775  1  0.11368607  0.97483177  0.67420300  1.0
  Y  Y1776  1  0.44701940  0.30816510  0.67420300  1.0
  Y  Y1777  1  0.44701940  0.64149843  0.67420300  1.0
  Y  Y1778  1  0.44701940  0.97483177  0.67420300  1.0
  Y  Y1779  1  0.78035273  0.30816510  0.67420300  1.0
  Y  Y1780  1  0.78035273  0.64149843  0.67420300  1.0
  Y  Y1781  1  0.78035273  0.97483177  0.67420300  1.0
  Y  Y1782  1  0.30686727  0.30294223  0.81861300  1.0
  Y  Y1783  1  0.30686727  0.63627557  0.81861300  1.0
  Y  Y1784  1  0.30686727  0.96960890  0.81861300  1.0
  Y  Y1785  1  0.64020060  0.30294223  0.81861300  1.0
  Y  Y1786  1  0.64020060  0.63627557  0.81861300  1.0
  Y  Y1787  1  0.64020060  0.96960890  0.81861300  1.0
  Y  Y1788  1  0.97353393  0.30294223  0.81861300  1.0
  Y  Y1789  1  0.97353393  0.63627557  0.81861300  1.0
  Y  Y1790  1  0.97353393  0.96960890  0.81861300  1.0
  Y  Y1791  1  0.17353393  0.26960890  0.81861300  1.0
  Y  Y1792  1  0.17353393  0.60294223  0.81861300  1.0
  Y  Y1793  1  0.17353393  0.93627557  0.81861300  1.0
  Y  Y1794  1  0.50686727  0.26960890  0.81861300  1.0
  Y  Y1795  1  0.50686727  0.60294223  0.81861300  1.0
  Y  Y1796  1  0.50686727  0.93627557  0.81861300  1.0
  Y  Y1797  1  0.84020060  0.26960890  0.81861300  1.0
  Y  Y1798  1  0.84020060  0.60294223  0.81861300  1.0
  Y  Y1799  1  0.84020060  0.93627557  0.81861300  1.0
  Y  Y1800  1  0.05345833  0.31428400  0.01445000  1.0
  Y  Y1801  1  0.05345833  0.64761733  0.01445000  1.0
  Y  Y1802  1  0.05345833  0.98095067  0.01445000  1.0
  Y  Y1803  1  0.38679167  0.31428400  0.01445000  1.0
  Y  Y1804  1  0.38679167  0.64761733  0.01445000  1.0
  Y  Y1805  1  0.38679167  0.98095067  0.01445000  1.0
  Y  Y1806  1  0.72012500  0.31428400  0.01445000  1.0
  Y  Y1807  1  0.72012500  0.64761733  0.01445000  1.0
  Y  Y1808  1  0.72012500  0.98095067  0.01445000  1.0
  Y  Y1809  1  0.25345833  0.28095067  0.01445000  1.0
  Y  Y1810  1  0.25345833  0.61428400  0.01445000  1.0
  Y  Y1811  1  0.25345833  0.94761733  0.01445000  1.0
  Y  Y1812  1  0.58679167  0.28095067  0.01445000  1.0
  Y  Y1813  1  0.58679167  0.61428400  0.01445000  1.0
  Y  Y1814  1  0.58679167  0.94761733  0.01445000  1.0
  Y  Y1815  1  0.92012500  0.28095067  0.01445000  1.0
  Y  Y1816  1  0.92012500  0.61428400  0.01445000  1.0
  Y  Y1817  1  0.92012500  0.94761733  0.01445000  1.0
  Y  Y1818  1  0.12209747  0.32765437  0.40738300  1.0
  Y  Y1819  1  0.12209747  0.66098770  0.40738300  1.0
  Y  Y1820  1  0.12209747  0.99432103  0.40738300  1.0
  Y  Y1821  1  0.45543080  0.32765437  0.40738300  1.0
  Y  Y1822  1  0.45543080  0.66098770  0.40738300  1.0
  Y  Y1823  1  0.45543080  0.99432103  0.40738300  1.0
  Y  Y1824  1  0.78876413  0.32765437  0.40738300  1.0
  Y  Y1825  1  0.78876413  0.66098770  0.40738300  1.0
  Y  Y1826  1  0.78876413  0.99432103  0.40738300  1.0
  Y  Y1827  1  0.32209747  0.29432103  0.40738300  1.0
  Y  Y1828  1  0.32209747  0.62765437  0.40738300  1.0
  Y  Y1829  1  0.32209747  0.96098770  0.40738300  1.0
  Y  Y1830  1  0.65543080  0.29432103  0.40738300  1.0
  Y  Y1831  1  0.65543080  0.62765437  0.40738300  1.0
  Y  Y1832  1  0.65543080  0.96098770  0.40738300  1.0
  Y  Y1833  1  0.98876413  0.29432103  0.40738300  1.0
  Y  Y1834  1  0.98876413  0.62765437  0.40738300  1.0
  Y  Y1835  1  0.98876413  0.96098770  0.40738300  1.0
  Y  Y1836  1  0.27700527  0.27673573  0.51445000  1.0
  Y  Y1837  1  0.27700527  0.61006907  0.51445000  1.0
  Y  Y1838  1  0.27700527  0.94340240  0.51445000  1.0
  Y  Y1839  1  0.61033860  0.27673573  0.51445000  1.0
  Y  Y1840  1  0.61033860  0.61006907  0.51445000  1.0
  Y  Y1841  1  0.61033860  0.94340240  0.51445000  1.0
  Y  Y1842  1  0.94367193  0.27673573  0.51445000  1.0
  Y  Y1843  1  0.94367193  0.61006907  0.51445000  1.0
  Y  Y1844  1  0.94367193  0.94340240  0.51445000  1.0
  Y  Y1845  1  0.07700527  0.31006907  0.51445000  1.0
  Y  Y1846  1  0.07700527  0.64340240  0.51445000  1.0
  Y  Y1847  1  0.07700527  0.97673573  0.51445000  1.0
  Y  Y1848  1  0.41033860  0.31006907  0.51445000  1.0
  Y  Y1849  1  0.41033860  0.64340240  0.51445000  1.0
  Y  Y1850  1  0.41033860  0.97673573  0.51445000  1.0
  Y  Y1851  1  0.74367193  0.31006907  0.51445000  1.0
  Y  Y1852  1  0.74367193  0.64340240  0.51445000  1.0
  Y  Y1853  1  0.74367193  0.97673573  0.51445000  1.0
  Y  Y1854  1  0.19943073  0.28805927  0.48555000  1.0
  Y  Y1855  1  0.19943073  0.62139260  0.48555000  1.0
  Y  Y1856  1  0.19943073  0.95472593  0.48555000  1.0
  Y  Y1857  1  0.53276407  0.28805927  0.48555000  1.0
  Y  Y1858  1  0.53276407  0.62139260  0.48555000  1.0
  Y  Y1859  1  0.53276407  0.95472593  0.48555000  1.0
  Y  Y1860  1  0.86609740  0.28805927  0.48555000  1.0
  Y  Y1861  1  0.86609740  0.62139260  0.48555000  1.0
  Y  Y1862  1  0.86609740  0.95472593  0.48555000  1.0
  Y  Y1863  1  0.33276407  0.32139260  0.48555000  1.0
  Y  Y1864  1  0.33276407  0.65472593  0.48555000  1.0
  Y  Y1865  1  0.33276407  0.98805927  0.48555000  1.0
  Y  Y1866  1  0.66609740  0.32139260  0.48555000  1.0
  Y  Y1867  1  0.66609740  0.65472593  0.48555000  1.0
  Y  Y1868  1  0.66609740  0.98805927  0.48555000  1.0
  Y  Y1869  1  0.99943073  0.32139260  0.48555000  1.0
  Y  Y1870  1  0.99943073  0.65472593  0.48555000  1.0
  Y  Y1871  1  0.99943073  0.98805927  0.48555000  1.0
  Y  Y1872  1  0.18853860  0.33107857  0.92420300  1.0
  Y  Y1873  1  0.18853860  0.66441190  0.92420300  1.0
  Y  Y1874  1  0.18853860  0.99774523  0.92420300  1.0
  Y  Y1875  1  0.52187193  0.33107857  0.92420300  1.0
  Y  Y1876  1  0.52187193  0.66441190  0.92420300  1.0
  Y  Y1877  1  0.52187193  0.99774523  0.92420300  1.0
  Y  Y1878  1  0.85520527  0.33107857  0.92420300  1.0
  Y  Y1879  1  0.85520527  0.66441190  0.92420300  1.0
  Y  Y1880  1  0.85520527  0.99774523  0.92420300  1.0
  Y  Y1881  1  0.05520527  0.29774523  0.92420300  1.0
  Y  Y1882  1  0.05520527  0.63107857  0.92420300  1.0
  Y  Y1883  1  0.05520527  0.96441190  0.92420300  1.0
  Y  Y1884  1  0.38853860  0.29774523  0.92420300  1.0
  Y  Y1885  1  0.38853860  0.63107857  0.92420300  1.0
  Y  Y1886  1  0.38853860  0.96441190  0.92420300  1.0
  Y  Y1887  1  0.72187193  0.29774523  0.92420300  1.0
  Y  Y1888  1  0.72187193  0.63107857  0.92420300  1.0
  Y  Y1889  1  0.72187193  0.96441190  0.92420300  1.0
  Y  Y1890  1  0.29698060  0.32752090  0.91068600  1.0
  Y  Y1891  1  0.29698060  0.66085423  0.91068600  1.0
  Y  Y1892  1  0.29698060  0.99418757  0.91068600  1.0
  Y  Y1893  1  0.63031393  0.32752090  0.91068600  1.0
  Y  Y1894  1  0.63031393  0.66085423  0.91068600  1.0
  Y  Y1895  1  0.63031393  0.99418757  0.91068600  1.0
  Y  Y1896  1  0.96364727  0.32752090  0.91068600  1.0
  Y  Y1897  1  0.96364727  0.66085423  0.91068600  1.0
  Y  Y1898  1  0.96364727  0.99418757  0.91068600  1.0
  Y  Y1899  1  0.16364727  0.29418757  0.91068600  1.0
  Y  Y1900  1  0.16364727  0.62752090  0.91068600  1.0
  Y  Y1901  1  0.16364727  0.96085423  0.91068600  1.0
  Y  Y1902  1  0.49698060  0.29418757  0.91068600  1.0
  Y  Y1903  1  0.49698060  0.62752090  0.91068600  1.0
  Y  Y1904  1  0.49698060  0.96085423  0.91068600  1.0
  Y  Y1905  1  0.83031393  0.29418757  0.91068600  1.0
  Y  Y1906  1  0.83031393  0.62752090  0.91068600  1.0
  Y  Y1907  1  0.83031393  0.96085423  0.91068600  1.0
  Y  Y1908  1  0.23111153  0.26938697  0.33931400  1.0
  Y  Y1909  1  0.23111153  0.60272030  0.33931400  1.0
  Y  Y1910  1  0.23111153  0.93605363  0.33931400  1.0
  Y  Y1911  1  0.56444487  0.26938697  0.33931400  1.0
  Y  Y1912  1  0.56444487  0.60272030  0.33931400  1.0
  Y  Y1913  1  0.56444487  0.93605363  0.33931400  1.0
  Y  Y1914  1  0.89777820  0.26938697  0.33931400  1.0
  Y  Y1915  1  0.89777820  0.60272030  0.33931400  1.0
  Y  Y1916  1  0.89777820  0.93605363  0.33931400  1.0
  Y  Y1917  1  0.03111153  0.30272030  0.33931400  1.0
  Y  Y1918  1  0.03111153  0.63605363  0.33931400  1.0
  Y  Y1919  1  0.03111153  0.96938697  0.33931400  1.0
  Y  Y1920  1  0.36444487  0.30272030  0.33931400  1.0
  Y  Y1921  1  0.36444487  0.63605363  0.33931400  1.0
  Y  Y1922  1  0.36444487  0.96938697  0.33931400  1.0
  Y  Y1923  1  0.69777820  0.30272030  0.33931400  1.0
  Y  Y1924  1  0.69777820  0.63605363  0.33931400  1.0
  Y  Y1925  1  0.69777820  0.96938697  0.33931400  1.0
  Y  Y1926  1  0.20249453  0.30608697  0.84261700  1.0
  Y  Y1927  1  0.20249453  0.63942030  0.84261700  1.0
  Y  Y1928  1  0.20249453  0.97275363  0.84261700  1.0
  Y  Y1929  1  0.53582787  0.30608697  0.84261700  1.0
  Y  Y1930  1  0.53582787  0.63942030  0.84261700  1.0
  Y  Y1931  1  0.53582787  0.97275363  0.84261700  1.0
  Y  Y1932  1  0.86916120  0.30608697  0.84261700  1.0
  Y  Y1933  1  0.86916120  0.63942030  0.84261700  1.0
  Y  Y1934  1  0.86916120  0.97275363  0.84261700  1.0
  Y  Y1935  1  0.06916120  0.27275363  0.84261700  1.0
  Y  Y1936  1  0.06916120  0.60608697  0.84261700  1.0
  Y  Y1937  1  0.06916120  0.93942030  0.84261700  1.0
  Y  Y1938  1  0.40249453  0.27275363  0.84261700  1.0
  Y  Y1939  1  0.40249453  0.60608697  0.84261700  1.0
  Y  Y1940  1  0.40249453  0.93942030  0.84261700  1.0
  Y  Y1941  1  0.73582787  0.27275363  0.84261700  1.0
  Y  Y1942  1  0.73582787  0.60608697  0.84261700  1.0
  Y  Y1943  1  0.73582787  0.93942030  0.84261700  1.0
  Y  Y1944  1  0.15971100  0.26986900  0.09261700  1.0
  Y  Y1945  1  0.15971100  0.60320233  0.09261700  1.0
  Y  Y1946  1  0.15971100  0.93653567  0.09261700  1.0
  Y  Y1947  1  0.49304433  0.26986900  0.09261700  1.0
  Y  Y1948  1  0.49304433  0.60320233  0.09261700  1.0
  Y  Y1949  1  0.49304433  0.93653567  0.09261700  1.0
  Y  Y1950  1  0.82637767  0.26986900  0.09261700  1.0
  Y  Y1951  1  0.82637767  0.60320233  0.09261700  1.0
  Y  Y1952  1  0.82637767  0.93653567  0.09261700  1.0
  Y  Y1953  1  0.29304433  0.30320233  0.09261700  1.0
  Y  Y1954  1  0.29304433  0.63653567  0.09261700  1.0
  Y  Y1955  1  0.29304433  0.96986900  0.09261700  1.0
  Y  Y1956  1  0.62637767  0.30320233  0.09261700  1.0
  Y  Y1957  1  0.62637767  0.63653567  0.09261700  1.0
  Y  Y1958  1  0.62637767  0.96986900  0.09261700  1.0
  Y  Y1959  1  0.95971100  0.30320233  0.09261700  1.0
  Y  Y1960  1  0.95971100  0.63653567  0.09261700  1.0
  Y  Y1961  1  0.95971100  0.96986900  0.09261700  1.0
  Y  Y1962  1  0.07238300  0.28970367  0.15738300  1.0
  Y  Y1963  1  0.07238300  0.62303700  0.15738300  1.0
  Y  Y1964  1  0.07238300  0.95637033  0.15738300  1.0
  Y  Y1965  1  0.40571633  0.28970367  0.15738300  1.0
  Y  Y1966  1  0.40571633  0.62303700  0.15738300  1.0
  Y  Y1967  1  0.40571633  0.95637033  0.15738300  1.0
  Y  Y1968  1  0.73904967  0.28970367  0.15738300  1.0
  Y  Y1969  1  0.73904967  0.62303700  0.15738300  1.0
  Y  Y1970  1  0.73904967  0.95637033  0.15738300  1.0
  Y  Y1971  1  0.20571633  0.32303700  0.15738300  1.0
  Y  Y1972  1  0.20571633  0.65637033  0.15738300  1.0
  Y  Y1973  1  0.20571633  0.98970367  0.15738300  1.0
  Y  Y1974  1  0.53904967  0.32303700  0.15738300  1.0
  Y  Y1975  1  0.53904967  0.65637033  0.15738300  1.0
  Y  Y1976  1  0.53904967  0.98970367  0.15738300  1.0
  Y  Y1977  1  0.87238300  0.32303700  0.15738300  1.0
  Y  Y1978  1  0.87238300  0.65637033  0.15738300  1.0
  Y  Y1979  1  0.87238300  0.98970367  0.15738300  1.0
  Y  Y1980  1  0.23872420  0.29775797  0.57579700  1.0
  Y  Y1981  1  0.23872420  0.63109130  0.57579700  1.0
  Y  Y1982  1  0.23872420  0.96442463  0.57579700  1.0
  Y  Y1983  1  0.57205753  0.29775797  0.57579700  1.0
  Y  Y1984  1  0.57205753  0.63109130  0.57579700  1.0
  Y  Y1985  1  0.57205753  0.96442463  0.57579700  1.0
  Y  Y1986  1  0.90539087  0.29775797  0.57579700  1.0
  Y  Y1987  1  0.90539087  0.63109130  0.57579700  1.0
  Y  Y1988  1  0.90539087  0.96442463  0.57579700  1.0
  Y  Y1989  1  0.03872420  0.33109130  0.57579700  1.0
  Y  Y1990  1  0.03872420  0.66442463  0.57579700  1.0
  Y  Y1991  1  0.03872420  0.99775797  0.57579700  1.0
  Y  Y1992  1  0.37205753  0.33109130  0.57579700  1.0
  Y  Y1993  1  0.37205753  0.66442463  0.57579700  1.0
  Y  Y1994  1  0.37205753  0.99775797  0.57579700  1.0
  Y  Y1995  1  0.70539087  0.33109130  0.57579700  1.0
  Y  Y1996  1  0.70539087  0.66442463  0.57579700  1.0
  Y  Y1997  1  0.70539087  0.99775797  0.57579700  1.0
  Y  Y1998  1  0.25633833  0.33021117  0.82579700  1.0
  Y  Y1999  1  0.25633833  0.66354450  0.82579700  1.0
  Y  Y2000  1  0.25633833  0.99687783  0.82579700  1.0
  Y  Y2001  1  0.58967167  0.33021117  0.82579700  1.0
  Y  Y2002  1  0.58967167  0.66354450  0.82579700  1.0
  Y  Y2003  1  0.58967167  0.99687783  0.82579700  1.0
  Y  Y2004  1  0.92300500  0.33021117  0.82579700  1.0
  Y  Y2005  1  0.92300500  0.66354450  0.82579700  1.0
  Y  Y2006  1  0.92300500  0.99687783  0.82579700  1.0
  Y  Y2007  1  0.12300500  0.29687783  0.82579700  1.0
  Y  Y2008  1  0.12300500  0.63021117  0.82579700  1.0
  Y  Y2009  1  0.12300500  0.96354450  0.82579700  1.0
  Y  Y2010  1  0.45633833  0.29687783  0.82579700  1.0
  Y  Y2011  1  0.45633833  0.63021117  0.82579700  1.0
  Y  Y2012  1  0.45633833  0.96354450  0.82579700  1.0
  Y  Y2013  1  0.78967167  0.29687783  0.82579700  1.0
  Y  Y2014  1  0.78967167  0.63021117  0.82579700  1.0
  Y  Y2015  1  0.78967167  0.96354450  0.82579700  1.0
  Y  Y2016  1  0.19911707  0.23428760  0.58931400  1.0
  Y  Y2017  1  0.19911707  0.56762093  0.58931400  1.0
  Y  Y2018  1  0.19911707  0.90095427  0.58931400  1.0
  Y  Y2019  1  0.53245040  0.23428760  0.58931400  1.0
  Y  Y2020  1  0.53245040  0.56762093  0.58931400  1.0
  Y  Y2021  1  0.53245040  0.90095427  0.58931400  1.0
  Y  Y2022  1  0.86578373  0.23428760  0.58931400  1.0
  Y  Y2023  1  0.86578373  0.56762093  0.58931400  1.0
  Y  Y2024  1  0.86578373  0.90095427  0.58931400  1.0
  Y  Y2025  1  0.06578373  0.20095427  0.58931400  1.0
  Y  Y2026  1  0.06578373  0.53428760  0.58931400  1.0
  Y  Y2027  1  0.06578373  0.86762093  0.58931400  1.0
  Y  Y2028  1  0.39911707  0.20095427  0.58931400  1.0
  Y  Y2029  1  0.39911707  0.53428760  0.58931400  1.0
  Y  Y2030  1  0.39911707  0.86762093  0.58931400  1.0
  Y  Y2031  1  0.73245040  0.20095427  0.58931400  1.0
  Y  Y2032  1  0.73245040  0.53428760  0.58931400  1.0
  Y  Y2033  1  0.73245040  0.86762093  0.58931400  1.0
  Y  Y2034  1  0.19840393  0.22552040  0.23555000  1.0
  Y  Y2035  1  0.19840393  0.55885373  0.23555000  1.0
  Y  Y2036  1  0.19840393  0.89218707  0.23555000  1.0
  Y  Y2037  1  0.53173727  0.22552040  0.23555000  1.0
  Y  Y2038  1  0.53173727  0.55885373  0.23555000  1.0
  Y  Y2039  1  0.53173727  0.89218707  0.23555000  1.0
  Y  Y2040  1  0.86507060  0.22552040  0.23555000  1.0
  Y  Y2041  1  0.86507060  0.55885373  0.23555000  1.0
  Y  Y2042  1  0.86507060  0.89218707  0.23555000  1.0
  Y  Y2043  1  0.33173727  0.25885373  0.23555000  1.0
  Y  Y2044  1  0.33173727  0.59218707  0.23555000  1.0
  Y  Y2045  1  0.33173727  0.92552040  0.23555000  1.0
  Y  Y2046  1  0.66507060  0.25885373  0.23555000  1.0
  Y  Y2047  1  0.66507060  0.59218707  0.23555000  1.0
  Y  Y2048  1  0.66507060  0.92552040  0.23555000  1.0
  Y  Y2049  1  0.99840393  0.25885373  0.23555000  1.0
  Y  Y2050  1  0.99840393  0.59218707  0.23555000  1.0
  Y  Y2051  1  0.99840393  0.92552040  0.23555000  1.0
  Y  Y2052  1  0.25493540  0.24791543  0.68138700  1.0
  Y  Y2053  1  0.25493540  0.58124877  0.68138700  1.0
  Y  Y2054  1  0.25493540  0.91458210  0.68138700  1.0
  Y  Y2055  1  0.58826873  0.24791543  0.68138700  1.0
  Y  Y2056  1  0.58826873  0.58124877  0.68138700  1.0
  Y  Y2057  1  0.58826873  0.91458210  0.68138700  1.0
  Y  Y2058  1  0.92160207  0.24791543  0.68138700  1.0
  Y  Y2059  1  0.92160207  0.58124877  0.68138700  1.0
  Y  Y2060  1  0.92160207  0.91458210  0.68138700  1.0
  Y  Y2061  1  0.12160207  0.21458210  0.68138700  1.0
  Y  Y2062  1  0.12160207  0.54791543  0.68138700  1.0
  Y  Y2063  1  0.12160207  0.88124877  0.68138700  1.0
  Y  Y2064  1  0.45493540  0.21458210  0.68138700  1.0
  Y  Y2065  1  0.45493540  0.54791543  0.68138700  1.0
  Y  Y2066  1  0.45493540  0.88124877  0.68138700  1.0
  Y  Y2067  1  0.78826873  0.21458210  0.68138700  1.0
  Y  Y2068  1  0.78826873  0.54791543  0.68138700  1.0
  Y  Y2069  1  0.78826873  0.88124877  0.68138700  1.0
  Y  Y2070  1  0.26031007  0.25108293  0.25000000  1.0
  Y  Y2071  1  0.26031007  0.58441627  0.25000000  1.0
  Y  Y2072  1  0.26031007  0.91774960  0.25000000  1.0
  Y  Y2073  1  0.59364340  0.25108293  0.25000000  1.0
  Y  Y2074  1  0.59364340  0.58441627  0.25000000  1.0
  Y  Y2075  1  0.59364340  0.91774960  0.25000000  1.0
  Y  Y2076  1  0.92697673  0.25108293  0.25000000  1.0
  Y  Y2077  1  0.92697673  0.58441627  0.25000000  1.0
  Y  Y2078  1  0.92697673  0.91774960  0.25000000  1.0
  Y  Y2079  1  0.12697673  0.21774960  0.25000000  1.0
  Y  Y2080  1  0.12697673  0.55108293  0.25000000  1.0
  Y  Y2081  1  0.12697673  0.88441627  0.25000000  1.0
  Y  Y2082  1  0.46031007  0.21774960  0.25000000  1.0
  Y  Y2083  1  0.46031007  0.55108293  0.25000000  1.0
  Y  Y2084  1  0.46031007  0.88441627  0.25000000  1.0
  Y  Y2085  1  0.79364340  0.21774960  0.25000000  1.0
  Y  Y2086  1  0.79364340  0.55108293  0.25000000  1.0
  Y  Y2087  1  0.79364340  0.88441627  0.25000000  1.0
  Y  Y2088  1  0.00358807  0.21053660  0.75000000  1.0
  Y  Y2089  1  0.00358807  0.54386993  0.75000000  1.0
  Y  Y2090  1  0.00358807  0.87720327  0.75000000  1.0
  Y  Y2091  1  0.33692140  0.21053660  0.75000000  1.0
  Y  Y2092  1  0.33692140  0.54386993  0.75000000  1.0
  Y  Y2093  1  0.33692140  0.87720327  0.75000000  1.0
  Y  Y2094  1  0.67025473  0.21053660  0.75000000  1.0
  Y  Y2095  1  0.67025473  0.54386993  0.75000000  1.0
  Y  Y2096  1  0.67025473  0.87720327  0.75000000  1.0
  Y  Y2097  1  0.13692140  0.24386993  0.75000000  1.0
  Y  Y2098  1  0.13692140  0.57720327  0.75000000  1.0
  Y  Y2099  1  0.13692140  0.91053660  0.75000000  1.0
  Y  Y2100  1  0.47025473  0.24386993  0.75000000  1.0
  Y  Y2101  1  0.47025473  0.57720327  0.75000000  1.0
  Y  Y2102  1  0.47025473  0.91053660  0.75000000  1.0
  Y  Y2103  1  0.80358807  0.24386993  0.75000000  1.0
  Y  Y2104  1  0.80358807  0.57720327  0.75000000  1.0
  Y  Y2105  1  0.80358807  0.91053660  0.75000000  1.0
  Y  Y2106  1  0.25826380  0.25969520  0.59261700  1.0
  Y  Y2107  1  0.25826380  0.59302853  0.59261700  1.0
  Y  Y2108  1  0.25826380  0.92636187  0.59261700  1.0
  Y  Y2109  1  0.59159713  0.25969520  0.59261700  1.0
  Y  Y2110  1  0.59159713  0.59302853  0.59261700  1.0
  Y  Y2111  1  0.59159713  0.92636187  0.59261700  1.0
  Y  Y2112  1  0.92493047  0.25969520  0.59261700  1.0
  Y  Y2113  1  0.92493047  0.59302853  0.59261700  1.0
  Y  Y2114  1  0.92493047  0.92636187  0.59261700  1.0
  Y  Y2115  1  0.12493047  0.22636187  0.59261700  1.0
  Y  Y2116  1  0.12493047  0.55969520  0.59261700  1.0
  Y  Y2117  1  0.12493047  0.89302853  0.59261700  1.0
  Y  Y2118  1  0.45826380  0.22636187  0.59261700  1.0
  Y  Y2119  1  0.45826380  0.55969520  0.59261700  1.0
  Y  Y2120  1  0.45826380  0.89302853  0.59261700  1.0
  Y  Y2121  1  0.79159713  0.22636187  0.59261700  1.0
  Y  Y2122  1  0.79159713  0.55969520  0.59261700  1.0
  Y  Y2123  1  0.79159713  0.89302853  0.59261700  1.0
  Y  Y2124  1  0.26450540  0.25068510  0.43138700  1.0
  Y  Y2125  1  0.26450540  0.58401843  0.43138700  1.0
  Y  Y2126  1  0.26450540  0.91735177  0.43138700  1.0
  Y  Y2127  1  0.59783873  0.25068510  0.43138700  1.0
  Y  Y2128  1  0.59783873  0.58401843  0.43138700  1.0
  Y  Y2129  1  0.59783873  0.91735177  0.43138700  1.0
  Y  Y2130  1  0.93117207  0.25068510  0.43138700  1.0
  Y  Y2131  1  0.93117207  0.58401843  0.43138700  1.0
  Y  Y2132  1  0.93117207  0.91735177  0.43138700  1.0
  Y  Y2133  1  0.13117207  0.21735177  0.43138700  1.0
  Y  Y2134  1  0.13117207  0.55068510  0.43138700  1.0
  Y  Y2135  1  0.13117207  0.88401843  0.43138700  1.0
  Y  Y2136  1  0.46450540  0.21735177  0.43138700  1.0
  Y  Y2137  1  0.46450540  0.55068510  0.43138700  1.0
  Y  Y2138  1  0.46450540  0.88401843  0.43138700  1.0
  Y  Y2139  1  0.79783873  0.21735177  0.43138700  1.0
  Y  Y2140  1  0.79783873  0.55068510  0.43138700  1.0
  Y  Y2141  1  0.79783873  0.88401843  0.43138700  1.0
  Y  Y2142  1  0.21786233  0.25186400  0.50000000  1.0
  Y  Y2143  1  0.21786233  0.58519733  0.50000000  1.0
  Y  Y2144  1  0.21786233  0.91853067  0.50000000  1.0
  Y  Y2145  1  0.55119567  0.25186400  0.50000000  1.0
  Y  Y2146  1  0.55119567  0.58519733  0.50000000  1.0
  Y  Y2147  1  0.55119567  0.91853067  0.50000000  1.0
  Y  Y2148  1  0.88452900  0.25186400  0.50000000  1.0
  Y  Y2149  1  0.88452900  0.58519733  0.50000000  1.0
  Y  Y2150  1  0.88452900  0.91853067  0.50000000  1.0
  Y  Y2151  1  0.08452900  0.21853067  0.50000000  1.0
  Y  Y2152  1  0.08452900  0.55186400  0.50000000  1.0
  Y  Y2153  1  0.08452900  0.88519733  0.50000000  1.0
  Y  Y2154  1  0.41786233  0.21853067  0.50000000  1.0
  Y  Y2155  1  0.41786233  0.55186400  0.50000000  1.0
  Y  Y2156  1  0.41786233  0.88519733  0.50000000  1.0
  Y  Y2157  1  0.75119567  0.21853067  0.50000000  1.0
  Y  Y2158  1  0.75119567  0.55186400  0.50000000  1.0
  Y  Y2159  1  0.75119567  0.88519733  0.50000000  1.0
  Y  Y2160  1  0.31931580  0.20995703  0.83931400  1.0
  Y  Y2161  1  0.31931580  0.54329037  0.83931400  1.0
  Y  Y2162  1  0.31931580  0.87662370  0.83931400  1.0
  Y  Y2163  1  0.65264913  0.20995703  0.83931400  1.0
  Y  Y2164  1  0.65264913  0.54329037  0.83931400  1.0
  Y  Y2165  1  0.65264913  0.87662370  0.83931400  1.0
  Y  Y2166  1  0.98598247  0.20995703  0.83931400  1.0
  Y  Y2167  1  0.98598247  0.54329037  0.83931400  1.0
  Y  Y2168  1  0.98598247  0.87662370  0.83931400  1.0
  Y  Y2169  1  0.11931580  0.24329037  0.83931400  1.0
  Y  Y2170  1  0.11931580  0.57662370  0.83931400  1.0
  Y  Y2171  1  0.11931580  0.90995703  0.83931400  1.0
  Y  Y2172  1  0.45264913  0.24329037  0.83931400  1.0
  Y  Y2173  1  0.45264913  0.57662370  0.83931400  1.0
  Y  Y2174  1  0.45264913  0.90995703  0.83931400  1.0
  Y  Y2175  1  0.78598247  0.24329037  0.83931400  1.0
  Y  Y2176  1  0.78598247  0.57662370  0.83931400  1.0
  Y  Y2177  1  0.78598247  0.90995703  0.83931400  1.0
  Y  Y2178  1  0.22786633  0.25618883  0.06861300  1.0
  Y  Y2179  1  0.22786633  0.58952217  0.06861300  1.0
  Y  Y2180  1  0.22786633  0.92285550  0.06861300  1.0
  Y  Y2181  1  0.56119967  0.25618883  0.06861300  1.0
  Y  Y2182  1  0.56119967  0.58952217  0.06861300  1.0
  Y  Y2183  1  0.56119967  0.92285550  0.06861300  1.0
  Y  Y2184  1  0.89453300  0.25618883  0.06861300  1.0
  Y  Y2185  1  0.89453300  0.58952217  0.06861300  1.0
  Y  Y2186  1  0.89453300  0.92285550  0.06861300  1.0
  Y  Y2187  1  0.09453300  0.22285550  0.06861300  1.0
  Y  Y2188  1  0.09453300  0.55618883  0.06861300  1.0
  Y  Y2189  1  0.09453300  0.88952217  0.06861300  1.0
  Y  Y2190  1  0.42786633  0.22285550  0.06861300  1.0
  Y  Y2191  1  0.42786633  0.55618883  0.06861300  1.0
  Y  Y2192  1  0.42786633  0.88952217  0.06861300  1.0
  Y  Y2193  1  0.76119967  0.22285550  0.06861300  1.0
  Y  Y2194  1  0.76119967  0.55618883  0.06861300  1.0
  Y  Y2195  1  0.76119967  0.88952217  0.06861300  1.0
  Y  Y2196  1  0.20581260  0.22324790  0.41068600  1.0
  Y  Y2197  1  0.20581260  0.55658123  0.41068600  1.0
  Y  Y2198  1  0.20581260  0.88991457  0.41068600  1.0
  Y  Y2199  1  0.53914593  0.22324790  0.41068600  1.0
  Y  Y2200  1  0.53914593  0.55658123  0.41068600  1.0
  Y  Y2201  1  0.53914593  0.88991457  0.41068600  1.0
  Y  Y2202  1  0.87247927  0.22324790  0.41068600  1.0
  Y  Y2203  1  0.87247927  0.55658123  0.41068600  1.0
  Y  Y2204  1  0.87247927  0.88991457  0.41068600  1.0
  Y  Y2205  1  0.00581260  0.25658123  0.41068600  1.0
  Y  Y2206  1  0.00581260  0.58991457  0.41068600  1.0
  Y  Y2207  1  0.00581260  0.92324790  0.41068600  1.0
  Y  Y2208  1  0.33914593  0.25658123  0.41068600  1.0
  Y  Y2209  1  0.33914593  0.58991457  0.41068600  1.0
  Y  Y2210  1  0.33914593  0.92324790  0.41068600  1.0
  Y  Y2211  1  0.67247927  0.25658123  0.41068600  1.0
  Y  Y2212  1  0.67247927  0.58991457  0.41068600  1.0
  Y  Y2213  1  0.67247927  0.92324790  0.41068600  1.0
  Y  Y2214  1  0.12604500  0.26017150  0.17420300  1.0
  Y  Y2215  1  0.12604500  0.59350483  0.17420300  1.0
  Y  Y2216  1  0.12604500  0.92683817  0.17420300  1.0
  Y  Y2217  1  0.45937833  0.26017150  0.17420300  1.0
  Y  Y2218  1  0.45937833  0.59350483  0.17420300  1.0
  Y  Y2219  1  0.45937833  0.92683817  0.17420300  1.0
  Y  Y2220  1  0.79271167  0.26017150  0.17420300  1.0
  Y  Y2221  1  0.79271167  0.59350483  0.17420300  1.0
  Y  Y2222  1  0.79271167  0.92683817  0.17420300  1.0
  Y  Y2223  1  0.32604500  0.22683817  0.17420300  1.0
  Y  Y2224  1  0.32604500  0.56017150  0.17420300  1.0
  Y  Y2225  1  0.32604500  0.89350483  0.17420300  1.0
  Y  Y2226  1  0.65937833  0.22683817  0.17420300  1.0
  Y  Y2227  1  0.65937833  0.56017150  0.17420300  1.0
  Y  Y2228  1  0.65937833  0.89350483  0.17420300  1.0
  Y  Y2229  1  0.99271167  0.22683817  0.17420300  1.0
  Y  Y2230  1  0.99271167  0.56017150  0.17420300  1.0
  Y  Y2231  1  0.99271167  0.89350483  0.17420300  1.0
  Y  Y2232  1  0.30566960  0.21925907  0.66068600  1.0
  Y  Y2233  1  0.30566960  0.55259240  0.66068600  1.0
  Y  Y2234  1  0.30566960  0.88592573  0.66068600  1.0
  Y  Y2235  1  0.63900293  0.21925907  0.66068600  1.0
  Y  Y2236  1  0.63900293  0.55259240  0.66068600  1.0
  Y  Y2237  1  0.63900293  0.88592573  0.66068600  1.0
  Y  Y2238  1  0.97233627  0.21925907  0.66068600  1.0
  Y  Y2239  1  0.97233627  0.55259240  0.66068600  1.0
  Y  Y2240  1  0.97233627  0.88592573  0.66068600  1.0
  Y  Y2241  1  0.10566960  0.25259240  0.66068600  1.0
  Y  Y2242  1  0.10566960  0.58592573  0.66068600  1.0
  Y  Y2243  1  0.10566960  0.91925907  0.66068600  1.0
  Y  Y2244  1  0.43900293  0.25259240  0.66068600  1.0
  Y  Y2245  1  0.43900293  0.58592573  0.66068600  1.0
  Y  Y2246  1  0.43900293  0.91925907  0.66068600  1.0
  Y  Y2247  1  0.77233627  0.25259240  0.66068600  1.0
  Y  Y2248  1  0.77233627  0.58592573  0.66068600  1.0
  Y  Y2249  1  0.77233627  0.91925907  0.66068600  1.0
  Y  Y2250  1  0.17137313  0.24168837  0.31861300  1.0
  Y  Y2251  1  0.17137313  0.57502170  0.31861300  1.0
  Y  Y2252  1  0.17137313  0.90835503  0.31861300  1.0
  Y  Y2253  1  0.50470647  0.24168837  0.31861300  1.0
  Y  Y2254  1  0.50470647  0.57502170  0.31861300  1.0
  Y  Y2255  1  0.50470647  0.90835503  0.31861300  1.0
  Y  Y2256  1  0.83803980  0.24168837  0.31861300  1.0
  Y  Y2257  1  0.83803980  0.57502170  0.31861300  1.0
  Y  Y2258  1  0.83803980  0.90835503  0.31861300  1.0
  Y  Y2259  1  0.03803980  0.20835503  0.31861300  1.0
  Y  Y2260  1  0.03803980  0.54168837  0.31861300  1.0
  Y  Y2261  1  0.03803980  0.87502170  0.31861300  1.0
  Y  Y2262  1  0.37137313  0.20835503  0.31861300  1.0
  Y  Y2263  1  0.37137313  0.54168837  0.31861300  1.0
  Y  Y2264  1  0.37137313  0.87502170  0.31861300  1.0
  Y  Y2265  1  0.70470647  0.20835503  0.31861300  1.0
  Y  Y2266  1  0.70470647  0.54168837  0.31861300  1.0
  Y  Y2267  1  0.70470647  0.87502170  0.31861300  1.0
  Y  Y2268  1  0.02952940  0.24417827  0.65738300  1.0
  Y  Y2269  1  0.02952940  0.57751160  0.65738300  1.0
  Y  Y2270  1  0.02952940  0.91084493  0.65738300  1.0
  Y  Y2271  1  0.36286273  0.24417827  0.65738300  1.0
  Y  Y2272  1  0.36286273  0.57751160  0.65738300  1.0
  Y  Y2273  1  0.36286273  0.91084493  0.65738300  1.0
  Y  Y2274  1  0.69619607  0.24417827  0.65738300  1.0
  Y  Y2275  1  0.69619607  0.57751160  0.65738300  1.0
  Y  Y2276  1  0.69619607  0.91084493  0.65738300  1.0
  Y  Y2277  1  0.22952940  0.21084493  0.65738300  1.0
  Y  Y2278  1  0.22952940  0.54417827  0.65738300  1.0
  Y  Y2279  1  0.22952940  0.87751160  0.65738300  1.0
  Y  Y2280  1  0.56286273  0.21084493  0.65738300  1.0
  Y  Y2281  1  0.56286273  0.54417827  0.65738300  1.0
  Y  Y2282  1  0.56286273  0.87751160  0.65738300  1.0
  Y  Y2283  1  0.89619607  0.21084493  0.65738300  1.0
  Y  Y2284  1  0.89619607  0.54417827  0.65738300  1.0
  Y  Y2285  1  0.89619607  0.87751160  0.65738300  1.0
  Y  Y2286  1  0.21944673  0.25139660  0.76445000  1.0
  Y  Y2287  1  0.21944673  0.58472993  0.76445000  1.0
  Y  Y2288  1  0.21944673  0.91806327  0.76445000  1.0
  Y  Y2289  1  0.55278007  0.25139660  0.76445000  1.0
  Y  Y2290  1  0.55278007  0.58472993  0.76445000  1.0
  Y  Y2291  1  0.55278007  0.91806327  0.76445000  1.0
  Y  Y2292  1  0.88611340  0.25139660  0.76445000  1.0
  Y  Y2293  1  0.88611340  0.58472993  0.76445000  1.0
  Y  Y2294  1  0.88611340  0.91806327  0.76445000  1.0
  Y  Y2295  1  0.08611340  0.21806327  0.76445000  1.0
  Y  Y2296  1  0.08611340  0.55139660  0.76445000  1.0
  Y  Y2297  1  0.08611340  0.88472993  0.76445000  1.0
  Y  Y2298  1  0.41944673  0.21806327  0.76445000  1.0
  Y  Y2299  1  0.41944673  0.55139660  0.76445000  1.0
  Y  Y2300  1  0.41944673  0.88472993  0.76445000  1.0
  Y  Y2301  1  0.75278007  0.21806327  0.76445000  1.0
  Y  Y2302  1  0.75278007  0.55139660  0.76445000  1.0
  Y  Y2303  1  0.75278007  0.88472993  0.76445000  1.0
  Y  Y2304  1  0.19712360  0.24817640  0.16068600  1.0
  Y  Y2305  1  0.19712360  0.58150973  0.16068600  1.0
  Y  Y2306  1  0.19712360  0.91484307  0.16068600  1.0
  Y  Y2307  1  0.53045693  0.24817640  0.16068600  1.0
  Y  Y2308  1  0.53045693  0.58150973  0.16068600  1.0
  Y  Y2309  1  0.53045693  0.91484307  0.16068600  1.0
  Y  Y2310  1  0.86379027  0.24817640  0.16068600  1.0
  Y  Y2311  1  0.86379027  0.58150973  0.16068600  1.0
  Y  Y2312  1  0.86379027  0.91484307  0.16068600  1.0
  Y  Y2313  1  0.06379027  0.21484307  0.16068600  1.0
  Y  Y2314  1  0.06379027  0.54817640  0.16068600  1.0
  Y  Y2315  1  0.06379027  0.88150973  0.16068600  1.0
  Y  Y2316  1  0.39712360  0.21484307  0.16068600  1.0
  Y  Y2317  1  0.39712360  0.54817640  0.16068600  1.0
  Y  Y2318  1  0.39712360  0.88150973  0.16068600  1.0
  Y  Y2319  1  0.73045693  0.21484307  0.16068600  1.0
  Y  Y2320  1  0.73045693  0.54817640  0.16068600  1.0
  Y  Y2321  1  0.73045693  0.88150973  0.16068600  1.0
  Y  Y2322  1  0.22381780  0.21489837  0.32579700  1.0
  Y  Y2323  1  0.22381780  0.54823170  0.32579700  1.0
  Y  Y2324  1  0.22381780  0.88156503  0.32579700  1.0
  Y  Y2325  1  0.55715113  0.21489837  0.32579700  1.0
  Y  Y2326  1  0.55715113  0.54823170  0.32579700  1.0
  Y  Y2327  1  0.55715113  0.88156503  0.32579700  1.0
  Y  Y2328  1  0.89048447  0.21489837  0.32579700  1.0
  Y  Y2329  1  0.89048447  0.54823170  0.32579700  1.0
  Y  Y2330  1  0.89048447  0.88156503  0.32579700  1.0
  Y  Y2331  1  0.02381780  0.24823170  0.32579700  1.0
  Y  Y2332  1  0.02381780  0.58156503  0.32579700  1.0
  Y  Y2333  1  0.02381780  0.91489837  0.32579700  1.0
  Y  Y2334  1  0.35715113  0.24823170  0.32579700  1.0
  Y  Y2335  1  0.35715113  0.58156503  0.32579700  1.0
  Y  Y2336  1  0.35715113  0.91489837  0.32579700  1.0
  Y  Y2337  1  0.69048447  0.24823170  0.32579700  1.0
  Y  Y2338  1  0.69048447  0.58156503  0.32579700  1.0
  Y  Y2339  1  0.69048447  0.91489837  0.32579700  1.0
  Y  Y2340  1  0.31047473  0.23479710  0.93138700  1.0
  Y  Y2341  1  0.31047473  0.56813043  0.93138700  1.0
  Y  Y2342  1  0.31047473  0.90146377  0.93138700  1.0
  Y  Y2343  1  0.64380807  0.23479710  0.93138700  1.0
  Y  Y2344  1  0.64380807  0.56813043  0.93138700  1.0
  Y  Y2345  1  0.64380807  0.90146377  0.93138700  1.0
  Y  Y2346  1  0.97714140  0.23479710  0.93138700  1.0
  Y  Y2347  1  0.97714140  0.56813043  0.93138700  1.0
  Y  Y2348  1  0.97714140  0.90146377  0.93138700  1.0
  Y  Y2349  1  0.17714140  0.20146377  0.93138700  1.0
  Y  Y2350  1  0.17714140  0.53479710  0.93138700  1.0
  Y  Y2351  1  0.17714140  0.86813043  0.93138700  1.0
  Y  Y2352  1  0.51047473  0.20146377  0.93138700  1.0
  Y  Y2353  1  0.51047473  0.53479710  0.93138700  1.0
  Y  Y2354  1  0.51047473  0.86813043  0.93138700  1.0
  Y  Y2355  1  0.84380807  0.20146377  0.93138700  1.0
  Y  Y2356  1  0.84380807  0.53479710  0.93138700  1.0
  Y  Y2357  1  0.84380807  0.86813043  0.93138700  1.0
  Y  Y2358  1  0.18968887  0.26285313  0.25000000  1.0
  Y  Y2359  1  0.18968887  0.59618647  0.25000000  1.0
  Y  Y2360  1  0.18968887  0.92951980  0.25000000  1.0
  Y  Y2361  1  0.52302220  0.26285313  0.25000000  1.0
  Y  Y2362  1  0.52302220  0.59618647  0.25000000  1.0
  Y  Y2363  1  0.52302220  0.92951980  0.25000000  1.0
  Y  Y2364  1  0.85635553  0.26285313  0.25000000  1.0
  Y  Y2365  1  0.85635553  0.59618647  0.25000000  1.0
  Y  Y2366  1  0.85635553  0.92951980  0.25000000  1.0
  Y  Y2367  1  0.05635553  0.22951980  0.25000000  1.0
  Y  Y2368  1  0.05635553  0.56285313  0.25000000  1.0
  Y  Y2369  1  0.05635553  0.89618647  0.25000000  1.0
  Y  Y2370  1  0.38968887  0.22951980  0.25000000  1.0
  Y  Y2371  1  0.38968887  0.56285313  0.25000000  1.0
  Y  Y2372  1  0.38968887  0.89618647  0.25000000  1.0
  Y  Y2373  1  0.72302220  0.22951980  0.25000000  1.0
  Y  Y2374  1  0.72302220  0.56285313  0.25000000  1.0
  Y  Y2375  1  0.72302220  0.89618647  0.25000000  1.0
  Y  Y2376  1  0.17476527  0.23068490  0.07579700  1.0
  Y  Y2377  1  0.17476527  0.56401823  0.07579700  1.0
  Y  Y2378  1  0.17476527  0.89735157  0.07579700  1.0
  Y  Y2379  1  0.50809860  0.23068490  0.07579700  1.0
  Y  Y2380  1  0.50809860  0.56401823  0.07579700  1.0
  Y  Y2381  1  0.50809860  0.89735157  0.07579700  1.0
  Y  Y2382  1  0.84143193  0.23068490  0.07579700  1.0
  Y  Y2383  1  0.84143193  0.56401823  0.07579700  1.0
  Y  Y2384  1  0.84143193  0.89735157  0.07579700  1.0
  Y  Y2385  1  0.30809860  0.26401823  0.07579700  1.0
  Y  Y2386  1  0.30809860  0.59735157  0.07579700  1.0
  Y  Y2387  1  0.30809860  0.93068490  0.07579700  1.0
  Y  Y2388  1  0.64143193  0.26401823  0.07579700  1.0
  Y  Y2389  1  0.64143193  0.59735157  0.07579700  1.0
  Y  Y2390  1  0.64143193  0.93068490  0.07579700  1.0
  Y  Y2391  1  0.97476527  0.26401823  0.07579700  1.0
  Y  Y2392  1  0.97476527  0.59735157  0.07579700  1.0
  Y  Y2393  1  0.97476527  0.93068490  0.07579700  1.0
  Y  Y2394  1  0.04648160  0.22289423  0.90738300  1.0
  Y  Y2395  1  0.04648160  0.55622757  0.90738300  1.0
  Y  Y2396  1  0.04648160  0.88956090  0.90738300  1.0
  Y  Y2397  1  0.37981493  0.22289423  0.90738300  1.0
  Y  Y2398  1  0.37981493  0.55622757  0.90738300  1.0
  Y  Y2399  1  0.37981493  0.88956090  0.90738300  1.0
  Y  Y2400  1  0.71314827  0.22289423  0.90738300  1.0
  Y  Y2401  1  0.71314827  0.55622757  0.90738300  1.0
  Y  Y2402  1  0.71314827  0.88956090  0.90738300  1.0
  Y  Y2403  1  0.17981493  0.25622757  0.90738300  1.0
  Y  Y2404  1  0.17981493  0.58956090  0.90738300  1.0
  Y  Y2405  1  0.17981493  0.92289423  0.90738300  1.0
  Y  Y2406  1  0.51314827  0.25622757  0.90738300  1.0
  Y  Y2407  1  0.51314827  0.58956090  0.90738300  1.0
  Y  Y2408  1  0.51314827  0.92289423  0.90738300  1.0
  Y  Y2409  1  0.84648160  0.25622757  0.90738300  1.0
  Y  Y2410  1  0.84648160  0.58956090  0.90738300  1.0
  Y  Y2411  1  0.84648160  0.92289423  0.90738300  1.0
  Y  Y2412  1  0.28464360  0.22838973  0.08931400  1.0
  Y  Y2413  1  0.28464360  0.56172307  0.08931400  1.0
  Y  Y2414  1  0.28464360  0.89505640  0.08931400  1.0
  Y  Y2415  1  0.61797693  0.22838973  0.08931400  1.0
  Y  Y2416  1  0.61797693  0.56172307  0.08931400  1.0
  Y  Y2417  1  0.61797693  0.89505640  0.08931400  1.0
  Y  Y2418  1  0.95131027  0.22838973  0.08931400  1.0
  Y  Y2419  1  0.95131027  0.56172307  0.08931400  1.0
  Y  Y2420  1  0.95131027  0.89505640  0.08931400  1.0
  Y  Y2421  1  0.08464360  0.26172307  0.08931400  1.0
  Y  Y2422  1  0.08464360  0.59505640  0.08931400  1.0
  Y  Y2423  1  0.08464360  0.92838973  0.08931400  1.0
  Y  Y2424  1  0.41797693  0.26172307  0.08931400  1.0
  Y  Y2425  1  0.41797693  0.59505640  0.08931400  1.0
  Y  Y2426  1  0.41797693  0.92838973  0.08931400  1.0
  Y  Y2427  1  0.75131027  0.26172307  0.08931400  1.0
  Y  Y2428  1  0.75131027  0.59505640  0.08931400  1.0
  Y  Y2429  1  0.75131027  0.92838973  0.08931400  1.0
  Y  Y2430  1  0.05665953  0.20103380  0.98555000  1.0
  Y  Y2431  1  0.05665953  0.53436713  0.98555000  1.0
  Y  Y2432  1  0.05665953  0.86770047  0.98555000  1.0
  Y  Y2433  1  0.38999287  0.20103380  0.98555000  1.0
  Y  Y2434  1  0.38999287  0.53436713  0.98555000  1.0
  Y  Y2435  1  0.38999287  0.86770047  0.98555000  1.0
  Y  Y2436  1  0.72332620  0.20103380  0.98555000  1.0
  Y  Y2437  1  0.72332620  0.53436713  0.98555000  1.0
  Y  Y2438  1  0.72332620  0.86770047  0.98555000  1.0
  Y  Y2439  1  0.18999287  0.23436713  0.98555000  1.0
  Y  Y2440  1  0.18999287  0.56770047  0.98555000  1.0
  Y  Y2441  1  0.18999287  0.90103380  0.98555000  1.0
  Y  Y2442  1  0.52332620  0.23436713  0.98555000  1.0
  Y  Y2443  1  0.52332620  0.56770047  0.98555000  1.0
  Y  Y2444  1  0.52332620  0.90103380  0.98555000  1.0
  Y  Y2445  1  0.85665953  0.23436713  0.98555000  1.0
  Y  Y2446  1  0.85665953  0.56770047  0.98555000  1.0
  Y  Y2447  1  0.85665953  0.90103380  0.98555000  1.0
  Y  Y2448  1  0.26562167  0.24016967  0.00000000  1.0
  Y  Y2449  1  0.26562167  0.57350300  0.00000000  1.0
  Y  Y2450  1  0.26562167  0.90683633  0.00000000  1.0
  Y  Y2451  1  0.59895500  0.24016967  0.00000000  1.0
  Y  Y2452  1  0.59895500  0.57350300  0.00000000  1.0
  Y  Y2453  1  0.59895500  0.90683633  0.00000000  1.0
  Y  Y2454  1  0.93228833  0.24016967  0.00000000  1.0
  Y  Y2455  1  0.93228833  0.57350300  0.00000000  1.0
  Y  Y2456  1  0.93228833  0.90683633  0.00000000  1.0
  Y  Y2457  1  0.13228833  0.20683633  0.00000000  1.0
  Y  Y2458  1  0.13228833  0.54016967  0.00000000  1.0
  Y  Y2459  1  0.13228833  0.87350300  0.00000000  1.0
  Y  Y2460  1  0.46562167  0.20683633  0.00000000  1.0
  Y  Y2461  1  0.46562167  0.54016967  0.00000000  1.0
  Y  Y2462  1  0.46562167  0.87350300  0.00000000  1.0
  Y  Y2463  1  0.79895500  0.20683633  0.00000000  1.0
  Y  Y2464  1  0.79895500  0.54016967  0.00000000  1.0
  Y  Y2465  1  0.79895500  0.87350300  0.00000000  1.0
  Y  Y2466  1  0.28214693  0.24014390  0.34261700  1.0
  Y  Y2467  1  0.28214693  0.57347723  0.34261700  1.0
  Y  Y2468  1  0.28214693  0.90681057  0.34261700  1.0
  Y  Y2469  1  0.61548027  0.24014390  0.34261700  1.0
  Y  Y2470  1  0.61548027  0.57347723  0.34261700  1.0
  Y  Y2471  1  0.61548027  0.90681057  0.34261700  1.0
  Y  Y2472  1  0.94881360  0.24014390  0.34261700  1.0
  Y  Y2473  1  0.94881360  0.57347723  0.34261700  1.0
  Y  Y2474  1  0.94881360  0.90681057  0.34261700  1.0
  Y  Y2475  1  0.14881360  0.20681057  0.34261700  1.0
  Y  Y2476  1  0.14881360  0.54014390  0.34261700  1.0
  Y  Y2477  1  0.14881360  0.87347723  0.34261700  1.0
  Y  Y2478  1  0.48214693  0.20681057  0.34261700  1.0
  Y  Y2479  1  0.48214693  0.54014390  0.34261700  1.0
  Y  Y2480  1  0.48214693  0.87347723  0.34261700  1.0
  Y  Y2481  1  0.81548027  0.20681057  0.34261700  1.0
  Y  Y2482  1  0.81548027  0.54014390  0.34261700  1.0
  Y  Y2483  1  0.81548027  0.87347723  0.34261700  1.0
  Y  Y2484  1  0.31785913  0.22059137  0.42420300  1.0
  Y  Y2485  1  0.31785913  0.55392470  0.42420300  1.0
  Y  Y2486  1  0.31785913  0.88725803  0.42420300  1.0
  Y  Y2487  1  0.65119247  0.22059137  0.42420300  1.0
  Y  Y2488  1  0.65119247  0.55392470  0.42420300  1.0
  Y  Y2489  1  0.65119247  0.88725803  0.42420300  1.0
  Y  Y2490  1  0.98452580  0.22059137  0.42420300  1.0
  Y  Y2491  1  0.98452580  0.55392470  0.42420300  1.0
  Y  Y2492  1  0.98452580  0.88725803  0.42420300  1.0
  Y  Y2493  1  0.11785913  0.25392470  0.42420300  1.0
  Y  Y2494  1  0.11785913  0.58725803  0.42420300  1.0
  Y  Y2495  1  0.11785913  0.92059137  0.42420300  1.0
  Y  Y2496  1  0.45119247  0.25392470  0.42420300  1.0
  Y  Y2497  1  0.45119247  0.58725803  0.42420300  1.0
  Y  Y2498  1  0.45119247  0.92059137  0.42420300  1.0
  Y  Y2499  1  0.78452580  0.25392470  0.42420300  1.0
  Y  Y2500  1  0.78452580  0.58725803  0.42420300  1.0
  Y  Y2501  1  0.78452580  0.92059137  0.42420300  1.0
  Y  Y2502  1  0.25337807  0.22090010  0.18138700  1.0
  Y  Y2503  1  0.25337807  0.55423343  0.18138700  1.0
  Y  Y2504  1  0.25337807  0.88756677  0.18138700  1.0
  Y  Y2505  1  0.58671140  0.22090010  0.18138700  1.0
  Y  Y2506  1  0.58671140  0.55423343  0.18138700  1.0
  Y  Y2507  1  0.58671140  0.88756677  0.18138700  1.0
  Y  Y2508  1  0.92004473  0.22090010  0.18138700  1.0
  Y  Y2509  1  0.92004473  0.55423343  0.18138700  1.0
  Y  Y2510  1  0.92004473  0.88756677  0.18138700  1.0
  Y  Y2511  1  0.05337807  0.25423343  0.18138700  1.0
  Y  Y2512  1  0.05337807  0.58756677  0.18138700  1.0
  Y  Y2513  1  0.05337807  0.92090010  0.18138700  1.0
  Y  Y2514  1  0.38671140  0.25423343  0.18138700  1.0
  Y  Y2515  1  0.38671140  0.58756677  0.18138700  1.0
  Y  Y2516  1  0.38671140  0.92090010  0.18138700  1.0
  Y  Y2517  1  0.72004473  0.25423343  0.18138700  1.0
  Y  Y2518  1  0.72004473  0.58756677  0.18138700  1.0
  Y  Y2519  1  0.72004473  0.92090010  0.18138700  1.0
  Y  Y2520  1  0.04208127  0.23819240  0.00000000  1.0
  Y  Y2521  1  0.04208127  0.57152573  0.00000000  1.0
  Y  Y2522  1  0.04208127  0.90485907  0.00000000  1.0
  Y  Y2523  1  0.37541460  0.23819240  0.00000000  1.0
  Y  Y2524  1  0.37541460  0.57152573  0.00000000  1.0
  Y  Y2525  1  0.37541460  0.90485907  0.00000000  1.0
  Y  Y2526  1  0.70874793  0.23819240  0.00000000  1.0
  Y  Y2527  1  0.70874793  0.57152573  0.00000000  1.0
  Y  Y2528  1  0.70874793  0.90485907  0.00000000  1.0
  Y  Y2529  1  0.24208127  0.20485907  0.00000000  1.0
  Y  Y2530  1  0.24208127  0.53819240  0.00000000  1.0
  Y  Y2531  1  0.24208127  0.87152573  0.00000000  1.0
  Y  Y2532  1  0.57541460  0.20485907  0.00000000  1.0
  Y  Y2533  1  0.57541460  0.53819240  0.00000000  1.0
  Y  Y2534  1  0.57541460  0.87152573  0.00000000  1.0
  Y  Y2535  1  0.90874793  0.20485907  0.00000000  1.0
  Y  Y2536  1  0.90874793  0.53819240  0.00000000  1.0
  Y  Y2537  1  0.90874793  0.87152573  0.00000000  1.0
  Y  Y2538  1  0.32435300  0.24690600  0.73555000  1.0
  Y  Y2539  1  0.32435300  0.58023933  0.73555000  1.0
  Y  Y2540  1  0.32435300  0.91357267  0.73555000  1.0
  Y  Y2541  1  0.65768633  0.24690600  0.73555000  1.0
  Y  Y2542  1  0.65768633  0.58023933  0.73555000  1.0
  Y  Y2543  1  0.65768633  0.91357267  0.73555000  1.0
  Y  Y2544  1  0.99101967  0.24690600  0.73555000  1.0
  Y  Y2545  1  0.99101967  0.58023933  0.73555000  1.0
  Y  Y2546  1  0.99101967  0.91357267  0.73555000  1.0
  Y  Y2547  1  0.19101967  0.21357267  0.73555000  1.0
  Y  Y2548  1  0.19101967  0.54690600  0.73555000  1.0
  Y  Y2549  1  0.19101967  0.88023933  0.73555000  1.0
  Y  Y2550  1  0.52435300  0.21357267  0.73555000  1.0
  Y  Y2551  1  0.52435300  0.54690600  0.73555000  1.0
  Y  Y2552  1  0.52435300  0.88023933  0.73555000  1.0
  Y  Y2553  1  0.85768633  0.21357267  0.73555000  1.0
  Y  Y2554  1  0.85768633  0.54690600  0.73555000  1.0
  Y  Y2555  1  0.85768633  0.88023933  0.73555000  1.0
  Y  Y2556  1  0.25037407  0.20510843  0.56861300  1.0
  Y  Y2557  1  0.25037407  0.53844177  0.56861300  1.0
  Y  Y2558  1  0.25037407  0.87177510  0.56861300  1.0
  Y  Y2559  1  0.58370740  0.20510843  0.56861300  1.0
  Y  Y2560  1  0.58370740  0.53844177  0.56861300  1.0
  Y  Y2561  1  0.58370740  0.87177510  0.56861300  1.0
  Y  Y2562  1  0.91704073  0.20510843  0.56861300  1.0
  Y  Y2563  1  0.91704073  0.53844177  0.56861300  1.0
  Y  Y2564  1  0.91704073  0.87177510  0.56861300  1.0
  Y  Y2565  1  0.05037407  0.23844177  0.56861300  1.0
  Y  Y2566  1  0.05037407  0.57177510  0.56861300  1.0
  Y  Y2567  1  0.05037407  0.90510843  0.56861300  1.0
  Y  Y2568  1  0.38370740  0.23844177  0.56861300  1.0
  Y  Y2569  1  0.38370740  0.57177510  0.56861300  1.0
  Y  Y2570  1  0.38370740  0.90510843  0.56861300  1.0
  Y  Y2571  1  0.71704073  0.23844177  0.56861300  1.0
  Y  Y2572  1  0.71704073  0.57177510  0.56861300  1.0
  Y  Y2573  1  0.71704073  0.90510843  0.56861300  1.0
  Y  Y2574  1  0.26630020  0.22230680  0.75000000  1.0
  Y  Y2575  1  0.26630020  0.55564013  0.75000000  1.0
  Y  Y2576  1  0.26630020  0.88897347  0.75000000  1.0
  Y  Y2577  1  0.59963353  0.22230680  0.75000000  1.0
  Y  Y2578  1  0.59963353  0.55564013  0.75000000  1.0
  Y  Y2579  1  0.59963353  0.88897347  0.75000000  1.0
  Y  Y2580  1  0.93296687  0.22230680  0.75000000  1.0
  Y  Y2581  1  0.93296687  0.55564013  0.75000000  1.0
  Y  Y2582  1  0.93296687  0.88897347  0.75000000  1.0
  Y  Y2583  1  0.06630020  0.25564013  0.75000000  1.0
  Y  Y2584  1  0.06630020  0.58897347  0.75000000  1.0
  Y  Y2585  1  0.06630020  0.92230680  0.75000000  1.0
  Y  Y2586  1  0.39963353  0.25564013  0.75000000  1.0
  Y  Y2587  1  0.39963353  0.58897347  0.75000000  1.0
  Y  Y2588  1  0.39963353  0.92230680  0.75000000  1.0
  Y  Y2589  1  0.73296687  0.25564013  0.75000000  1.0
  Y  Y2590  1  0.73296687  0.58897347  0.75000000  1.0
  Y  Y2591  1  0.73296687  0.92230680  0.75000000  1.0
  Y  Y2592  1  0.32765527  0.24988673  0.50000000  1.0
  Y  Y2593  1  0.32765527  0.58322007  0.50000000  1.0
  Y  Y2594  1  0.32765527  0.91655340  0.50000000  1.0
  Y  Y2595  1  0.66098860  0.24988673  0.50000000  1.0
  Y  Y2596  1  0.66098860  0.58322007  0.50000000  1.0
  Y  Y2597  1  0.66098860  0.91655340  0.50000000  1.0
  Y  Y2598  1  0.99432193  0.24988673  0.50000000  1.0
  Y  Y2599  1  0.99432193  0.58322007  0.50000000  1.0
  Y  Y2600  1  0.99432193  0.91655340  0.50000000  1.0
  Y  Y2601  1  0.19432193  0.21655340  0.50000000  1.0
  Y  Y2602  1  0.19432193  0.54988673  0.50000000  1.0
  Y  Y2603  1  0.19432193  0.88322007  0.50000000  1.0
  Y  Y2604  1  0.52765527  0.21655340  0.50000000  1.0
  Y  Y2605  1  0.52765527  0.54988673  0.50000000  1.0
  Y  Y2606  1  0.52765527  0.88322007  0.50000000  1.0
  Y  Y2607  1  0.86098860  0.21655340  0.50000000  1.0
  Y  Y2608  1  0.86098860  0.54988673  0.50000000  1.0
  Y  Y2609  1  0.86098860  0.88322007  0.50000000  1.0
  Y  Y2610  1  0.31101687  0.22295647  0.26445000  1.0
  Y  Y2611  1  0.31101687  0.55628980  0.26445000  1.0
  Y  Y2612  1  0.31101687  0.88962313  0.26445000  1.0
  Y  Y2613  1  0.64435020  0.22295647  0.26445000  1.0
  Y  Y2614  1  0.64435020  0.55628980  0.26445000  1.0
  Y  Y2615  1  0.64435020  0.88962313  0.26445000  1.0
  Y  Y2616  1  0.97768353  0.22295647  0.26445000  1.0
  Y  Y2617  1  0.97768353  0.55628980  0.26445000  1.0
  Y  Y2618  1  0.97768353  0.88962313  0.26445000  1.0
  Y  Y2619  1  0.11101687  0.25628980  0.26445000  1.0
  Y  Y2620  1  0.11101687  0.58962313  0.26445000  1.0
  Y  Y2621  1  0.11101687  0.92295647  0.26445000  1.0
  Y  Y2622  1  0.44435020  0.25628980  0.26445000  1.0
  Y  Y2623  1  0.44435020  0.58962313  0.26445000  1.0
  Y  Y2624  1  0.44435020  0.92295647  0.26445000  1.0
  Y  Y2625  1  0.77768353  0.25628980  0.26445000  1.0
  Y  Y2626  1  0.77768353  0.58962313  0.26445000  1.0
  Y  Y2627  1  0.77768353  0.92295647  0.26445000  1.0
  Y  Y2628  1  0.04701940  0.20816510  0.67420300  1.0
  Y  Y2629  1  0.04701940  0.54149843  0.67420300  1.0
  Y  Y2630  1  0.04701940  0.87483177  0.67420300  1.0
  Y  Y2631  1  0.38035273  0.20816510  0.67420300  1.0
  Y  Y2632  1  0.38035273  0.54149843  0.67420300  1.0
  Y  Y2633  1  0.38035273  0.87483177  0.67420300  1.0
  Y  Y2634  1  0.71368607  0.20816510  0.67420300  1.0
  Y  Y2635  1  0.71368607  0.54149843  0.67420300  1.0
  Y  Y2636  1  0.71368607  0.87483177  0.67420300  1.0
  Y  Y2637  1  0.18035273  0.24149843  0.67420300  1.0
  Y  Y2638  1  0.18035273  0.57483177  0.67420300  1.0
  Y  Y2639  1  0.18035273  0.90816510  0.67420300  1.0
  Y  Y2640  1  0.51368607  0.24149843  0.67420300  1.0
  Y  Y2641  1  0.51368607  0.57483177  0.67420300  1.0
  Y  Y2642  1  0.51368607  0.90816510  0.67420300  1.0
  Y  Y2643  1  0.84701940  0.24149843  0.67420300  1.0
  Y  Y2644  1  0.84701940  0.57483177  0.67420300  1.0
  Y  Y2645  1  0.84701940  0.90816510  0.67420300  1.0
  Y  Y2646  1  0.04020060  0.23627557  0.81861300  1.0
  Y  Y2647  1  0.04020060  0.56960890  0.81861300  1.0
  Y  Y2648  1  0.04020060  0.90294223  0.81861300  1.0
  Y  Y2649  1  0.37353393  0.23627557  0.81861300  1.0
  Y  Y2650  1  0.37353393  0.56960890  0.81861300  1.0
  Y  Y2651  1  0.37353393  0.90294223  0.81861300  1.0
  Y  Y2652  1  0.70686727  0.23627557  0.81861300  1.0
  Y  Y2653  1  0.70686727  0.56960890  0.81861300  1.0
  Y  Y2654  1  0.70686727  0.90294223  0.81861300  1.0
  Y  Y2655  1  0.24020060  0.20294223  0.81861300  1.0
  Y  Y2656  1  0.24020060  0.53627557  0.81861300  1.0
  Y  Y2657  1  0.24020060  0.86960890  0.81861300  1.0
  Y  Y2658  1  0.57353393  0.20294223  0.81861300  1.0
  Y  Y2659  1  0.57353393  0.53627557  0.81861300  1.0
  Y  Y2660  1  0.57353393  0.86960890  0.81861300  1.0
  Y  Y2661  1  0.90686727  0.20294223  0.81861300  1.0
  Y  Y2662  1  0.90686727  0.53627557  0.81861300  1.0
  Y  Y2663  1  0.90686727  0.86960890  0.81861300  1.0
  Y  Y2664  1  0.12012500  0.24761733  0.01445000  1.0
  Y  Y2665  1  0.12012500  0.58095067  0.01445000  1.0
  Y  Y2666  1  0.12012500  0.91428400  0.01445000  1.0
  Y  Y2667  1  0.45345833  0.24761733  0.01445000  1.0
  Y  Y2668  1  0.45345833  0.58095067  0.01445000  1.0
  Y  Y2669  1  0.45345833  0.91428400  0.01445000  1.0
  Y  Y2670  1  0.78679167  0.24761733  0.01445000  1.0
  Y  Y2671  1  0.78679167  0.58095067  0.01445000  1.0
  Y  Y2672  1  0.78679167  0.91428400  0.01445000  1.0
  Y  Y2673  1  0.32012500  0.21428400  0.01445000  1.0
  Y  Y2674  1  0.32012500  0.54761733  0.01445000  1.0
  Y  Y2675  1  0.32012500  0.88095067  0.01445000  1.0
  Y  Y2676  1  0.65345833  0.21428400  0.01445000  1.0
  Y  Y2677  1  0.65345833  0.54761733  0.01445000  1.0
  Y  Y2678  1  0.65345833  0.88095067  0.01445000  1.0
  Y  Y2679  1  0.98679167  0.21428400  0.01445000  1.0
  Y  Y2680  1  0.98679167  0.54761733  0.01445000  1.0
  Y  Y2681  1  0.98679167  0.88095067  0.01445000  1.0
  Y  Y2682  1  0.18876413  0.26098770  0.40738300  1.0
  Y  Y2683  1  0.18876413  0.59432103  0.40738300  1.0
  Y  Y2684  1  0.18876413  0.92765437  0.40738300  1.0
  Y  Y2685  1  0.52209747  0.26098770  0.40738300  1.0
  Y  Y2686  1  0.52209747  0.59432103  0.40738300  1.0
  Y  Y2687  1  0.52209747  0.92765437  0.40738300  1.0
  Y  Y2688  1  0.85543080  0.26098770  0.40738300  1.0
  Y  Y2689  1  0.85543080  0.59432103  0.40738300  1.0
  Y  Y2690  1  0.85543080  0.92765437  0.40738300  1.0
  Y  Y2691  1  0.05543080  0.22765437  0.40738300  1.0
  Y  Y2692  1  0.05543080  0.56098770  0.40738300  1.0
  Y  Y2693  1  0.05543080  0.89432103  0.40738300  1.0
  Y  Y2694  1  0.38876413  0.22765437  0.40738300  1.0
  Y  Y2695  1  0.38876413  0.56098770  0.40738300  1.0
  Y  Y2696  1  0.38876413  0.89432103  0.40738300  1.0
  Y  Y2697  1  0.72209747  0.22765437  0.40738300  1.0
  Y  Y2698  1  0.72209747  0.56098770  0.40738300  1.0
  Y  Y2699  1  0.72209747  0.89432103  0.40738300  1.0
  Y  Y2700  1  0.01033860  0.21006907  0.51445000  1.0
  Y  Y2701  1  0.01033860  0.54340240  0.51445000  1.0
  Y  Y2702  1  0.01033860  0.87673573  0.51445000  1.0
  Y  Y2703  1  0.34367193  0.21006907  0.51445000  1.0
  Y  Y2704  1  0.34367193  0.54340240  0.51445000  1.0
  Y  Y2705  1  0.34367193  0.87673573  0.51445000  1.0
  Y  Y2706  1  0.67700527  0.21006907  0.51445000  1.0
  Y  Y2707  1  0.67700527  0.54340240  0.51445000  1.0
  Y  Y2708  1  0.67700527  0.87673573  0.51445000  1.0
  Y  Y2709  1  0.14367193  0.24340240  0.51445000  1.0
  Y  Y2710  1  0.14367193  0.57673573  0.51445000  1.0
  Y  Y2711  1  0.14367193  0.91006907  0.51445000  1.0
  Y  Y2712  1  0.47700527  0.24340240  0.51445000  1.0
  Y  Y2713  1  0.47700527  0.57673573  0.51445000  1.0
  Y  Y2714  1  0.47700527  0.91006907  0.51445000  1.0
  Y  Y2715  1  0.81033860  0.24340240  0.51445000  1.0
  Y  Y2716  1  0.81033860  0.57673573  0.51445000  1.0
  Y  Y2717  1  0.81033860  0.91006907  0.51445000  1.0
  Y  Y2718  1  0.26609740  0.22139260  0.48555000  1.0
  Y  Y2719  1  0.26609740  0.55472593  0.48555000  1.0
  Y  Y2720  1  0.26609740  0.88805927  0.48555000  1.0
  Y  Y2721  1  0.59943073  0.22139260  0.48555000  1.0
  Y  Y2722  1  0.59943073  0.55472593  0.48555000  1.0
  Y  Y2723  1  0.59943073  0.88805927  0.48555000  1.0
  Y  Y2724  1  0.93276407  0.22139260  0.48555000  1.0
  Y  Y2725  1  0.93276407  0.55472593  0.48555000  1.0
  Y  Y2726  1  0.93276407  0.88805927  0.48555000  1.0
  Y  Y2727  1  0.06609740  0.25472593  0.48555000  1.0
  Y  Y2728  1  0.06609740  0.58805927  0.48555000  1.0
  Y  Y2729  1  0.06609740  0.92139260  0.48555000  1.0
  Y  Y2730  1  0.39943073  0.25472593  0.48555000  1.0
  Y  Y2731  1  0.39943073  0.58805927  0.48555000  1.0
  Y  Y2732  1  0.39943073  0.92139260  0.48555000  1.0
  Y  Y2733  1  0.73276407  0.25472593  0.48555000  1.0
  Y  Y2734  1  0.73276407  0.58805927  0.48555000  1.0
  Y  Y2735  1  0.73276407  0.92139260  0.48555000  1.0
  Y  Y2736  1  0.25520527  0.26441190  0.92420300  1.0
  Y  Y2737  1  0.25520527  0.59774523  0.92420300  1.0
  Y  Y2738  1  0.25520527  0.93107857  0.92420300  1.0
  Y  Y2739  1  0.58853860  0.26441190  0.92420300  1.0
  Y  Y2740  1  0.58853860  0.59774523  0.92420300  1.0
  Y  Y2741  1  0.58853860  0.93107857  0.92420300  1.0
  Y  Y2742  1  0.92187193  0.26441190  0.92420300  1.0
  Y  Y2743  1  0.92187193  0.59774523  0.92420300  1.0
  Y  Y2744  1  0.92187193  0.93107857  0.92420300  1.0
  Y  Y2745  1  0.12187193  0.23107857  0.92420300  1.0
  Y  Y2746  1  0.12187193  0.56441190  0.92420300  1.0
  Y  Y2747  1  0.12187193  0.89774523  0.92420300  1.0
  Y  Y2748  1  0.45520527  0.23107857  0.92420300  1.0
  Y  Y2749  1  0.45520527  0.56441190  0.92420300  1.0
  Y  Y2750  1  0.45520527  0.89774523  0.92420300  1.0
  Y  Y2751  1  0.78853860  0.23107857  0.92420300  1.0
  Y  Y2752  1  0.78853860  0.56441190  0.92420300  1.0
  Y  Y2753  1  0.78853860  0.89774523  0.92420300  1.0
  Y  Y2754  1  0.03031393  0.26085423  0.91068600  1.0
  Y  Y2755  1  0.03031393  0.59418757  0.91068600  1.0
  Y  Y2756  1  0.03031393  0.92752090  0.91068600  1.0
  Y  Y2757  1  0.36364727  0.26085423  0.91068600  1.0
  Y  Y2758  1  0.36364727  0.59418757  0.91068600  1.0
  Y  Y2759  1  0.36364727  0.92752090  0.91068600  1.0
  Y  Y2760  1  0.69698060  0.26085423  0.91068600  1.0
  Y  Y2761  1  0.69698060  0.59418757  0.91068600  1.0
  Y  Y2762  1  0.69698060  0.92752090  0.91068600  1.0
  Y  Y2763  1  0.23031393  0.22752090  0.91068600  1.0
  Y  Y2764  1  0.23031393  0.56085423  0.91068600  1.0
  Y  Y2765  1  0.23031393  0.89418757  0.91068600  1.0
  Y  Y2766  1  0.56364727  0.22752090  0.91068600  1.0
  Y  Y2767  1  0.56364727  0.56085423  0.91068600  1.0
  Y  Y2768  1  0.56364727  0.89418757  0.91068600  1.0
  Y  Y2769  1  0.89698060  0.22752090  0.91068600  1.0
  Y  Y2770  1  0.89698060  0.56085423  0.91068600  1.0
  Y  Y2771  1  0.89698060  0.89418757  0.91068600  1.0
  Y  Y2772  1  0.29777820  0.20272030  0.33931400  1.0
  Y  Y2773  1  0.29777820  0.53605363  0.33931400  1.0
  Y  Y2774  1  0.29777820  0.86938697  0.33931400  1.0
  Y  Y2775  1  0.63111153  0.20272030  0.33931400  1.0
  Y  Y2776  1  0.63111153  0.53605363  0.33931400  1.0
  Y  Y2777  1  0.63111153  0.86938697  0.33931400  1.0
  Y  Y2778  1  0.96444487  0.20272030  0.33931400  1.0
  Y  Y2779  1  0.96444487  0.53605363  0.33931400  1.0
  Y  Y2780  1  0.96444487  0.86938697  0.33931400  1.0
  Y  Y2781  1  0.09777820  0.23605363  0.33931400  1.0
  Y  Y2782  1  0.09777820  0.56938697  0.33931400  1.0
  Y  Y2783  1  0.09777820  0.90272030  0.33931400  1.0
  Y  Y2784  1  0.43111153  0.23605363  0.33931400  1.0
  Y  Y2785  1  0.43111153  0.56938697  0.33931400  1.0
  Y  Y2786  1  0.43111153  0.90272030  0.33931400  1.0
  Y  Y2787  1  0.76444487  0.23605363  0.33931400  1.0
  Y  Y2788  1  0.76444487  0.56938697  0.33931400  1.0
  Y  Y2789  1  0.76444487  0.90272030  0.33931400  1.0
  Y  Y2790  1  0.26916120  0.23942030  0.84261700  1.0
  Y  Y2791  1  0.26916120  0.57275363  0.84261700  1.0
  Y  Y2792  1  0.26916120  0.90608697  0.84261700  1.0
  Y  Y2793  1  0.60249453  0.23942030  0.84261700  1.0
  Y  Y2794  1  0.60249453  0.57275363  0.84261700  1.0
  Y  Y2795  1  0.60249453  0.90608697  0.84261700  1.0
  Y  Y2796  1  0.93582787  0.23942030  0.84261700  1.0
  Y  Y2797  1  0.93582787  0.57275363  0.84261700  1.0
  Y  Y2798  1  0.93582787  0.90608697  0.84261700  1.0
  Y  Y2799  1  0.13582787  0.20608697  0.84261700  1.0
  Y  Y2800  1  0.13582787  0.53942030  0.84261700  1.0
  Y  Y2801  1  0.13582787  0.87275363  0.84261700  1.0
  Y  Y2802  1  0.46916120  0.20608697  0.84261700  1.0
  Y  Y2803  1  0.46916120  0.53942030  0.84261700  1.0
  Y  Y2804  1  0.46916120  0.87275363  0.84261700  1.0
  Y  Y2805  1  0.80249453  0.20608697  0.84261700  1.0
  Y  Y2806  1  0.80249453  0.53942030  0.84261700  1.0
  Y  Y2807  1  0.80249453  0.87275363  0.84261700  1.0
  Y  Y2808  1  0.22637767  0.20320233  0.09261700  1.0
  Y  Y2809  1  0.22637767  0.53653567  0.09261700  1.0
  Y  Y2810  1  0.22637767  0.86986900  0.09261700  1.0
  Y  Y2811  1  0.55971100  0.20320233  0.09261700  1.0
  Y  Y2812  1  0.55971100  0.53653567  0.09261700  1.0
  Y  Y2813  1  0.55971100  0.86986900  0.09261700  1.0
  Y  Y2814  1  0.89304433  0.20320233  0.09261700  1.0
  Y  Y2815  1  0.89304433  0.53653567  0.09261700  1.0
  Y  Y2816  1  0.89304433  0.86986900  0.09261700  1.0
  Y  Y2817  1  0.02637767  0.23653567  0.09261700  1.0
  Y  Y2818  1  0.02637767  0.56986900  0.09261700  1.0
  Y  Y2819  1  0.02637767  0.90320233  0.09261700  1.0
  Y  Y2820  1  0.35971100  0.23653567  0.09261700  1.0
  Y  Y2821  1  0.35971100  0.56986900  0.09261700  1.0
  Y  Y2822  1  0.35971100  0.90320233  0.09261700  1.0
  Y  Y2823  1  0.69304433  0.23653567  0.09261700  1.0
  Y  Y2824  1  0.69304433  0.56986900  0.09261700  1.0
  Y  Y2825  1  0.69304433  0.90320233  0.09261700  1.0
  Y  Y2826  1  0.13904967  0.22303700  0.15738300  1.0
  Y  Y2827  1  0.13904967  0.55637033  0.15738300  1.0
  Y  Y2828  1  0.13904967  0.88970367  0.15738300  1.0
  Y  Y2829  1  0.47238300  0.22303700  0.15738300  1.0
  Y  Y2830  1  0.47238300  0.55637033  0.15738300  1.0
  Y  Y2831  1  0.47238300  0.88970367  0.15738300  1.0
  Y  Y2832  1  0.80571633  0.22303700  0.15738300  1.0
  Y  Y2833  1  0.80571633  0.55637033  0.15738300  1.0
  Y  Y2834  1  0.80571633  0.88970367  0.15738300  1.0
  Y  Y2835  1  0.27238300  0.25637033  0.15738300  1.0
  Y  Y2836  1  0.27238300  0.58970367  0.15738300  1.0
  Y  Y2837  1  0.27238300  0.92303700  0.15738300  1.0
  Y  Y2838  1  0.60571633  0.25637033  0.15738300  1.0
  Y  Y2839  1  0.60571633  0.58970367  0.15738300  1.0
  Y  Y2840  1  0.60571633  0.92303700  0.15738300  1.0
  Y  Y2841  1  0.93904967  0.25637033  0.15738300  1.0
  Y  Y2842  1  0.93904967  0.58970367  0.15738300  1.0
  Y  Y2843  1  0.93904967  0.92303700  0.15738300  1.0
  Y  Y2844  1  0.30539087  0.23109130  0.57579700  1.0
  Y  Y2845  1  0.30539087  0.56442463  0.57579700  1.0
  Y  Y2846  1  0.30539087  0.89775797  0.57579700  1.0
  Y  Y2847  1  0.63872420  0.23109130  0.57579700  1.0
  Y  Y2848  1  0.63872420  0.56442463  0.57579700  1.0
  Y  Y2849  1  0.63872420  0.89775797  0.57579700  1.0
  Y  Y2850  1  0.97205753  0.23109130  0.57579700  1.0
  Y  Y2851  1  0.97205753  0.56442463  0.57579700  1.0
  Y  Y2852  1  0.97205753  0.89775797  0.57579700  1.0
  Y  Y2853  1  0.10539087  0.26442463  0.57579700  1.0
  Y  Y2854  1  0.10539087  0.59775797  0.57579700  1.0
  Y  Y2855  1  0.10539087  0.93109130  0.57579700  1.0
  Y  Y2856  1  0.43872420  0.26442463  0.57579700  1.0
  Y  Y2857  1  0.43872420  0.59775797  0.57579700  1.0
  Y  Y2858  1  0.43872420  0.93109130  0.57579700  1.0
  Y  Y2859  1  0.77205753  0.26442463  0.57579700  1.0
  Y  Y2860  1  0.77205753  0.59775797  0.57579700  1.0
  Y  Y2861  1  0.77205753  0.93109130  0.57579700  1.0
  Y  Y2862  1  0.32300500  0.26354450  0.82579700  1.0
  Y  Y2863  1  0.32300500  0.59687783  0.82579700  1.0
  Y  Y2864  1  0.32300500  0.93021117  0.82579700  1.0
  Y  Y2865  1  0.65633833  0.26354450  0.82579700  1.0
  Y  Y2866  1  0.65633833  0.59687783  0.82579700  1.0
  Y  Y2867  1  0.65633833  0.93021117  0.82579700  1.0
  Y  Y2868  1  0.98967167  0.26354450  0.82579700  1.0
  Y  Y2869  1  0.98967167  0.59687783  0.82579700  1.0
  Y  Y2870  1  0.98967167  0.93021117  0.82579700  1.0
  Y  Y2871  1  0.18967167  0.23021117  0.82579700  1.0
  Y  Y2872  1  0.18967167  0.56354450  0.82579700  1.0
  Y  Y2873  1  0.18967167  0.89687783  0.82579700  1.0
  Y  Y2874  1  0.52300500  0.23021117  0.82579700  1.0
  Y  Y2875  1  0.52300500  0.56354450  0.82579700  1.0
  Y  Y2876  1  0.52300500  0.89687783  0.82579700  1.0
  Y  Y2877  1  0.85633833  0.23021117  0.82579700  1.0
  Y  Y2878  1  0.85633833  0.56354450  0.82579700  1.0
  Y  Y2879  1  0.85633833  0.89687783  0.82579700  1.0
