# generated using pymatgen
data_Y3Ni2
_symmetry_space_group_name_H-M   'P 1'
_cell_length_a   21.21288900
_cell_length_b   117.96549252
_cell_length_c   35.35481500
_cell_angle_alpha   111.07843670
_cell_angle_beta   90.00000000
_cell_angle_gamma   90.00000000
_symmetry_Int_Tables_number   1
_chemical_formula_structural   Y3Ni2
_chemical_formula_sum   'Y864 Ni576'
_cell_volume   82551.77617570
_cell_formula_units_Z   288
loop_
 _symmetry_equiv_pos_site_id
 _symmetry_equiv_pos_as_xyz
  1  'x, y, z'
loop_
 _atom_site_type_symbol
 _atom_site_label
 _atom_site_symmetry_multiplicity
 _atom_site_fract_x
 _atom_site_fract_y
 _atom_site_fract_z
 _atom_site_occupancy
  Y  Y0  1  0.32962867  0.13689533  0.13126930  1.0
  Y  Y1  1  0.32962867  0.47022867  0.13126930  1.0
  Y  Y2  1  0.32962867  0.80356200  0.13126930  1.0
  Y  Y3  1  0.66296200  0.13689533  0.13126930  1.0
  Y  Y4  1  0.66296200  0.47022867  0.13126930  1.0
  Y  Y5  1  0.66296200  0.80356200  0.13126930  1.0
  Y  Y6  1  0.99629533  0.13689533  0.13126930  1.0
  Y  Y7  1  0.99629533  0.47022867  0.13126930  1.0
  Y  Y8  1  0.99629533  0.80356200  0.13126930  1.0
  Y  Y9  1  0.23066800  0.25481667  0.09338830  1.0
  Y  Y10  1  0.23066800  0.58815000  0.09338830  1.0
  Y  Y11  1  0.23066800  0.92148333  0.09338830  1.0
  Y  Y12  1  0.56400133  0.25481667  0.09338830  1.0
  Y  Y13  1  0.56400133  0.58815000  0.09338830  1.0
  Y  Y14  1  0.56400133  0.92148333  0.09338830  1.0
  Y  Y15  1  0.89733467  0.25481667  0.09338830  1.0
  Y  Y16  1  0.89733467  0.58815000  0.09338830  1.0
  Y  Y17  1  0.89733467  0.92148333  0.09338830  1.0
  Y  Y18  1  0.22142733  0.10620433  0.09522430  1.0
  Y  Y19  1  0.22142733  0.43953767  0.09522430  1.0
  Y  Y20  1  0.22142733  0.77287100  0.09522430  1.0
  Y  Y21  1  0.55476067  0.10620433  0.09522430  1.0
  Y  Y22  1  0.55476067  0.43953767  0.09522430  1.0
  Y  Y23  1  0.55476067  0.77287100  0.09522430  1.0
  Y  Y24  1  0.88809400  0.10620433  0.09522430  1.0
  Y  Y25  1  0.88809400  0.43953767  0.09522430  1.0
  Y  Y26  1  0.88809400  0.77287100  0.09522430  1.0
  Y  Y27  1  0.06054733  0.25000000  0.06340190  1.0
  Y  Y28  1  0.06054733  0.58333333  0.06340190  1.0
  Y  Y29  1  0.06054733  0.91666667  0.06340190  1.0
  Y  Y30  1  0.39388067  0.25000000  0.06340190  1.0
  Y  Y31  1  0.39388067  0.58333333  0.06340190  1.0
  Y  Y32  1  0.39388067  0.91666667  0.06340190  1.0
  Y  Y33  1  0.72721400  0.25000000  0.06340190  1.0
  Y  Y34  1  0.72721400  0.58333333  0.06340190  1.0
  Y  Y35  1  0.72721400  0.91666667  0.06340190  1.0
  Y  Y36  1  0.15508400  0.08333333  0.00667990  1.0
  Y  Y37  1  0.15508400  0.41666667  0.00667990  1.0
  Y  Y38  1  0.15508400  0.75000000  0.00667990  1.0
  Y  Y39  1  0.48841733  0.08333333  0.00667990  1.0
  Y  Y40  1  0.48841733  0.41666667  0.00667990  1.0
  Y  Y41  1  0.48841733  0.75000000  0.00667990  1.0
  Y  Y42  1  0.82175067  0.08333333  0.00667990  1.0
  Y  Y43  1  0.82175067  0.41666667  0.00667990  1.0
  Y  Y44  1  0.82175067  0.75000000  0.00667990  1.0
  Y  Y45  1  0.16162100  0.13579433  0.10445790  1.0
  Y  Y46  1  0.16162100  0.46912767  0.10445790  1.0
  Y  Y47  1  0.16162100  0.80246100  0.10445790  1.0
  Y  Y48  1  0.49495433  0.13579433  0.10445790  1.0
  Y  Y49  1  0.49495433  0.46912767  0.10445790  1.0
  Y  Y50  1  0.49495433  0.80246100  0.10445790  1.0
  Y  Y51  1  0.82828767  0.13579433  0.10445790  1.0
  Y  Y52  1  0.82828767  0.46912767  0.10445790  1.0
  Y  Y53  1  0.82828767  0.80246100  0.10445790  1.0
  Y  Y54  1  0.11341467  0.18953767  0.19431910  1.0
  Y  Y55  1  0.11341467  0.52287100  0.19431910  1.0
  Y  Y56  1  0.11341467  0.85620433  0.19431910  1.0
  Y  Y57  1  0.44674800  0.18953767  0.19431910  1.0
  Y  Y58  1  0.44674800  0.52287100  0.19431910  1.0
  Y  Y59  1  0.44674800  0.85620433  0.19431910  1.0
  Y  Y60  1  0.78008133  0.18953767  0.19431910  1.0
  Y  Y61  1  0.78008133  0.52287100  0.19431910  1.0
  Y  Y62  1  0.78008133  0.85620433  0.19431910  1.0
  Y  Y63  1  0.22721400  0.16666667  0.13605870  1.0
  Y  Y64  1  0.22721400  0.50000000  0.13605870  1.0
  Y  Y65  1  0.22721400  0.83333333  0.13605870  1.0
  Y  Y66  1  0.56054733  0.16666667  0.13605870  1.0
  Y  Y67  1  0.56054733  0.50000000  0.13605870  1.0
  Y  Y68  1  0.56054733  0.83333333  0.13605870  1.0
  Y  Y69  1  0.89388067  0.16666667  0.13605870  1.0
  Y  Y70  1  0.89388067  0.50000000  0.13605870  1.0
  Y  Y71  1  0.89388067  0.83333333  0.13605870  1.0
  Y  Y72  1  0.22122567  0.05356200  0.16178190  1.0
  Y  Y73  1  0.22122567  0.38689533  0.16178190  1.0
  Y  Y74  1  0.22122567  0.72022867  0.16178190  1.0
  Y  Y75  1  0.55455900  0.05356200  0.16178190  1.0
  Y  Y76  1  0.55455900  0.38689533  0.16178190  1.0
  Y  Y77  1  0.55455900  0.72022867  0.16178190  1.0
  Y  Y78  1  0.88789233  0.05356200  0.16178190  1.0
  Y  Y79  1  0.88789233  0.38689533  0.16178190  1.0
  Y  Y80  1  0.88789233  0.72022867  0.16178190  1.0
  Y  Y81  1  0.05476067  0.31046233  0.10423630  1.0
  Y  Y82  1  0.05476067  0.64379567  0.10423630  1.0
  Y  Y83  1  0.05476067  0.97712900  0.10423630  1.0
  Y  Y84  1  0.38809400  0.31046233  0.10423630  1.0
  Y  Y85  1  0.38809400  0.64379567  0.10423630  1.0
  Y  Y86  1  0.38809400  0.97712900  0.10423630  1.0
  Y  Y87  1  0.72142733  0.31046233  0.10423630  1.0
  Y  Y88  1  0.72142733  0.64379567  0.10423630  1.0
  Y  Y89  1  0.72142733  0.97712900  0.10423630  1.0
  Y  Y90  1  0.27877433  0.19643800  0.03323310  1.0
  Y  Y91  1  0.27877433  0.52977133  0.03323310  1.0
  Y  Y92  1  0.27877433  0.86310467  0.03323310  1.0
  Y  Y93  1  0.61210767  0.19643800  0.03323310  1.0
  Y  Y94  1  0.61210767  0.52977133  0.03323310  1.0
  Y  Y95  1  0.61210767  0.86310467  0.03323310  1.0
  Y  Y96  1  0.94544100  0.19643800  0.03323310  1.0
  Y  Y97  1  0.94544100  0.52977133  0.03323310  1.0
  Y  Y98  1  0.94544100  0.86310467  0.03323310  1.0
  Y  Y99  1  0.28563467  0.27526567  0.19134910  1.0
  Y  Y100  1  0.28563467  0.60859900  0.19134910  1.0
  Y  Y101  1  0.28563467  0.94193233  0.19134910  1.0
  Y  Y102  1  0.61896800  0.27526567  0.19134910  1.0
  Y  Y103  1  0.61896800  0.60859900  0.19134910  1.0
  Y  Y104  1  0.61896800  0.94193233  0.19134910  1.0
  Y  Y105  1  0.95230133  0.27526567  0.19134910  1.0
  Y  Y106  1  0.95230133  0.60859900  0.19134910  1.0
  Y  Y107  1  0.95230133  0.94193233  0.19134910  1.0
  Y  Y108  1  0.17037133  0.11310467  0.00272050  1.0
  Y  Y109  1  0.17037133  0.44643800  0.00272050  1.0
  Y  Y110  1  0.17037133  0.77977133  0.00272050  1.0
  Y  Y111  1  0.50370467  0.11310467  0.00272050  1.0
  Y  Y112  1  0.50370467  0.44643800  0.00272050  1.0
  Y  Y113  1  0.50370467  0.77977133  0.00272050  1.0
  Y  Y114  1  0.83703800  0.11310467  0.00272050  1.0
  Y  Y115  1  0.83703800  0.44643800  0.00272050  1.0
  Y  Y116  1  0.83703800  0.77977133  0.00272050  1.0
  Y  Y117  1  0.28008133  0.22712900  0.00514150  1.0
  Y  Y118  1  0.28008133  0.56046233  0.00514150  1.0
  Y  Y119  1  0.28008133  0.89379567  0.00514150  1.0
  Y  Y120  1  0.61341467  0.22712900  0.00514150  1.0
  Y  Y121  1  0.61341467  0.56046233  0.00514150  1.0
  Y  Y122  1  0.61341467  0.89379567  0.00514150  1.0
  Y  Y123  1  0.94674800  0.22712900  0.00514150  1.0
  Y  Y124  1  0.94674800  0.56046233  0.00514150  1.0
  Y  Y125  1  0.94674800  0.89379567  0.00514150  1.0
  Y  Y126  1  0.00504567  0.11420567  0.17855150  1.0
  Y  Y127  1  0.00504567  0.44753900  0.17855150  1.0
  Y  Y128  1  0.00504567  0.78087233  0.17855150  1.0
  Y  Y129  1  0.33837900  0.11420567  0.17855150  1.0
  Y  Y130  1  0.33837900  0.44753900  0.17855150  1.0
  Y  Y131  1  0.33837900  0.78087233  0.17855150  1.0
  Y  Y132  1  0.67171233  0.11420567  0.17855150  1.0
  Y  Y133  1  0.67171233  0.44753900  0.17855150  1.0
  Y  Y134  1  0.67171233  0.78087233  0.17855150  1.0
  Y  Y135  1  0.31313000  0.07851667  0.03235110  1.0
  Y  Y136  1  0.31313000  0.41185000  0.03235110  1.0
  Y  Y137  1  0.31313000  0.74518333  0.03235110  1.0
  Y  Y138  1  0.64646333  0.07851667  0.03235110  1.0
  Y  Y139  1  0.64646333  0.41185000  0.03235110  1.0
  Y  Y140  1  0.64646333  0.74518333  0.03235110  1.0
  Y  Y141  1  0.97979667  0.07851667  0.03235110  1.0
  Y  Y142  1  0.97979667  0.41185000  0.03235110  1.0
  Y  Y143  1  0.97979667  0.74518333  0.03235110  1.0
  Y  Y144  1  0.16296200  0.27977133  0.06819130  1.0
  Y  Y145  1  0.16296200  0.61310467  0.06819130  1.0
  Y  Y146  1  0.16296200  0.94643800  0.06819130  1.0
  Y  Y147  1  0.49629533  0.27977133  0.06819130  1.0
  Y  Y148  1  0.49629533  0.61310467  0.06819130  1.0
  Y  Y149  1  0.49629533  0.94643800  0.06819130  1.0
  Y  Y150  1  0.82962867  0.27977133  0.06819130  1.0
  Y  Y151  1  0.82962867  0.61310467  0.06819130  1.0
  Y  Y152  1  0.82962867  0.94643800  0.06819130  1.0
  Y  Y153  1  0.23116667  0.22473433  0.09803070  1.0
  Y  Y154  1  0.23116667  0.55806767  0.09803070  1.0
  Y  Y155  1  0.23116667  0.89140100  0.09803070  1.0
  Y  Y156  1  0.56450000  0.22473433  0.09803070  1.0
  Y  Y157  1  0.56450000  0.55806767  0.09803070  1.0
  Y  Y158  1  0.56450000  0.89140100  0.09803070  1.0
  Y  Y159  1  0.89783333  0.22473433  0.09803070  1.0
  Y  Y160  1  0.89783333  0.55806767  0.09803070  1.0
  Y  Y161  1  0.89783333  0.89140100  0.09803070  1.0
  Y  Y162  1  0.21991867  0.02287100  0.06003190  1.0
  Y  Y163  1  0.21991867  0.35620433  0.06003190  1.0
  Y  Y164  1  0.21991867  0.68953767  0.06003190  1.0
  Y  Y165  1  0.55325200  0.02287100  0.06003190  1.0
  Y  Y166  1  0.55325200  0.35620433  0.06003190  1.0
  Y  Y167  1  0.55325200  0.68953767  0.06003190  1.0
  Y  Y168  1  0.88658533  0.02287100  0.06003190  1.0
  Y  Y169  1  0.88658533  0.35620433  0.06003190  1.0
  Y  Y170  1  0.88658533  0.68953767  0.06003190  1.0
  Y  Y171  1  0.17824933  0.25000000  0.19278070  1.0
  Y  Y172  1  0.17824933  0.58333333  0.19278070  1.0
  Y  Y173  1  0.17824933  0.91666667  0.19278070  1.0
  Y  Y174  1  0.51158267  0.25000000  0.19278070  1.0
  Y  Y175  1  0.51158267  0.58333333  0.19278070  1.0
  Y  Y176  1  0.51158267  0.91666667  0.19278070  1.0
  Y  Y177  1  0.84491600  0.25000000  0.19278070  1.0
  Y  Y178  1  0.84491600  0.58333333  0.19278070  1.0
  Y  Y179  1  0.84491600  0.91666667  0.19278070  1.0
  Y  Y180  1  0.21436533  0.30806767  0.13071150  1.0
  Y  Y181  1  0.21436533  0.64140100  0.13071150  1.0
  Y  Y182  1  0.21436533  0.97473433  0.13071150  1.0
  Y  Y183  1  0.54769867  0.30806767  0.13071150  1.0
  Y  Y184  1  0.54769867  0.64140100  0.13071150  1.0
  Y  Y185  1  0.54769867  0.97473433  0.13071150  1.0
  Y  Y186  1  0.88103200  0.30806767  0.13071150  1.0
  Y  Y187  1  0.88103200  0.64140100  0.13071150  1.0
  Y  Y188  1  0.88103200  0.97473433  0.13071150  1.0
  Y  Y189  1  0.09704267  0.03087233  0.13980450  1.0
  Y  Y190  1  0.09704267  0.36420567  0.13980450  1.0
  Y  Y191  1  0.09704267  0.69753900  0.13980450  1.0
  Y  Y192  1  0.43037600  0.03087233  0.13980450  1.0
  Y  Y193  1  0.43037600  0.36420567  0.13980450  1.0
  Y  Y194  1  0.43037600  0.69753900  0.13980450  1.0
  Y  Y195  1  0.76370933  0.03087233  0.13980450  1.0
  Y  Y196  1  0.76370933  0.36420567  0.13980450  1.0
  Y  Y197  1  0.76370933  0.69753900  0.13980450  1.0
  Y  Y198  1  0.00370467  0.30356200  0.19674010  1.0
  Y  Y199  1  0.00370467  0.63689533  0.19674010  1.0
  Y  Y200  1  0.00370467  0.97022867  0.19674010  1.0
  Y  Y201  1  0.33703800  0.30356200  0.19674010  1.0
  Y  Y202  1  0.33703800  0.63689533  0.19674010  1.0
  Y  Y203  1  0.33703800  0.97022867  0.19674010  1.0
  Y  Y204  1  0.67037133  0.30356200  0.19674010  1.0
  Y  Y205  1  0.67037133  0.63689533  0.19674010  1.0
  Y  Y206  1  0.67037133  0.97022867  0.19674010  1.0
  Y  Y207  1  0.14646333  0.00481667  0.16710950  1.0
  Y  Y208  1  0.14646333  0.33815000  0.16710950  1.0
  Y  Y209  1  0.14646333  0.67148333  0.16710950  1.0
  Y  Y210  1  0.47979667  0.00481667  0.16710950  1.0
  Y  Y211  1  0.47979667  0.33815000  0.16710950  1.0
  Y  Y212  1  0.47979667  0.67148333  0.16710950  1.0
  Y  Y213  1  0.81313000  0.00481667  0.16710950  1.0
  Y  Y214  1  0.81313000  0.33815000  0.16710950  1.0
  Y  Y215  1  0.81313000  0.67148333  0.16710950  1.0
  Y  Y216  1  0.32175067  0.00000000  0.19278070  1.0
  Y  Y217  1  0.32175067  0.33333333  0.19278070  1.0
  Y  Y218  1  0.32175067  0.66666667  0.19278070  1.0
  Y  Y219  1  0.65508400  0.00000000  0.19278070  1.0
  Y  Y220  1  0.65508400  0.33333333  0.19278070  1.0
  Y  Y221  1  0.65508400  0.66666667  0.19278070  1.0
  Y  Y222  1  0.98841733  0.00000000  0.19278070  1.0
  Y  Y223  1  0.98841733  0.33333333  0.19278070  1.0
  Y  Y224  1  0.98841733  0.66666667  0.19278070  1.0
  Y  Y225  1  0.06962400  0.21912767  0.06571090  1.0
  Y  Y226  1  0.06962400  0.55246100  0.06571090  1.0
  Y  Y227  1  0.06962400  0.88579433  0.06571090  1.0
  Y  Y228  1  0.40295733  0.21912767  0.06571090  1.0
  Y  Y229  1  0.40295733  0.55246100  0.06571090  1.0
  Y  Y230  1  0.40295733  0.88579433  0.06571090  1.0
  Y  Y231  1  0.73629067  0.21912767  0.06571090  1.0
  Y  Y232  1  0.73629067  0.55246100  0.06571090  1.0
  Y  Y233  1  0.73629067  0.88579433  0.06571090  1.0
  Y  Y234  1  0.06450000  0.19193233  0.10142990  1.0
  Y  Y235  1  0.06450000  0.52526567  0.10142990  1.0
  Y  Y236  1  0.06450000  0.85859900  0.10142990  1.0
  Y  Y237  1  0.39783333  0.19193233  0.10142990  1.0
  Y  Y238  1  0.39783333  0.52526567  0.10142990  1.0
  Y  Y239  1  0.39783333  0.85859900  0.10142990  1.0
  Y  Y240  1  0.73116667  0.19193233  0.10142990  1.0
  Y  Y241  1  0.73116667  0.52526567  0.10142990  1.0
  Y  Y242  1  0.73116667  0.85859900  0.10142990  1.0
  Y  Y243  1  0.11190600  0.27287100  0.15912670  1.0
  Y  Y244  1  0.11190600  0.60620433  0.15912670  1.0
  Y  Y245  1  0.11190600  0.93953767  0.15912670  1.0
  Y  Y246  1  0.44523933  0.27287100  0.15912670  1.0
  Y  Y247  1  0.44523933  0.60620433  0.15912670  1.0
  Y  Y248  1  0.44523933  0.93953767  0.15912670  1.0
  Y  Y249  1  0.77857267  0.27287100  0.15912670  1.0
  Y  Y250  1  0.77857267  0.60620433  0.15912670  1.0
  Y  Y251  1  0.77857267  0.93953767  0.15912670  1.0
  Y  Y252  1  0.10611933  0.00000000  0.06340190  1.0
  Y  Y253  1  0.10611933  0.33333333  0.06340190  1.0
  Y  Y254  1  0.10611933  0.66666667  0.06340190  1.0
  Y  Y255  1  0.43945267  0.00000000  0.06340190  1.0
  Y  Y256  1  0.43945267  0.33333333  0.06340190  1.0
  Y  Y257  1  0.43945267  0.66666667  0.06340190  1.0
  Y  Y258  1  0.77278600  0.00000000  0.06340190  1.0
  Y  Y259  1  0.77278600  0.33333333  0.06340190  1.0
  Y  Y260  1  0.77278600  0.66666667  0.06340190  1.0
  Y  Y261  1  0.10266533  0.08815000  0.11763230  1.0
  Y  Y262  1  0.10266533  0.42148333  0.11763230  1.0
  Y  Y263  1  0.10266533  0.75481667  0.11763230  1.0
  Y  Y264  1  0.43599867  0.08815000  0.11763230  1.0
  Y  Y265  1  0.43599867  0.42148333  0.11763230  1.0
  Y  Y266  1  0.43599867  0.75481667  0.11763230  1.0
  Y  Y267  1  0.76933200  0.08815000  0.11763230  1.0
  Y  Y268  1  0.76933200  0.42148333  0.11763230  1.0
  Y  Y269  1  0.76933200  0.75481667  0.11763230  1.0
  Y  Y270  1  0.27857267  0.14379567  0.04033390  1.0
  Y  Y271  1  0.27857267  0.47712900  0.04033390  1.0
  Y  Y272  1  0.27857267  0.81046233  0.04033390  1.0
  Y  Y273  1  0.61190600  0.14379567  0.04033390  1.0
  Y  Y274  1  0.61190600  0.47712900  0.04033390  1.0
  Y  Y275  1  0.61190600  0.81046233  0.04033390  1.0
  Y  Y276  1  0.94523933  0.14379567  0.04033390  1.0
  Y  Y277  1  0.94523933  0.47712900  0.04033390  1.0
  Y  Y278  1  0.94523933  0.81046233  0.04033390  1.0
  Y  Y279  1  0.27278600  0.08333333  0.13605870  1.0
  Y  Y280  1  0.27278600  0.41666667  0.13605870  1.0
  Y  Y281  1  0.27278600  0.75000000  0.13605870  1.0
  Y  Y282  1  0.60611933  0.08333333  0.13605870  1.0
  Y  Y283  1  0.60611933  0.41666667  0.13605870  1.0
  Y  Y284  1  0.60611933  0.75000000  0.13605870  1.0
  Y  Y285  1  0.93945267  0.08333333  0.13605870  1.0
  Y  Y286  1  0.93945267  0.41666667  0.13605870  1.0
  Y  Y287  1  0.93945267  0.75000000  0.13605870  1.0
  Y  Y288  1  0.01158267  0.16666667  0.00667990  1.0
  Y  Y289  1  0.01158267  0.50000000  0.00667990  1.0
  Y  Y290  1  0.01158267  0.83333333  0.00667990  1.0
  Y  Y291  1  0.34491600  0.16666667  0.00667990  1.0
  Y  Y292  1  0.34491600  0.50000000  0.00667990  1.0
  Y  Y293  1  0.34491600  0.83333333  0.00667990  1.0
  Y  Y294  1  0.67824933  0.16666667  0.00667990  1.0
  Y  Y295  1  0.67824933  0.50000000  0.00667990  1.0
  Y  Y296  1  0.67824933  0.83333333  0.00667990  1.0
  Y  Y297  1  0.02020333  0.24518333  0.15554950  1.0
  Y  Y298  1  0.02020333  0.57851667  0.15554950  1.0
  Y  Y299  1  0.02020333  0.91185000  0.15554950  1.0
  Y  Y300  1  0.35353667  0.24518333  0.15554950  1.0
  Y  Y301  1  0.35353667  0.57851667  0.15554950  1.0
  Y  Y302  1  0.35353667  0.91185000  0.15554950  1.0
  Y  Y303  1  0.68687000  0.24518333  0.15554950  1.0
  Y  Y304  1  0.68687000  0.57851667  0.15554950  1.0
  Y  Y305  1  0.68687000  0.91185000  0.15554950  1.0
  Y  Y306  1  0.04769867  0.10859900  0.06874910  1.0
  Y  Y307  1  0.04769867  0.44193233  0.06874910  1.0
  Y  Y308  1  0.04769867  0.77526567  0.06874910  1.0
  Y  Y309  1  0.38103200  0.10859900  0.06874910  1.0
  Y  Y310  1  0.38103200  0.44193233  0.06874910  1.0
  Y  Y311  1  0.38103200  0.77526567  0.06874910  1.0
  Y  Y312  1  0.71436533  0.10859900  0.06874910  1.0
  Y  Y313  1  0.71436533  0.44193233  0.06874910  1.0
  Y  Y314  1  0.71436533  0.77526567  0.06874910  1.0
  Y  Y315  1  0.05325200  0.06046233  0.13942870  1.0
  Y  Y316  1  0.05325200  0.39379567  0.13942870  1.0
  Y  Y317  1  0.05325200  0.72712900  0.13942870  1.0
  Y  Y318  1  0.38658533  0.06046233  0.13942870  1.0
  Y  Y319  1  0.38658533  0.39379567  0.13942870  1.0
  Y  Y320  1  0.38658533  0.72712900  0.13942870  1.0
  Y  Y321  1  0.71991867  0.06046233  0.13942870  1.0
  Y  Y322  1  0.71991867  0.39379567  0.13942870  1.0
  Y  Y323  1  0.71991867  0.72712900  0.13942870  1.0
  Y  Y324  1  0.26933200  0.32851667  0.08182830  1.0
  Y  Y325  1  0.26933200  0.66185000  0.08182830  1.0
  Y  Y326  1  0.26933200  0.99518333  0.08182830  1.0
  Y  Y327  1  0.60266533  0.32851667  0.08182830  1.0
  Y  Y328  1  0.60266533  0.66185000  0.08182830  1.0
  Y  Y329  1  0.60266533  0.99518333  0.08182830  1.0
  Y  Y330  1  0.93599867  0.32851667  0.08182830  1.0
  Y  Y331  1  0.93599867  0.66185000  0.08182830  1.0
  Y  Y332  1  0.93599867  0.99518333  0.08182830  1.0
  Y  Y333  1  0.23629067  0.19753900  0.13374970  1.0
  Y  Y334  1  0.23629067  0.53087233  0.13374970  1.0
  Y  Y335  1  0.23629067  0.86420567  0.13374970  1.0
  Y  Y336  1  0.56962400  0.19753900  0.13374970  1.0
  Y  Y337  1  0.56962400  0.53087233  0.13374970  1.0
  Y  Y338  1  0.56962400  0.86420567  0.13374970  1.0
  Y  Y339  1  0.90295733  0.19753900  0.13374970  1.0
  Y  Y340  1  0.90295733  0.53087233  0.13374970  1.0
  Y  Y341  1  0.90295733  0.86420567  0.13374970  1.0
  Y  Y342  1  0.06400133  0.16185000  0.10607230  1.0
  Y  Y343  1  0.06400133  0.49518333  0.10607230  1.0
  Y  Y344  1  0.06400133  0.82851667  0.10607230  1.0
  Y  Y345  1  0.39733467  0.16185000  0.10607230  1.0
  Y  Y346  1  0.39733467  0.49518333  0.10607230  1.0
  Y  Y347  1  0.39733467  0.82851667  0.10607230  1.0
  Y  Y348  1  0.73066800  0.16185000  0.10607230  1.0
  Y  Y349  1  0.73066800  0.49518333  0.10607230  1.0
  Y  Y350  1  0.73066800  0.82851667  0.10607230  1.0
  Y  Y351  1  0.18687000  0.17148333  0.04391110  1.0
  Y  Y352  1  0.18687000  0.50481667  0.04391110  1.0
  Y  Y353  1  0.18687000  0.83815000  0.04391110  1.0
  Y  Y354  1  0.52020333  0.17148333  0.04391110  1.0
  Y  Y355  1  0.52020333  0.50481667  0.04391110  1.0
  Y  Y356  1  0.52020333  0.83815000  0.04391110  1.0
  Y  Y357  1  0.85353667  0.17148333  0.04391110  1.0
  Y  Y358  1  0.85353667  0.50481667  0.04391110  1.0
  Y  Y359  1  0.85353667  0.83815000  0.04391110  1.0
  Y  Y360  1  0.26883333  0.02526567  0.15866830  1.0
  Y  Y361  1  0.26883333  0.35859900  0.15866830  1.0
  Y  Y362  1  0.26883333  0.69193233  0.15866830  1.0
  Y  Y363  1  0.60216667  0.02526567  0.15866830  1.0
  Y  Y364  1  0.60216667  0.35859900  0.15866830  1.0
  Y  Y365  1  0.60216667  0.69193233  0.15866830  1.0
  Y  Y366  1  0.93550000  0.02526567  0.15866830  1.0
  Y  Y367  1  0.93550000  0.35859900  0.15866830  1.0
  Y  Y368  1  0.93550000  0.69193233  0.15866830  1.0
  Y  Y369  1  0.05455900  0.02977133  0.03767870  1.0
  Y  Y370  1  0.05455900  0.36310467  0.03767870  1.0
  Y  Y371  1  0.05455900  0.69643800  0.03767870  1.0
  Y  Y372  1  0.38789233  0.02977133  0.03767870  1.0
  Y  Y373  1  0.38789233  0.36310467  0.03767870  1.0
  Y  Y374  1  0.38789233  0.69643800  0.03767870  1.0
  Y  Y375  1  0.72122567  0.02977133  0.03767870  1.0
  Y  Y376  1  0.72122567  0.36310467  0.03767870  1.0
  Y  Y377  1  0.72122567  0.69643800  0.03767870  1.0
  Y  Y378  1  0.11210767  0.22022867  0.16622750  1.0
  Y  Y379  1  0.11210767  0.55356200  0.16622750  1.0
  Y  Y380  1  0.11210767  0.88689533  0.16622750  1.0
  Y  Y381  1  0.44544100  0.22022867  0.16622750  1.0
  Y  Y382  1  0.44544100  0.55356200  0.16622750  1.0
  Y  Y383  1  0.44544100  0.88689533  0.16622750  1.0
  Y  Y384  1  0.77877433  0.22022867  0.16622750  1.0
  Y  Y385  1  0.77877433  0.55356200  0.16622750  1.0
  Y  Y386  1  0.77877433  0.88689533  0.16622750  1.0
  Y  Y387  1  0.26370933  0.05246100  0.05965610  1.0
  Y  Y388  1  0.26370933  0.38579433  0.05965610  1.0
  Y  Y389  1  0.26370933  0.71912767  0.05965610  1.0
  Y  Y390  1  0.59704267  0.05246100  0.05965610  1.0
  Y  Y391  1  0.59704267  0.38579433  0.05965610  1.0
  Y  Y392  1  0.59704267  0.71912767  0.05965610  1.0
  Y  Y393  1  0.93037600  0.05246100  0.05965610  1.0
  Y  Y394  1  0.93037600  0.38579433  0.05965610  1.0
  Y  Y395  1  0.93037600  0.71912767  0.05965610  1.0
  Y  Y396  1  0.17171233  0.30246100  0.02090910  1.0
  Y  Y397  1  0.17171233  0.63579433  0.02090910  1.0
  Y  Y398  1  0.17171233  0.96912767  0.02090910  1.0
  Y  Y399  1  0.50504567  0.30246100  0.02090910  1.0
  Y  Y400  1  0.50504567  0.63579433  0.02090910  1.0
  Y  Y401  1  0.50504567  0.96912767  0.02090910  1.0
  Y  Y402  1  0.83837900  0.30246100  0.02090910  1.0
  Y  Y403  1  0.83837900  0.63579433  0.02090910  1.0
  Y  Y404  1  0.83837900  0.96912767  0.02090910  1.0
  Y  Y405  1  0.32828767  0.28087233  0.09500270  1.0
  Y  Y406  1  0.32828767  0.61420567  0.09500270  1.0
  Y  Y407  1  0.32828767  0.94753900  0.09500270  1.0
  Y  Y408  1  0.66162100  0.28087233  0.09500270  1.0
  Y  Y409  1  0.66162100  0.61420567  0.09500270  1.0
  Y  Y410  1  0.66162100  0.94753900  0.09500270  1.0
  Y  Y411  1  0.99495433  0.28087233  0.09500270  1.0
  Y  Y412  1  0.99495433  0.61420567  0.09500270  1.0
  Y  Y413  1  0.99495433  0.94753900  0.09500270  1.0
  Y  Y414  1  0.11896800  0.14140100  0.00811150  1.0
  Y  Y415  1  0.11896800  0.47473433  0.00811150  1.0
  Y  Y416  1  0.11896800  0.80806767  0.00811150  1.0
  Y  Y417  1  0.45230133  0.14140100  0.00811150  1.0
  Y  Y418  1  0.45230133  0.47473433  0.00811150  1.0
  Y  Y419  1  0.45230133  0.80806767  0.00811150  1.0
  Y  Y420  1  0.78563467  0.14140100  0.00811150  1.0
  Y  Y421  1  0.78563467  0.47473433  0.00811150  1.0
  Y  Y422  1  0.78563467  0.80806767  0.00811150  1.0
  Y  Y423  1  0.10216667  0.05806767  0.04079230  1.0
  Y  Y424  1  0.10216667  0.39140100  0.04079230  1.0
  Y  Y425  1  0.10216667  0.72473433  0.04079230  1.0
  Y  Y426  1  0.43550000  0.05806767  0.04079230  1.0
  Y  Y427  1  0.43550000  0.39140100  0.04079230  1.0
  Y  Y428  1  0.43550000  0.72473433  0.04079230  1.0
  Y  Y429  1  0.76883333  0.05806767  0.04079230  1.0
  Y  Y430  1  0.76883333  0.39140100  0.04079230  1.0
  Y  Y431  1  0.76883333  0.72473433  0.04079230  1.0
  Ni  Ni432  1  0.21784467  0.28529400  0.14442990  1.0
  Ni  Ni433  1  0.21784467  0.61862733  0.14442990  1.0
  Ni  Ni434  1  0.21784467  0.95196067  0.14442990  1.0
  Ni  Ni435  1  0.55117800  0.28529400  0.14442990  1.0
  Ni  Ni436  1  0.55117800  0.61862733  0.14442990  1.0
  Ni  Ni437  1  0.55117800  0.95196067  0.14442990  1.0
  Ni  Ni438  1  0.88451133  0.28529400  0.14442990  1.0
  Ni  Ni439  1  0.88451133  0.61862733  0.14442990  1.0
  Ni  Ni440  1  0.88451133  0.95196067  0.14442990  1.0
  Ni  Ni441  1  0.20860267  0.32543933  0.01083690  1.0
  Ni  Ni442  1  0.20860267  0.65877267  0.01083690  1.0
  Ni  Ni443  1  0.20860267  0.99210600  0.01083690  1.0
  Ni  Ni444  1  0.54193600  0.32543933  0.01083690  1.0
  Ni  Ni445  1  0.54193600  0.65877267  0.01083690  1.0
  Ni  Ni446  1  0.54193600  0.99210600  0.01083690  1.0
  Ni  Ni447  1  0.87526933  0.32543933  0.01083690  1.0
  Ni  Ni448  1  0.87526933  0.65877267  0.01083690  1.0
  Ni  Ni449  1  0.87526933  0.99210600  0.01083690  1.0
  Ni  Ni450  1  0.13236767  0.24210600  0.11541910  1.0
  Ni  Ni451  1  0.13236767  0.57543933  0.11541910  1.0
  Ni  Ni452  1  0.13236767  0.90877267  0.11541910  1.0
  Ni  Ni453  1  0.46570100  0.24210600  0.11541910  1.0
  Ni  Ni454  1  0.46570100  0.57543933  0.11541910  1.0
  Ni  Ni455  1  0.46570100  0.90877267  0.11541910  1.0
  Ni  Ni456  1  0.79903433  0.24210600  0.11541910  1.0
  Ni  Ni457  1  0.79903433  0.57543933  0.11541910  1.0
  Ni  Ni458  1  0.79903433  0.90877267  0.11541910  1.0
  Ni  Ni459  1  0.16275533  0.20196067  0.07278990  1.0
  Ni  Ni460  1  0.16275533  0.53529400  0.07278990  1.0
  Ni  Ni461  1  0.16275533  0.86862733  0.07278990  1.0
  Ni  Ni462  1  0.49608867  0.20196067  0.07278990  1.0
  Ni  Ni463  1  0.49608867  0.53529400  0.07278990  1.0
  Ni  Ni464  1  0.49608867  0.86862733  0.07278990  1.0
  Ni  Ni465  1  0.82942200  0.20196067  0.07278990  1.0
  Ni  Ni466  1  0.82942200  0.53529400  0.07278990  1.0
  Ni  Ni467  1  0.82942200  0.86862733  0.07278990  1.0
  Ni  Ni468  1  0.06361267  0.26622033  0.02147150  1.0
  Ni  Ni469  1  0.06361267  0.59955367  0.02147150  1.0
  Ni  Ni470  1  0.06361267  0.93288700  0.02147150  1.0
  Ni  Ni471  1  0.39694600  0.26622033  0.02147150  1.0
  Ni  Ni472  1  0.39694600  0.59955367  0.02147150  1.0
  Ni  Ni473  1  0.39694600  0.93288700  0.02147150  1.0
  Ni  Ni474  1  0.73027933  0.26622033  0.02147150  1.0
  Ni  Ni475  1  0.73027933  0.59955367  0.02147150  1.0
  Ni  Ni476  1  0.73027933  0.93288700  0.02147150  1.0
  Ni  Ni477  1  0.23027933  0.15044633  0.17798910  1.0
  Ni  Ni478  1  0.23027933  0.48377967  0.17798910  1.0
  Ni  Ni479  1  0.23027933  0.81711300  0.17798910  1.0
  Ni  Ni480  1  0.56361267  0.15044633  0.17798910  1.0
  Ni  Ni481  1  0.56361267  0.48377967  0.17798910  1.0
  Ni  Ni482  1  0.56361267  0.81711300  0.17798910  1.0
  Ni  Ni483  1  0.89694600  0.15044633  0.17798910  1.0
  Ni  Ni484  1  0.89694600  0.48377967  0.17798910  1.0
  Ni  Ni485  1  0.89694600  0.81711300  0.17798910  1.0
  Ni  Ni486  1  0.05117800  0.13137267  0.05503070  1.0
  Ni  Ni487  1  0.05117800  0.46470600  0.05503070  1.0
  Ni  Ni488  1  0.05117800  0.79803933  0.05503070  1.0
  Ni  Ni489  1  0.38451133  0.13137267  0.05503070  1.0
  Ni  Ni490  1  0.38451133  0.46470600  0.05503070  1.0
  Ni  Ni491  1  0.38451133  0.79803933  0.05503070  1.0
  Ni  Ni492  1  0.71784467  0.13137267  0.05503070  1.0
  Ni  Ni493  1  0.71784467  0.46470600  0.05503070  1.0
  Ni  Ni494  1  0.71784467  0.79803933  0.05503070  1.0
  Ni  Ni495  1  0.10305400  0.31711300  0.18254270  1.0
  Ni  Ni496  1  0.10305400  0.65044633  0.18254270  1.0
  Ni  Ni497  1  0.10305400  0.98377967  0.18254270  1.0
  Ni  Ni498  1  0.43638733  0.31711300  0.18254270  1.0
  Ni  Ni499  1  0.43638733  0.65044633  0.18254270  1.0
  Ni  Ni500  1  0.43638733  0.98377967  0.18254270  1.0
  Ni  Ni501  1  0.76972067  0.31711300  0.18254270  1.0
  Ni  Ni502  1  0.76972067  0.65044633  0.18254270  1.0
  Ni  Ni503  1  0.76972067  0.98377967  0.18254270  1.0
  Ni  Ni504  1  0.03429900  0.00789400  0.13436470  1.0
  Ni  Ni505  1  0.03429900  0.34122733  0.13436470  1.0
  Ni  Ni506  1  0.03429900  0.67456067  0.13436470  1.0
  Ni  Ni507  1  0.36763233  0.00789400  0.13436470  1.0
  Ni  Ni508  1  0.36763233  0.34122733  0.13436470  1.0
  Ni  Ni509  1  0.36763233  0.67456067  0.13436470  1.0
  Ni  Ni510  1  0.70096567  0.00789400  0.13436470  1.0
  Ni  Ni511  1  0.70096567  0.34122733  0.13436470  1.0
  Ni  Ni512  1  0.70096567  0.67456067  0.13436470  1.0
  Ni  Ni513  1  0.28215533  0.29803933  0.05972430  1.0
  Ni  Ni514  1  0.28215533  0.63137267  0.05972430  1.0
  Ni  Ni515  1  0.28215533  0.96470600  0.05972430  1.0
  Ni  Ni516  1  0.61548867  0.29803933  0.05972430  1.0
  Ni  Ni517  1  0.61548867  0.63137267  0.05972430  1.0
  Ni  Ni518  1  0.61548867  0.96470600  0.05972430  1.0
  Ni  Ni519  1  0.94882200  0.29803933  0.05972430  1.0
  Ni  Ni520  1  0.94882200  0.63137267  0.05972430  1.0
  Ni  Ni521  1  0.94882200  0.96470600  0.05972430  1.0
  Ni  Ni522  1  0.11548867  0.11862733  0.13973630  1.0
  Ni  Ni523  1  0.11548867  0.45196067  0.13973630  1.0
  Ni  Ni524  1  0.11548867  0.78529400  0.13973630  1.0
  Ni  Ni525  1  0.44882200  0.11862733  0.13973630  1.0
  Ni  Ni526  1  0.44882200  0.45196067  0.13973630  1.0
  Ni  Ni527  1  0.44882200  0.78529400  0.13973630  1.0
  Ni  Ni528  1  0.78215533  0.11862733  0.13973630  1.0
  Ni  Ni529  1  0.78215533  0.45196067  0.13973630  1.0
  Ni  Ni530  1  0.78215533  0.78529400  0.13973630  1.0
  Ni  Ni531  1  0.17046133  0.06711300  0.11843350  1.0
  Ni  Ni532  1  0.17046133  0.40044633  0.11843350  1.0
  Ni  Ni533  1  0.17046133  0.73377967  0.11843350  1.0
  Ni  Ni534  1  0.50379467  0.06711300  0.11843350  1.0
  Ni  Ni535  1  0.50379467  0.40044633  0.11843350  1.0
  Ni  Ni536  1  0.50379467  0.73377967  0.11843350  1.0
  Ni  Ni537  1  0.83712800  0.06711300  0.11843350  1.0
  Ni  Ni538  1  0.83712800  0.40044633  0.11843350  1.0
  Ni  Ni539  1  0.83712800  0.73377967  0.11843350  1.0
  Ni  Ni540  1  0.16287200  0.23377967  0.04209830  1.0
  Ni  Ni541  1  0.16287200  0.56711300  0.04209830  1.0
  Ni  Ni542  1  0.16287200  0.90044633  0.04209830  1.0
  Ni  Ni543  1  0.49620533  0.23377967  0.04209830  1.0
  Ni  Ni544  1  0.49620533  0.56711300  0.04209830  1.0
  Ni  Ni545  1  0.49620533  0.90044633  0.04209830  1.0
  Ni  Ni546  1  0.82953867  0.23377967  0.04209830  1.0
  Ni  Ni547  1  0.82953867  0.56711300  0.04209830  1.0
  Ni  Ni548  1  0.82953867  0.90044633  0.04209830  1.0
  Ni  Ni549  1  0.00391133  0.04803933  0.18808430  1.0
  Ni  Ni550  1  0.00391133  0.38137267  0.18808430  1.0
  Ni  Ni551  1  0.00391133  0.71470600  0.18808430  1.0
  Ni  Ni552  1  0.33724467  0.04803933  0.18808430  1.0
  Ni  Ni553  1  0.33724467  0.38137267  0.18808430  1.0
  Ni  Ni554  1  0.33724467  0.71470600  0.18808430  1.0
  Ni  Ni555  1  0.67057800  0.04803933  0.18808430  1.0
  Ni  Ni556  1  0.67057800  0.38137267  0.18808430  1.0
  Ni  Ni557  1  0.67057800  0.71470600  0.18808430  1.0
  Ni  Ni558  1  0.10638300  0.29466433  0.14236470  1.0
  Ni  Ni559  1  0.10638300  0.62799767  0.14236470  1.0
  Ni  Ni560  1  0.10638300  0.96133100  0.14236470  1.0
  Ni  Ni561  1  0.43971633  0.29466433  0.14236470  1.0
  Ni  Ni562  1  0.43971633  0.62799767  0.14236470  1.0
  Ni  Ni563  1  0.43971633  0.96133100  0.14236470  1.0
  Ni  Ni564  1  0.77304967  0.29466433  0.14236470  1.0
  Ni  Ni565  1  0.77304967  0.62799767  0.14236470  1.0
  Ni  Ni566  1  0.77304967  0.96133100  0.14236470  1.0
  Ni  Ni567  1  0.04193600  0.09122733  0.18862370  1.0
  Ni  Ni568  1  0.04193600  0.42456067  0.18862370  1.0
  Ni  Ni569  1  0.04193600  0.75789400  0.18862370  1.0
  Ni  Ni570  1  0.37526933  0.09122733  0.18862370  1.0
  Ni  Ni571  1  0.37526933  0.42456067  0.18862370  1.0
  Ni  Ni572  1  0.37526933  0.75789400  0.18862370  1.0
  Ni  Ni573  1  0.70860267  0.09122733  0.18862370  1.0
  Ni  Ni574  1  0.70860267  0.42456067  0.18862370  1.0
  Ni  Ni575  1  0.70860267  0.75789400  0.18862370  1.0
  Ni  Ni576  1  0.26972067  0.09955367  0.01691790  1.0
  Ni  Ni577  1  0.26972067  0.43288700  0.01691790  1.0
  Ni  Ni578  1  0.26972067  0.76622033  0.01691790  1.0
  Ni  Ni579  1  0.60305400  0.09955367  0.01691790  1.0
  Ni  Ni580  1  0.60305400  0.43288700  0.01691790  1.0
  Ni  Ni581  1  0.60305400  0.76622033  0.01691790  1.0
  Ni  Ni582  1  0.93638733  0.09955367  0.01691790  1.0
  Ni  Ni583  1  0.93638733  0.43288700  0.01691790  1.0
  Ni  Ni584  1  0.93638733  0.76622033  0.01691790  1.0
  Ni  Ni585  1  0.22695033  0.12799767  0.16429030  1.0
  Ni  Ni586  1  0.22695033  0.46133100  0.16429030  1.0
  Ni  Ni587  1  0.22695033  0.79466433  0.16429030  1.0
  Ni  Ni588  1  0.56028367  0.12799767  0.16429030  1.0
  Ni  Ni589  1  0.56028367  0.46133100  0.16429030  1.0
  Ni  Ni590  1  0.56028367  0.79466433  0.16429030  1.0
  Ni  Ni591  1  0.89361700  0.12799767  0.16429030  1.0
  Ni  Ni592  1  0.89361700  0.46133100  0.16429030  1.0
  Ni  Ni593  1  0.89361700  0.79466433  0.16429030  1.0
  Ni  Ni594  1  0.12473067  0.15877267  0.16967810  1.0
  Ni  Ni595  1  0.12473067  0.49210600  0.16967810  1.0
  Ni  Ni596  1  0.12473067  0.82543933  0.16967810  1.0
  Ni  Ni597  1  0.45806400  0.15877267  0.16967810  1.0
  Ni  Ni598  1  0.45806400  0.49210600  0.16967810  1.0
  Ni  Ni599  1  0.45806400  0.82543933  0.16967810  1.0
  Ni  Ni600  1  0.79139733  0.15877267  0.16967810  1.0
  Ni  Ni601  1  0.79139733  0.49210600  0.16967810  1.0
  Ni  Ni602  1  0.79139733  0.82543933  0.16967810  1.0
  Ni  Ni603  1  0.32953867  0.18288700  0.15736230  1.0
  Ni  Ni604  1  0.32953867  0.51622033  0.15736230  1.0
  Ni  Ni605  1  0.32953867  0.84955367  0.15736230  1.0
  Ni  Ni606  1  0.66287200  0.18288700  0.15736230  1.0
  Ni  Ni607  1  0.66287200  0.51622033  0.15736230  1.0
  Ni  Ni608  1  0.66287200  0.84955367  0.15736230  1.0
  Ni  Ni609  1  0.99620533  0.18288700  0.15736230  1.0
  Ni  Ni610  1  0.99620533  0.51622033  0.15736230  1.0
  Ni  Ni611  1  0.99620533  0.84955367  0.15736230  1.0
  Ni  Ni612  1  0.29139733  0.25789400  0.02978250  1.0
  Ni  Ni613  1  0.29139733  0.59122733  0.02978250  1.0
  Ni  Ni614  1  0.29139733  0.92456067  0.02978250  1.0
  Ni  Ni615  1  0.62473067  0.25789400  0.02978250  1.0
  Ni  Ni616  1  0.62473067  0.59122733  0.02978250  1.0
  Ni  Ni617  1  0.62473067  0.92456067  0.02978250  1.0
  Ni  Ni618  1  0.95806400  0.25789400  0.02978250  1.0
  Ni  Ni619  1  0.95806400  0.59122733  0.02978250  1.0
  Ni  Ni620  1  0.95806400  0.92456067  0.02978250  1.0
  Ni  Ni621  1  0.32942200  0.21470600  0.12667070  1.0
  Ni  Ni622  1  0.32942200  0.54803933  0.12667070  1.0
  Ni  Ni623  1  0.32942200  0.88137267  0.12667070  1.0
  Ni  Ni624  1  0.66275533  0.21470600  0.12667070  1.0
  Ni  Ni625  1  0.66275533  0.54803933  0.12667070  1.0
  Ni  Ni626  1  0.66275533  0.88137267  0.12667070  1.0
  Ni  Ni627  1  0.99608867  0.21470600  0.12667070  1.0
  Ni  Ni628  1  0.99608867  0.54803933  0.12667070  1.0
  Ni  Ni629  1  0.99608867  0.88137267  0.12667070  1.0
  Ni  Ni630  1  0.18493800  0.21133100  0.01715730  1.0
  Ni  Ni631  1  0.18493800  0.54466433  0.01715730  1.0
  Ni  Ni632  1  0.18493800  0.87799767  0.01715730  1.0
  Ni  Ni633  1  0.51827133  0.21133100  0.01715730  1.0
  Ni  Ni634  1  0.51827133  0.54466433  0.01715730  1.0
  Ni  Ni635  1  0.51827133  0.87799767  0.01715730  1.0
  Ni  Ni636  1  0.85160467  0.21133100  0.01715730  1.0
  Ni  Ni637  1  0.85160467  0.54466433  0.01715730  1.0
  Ni  Ni638  1  0.85160467  0.87799767  0.01715730  1.0
  Ni  Ni639  1  0.31506200  0.03866900  0.10996290  1.0
  Ni  Ni640  1  0.31506200  0.37200233  0.10996290  1.0
  Ni  Ni641  1  0.31506200  0.70533567  0.10996290  1.0
  Ni  Ni642  1  0.64839533  0.03866900  0.10996290  1.0
  Ni  Ni643  1  0.64839533  0.37200233  0.10996290  1.0
  Ni  Ni644  1  0.64839533  0.70533567  0.10996290  1.0
  Ni  Ni645  1  0.98172867  0.03866900  0.10996290  1.0
  Ni  Ni646  1  0.98172867  0.37200233  0.10996290  1.0
  Ni  Ni647  1  0.98172867  0.70533567  0.10996290  1.0
  Ni  Ni648  1  0.01827133  0.20533567  0.18230330  1.0
  Ni  Ni649  1  0.01827133  0.53866900  0.18230330  1.0
  Ni  Ni650  1  0.01827133  0.87200233  0.18230330  1.0
  Ni  Ni651  1  0.35160467  0.20533567  0.18230330  1.0
  Ni  Ni652  1  0.35160467  0.53866900  0.18230330  1.0
  Ni  Ni653  1  0.35160467  0.87200233  0.18230330  1.0
  Ni  Ni654  1  0.68493800  0.20533567  0.18230330  1.0
  Ni  Ni655  1  0.68493800  0.53866900  0.18230330  1.0
  Ni  Ni656  1  0.68493800  0.87200233  0.18230330  1.0
  Ni  Ni657  1  0.29903433  0.17456067  0.08404150  1.0
  Ni  Ni658  1  0.29903433  0.50789400  0.08404150  1.0
  Ni  Ni659  1  0.29903433  0.84122733  0.08404150  1.0
  Ni  Ni660  1  0.63236767  0.17456067  0.08404150  1.0
  Ni  Ni661  1  0.63236767  0.50789400  0.08404150  1.0
  Ni  Ni662  1  0.63236767  0.84122733  0.08404150  1.0
  Ni  Ni663  1  0.96570100  0.17456067  0.08404150  1.0
  Ni  Ni664  1  0.96570100  0.50789400  0.08404150  1.0
  Ni  Ni665  1  0.96570100  0.84122733  0.08404150  1.0
  Ni  Ni666  1  0.27304967  0.12200233  0.05709590  1.0
  Ni  Ni667  1  0.27304967  0.45533567  0.05709590  1.0
  Ni  Ni668  1  0.27304967  0.78866900  0.05709590  1.0
  Ni  Ni669  1  0.60638300  0.12200233  0.05709590  1.0
  Ni  Ni670  1  0.60638300  0.45533567  0.05709590  1.0
  Ni  Ni671  1  0.60638300  0.78866900  0.05709590  1.0
  Ni  Ni672  1  0.93971633  0.12200233  0.05709590  1.0
  Ni  Ni673  1  0.93971633  0.45533567  0.05709590  1.0
  Ni  Ni674  1  0.93971633  0.78866900  0.05709590  1.0
  Ni  Ni675  1  0.14839533  0.04466433  0.08949770  1.0
  Ni  Ni676  1  0.14839533  0.37799767  0.08949770  1.0
  Ni  Ni677  1  0.14839533  0.71133100  0.08949770  1.0
  Ni  Ni678  1  0.48172867  0.04466433  0.08949770  1.0
  Ni  Ni679  1  0.48172867  0.37799767  0.08949770  1.0
  Ni  Ni680  1  0.48172867  0.71133100  0.08949770  1.0
  Ni  Ni681  1  0.81506200  0.04466433  0.08949770  1.0
  Ni  Ni682  1  0.81506200  0.37799767  0.08949770  1.0
  Ni  Ni683  1  0.81506200  0.71133100  0.08949770  1.0
  Ni  Ni684  1  0.00379467  0.01622033  0.08102710  1.0
  Ni  Ni685  1  0.00379467  0.34955367  0.08102710  1.0
  Ni  Ni686  1  0.00379467  0.68288700  0.08102710  1.0
  Ni  Ni687  1  0.33712800  0.01622033  0.08102710  1.0
  Ni  Ni688  1  0.33712800  0.34955367  0.08102710  1.0
  Ni  Ni689  1  0.33712800  0.68288700  0.08102710  1.0
  Ni  Ni690  1  0.67046133  0.01622033  0.08102710  1.0
  Ni  Ni691  1  0.67046133  0.34955367  0.08102710  1.0
  Ni  Ni692  1  0.67046133  0.68288700  0.08102710  1.0
  Ni  Ni693  1  0.06028367  0.28866900  0.03517030  1.0
  Ni  Ni694  1  0.06028367  0.62200233  0.03517030  1.0
  Ni  Ni695  1  0.06028367  0.95533567  0.03517030  1.0
  Ni  Ni696  1  0.39361700  0.28866900  0.03517030  1.0
  Ni  Ni697  1  0.39361700  0.62200233  0.03517030  1.0
  Ni  Ni698  1  0.39361700  0.95533567  0.03517030  1.0
  Ni  Ni699  1  0.72695033  0.28866900  0.03517030  1.0
  Ni  Ni700  1  0.72695033  0.62200233  0.03517030  1.0
  Ni  Ni701  1  0.72695033  0.95533567  0.03517030  1.0
  Ni  Ni702  1  0.20096567  0.07543933  0.06509590  1.0
  Ni  Ni703  1  0.20096567  0.40877267  0.06509590  1.0
  Ni  Ni704  1  0.20096567  0.74210600  0.06509590  1.0
  Ni  Ni705  1  0.53429900  0.07543933  0.06509590  1.0
  Ni  Ni706  1  0.53429900  0.40877267  0.06509590  1.0
  Ni  Ni707  1  0.53429900  0.74210600  0.06509590  1.0
  Ni  Ni708  1  0.86763233  0.07543933  0.06509590  1.0
  Ni  Ni709  1  0.86763233  0.40877267  0.06509590  1.0
  Ni  Ni710  1  0.86763233  0.74210600  0.06509590  1.0
  Ni  Ni711  1  0.17057800  0.03529400  0.01137630  1.0
  Ni  Ni712  1  0.17057800  0.36862733  0.01137630  1.0
  Ni  Ni713  1  0.17057800  0.70196067  0.01137630  1.0
  Ni  Ni714  1  0.50391133  0.03529400  0.01137630  1.0
  Ni  Ni715  1  0.50391133  0.36862733  0.01137630  1.0
  Ni  Ni716  1  0.50391133  0.70196067  0.01137630  1.0
  Ni  Ni717  1  0.83724467  0.03529400  0.01137630  1.0
  Ni  Ni718  1  0.83724467  0.36862733  0.01137630  1.0
  Ni  Ni719  1  0.83724467  0.70196067  0.01137630  1.0
  Y  Y720  1  0.32962867  0.13689533  0.33126930  1.0
  Y  Y721  1  0.32962867  0.47022867  0.33126930  1.0
  Y  Y722  1  0.32962867  0.80356200  0.33126930  1.0
  Y  Y723  1  0.66296200  0.13689533  0.33126930  1.0
  Y  Y724  1  0.66296200  0.47022867  0.33126930  1.0
  Y  Y725  1  0.66296200  0.80356200  0.33126930  1.0
  Y  Y726  1  0.99629533  0.13689533  0.33126930  1.0
  Y  Y727  1  0.99629533  0.47022867  0.33126930  1.0
  Y  Y728  1  0.99629533  0.80356200  0.33126930  1.0
  Y  Y729  1  0.23066800  0.25481667  0.29338830  1.0
  Y  Y730  1  0.23066800  0.58815000  0.29338830  1.0
  Y  Y731  1  0.23066800  0.92148333  0.29338830  1.0
  Y  Y732  1  0.56400133  0.25481667  0.29338830  1.0
  Y  Y733  1  0.56400133  0.58815000  0.29338830  1.0
  Y  Y734  1  0.56400133  0.92148333  0.29338830  1.0
  Y  Y735  1  0.89733467  0.25481667  0.29338830  1.0
  Y  Y736  1  0.89733467  0.58815000  0.29338830  1.0
  Y  Y737  1  0.89733467  0.92148333  0.29338830  1.0
  Y  Y738  1  0.22142733  0.10620433  0.29522430  1.0
  Y  Y739  1  0.22142733  0.43953767  0.29522430  1.0
  Y  Y740  1  0.22142733  0.77287100  0.29522430  1.0
  Y  Y741  1  0.55476067  0.10620433  0.29522430  1.0
  Y  Y742  1  0.55476067  0.43953767  0.29522430  1.0
  Y  Y743  1  0.55476067  0.77287100  0.29522430  1.0
  Y  Y744  1  0.88809400  0.10620433  0.29522430  1.0
  Y  Y745  1  0.88809400  0.43953767  0.29522430  1.0
  Y  Y746  1  0.88809400  0.77287100  0.29522430  1.0
  Y  Y747  1  0.06054733  0.25000000  0.26340190  1.0
  Y  Y748  1  0.06054733  0.58333333  0.26340190  1.0
  Y  Y749  1  0.06054733  0.91666667  0.26340190  1.0
  Y  Y750  1  0.39388067  0.25000000  0.26340190  1.0
  Y  Y751  1  0.39388067  0.58333333  0.26340190  1.0
  Y  Y752  1  0.39388067  0.91666667  0.26340190  1.0
  Y  Y753  1  0.72721400  0.25000000  0.26340190  1.0
  Y  Y754  1  0.72721400  0.58333333  0.26340190  1.0
  Y  Y755  1  0.72721400  0.91666667  0.26340190  1.0
  Y  Y756  1  0.15508400  0.08333333  0.20667990  1.0
  Y  Y757  1  0.15508400  0.41666667  0.20667990  1.0
  Y  Y758  1  0.15508400  0.75000000  0.20667990  1.0
  Y  Y759  1  0.48841733  0.08333333  0.20667990  1.0
  Y  Y760  1  0.48841733  0.41666667  0.20667990  1.0
  Y  Y761  1  0.48841733  0.75000000  0.20667990  1.0
  Y  Y762  1  0.82175067  0.08333333  0.20667990  1.0
  Y  Y763  1  0.82175067  0.41666667  0.20667990  1.0
  Y  Y764  1  0.82175067  0.75000000  0.20667990  1.0
  Y  Y765  1  0.16162100  0.13579433  0.30445790  1.0
  Y  Y766  1  0.16162100  0.46912767  0.30445790  1.0
  Y  Y767  1  0.16162100  0.80246100  0.30445790  1.0
  Y  Y768  1  0.49495433  0.13579433  0.30445790  1.0
  Y  Y769  1  0.49495433  0.46912767  0.30445790  1.0
  Y  Y770  1  0.49495433  0.80246100  0.30445790  1.0
  Y  Y771  1  0.82828767  0.13579433  0.30445790  1.0
  Y  Y772  1  0.82828767  0.46912767  0.30445790  1.0
  Y  Y773  1  0.82828767  0.80246100  0.30445790  1.0
  Y  Y774  1  0.11341467  0.18953767  0.39431910  1.0
  Y  Y775  1  0.11341467  0.52287100  0.39431910  1.0
  Y  Y776  1  0.11341467  0.85620433  0.39431910  1.0
  Y  Y777  1  0.44674800  0.18953767  0.39431910  1.0
  Y  Y778  1  0.44674800  0.52287100  0.39431910  1.0
  Y  Y779  1  0.44674800  0.85620433  0.39431910  1.0
  Y  Y780  1  0.78008133  0.18953767  0.39431910  1.0
  Y  Y781  1  0.78008133  0.52287100  0.39431910  1.0
  Y  Y782  1  0.78008133  0.85620433  0.39431910  1.0
  Y  Y783  1  0.22721400  0.16666667  0.33605870  1.0
  Y  Y784  1  0.22721400  0.50000000  0.33605870  1.0
  Y  Y785  1  0.22721400  0.83333333  0.33605870  1.0
  Y  Y786  1  0.56054733  0.16666667  0.33605870  1.0
  Y  Y787  1  0.56054733  0.50000000  0.33605870  1.0
  Y  Y788  1  0.56054733  0.83333333  0.33605870  1.0
  Y  Y789  1  0.89388067  0.16666667  0.33605870  1.0
  Y  Y790  1  0.89388067  0.50000000  0.33605870  1.0
  Y  Y791  1  0.89388067  0.83333333  0.33605870  1.0
  Y  Y792  1  0.22122567  0.05356200  0.36178190  1.0
  Y  Y793  1  0.22122567  0.38689533  0.36178190  1.0
  Y  Y794  1  0.22122567  0.72022867  0.36178190  1.0
  Y  Y795  1  0.55455900  0.05356200  0.36178190  1.0
  Y  Y796  1  0.55455900  0.38689533  0.36178190  1.0
  Y  Y797  1  0.55455900  0.72022867  0.36178190  1.0
  Y  Y798  1  0.88789233  0.05356200  0.36178190  1.0
  Y  Y799  1  0.88789233  0.38689533  0.36178190  1.0
  Y  Y800  1  0.88789233  0.72022867  0.36178190  1.0
  Y  Y801  1  0.05476067  0.31046233  0.30423630  1.0
  Y  Y802  1  0.05476067  0.64379567  0.30423630  1.0
  Y  Y803  1  0.05476067  0.97712900  0.30423630  1.0
  Y  Y804  1  0.38809400  0.31046233  0.30423630  1.0
  Y  Y805  1  0.38809400  0.64379567  0.30423630  1.0
  Y  Y806  1  0.38809400  0.97712900  0.30423630  1.0
  Y  Y807  1  0.72142733  0.31046233  0.30423630  1.0
  Y  Y808  1  0.72142733  0.64379567  0.30423630  1.0
  Y  Y809  1  0.72142733  0.97712900  0.30423630  1.0
  Y  Y810  1  0.27877433  0.19643800  0.23323310  1.0
  Y  Y811  1  0.27877433  0.52977133  0.23323310  1.0
  Y  Y812  1  0.27877433  0.86310467  0.23323310  1.0
  Y  Y813  1  0.61210767  0.19643800  0.23323310  1.0
  Y  Y814  1  0.61210767  0.52977133  0.23323310  1.0
  Y  Y815  1  0.61210767  0.86310467  0.23323310  1.0
  Y  Y816  1  0.94544100  0.19643800  0.23323310  1.0
  Y  Y817  1  0.94544100  0.52977133  0.23323310  1.0
  Y  Y818  1  0.94544100  0.86310467  0.23323310  1.0
  Y  Y819  1  0.28563467  0.27526567  0.39134910  1.0
  Y  Y820  1  0.28563467  0.60859900  0.39134910  1.0
  Y  Y821  1  0.28563467  0.94193233  0.39134910  1.0
  Y  Y822  1  0.61896800  0.27526567  0.39134910  1.0
  Y  Y823  1  0.61896800  0.60859900  0.39134910  1.0
  Y  Y824  1  0.61896800  0.94193233  0.39134910  1.0
  Y  Y825  1  0.95230133  0.27526567  0.39134910  1.0
  Y  Y826  1  0.95230133  0.60859900  0.39134910  1.0
  Y  Y827  1  0.95230133  0.94193233  0.39134910  1.0
  Y  Y828  1  0.17037133  0.11310467  0.20272050  1.0
  Y  Y829  1  0.17037133  0.44643800  0.20272050  1.0
  Y  Y830  1  0.17037133  0.77977133  0.20272050  1.0
  Y  Y831  1  0.50370467  0.11310467  0.20272050  1.0
  Y  Y832  1  0.50370467  0.44643800  0.20272050  1.0
  Y  Y833  1  0.50370467  0.77977133  0.20272050  1.0
  Y  Y834  1  0.83703800  0.11310467  0.20272050  1.0
  Y  Y835  1  0.83703800  0.44643800  0.20272050  1.0
  Y  Y836  1  0.83703800  0.77977133  0.20272050  1.0
  Y  Y837  1  0.28008133  0.22712900  0.20514150  1.0
  Y  Y838  1  0.28008133  0.56046233  0.20514150  1.0
  Y  Y839  1  0.28008133  0.89379567  0.20514150  1.0
  Y  Y840  1  0.61341467  0.22712900  0.20514150  1.0
  Y  Y841  1  0.61341467  0.56046233  0.20514150  1.0
  Y  Y842  1  0.61341467  0.89379567  0.20514150  1.0
  Y  Y843  1  0.94674800  0.22712900  0.20514150  1.0
  Y  Y844  1  0.94674800  0.56046233  0.20514150  1.0
  Y  Y845  1  0.94674800  0.89379567  0.20514150  1.0
  Y  Y846  1  0.00504567  0.11420567  0.37855150  1.0
  Y  Y847  1  0.00504567  0.44753900  0.37855150  1.0
  Y  Y848  1  0.00504567  0.78087233  0.37855150  1.0
  Y  Y849  1  0.33837900  0.11420567  0.37855150  1.0
  Y  Y850  1  0.33837900  0.44753900  0.37855150  1.0
  Y  Y851  1  0.33837900  0.78087233  0.37855150  1.0
  Y  Y852  1  0.67171233  0.11420567  0.37855150  1.0
  Y  Y853  1  0.67171233  0.44753900  0.37855150  1.0
  Y  Y854  1  0.67171233  0.78087233  0.37855150  1.0
  Y  Y855  1  0.31313000  0.07851667  0.23235110  1.0
  Y  Y856  1  0.31313000  0.41185000  0.23235110  1.0
  Y  Y857  1  0.31313000  0.74518333  0.23235110  1.0
  Y  Y858  1  0.64646333  0.07851667  0.23235110  1.0
  Y  Y859  1  0.64646333  0.41185000  0.23235110  1.0
  Y  Y860  1  0.64646333  0.74518333  0.23235110  1.0
  Y  Y861  1  0.97979667  0.07851667  0.23235110  1.0
  Y  Y862  1  0.97979667  0.41185000  0.23235110  1.0
  Y  Y863  1  0.97979667  0.74518333  0.23235110  1.0
  Y  Y864  1  0.16296200  0.27977133  0.26819130  1.0
  Y  Y865  1  0.16296200  0.61310467  0.26819130  1.0
  Y  Y866  1  0.16296200  0.94643800  0.26819130  1.0
  Y  Y867  1  0.49629533  0.27977133  0.26819130  1.0
  Y  Y868  1  0.49629533  0.61310467  0.26819130  1.0
  Y  Y869  1  0.49629533  0.94643800  0.26819130  1.0
  Y  Y870  1  0.82962867  0.27977133  0.26819130  1.0
  Y  Y871  1  0.82962867  0.61310467  0.26819130  1.0
  Y  Y872  1  0.82962867  0.94643800  0.26819130  1.0
  Y  Y873  1  0.23116667  0.22473433  0.29803070  1.0
  Y  Y874  1  0.23116667  0.55806767  0.29803070  1.0
  Y  Y875  1  0.23116667  0.89140100  0.29803070  1.0
  Y  Y876  1  0.56450000  0.22473433  0.29803070  1.0
  Y  Y877  1  0.56450000  0.55806767  0.29803070  1.0
  Y  Y878  1  0.56450000  0.89140100  0.29803070  1.0
  Y  Y879  1  0.89783333  0.22473433  0.29803070  1.0
  Y  Y880  1  0.89783333  0.55806767  0.29803070  1.0
  Y  Y881  1  0.89783333  0.89140100  0.29803070  1.0
  Y  Y882  1  0.21991867  0.02287100  0.26003190  1.0
  Y  Y883  1  0.21991867  0.35620433  0.26003190  1.0
  Y  Y884  1  0.21991867  0.68953767  0.26003190  1.0
  Y  Y885  1  0.55325200  0.02287100  0.26003190  1.0
  Y  Y886  1  0.55325200  0.35620433  0.26003190  1.0
  Y  Y887  1  0.55325200  0.68953767  0.26003190  1.0
  Y  Y888  1  0.88658533  0.02287100  0.26003190  1.0
  Y  Y889  1  0.88658533  0.35620433  0.26003190  1.0
  Y  Y890  1  0.88658533  0.68953767  0.26003190  1.0
  Y  Y891  1  0.17824933  0.25000000  0.39278070  1.0
  Y  Y892  1  0.17824933  0.58333333  0.39278070  1.0
  Y  Y893  1  0.17824933  0.91666667  0.39278070  1.0
  Y  Y894  1  0.51158267  0.25000000  0.39278070  1.0
  Y  Y895  1  0.51158267  0.58333333  0.39278070  1.0
  Y  Y896  1  0.51158267  0.91666667  0.39278070  1.0
  Y  Y897  1  0.84491600  0.25000000  0.39278070  1.0
  Y  Y898  1  0.84491600  0.58333333  0.39278070  1.0
  Y  Y899  1  0.84491600  0.91666667  0.39278070  1.0
  Y  Y900  1  0.21436533  0.30806767  0.33071150  1.0
  Y  Y901  1  0.21436533  0.64140100  0.33071150  1.0
  Y  Y902  1  0.21436533  0.97473433  0.33071150  1.0
  Y  Y903  1  0.54769867  0.30806767  0.33071150  1.0
  Y  Y904  1  0.54769867  0.64140100  0.33071150  1.0
  Y  Y905  1  0.54769867  0.97473433  0.33071150  1.0
  Y  Y906  1  0.88103200  0.30806767  0.33071150  1.0
  Y  Y907  1  0.88103200  0.64140100  0.33071150  1.0
  Y  Y908  1  0.88103200  0.97473433  0.33071150  1.0
  Y  Y909  1  0.09704267  0.03087233  0.33980450  1.0
  Y  Y910  1  0.09704267  0.36420567  0.33980450  1.0
  Y  Y911  1  0.09704267  0.69753900  0.33980450  1.0
  Y  Y912  1  0.43037600  0.03087233  0.33980450  1.0
  Y  Y913  1  0.43037600  0.36420567  0.33980450  1.0
  Y  Y914  1  0.43037600  0.69753900  0.33980450  1.0
  Y  Y915  1  0.76370933  0.03087233  0.33980450  1.0
  Y  Y916  1  0.76370933  0.36420567  0.33980450  1.0
  Y  Y917  1  0.76370933  0.69753900  0.33980450  1.0
  Y  Y918  1  0.00370467  0.30356200  0.39674010  1.0
  Y  Y919  1  0.00370467  0.63689533  0.39674010  1.0
  Y  Y920  1  0.00370467  0.97022867  0.39674010  1.0
  Y  Y921  1  0.33703800  0.30356200  0.39674010  1.0
  Y  Y922  1  0.33703800  0.63689533  0.39674010  1.0
  Y  Y923  1  0.33703800  0.97022867  0.39674010  1.0
  Y  Y924  1  0.67037133  0.30356200  0.39674010  1.0
  Y  Y925  1  0.67037133  0.63689533  0.39674010  1.0
  Y  Y926  1  0.67037133  0.97022867  0.39674010  1.0
  Y  Y927  1  0.14646333  0.00481667  0.36710950  1.0
  Y  Y928  1  0.14646333  0.33815000  0.36710950  1.0
  Y  Y929  1  0.14646333  0.67148333  0.36710950  1.0
  Y  Y930  1  0.47979667  0.00481667  0.36710950  1.0
  Y  Y931  1  0.47979667  0.33815000  0.36710950  1.0
  Y  Y932  1  0.47979667  0.67148333  0.36710950  1.0
  Y  Y933  1  0.81313000  0.00481667  0.36710950  1.0
  Y  Y934  1  0.81313000  0.33815000  0.36710950  1.0
  Y  Y935  1  0.81313000  0.67148333  0.36710950  1.0
  Y  Y936  1  0.32175067  0.00000000  0.39278070  1.0
  Y  Y937  1  0.32175067  0.33333333  0.39278070  1.0
  Y  Y938  1  0.32175067  0.66666667  0.39278070  1.0
  Y  Y939  1  0.65508400  0.00000000  0.39278070  1.0
  Y  Y940  1  0.65508400  0.33333333  0.39278070  1.0
  Y  Y941  1  0.65508400  0.66666667  0.39278070  1.0
  Y  Y942  1  0.98841733  0.00000000  0.39278070  1.0
  Y  Y943  1  0.98841733  0.33333333  0.39278070  1.0
  Y  Y944  1  0.98841733  0.66666667  0.39278070  1.0
  Y  Y945  1  0.06962400  0.21912767  0.26571090  1.0
  Y  Y946  1  0.06962400  0.55246100  0.26571090  1.0
  Y  Y947  1  0.06962400  0.88579433  0.26571090  1.0
  Y  Y948  1  0.40295733  0.21912767  0.26571090  1.0
  Y  Y949  1  0.40295733  0.55246100  0.26571090  1.0
  Y  Y950  1  0.40295733  0.88579433  0.26571090  1.0
  Y  Y951  1  0.73629067  0.21912767  0.26571090  1.0
  Y  Y952  1  0.73629067  0.55246100  0.26571090  1.0
  Y  Y953  1  0.73629067  0.88579433  0.26571090  1.0
  Y  Y954  1  0.06450000  0.19193233  0.30142990  1.0
  Y  Y955  1  0.06450000  0.52526567  0.30142990  1.0
  Y  Y956  1  0.06450000  0.85859900  0.30142990  1.0
  Y  Y957  1  0.39783333  0.19193233  0.30142990  1.0
  Y  Y958  1  0.39783333  0.52526567  0.30142990  1.0
  Y  Y959  1  0.39783333  0.85859900  0.30142990  1.0
  Y  Y960  1  0.73116667  0.19193233  0.30142990  1.0
  Y  Y961  1  0.73116667  0.52526567  0.30142990  1.0
  Y  Y962  1  0.73116667  0.85859900  0.30142990  1.0
  Y  Y963  1  0.11190600  0.27287100  0.35912670  1.0
  Y  Y964  1  0.11190600  0.60620433  0.35912670  1.0
  Y  Y965  1  0.11190600  0.93953767  0.35912670  1.0
  Y  Y966  1  0.44523933  0.27287100  0.35912670  1.0
  Y  Y967  1  0.44523933  0.60620433  0.35912670  1.0
  Y  Y968  1  0.44523933  0.93953767  0.35912670  1.0
  Y  Y969  1  0.77857267  0.27287100  0.35912670  1.0
  Y  Y970  1  0.77857267  0.60620433  0.35912670  1.0
  Y  Y971  1  0.77857267  0.93953767  0.35912670  1.0
  Y  Y972  1  0.10611933  0.00000000  0.26340190  1.0
  Y  Y973  1  0.10611933  0.33333333  0.26340190  1.0
  Y  Y974  1  0.10611933  0.66666667  0.26340190  1.0
  Y  Y975  1  0.43945267  0.00000000  0.26340190  1.0
  Y  Y976  1  0.43945267  0.33333333  0.26340190  1.0
  Y  Y977  1  0.43945267  0.66666667  0.26340190  1.0
  Y  Y978  1  0.77278600  0.00000000  0.26340190  1.0
  Y  Y979  1  0.77278600  0.33333333  0.26340190  1.0
  Y  Y980  1  0.77278600  0.66666667  0.26340190  1.0
  Y  Y981  1  0.10266533  0.08815000  0.31763230  1.0
  Y  Y982  1  0.10266533  0.42148333  0.31763230  1.0
  Y  Y983  1  0.10266533  0.75481667  0.31763230  1.0
  Y  Y984  1  0.43599867  0.08815000  0.31763230  1.0
  Y  Y985  1  0.43599867  0.42148333  0.31763230  1.0
  Y  Y986  1  0.43599867  0.75481667  0.31763230  1.0
  Y  Y987  1  0.76933200  0.08815000  0.31763230  1.0
  Y  Y988  1  0.76933200  0.42148333  0.31763230  1.0
  Y  Y989  1  0.76933200  0.75481667  0.31763230  1.0
  Y  Y990  1  0.27857267  0.14379567  0.24033390  1.0
  Y  Y991  1  0.27857267  0.47712900  0.24033390  1.0
  Y  Y992  1  0.27857267  0.81046233  0.24033390  1.0
  Y  Y993  1  0.61190600  0.14379567  0.24033390  1.0
  Y  Y994  1  0.61190600  0.47712900  0.24033390  1.0
  Y  Y995  1  0.61190600  0.81046233  0.24033390  1.0
  Y  Y996  1  0.94523933  0.14379567  0.24033390  1.0
  Y  Y997  1  0.94523933  0.47712900  0.24033390  1.0
  Y  Y998  1  0.94523933  0.81046233  0.24033390  1.0
  Y  Y999  1  0.27278600  0.08333333  0.33605870  1.0
  Y  Y1000  1  0.27278600  0.41666667  0.33605870  1.0
  Y  Y1001  1  0.27278600  0.75000000  0.33605870  1.0
  Y  Y1002  1  0.60611933  0.08333333  0.33605870  1.0
  Y  Y1003  1  0.60611933  0.41666667  0.33605870  1.0
  Y  Y1004  1  0.60611933  0.75000000  0.33605870  1.0
  Y  Y1005  1  0.93945267  0.08333333  0.33605870  1.0
  Y  Y1006  1  0.93945267  0.41666667  0.33605870  1.0
  Y  Y1007  1  0.93945267  0.75000000  0.33605870  1.0
  Y  Y1008  1  0.01158267  0.16666667  0.20667990  1.0
  Y  Y1009  1  0.01158267  0.50000000  0.20667990  1.0
  Y  Y1010  1  0.01158267  0.83333333  0.20667990  1.0
  Y  Y1011  1  0.34491600  0.16666667  0.20667990  1.0
  Y  Y1012  1  0.34491600  0.50000000  0.20667990  1.0
  Y  Y1013  1  0.34491600  0.83333333  0.20667990  1.0
  Y  Y1014  1  0.67824933  0.16666667  0.20667990  1.0
  Y  Y1015  1  0.67824933  0.50000000  0.20667990  1.0
  Y  Y1016  1  0.67824933  0.83333333  0.20667990  1.0
  Y  Y1017  1  0.02020333  0.24518333  0.35554950  1.0
  Y  Y1018  1  0.02020333  0.57851667  0.35554950  1.0
  Y  Y1019  1  0.02020333  0.91185000  0.35554950  1.0
  Y  Y1020  1  0.35353667  0.24518333  0.35554950  1.0
  Y  Y1021  1  0.35353667  0.57851667  0.35554950  1.0
  Y  Y1022  1  0.35353667  0.91185000  0.35554950  1.0
  Y  Y1023  1  0.68687000  0.24518333  0.35554950  1.0
  Y  Y1024  1  0.68687000  0.57851667  0.35554950  1.0
  Y  Y1025  1  0.68687000  0.91185000  0.35554950  1.0
  Y  Y1026  1  0.04769867  0.10859900  0.26874910  1.0
  Y  Y1027  1  0.04769867  0.44193233  0.26874910  1.0
  Y  Y1028  1  0.04769867  0.77526567  0.26874910  1.0
  Y  Y1029  1  0.38103200  0.10859900  0.26874910  1.0
  Y  Y1030  1  0.38103200  0.44193233  0.26874910  1.0
  Y  Y1031  1  0.38103200  0.77526567  0.26874910  1.0
  Y  Y1032  1  0.71436533  0.10859900  0.26874910  1.0
  Y  Y1033  1  0.71436533  0.44193233  0.26874910  1.0
  Y  Y1034  1  0.71436533  0.77526567  0.26874910  1.0
  Y  Y1035  1  0.05325200  0.06046233  0.33942870  1.0
  Y  Y1036  1  0.05325200  0.39379567  0.33942870  1.0
  Y  Y1037  1  0.05325200  0.72712900  0.33942870  1.0
  Y  Y1038  1  0.38658533  0.06046233  0.33942870  1.0
  Y  Y1039  1  0.38658533  0.39379567  0.33942870  1.0
  Y  Y1040  1  0.38658533  0.72712900  0.33942870  1.0
  Y  Y1041  1  0.71991867  0.06046233  0.33942870  1.0
  Y  Y1042  1  0.71991867  0.39379567  0.33942870  1.0
  Y  Y1043  1  0.71991867  0.72712900  0.33942870  1.0
  Y  Y1044  1  0.26933200  0.32851667  0.28182830  1.0
  Y  Y1045  1  0.26933200  0.66185000  0.28182830  1.0
  Y  Y1046  1  0.26933200  0.99518333  0.28182830  1.0
  Y  Y1047  1  0.60266533  0.32851667  0.28182830  1.0
  Y  Y1048  1  0.60266533  0.66185000  0.28182830  1.0
  Y  Y1049  1  0.60266533  0.99518333  0.28182830  1.0
  Y  Y1050  1  0.93599867  0.32851667  0.28182830  1.0
  Y  Y1051  1  0.93599867  0.66185000  0.28182830  1.0
  Y  Y1052  1  0.93599867  0.99518333  0.28182830  1.0
  Y  Y1053  1  0.23629067  0.19753900  0.33374970  1.0
  Y  Y1054  1  0.23629067  0.53087233  0.33374970  1.0
  Y  Y1055  1  0.23629067  0.86420567  0.33374970  1.0
  Y  Y1056  1  0.56962400  0.19753900  0.33374970  1.0
  Y  Y1057  1  0.56962400  0.53087233  0.33374970  1.0
  Y  Y1058  1  0.56962400  0.86420567  0.33374970  1.0
  Y  Y1059  1  0.90295733  0.19753900  0.33374970  1.0
  Y  Y1060  1  0.90295733  0.53087233  0.33374970  1.0
  Y  Y1061  1  0.90295733  0.86420567  0.33374970  1.0
  Y  Y1062  1  0.06400133  0.16185000  0.30607230  1.0
  Y  Y1063  1  0.06400133  0.49518333  0.30607230  1.0
  Y  Y1064  1  0.06400133  0.82851667  0.30607230  1.0
  Y  Y1065  1  0.39733467  0.16185000  0.30607230  1.0
  Y  Y1066  1  0.39733467  0.49518333  0.30607230  1.0
  Y  Y1067  1  0.39733467  0.82851667  0.30607230  1.0
  Y  Y1068  1  0.73066800  0.16185000  0.30607230  1.0
  Y  Y1069  1  0.73066800  0.49518333  0.30607230  1.0
  Y  Y1070  1  0.73066800  0.82851667  0.30607230  1.0
  Y  Y1071  1  0.18687000  0.17148333  0.24391110  1.0
  Y  Y1072  1  0.18687000  0.50481667  0.24391110  1.0
  Y  Y1073  1  0.18687000  0.83815000  0.24391110  1.0
  Y  Y1074  1  0.52020333  0.17148333  0.24391110  1.0
  Y  Y1075  1  0.52020333  0.50481667  0.24391110  1.0
  Y  Y1076  1  0.52020333  0.83815000  0.24391110  1.0
  Y  Y1077  1  0.85353667  0.17148333  0.24391110  1.0
  Y  Y1078  1  0.85353667  0.50481667  0.24391110  1.0
  Y  Y1079  1  0.85353667  0.83815000  0.24391110  1.0
  Y  Y1080  1  0.26883333  0.02526567  0.35866830  1.0
  Y  Y1081  1  0.26883333  0.35859900  0.35866830  1.0
  Y  Y1082  1  0.26883333  0.69193233  0.35866830  1.0
  Y  Y1083  1  0.60216667  0.02526567  0.35866830  1.0
  Y  Y1084  1  0.60216667  0.35859900  0.35866830  1.0
  Y  Y1085  1  0.60216667  0.69193233  0.35866830  1.0
  Y  Y1086  1  0.93550000  0.02526567  0.35866830  1.0
  Y  Y1087  1  0.93550000  0.35859900  0.35866830  1.0
  Y  Y1088  1  0.93550000  0.69193233  0.35866830  1.0
  Y  Y1089  1  0.05455900  0.02977133  0.23767870  1.0
  Y  Y1090  1  0.05455900  0.36310467  0.23767870  1.0
  Y  Y1091  1  0.05455900  0.69643800  0.23767870  1.0
  Y  Y1092  1  0.38789233  0.02977133  0.23767870  1.0
  Y  Y1093  1  0.38789233  0.36310467  0.23767870  1.0
  Y  Y1094  1  0.38789233  0.69643800  0.23767870  1.0
  Y  Y1095  1  0.72122567  0.02977133  0.23767870  1.0
  Y  Y1096  1  0.72122567  0.36310467  0.23767870  1.0
  Y  Y1097  1  0.72122567  0.69643800  0.23767870  1.0
  Y  Y1098  1  0.11210767  0.22022867  0.36622750  1.0
  Y  Y1099  1  0.11210767  0.55356200  0.36622750  1.0
  Y  Y1100  1  0.11210767  0.88689533  0.36622750  1.0
  Y  Y1101  1  0.44544100  0.22022867  0.36622750  1.0
  Y  Y1102  1  0.44544100  0.55356200  0.36622750  1.0
  Y  Y1103  1  0.44544100  0.88689533  0.36622750  1.0
  Y  Y1104  1  0.77877433  0.22022867  0.36622750  1.0
  Y  Y1105  1  0.77877433  0.55356200  0.36622750  1.0
  Y  Y1106  1  0.77877433  0.88689533  0.36622750  1.0
  Y  Y1107  1  0.26370933  0.05246100  0.25965610  1.0
  Y  Y1108  1  0.26370933  0.38579433  0.25965610  1.0
  Y  Y1109  1  0.26370933  0.71912767  0.25965610  1.0
  Y  Y1110  1  0.59704267  0.05246100  0.25965610  1.0
  Y  Y1111  1  0.59704267  0.38579433  0.25965610  1.0
  Y  Y1112  1  0.59704267  0.71912767  0.25965610  1.0
  Y  Y1113  1  0.93037600  0.05246100  0.25965610  1.0
  Y  Y1114  1  0.93037600  0.38579433  0.25965610  1.0
  Y  Y1115  1  0.93037600  0.71912767  0.25965610  1.0
  Y  Y1116  1  0.17171233  0.30246100  0.22090910  1.0
  Y  Y1117  1  0.17171233  0.63579433  0.22090910  1.0
  Y  Y1118  1  0.17171233  0.96912767  0.22090910  1.0
  Y  Y1119  1  0.50504567  0.30246100  0.22090910  1.0
  Y  Y1120  1  0.50504567  0.63579433  0.22090910  1.0
  Y  Y1121  1  0.50504567  0.96912767  0.22090910  1.0
  Y  Y1122  1  0.83837900  0.30246100  0.22090910  1.0
  Y  Y1123  1  0.83837900  0.63579433  0.22090910  1.0
  Y  Y1124  1  0.83837900  0.96912767  0.22090910  1.0
  Y  Y1125  1  0.32828767  0.28087233  0.29500270  1.0
  Y  Y1126  1  0.32828767  0.61420567  0.29500270  1.0
  Y  Y1127  1  0.32828767  0.94753900  0.29500270  1.0
  Y  Y1128  1  0.66162100  0.28087233  0.29500270  1.0
  Y  Y1129  1  0.66162100  0.61420567  0.29500270  1.0
  Y  Y1130  1  0.66162100  0.94753900  0.29500270  1.0
  Y  Y1131  1  0.99495433  0.28087233  0.29500270  1.0
  Y  Y1132  1  0.99495433  0.61420567  0.29500270  1.0
  Y  Y1133  1  0.99495433  0.94753900  0.29500270  1.0
  Y  Y1134  1  0.11896800  0.14140100  0.20811150  1.0
  Y  Y1135  1  0.11896800  0.47473433  0.20811150  1.0
  Y  Y1136  1  0.11896800  0.80806767  0.20811150  1.0
  Y  Y1137  1  0.45230133  0.14140100  0.20811150  1.0
  Y  Y1138  1  0.45230133  0.47473433  0.20811150  1.0
  Y  Y1139  1  0.45230133  0.80806767  0.20811150  1.0
  Y  Y1140  1  0.78563467  0.14140100  0.20811150  1.0
  Y  Y1141  1  0.78563467  0.47473433  0.20811150  1.0
  Y  Y1142  1  0.78563467  0.80806767  0.20811150  1.0
  Y  Y1143  1  0.10216667  0.05806767  0.24079230  1.0
  Y  Y1144  1  0.10216667  0.39140100  0.24079230  1.0
  Y  Y1145  1  0.10216667  0.72473433  0.24079230  1.0
  Y  Y1146  1  0.43550000  0.05806767  0.24079230  1.0
  Y  Y1147  1  0.43550000  0.39140100  0.24079230  1.0
  Y  Y1148  1  0.43550000  0.72473433  0.24079230  1.0
  Y  Y1149  1  0.76883333  0.05806767  0.24079230  1.0
  Y  Y1150  1  0.76883333  0.39140100  0.24079230  1.0
  Y  Y1151  1  0.76883333  0.72473433  0.24079230  1.0
  Ni  Ni1152  1  0.21784467  0.28529400  0.34442990  1.0
  Ni  Ni1153  1  0.21784467  0.61862733  0.34442990  1.0
  Ni  Ni1154  1  0.21784467  0.95196067  0.34442990  1.0
  Ni  Ni1155  1  0.55117800  0.28529400  0.34442990  1.0
  Ni  Ni1156  1  0.55117800  0.61862733  0.34442990  1.0
  Ni  Ni1157  1  0.55117800  0.95196067  0.34442990  1.0
  Ni  Ni1158  1  0.88451133  0.28529400  0.34442990  1.0
  Ni  Ni1159  1  0.88451133  0.61862733  0.34442990  1.0
  Ni  Ni1160  1  0.88451133  0.95196067  0.34442990  1.0
  Ni  Ni1161  1  0.20860267  0.32543933  0.21083690  1.0
  Ni  Ni1162  1  0.20860267  0.65877267  0.21083690  1.0
  Ni  Ni1163  1  0.20860267  0.99210600  0.21083690  1.0
  Ni  Ni1164  1  0.54193600  0.32543933  0.21083690  1.0
  Ni  Ni1165  1  0.54193600  0.65877267  0.21083690  1.0
  Ni  Ni1166  1  0.54193600  0.99210600  0.21083690  1.0
  Ni  Ni1167  1  0.87526933  0.32543933  0.21083690  1.0
  Ni  Ni1168  1  0.87526933  0.65877267  0.21083690  1.0
  Ni  Ni1169  1  0.87526933  0.99210600  0.21083690  1.0
  Ni  Ni1170  1  0.13236767  0.24210600  0.31541910  1.0
  Ni  Ni1171  1  0.13236767  0.57543933  0.31541910  1.0
  Ni  Ni1172  1  0.13236767  0.90877267  0.31541910  1.0
  Ni  Ni1173  1  0.46570100  0.24210600  0.31541910  1.0
  Ni  Ni1174  1  0.46570100  0.57543933  0.31541910  1.0
  Ni  Ni1175  1  0.46570100  0.90877267  0.31541910  1.0
  Ni  Ni1176  1  0.79903433  0.24210600  0.31541910  1.0
  Ni  Ni1177  1  0.79903433  0.57543933  0.31541910  1.0
  Ni  Ni1178  1  0.79903433  0.90877267  0.31541910  1.0
  Ni  Ni1179  1  0.16275533  0.20196067  0.27278990  1.0
  Ni  Ni1180  1  0.16275533  0.53529400  0.27278990  1.0
  Ni  Ni1181  1  0.16275533  0.86862733  0.27278990  1.0
  Ni  Ni1182  1  0.49608867  0.20196067  0.27278990  1.0
  Ni  Ni1183  1  0.49608867  0.53529400  0.27278990  1.0
  Ni  Ni1184  1  0.49608867  0.86862733  0.27278990  1.0
  Ni  Ni1185  1  0.82942200  0.20196067  0.27278990  1.0
  Ni  Ni1186  1  0.82942200  0.53529400  0.27278990  1.0
  Ni  Ni1187  1  0.82942200  0.86862733  0.27278990  1.0
  Ni  Ni1188  1  0.06361267  0.26622033  0.22147150  1.0
  Ni  Ni1189  1  0.06361267  0.59955367  0.22147150  1.0
  Ni  Ni1190  1  0.06361267  0.93288700  0.22147150  1.0
  Ni  Ni1191  1  0.39694600  0.26622033  0.22147150  1.0
  Ni  Ni1192  1  0.39694600  0.59955367  0.22147150  1.0
  Ni  Ni1193  1  0.39694600  0.93288700  0.22147150  1.0
  Ni  Ni1194  1  0.73027933  0.26622033  0.22147150  1.0
  Ni  Ni1195  1  0.73027933  0.59955367  0.22147150  1.0
  Ni  Ni1196  1  0.73027933  0.93288700  0.22147150  1.0
  Ni  Ni1197  1  0.23027933  0.15044633  0.37798910  1.0
  Ni  Ni1198  1  0.23027933  0.48377967  0.37798910  1.0
  Ni  Ni1199  1  0.23027933  0.81711300  0.37798910  1.0
  Ni  Ni1200  1  0.56361267  0.15044633  0.37798910  1.0
  Ni  Ni1201  1  0.56361267  0.48377967  0.37798910  1.0
  Ni  Ni1202  1  0.56361267  0.81711300  0.37798910  1.0
  Ni  Ni1203  1  0.89694600  0.15044633  0.37798910  1.0
  Ni  Ni1204  1  0.89694600  0.48377967  0.37798910  1.0
  Ni  Ni1205  1  0.89694600  0.81711300  0.37798910  1.0
  Ni  Ni1206  1  0.05117800  0.13137267  0.25503070  1.0
  Ni  Ni1207  1  0.05117800  0.46470600  0.25503070  1.0
  Ni  Ni1208  1  0.05117800  0.79803933  0.25503070  1.0
  Ni  Ni1209  1  0.38451133  0.13137267  0.25503070  1.0
  Ni  Ni1210  1  0.38451133  0.46470600  0.25503070  1.0
  Ni  Ni1211  1  0.38451133  0.79803933  0.25503070  1.0
  Ni  Ni1212  1  0.71784467  0.13137267  0.25503070  1.0
  Ni  Ni1213  1  0.71784467  0.46470600  0.25503070  1.0
  Ni  Ni1214  1  0.71784467  0.79803933  0.25503070  1.0
  Ni  Ni1215  1  0.10305400  0.31711300  0.38254270  1.0
  Ni  Ni1216  1  0.10305400  0.65044633  0.38254270  1.0
  Ni  Ni1217  1  0.10305400  0.98377967  0.38254270  1.0
  Ni  Ni1218  1  0.43638733  0.31711300  0.38254270  1.0
  Ni  Ni1219  1  0.43638733  0.65044633  0.38254270  1.0
  Ni  Ni1220  1  0.43638733  0.98377967  0.38254270  1.0
  Ni  Ni1221  1  0.76972067  0.31711300  0.38254270  1.0
  Ni  Ni1222  1  0.76972067  0.65044633  0.38254270  1.0
  Ni  Ni1223  1  0.76972067  0.98377967  0.38254270  1.0
  Ni  Ni1224  1  0.03429900  0.00789400  0.33436470  1.0
  Ni  Ni1225  1  0.03429900  0.34122733  0.33436470  1.0
  Ni  Ni1226  1  0.03429900  0.67456067  0.33436470  1.0
  Ni  Ni1227  1  0.36763233  0.00789400  0.33436470  1.0
  Ni  Ni1228  1  0.36763233  0.34122733  0.33436470  1.0
  Ni  Ni1229  1  0.36763233  0.67456067  0.33436470  1.0
  Ni  Ni1230  1  0.70096567  0.00789400  0.33436470  1.0
  Ni  Ni1231  1  0.70096567  0.34122733  0.33436470  1.0
  Ni  Ni1232  1  0.70096567  0.67456067  0.33436470  1.0
  Ni  Ni1233  1  0.28215533  0.29803933  0.25972430  1.0
  Ni  Ni1234  1  0.28215533  0.63137267  0.25972430  1.0
  Ni  Ni1235  1  0.28215533  0.96470600  0.25972430  1.0
  Ni  Ni1236  1  0.61548867  0.29803933  0.25972430  1.0
  Ni  Ni1237  1  0.61548867  0.63137267  0.25972430  1.0
  Ni  Ni1238  1  0.61548867  0.96470600  0.25972430  1.0
  Ni  Ni1239  1  0.94882200  0.29803933  0.25972430  1.0
  Ni  Ni1240  1  0.94882200  0.63137267  0.25972430  1.0
  Ni  Ni1241  1  0.94882200  0.96470600  0.25972430  1.0
  Ni  Ni1242  1  0.11548867  0.11862733  0.33973630  1.0
  Ni  Ni1243  1  0.11548867  0.45196067  0.33973630  1.0
  Ni  Ni1244  1  0.11548867  0.78529400  0.33973630  1.0
  Ni  Ni1245  1  0.44882200  0.11862733  0.33973630  1.0
  Ni  Ni1246  1  0.44882200  0.45196067  0.33973630  1.0
  Ni  Ni1247  1  0.44882200  0.78529400  0.33973630  1.0
  Ni  Ni1248  1  0.78215533  0.11862733  0.33973630  1.0
  Ni  Ni1249  1  0.78215533  0.45196067  0.33973630  1.0
  Ni  Ni1250  1  0.78215533  0.78529400  0.33973630  1.0
  Ni  Ni1251  1  0.17046133  0.06711300  0.31843350  1.0
  Ni  Ni1252  1  0.17046133  0.40044633  0.31843350  1.0
  Ni  Ni1253  1  0.17046133  0.73377967  0.31843350  1.0
  Ni  Ni1254  1  0.50379467  0.06711300  0.31843350  1.0
  Ni  Ni1255  1  0.50379467  0.40044633  0.31843350  1.0
  Ni  Ni1256  1  0.50379467  0.73377967  0.31843350  1.0
  Ni  Ni1257  1  0.83712800  0.06711300  0.31843350  1.0
  Ni  Ni1258  1  0.83712800  0.40044633  0.31843350  1.0
  Ni  Ni1259  1  0.83712800  0.73377967  0.31843350  1.0
  Ni  Ni1260  1  0.16287200  0.23377967  0.24209830  1.0
  Ni  Ni1261  1  0.16287200  0.56711300  0.24209830  1.0
  Ni  Ni1262  1  0.16287200  0.90044633  0.24209830  1.0
  Ni  Ni1263  1  0.49620533  0.23377967  0.24209830  1.0
  Ni  Ni1264  1  0.49620533  0.56711300  0.24209830  1.0
  Ni  Ni1265  1  0.49620533  0.90044633  0.24209830  1.0
  Ni  Ni1266  1  0.82953867  0.23377967  0.24209830  1.0
  Ni  Ni1267  1  0.82953867  0.56711300  0.24209830  1.0
  Ni  Ni1268  1  0.82953867  0.90044633  0.24209830  1.0
  Ni  Ni1269  1  0.00391133  0.04803933  0.38808430  1.0
  Ni  Ni1270  1  0.00391133  0.38137267  0.38808430  1.0
  Ni  Ni1271  1  0.00391133  0.71470600  0.38808430  1.0
  Ni  Ni1272  1  0.33724467  0.04803933  0.38808430  1.0
  Ni  Ni1273  1  0.33724467  0.38137267  0.38808430  1.0
  Ni  Ni1274  1  0.33724467  0.71470600  0.38808430  1.0
  Ni  Ni1275  1  0.67057800  0.04803933  0.38808430  1.0
  Ni  Ni1276  1  0.67057800  0.38137267  0.38808430  1.0
  Ni  Ni1277  1  0.67057800  0.71470600  0.38808430  1.0
  Ni  Ni1278  1  0.10638300  0.29466433  0.34236470  1.0
  Ni  Ni1279  1  0.10638300  0.62799767  0.34236470  1.0
  Ni  Ni1280  1  0.10638300  0.96133100  0.34236470  1.0
  Ni  Ni1281  1  0.43971633  0.29466433  0.34236470  1.0
  Ni  Ni1282  1  0.43971633  0.62799767  0.34236470  1.0
  Ni  Ni1283  1  0.43971633  0.96133100  0.34236470  1.0
  Ni  Ni1284  1  0.77304967  0.29466433  0.34236470  1.0
  Ni  Ni1285  1  0.77304967  0.62799767  0.34236470  1.0
  Ni  Ni1286  1  0.77304967  0.96133100  0.34236470  1.0
  Ni  Ni1287  1  0.04193600  0.09122733  0.38862370  1.0
  Ni  Ni1288  1  0.04193600  0.42456067  0.38862370  1.0
  Ni  Ni1289  1  0.04193600  0.75789400  0.38862370  1.0
  Ni  Ni1290  1  0.37526933  0.09122733  0.38862370  1.0
  Ni  Ni1291  1  0.37526933  0.42456067  0.38862370  1.0
  Ni  Ni1292  1  0.37526933  0.75789400  0.38862370  1.0
  Ni  Ni1293  1  0.70860267  0.09122733  0.38862370  1.0
  Ni  Ni1294  1  0.70860267  0.42456067  0.38862370  1.0
  Ni  Ni1295  1  0.70860267  0.75789400  0.38862370  1.0
  Ni  Ni1296  1  0.26972067  0.09955367  0.21691790  1.0
  Ni  Ni1297  1  0.26972067  0.43288700  0.21691790  1.0
  Ni  Ni1298  1  0.26972067  0.76622033  0.21691790  1.0
  Ni  Ni1299  1  0.60305400  0.09955367  0.21691790  1.0
  Ni  Ni1300  1  0.60305400  0.43288700  0.21691790  1.0
  Ni  Ni1301  1  0.60305400  0.76622033  0.21691790  1.0
  Ni  Ni1302  1  0.93638733  0.09955367  0.21691790  1.0
  Ni  Ni1303  1  0.93638733  0.43288700  0.21691790  1.0
  Ni  Ni1304  1  0.93638733  0.76622033  0.21691790  1.0
  Ni  Ni1305  1  0.22695033  0.12799767  0.36429030  1.0
  Ni  Ni1306  1  0.22695033  0.46133100  0.36429030  1.0
  Ni  Ni1307  1  0.22695033  0.79466433  0.36429030  1.0
  Ni  Ni1308  1  0.56028367  0.12799767  0.36429030  1.0
  Ni  Ni1309  1  0.56028367  0.46133100  0.36429030  1.0
  Ni  Ni1310  1  0.56028367  0.79466433  0.36429030  1.0
  Ni  Ni1311  1  0.89361700  0.12799767  0.36429030  1.0
  Ni  Ni1312  1  0.89361700  0.46133100  0.36429030  1.0
  Ni  Ni1313  1  0.89361700  0.79466433  0.36429030  1.0
  Ni  Ni1314  1  0.12473067  0.15877267  0.36967810  1.0
  Ni  Ni1315  1  0.12473067  0.49210600  0.36967810  1.0
  Ni  Ni1316  1  0.12473067  0.82543933  0.36967810  1.0
  Ni  Ni1317  1  0.45806400  0.15877267  0.36967810  1.0
  Ni  Ni1318  1  0.45806400  0.49210600  0.36967810  1.0
  Ni  Ni1319  1  0.45806400  0.82543933  0.36967810  1.0
  Ni  Ni1320  1  0.79139733  0.15877267  0.36967810  1.0
  Ni  Ni1321  1  0.79139733  0.49210600  0.36967810  1.0
  Ni  Ni1322  1  0.79139733  0.82543933  0.36967810  1.0
  Ni  Ni1323  1  0.32953867  0.18288700  0.35736230  1.0
  Ni  Ni1324  1  0.32953867  0.51622033  0.35736230  1.0
  Ni  Ni1325  1  0.32953867  0.84955367  0.35736230  1.0
  Ni  Ni1326  1  0.66287200  0.18288700  0.35736230  1.0
  Ni  Ni1327  1  0.66287200  0.51622033  0.35736230  1.0
  Ni  Ni1328  1  0.66287200  0.84955367  0.35736230  1.0
  Ni  Ni1329  1  0.99620533  0.18288700  0.35736230  1.0
  Ni  Ni1330  1  0.99620533  0.51622033  0.35736230  1.0
  Ni  Ni1331  1  0.99620533  0.84955367  0.35736230  1.0
  Ni  Ni1332  1  0.29139733  0.25789400  0.22978250  1.0
  Ni  Ni1333  1  0.29139733  0.59122733  0.22978250  1.0
  Ni  Ni1334  1  0.29139733  0.92456067  0.22978250  1.0
  Ni  Ni1335  1  0.62473067  0.25789400  0.22978250  1.0
  Ni  Ni1336  1  0.62473067  0.59122733  0.22978250  1.0
  Ni  Ni1337  1  0.62473067  0.92456067  0.22978250  1.0
  Ni  Ni1338  1  0.95806400  0.25789400  0.22978250  1.0
  Ni  Ni1339  1  0.95806400  0.59122733  0.22978250  1.0
  Ni  Ni1340  1  0.95806400  0.92456067  0.22978250  1.0
  Ni  Ni1341  1  0.32942200  0.21470600  0.32667070  1.0
  Ni  Ni1342  1  0.32942200  0.54803933  0.32667070  1.0
  Ni  Ni1343  1  0.32942200  0.88137267  0.32667070  1.0
  Ni  Ni1344  1  0.66275533  0.21470600  0.32667070  1.0
  Ni  Ni1345  1  0.66275533  0.54803933  0.32667070  1.0
  Ni  Ni1346  1  0.66275533  0.88137267  0.32667070  1.0
  Ni  Ni1347  1  0.99608867  0.21470600  0.32667070  1.0
  Ni  Ni1348  1  0.99608867  0.54803933  0.32667070  1.0
  Ni  Ni1349  1  0.99608867  0.88137267  0.32667070  1.0
  Ni  Ni1350  1  0.18493800  0.21133100  0.21715730  1.0
  Ni  Ni1351  1  0.18493800  0.54466433  0.21715730  1.0
  Ni  Ni1352  1  0.18493800  0.87799767  0.21715730  1.0
  Ni  Ni1353  1  0.51827133  0.21133100  0.21715730  1.0
  Ni  Ni1354  1  0.51827133  0.54466433  0.21715730  1.0
  Ni  Ni1355  1  0.51827133  0.87799767  0.21715730  1.0
  Ni  Ni1356  1  0.85160467  0.21133100  0.21715730  1.0
  Ni  Ni1357  1  0.85160467  0.54466433  0.21715730  1.0
  Ni  Ni1358  1  0.85160467  0.87799767  0.21715730  1.0
  Ni  Ni1359  1  0.31506200  0.03866900  0.30996290  1.0
  Ni  Ni1360  1  0.31506200  0.37200233  0.30996290  1.0
  Ni  Ni1361  1  0.31506200  0.70533567  0.30996290  1.0
  Ni  Ni1362  1  0.64839533  0.03866900  0.30996290  1.0
  Ni  Ni1363  1  0.64839533  0.37200233  0.30996290  1.0
  Ni  Ni1364  1  0.64839533  0.70533567  0.30996290  1.0
  Ni  Ni1365  1  0.98172867  0.03866900  0.30996290  1.0
  Ni  Ni1366  1  0.98172867  0.37200233  0.30996290  1.0
  Ni  Ni1367  1  0.98172867  0.70533567  0.30996290  1.0
  Ni  Ni1368  1  0.01827133  0.20533567  0.38230330  1.0
  Ni  Ni1369  1  0.01827133  0.53866900  0.38230330  1.0
  Ni  Ni1370  1  0.01827133  0.87200233  0.38230330  1.0
  Ni  Ni1371  1  0.35160467  0.20533567  0.38230330  1.0
  Ni  Ni1372  1  0.35160467  0.53866900  0.38230330  1.0
  Ni  Ni1373  1  0.35160467  0.87200233  0.38230330  1.0
  Ni  Ni1374  1  0.68493800  0.20533567  0.38230330  1.0
  Ni  Ni1375  1  0.68493800  0.53866900  0.38230330  1.0
  Ni  Ni1376  1  0.68493800  0.87200233  0.38230330  1.0
  Ni  Ni1377  1  0.29903433  0.17456067  0.28404150  1.0
  Ni  Ni1378  1  0.29903433  0.50789400  0.28404150  1.0
  Ni  Ni1379  1  0.29903433  0.84122733  0.28404150  1.0
  Ni  Ni1380  1  0.63236767  0.17456067  0.28404150  1.0
  Ni  Ni1381  1  0.63236767  0.50789400  0.28404150  1.0
  Ni  Ni1382  1  0.63236767  0.84122733  0.28404150  1.0
  Ni  Ni1383  1  0.96570100  0.17456067  0.28404150  1.0
  Ni  Ni1384  1  0.96570100  0.50789400  0.28404150  1.0
  Ni  Ni1385  1  0.96570100  0.84122733  0.28404150  1.0
  Ni  Ni1386  1  0.27304967  0.12200233  0.25709590  1.0
  Ni  Ni1387  1  0.27304967  0.45533567  0.25709590  1.0
  Ni  Ni1388  1  0.27304967  0.78866900  0.25709590  1.0
  Ni  Ni1389  1  0.60638300  0.12200233  0.25709590  1.0
  Ni  Ni1390  1  0.60638300  0.45533567  0.25709590  1.0
  Ni  Ni1391  1  0.60638300  0.78866900  0.25709590  1.0
  Ni  Ni1392  1  0.93971633  0.12200233  0.25709590  1.0
  Ni  Ni1393  1  0.93971633  0.45533567  0.25709590  1.0
  Ni  Ni1394  1  0.93971633  0.78866900  0.25709590  1.0
  Ni  Ni1395  1  0.14839533  0.04466433  0.28949770  1.0
  Ni  Ni1396  1  0.14839533  0.37799767  0.28949770  1.0
  Ni  Ni1397  1  0.14839533  0.71133100  0.28949770  1.0
  Ni  Ni1398  1  0.48172867  0.04466433  0.28949770  1.0
  Ni  Ni1399  1  0.48172867  0.37799767  0.28949770  1.0
  Ni  Ni1400  1  0.48172867  0.71133100  0.28949770  1.0
  Ni  Ni1401  1  0.81506200  0.04466433  0.28949770  1.0
  Ni  Ni1402  1  0.81506200  0.37799767  0.28949770  1.0
  Ni  Ni1403  1  0.81506200  0.71133100  0.28949770  1.0
  Ni  Ni1404  1  0.00379467  0.01622033  0.28102710  1.0
  Ni  Ni1405  1  0.00379467  0.34955367  0.28102710  1.0
  Ni  Ni1406  1  0.00379467  0.68288700  0.28102710  1.0
  Ni  Ni1407  1  0.33712800  0.01622033  0.28102710  1.0
  Ni  Ni1408  1  0.33712800  0.34955367  0.28102710  1.0
  Ni  Ni1409  1  0.33712800  0.68288700  0.28102710  1.0
  Ni  Ni1410  1  0.67046133  0.01622033  0.28102710  1.0
  Ni  Ni1411  1  0.67046133  0.34955367  0.28102710  1.0
  Ni  Ni1412  1  0.67046133  0.68288700  0.28102710  1.0
  Ni  Ni1413  1  0.06028367  0.28866900  0.23517030  1.0
  Ni  Ni1414  1  0.06028367  0.62200233  0.23517030  1.0
  Ni  Ni1415  1  0.06028367  0.95533567  0.23517030  1.0
  Ni  Ni1416  1  0.39361700  0.28866900  0.23517030  1.0
  Ni  Ni1417  1  0.39361700  0.62200233  0.23517030  1.0
  Ni  Ni1418  1  0.39361700  0.95533567  0.23517030  1.0
  Ni  Ni1419  1  0.72695033  0.28866900  0.23517030  1.0
  Ni  Ni1420  1  0.72695033  0.62200233  0.23517030  1.0
  Ni  Ni1421  1  0.72695033  0.95533567  0.23517030  1.0
  Ni  Ni1422  1  0.20096567  0.07543933  0.26509590  1.0
  Ni  Ni1423  1  0.20096567  0.40877267  0.26509590  1.0
  Ni  Ni1424  1  0.20096567  0.74210600  0.26509590  1.0
  Ni  Ni1425  1  0.53429900  0.07543933  0.26509590  1.0
  Ni  Ni1426  1  0.53429900  0.40877267  0.26509590  1.0
  Ni  Ni1427  1  0.53429900  0.74210600  0.26509590  1.0
  Ni  Ni1428  1  0.86763233  0.07543933  0.26509590  1.0
  Ni  Ni1429  1  0.86763233  0.40877267  0.26509590  1.0
  Ni  Ni1430  1  0.86763233  0.74210600  0.26509590  1.0
  Ni  Ni1431  1  0.17057800  0.03529400  0.21137630  1.0
  Ni  Ni1432  1  0.17057800  0.36862733  0.21137630  1.0
  Ni  Ni1433  1  0.17057800  0.70196067  0.21137630  1.0
  Ni  Ni1434  1  0.50391133  0.03529400  0.21137630  1.0
  Ni  Ni1435  1  0.50391133  0.36862733  0.21137630  1.0
  Ni  Ni1436  1  0.50391133  0.70196067  0.21137630  1.0
  Ni  Ni1437  1  0.83724467  0.03529400  0.21137630  1.0
  Ni  Ni1438  1  0.83724467  0.36862733  0.21137630  1.0
  Ni  Ni1439  1  0.83724467  0.70196067  0.21137630  1.0
