# generated using pymatgen
data_Y3Ni2
_symmetry_space_group_name_H-M   'P 1'
_cell_length_a   47.43346180
_cell_length_b   112.09771383
_cell_length_c   35.35481500
_cell_angle_alpha   100.90818371
_cell_angle_beta   116.56505118
_cell_angle_gamma   85.14532159
_symmetry_Int_Tables_number   1
_chemical_formula_structural   Y3Ni2
_chemical_formula_sum   'Y1728 Ni1152'
_cell_volume   165103.55235140
_cell_formula_units_Z   576
loop_
 _symmetry_equiv_pos_site_id
 _symmetry_equiv_pos_as_xyz
  1  'x, y, z'
loop_
 _atom_site_type_symbol
 _atom_site_label
 _atom_site_symmetry_multiplicity
 _atom_site_fract_x
 _atom_site_fract_y
 _atom_site_fract_z
 _atom_site_occupancy
  Y  Y0  1  0.16481433  0.13689533  0.12372520  1.0
  Y  Y1  1  0.16481433  0.47022867  0.12372520  1.0
  Y  Y2  1  0.16481433  0.80356200  0.12372520  1.0
  Y  Y3  1  0.49814767  0.13689533  0.12372520  1.0
  Y  Y4  1  0.49814767  0.47022867  0.12372520  1.0
  Y  Y5  1  0.49814767  0.80356200  0.12372520  1.0
  Y  Y6  1  0.83148100  0.13689533  0.12372520  1.0
  Y  Y7  1  0.83148100  0.47022867  0.12372520  1.0
  Y  Y8  1  0.83148100  0.80356200  0.12372520  1.0
  Y  Y9  1  0.33148100  0.13689533  0.02372520  1.0
  Y  Y10  1  0.33148100  0.47022867  0.02372520  1.0
  Y  Y11  1  0.33148100  0.80356200  0.02372520  1.0
  Y  Y12  1  0.66481433  0.13689533  0.02372520  1.0
  Y  Y13  1  0.66481433  0.47022867  0.02372520  1.0
  Y  Y14  1  0.66481433  0.80356200  0.02372520  1.0
  Y  Y15  1  0.99814767  0.13689533  0.02372520  1.0
  Y  Y16  1  0.99814767  0.47022867  0.02372520  1.0
  Y  Y17  1  0.99814767  0.80356200  0.02372520  1.0
  Y  Y18  1  0.11533400  0.25481667  0.18540320  1.0
  Y  Y19  1  0.11533400  0.58815000  0.18540320  1.0
  Y  Y20  1  0.11533400  0.92148333  0.18540320  1.0
  Y  Y21  1  0.44866733  0.25481667  0.18540320  1.0
  Y  Y22  1  0.44866733  0.58815000  0.18540320  1.0
  Y  Y23  1  0.44866733  0.92148333  0.18540320  1.0
  Y  Y24  1  0.78200067  0.25481667  0.18540320  1.0
  Y  Y25  1  0.78200067  0.58815000  0.18540320  1.0
  Y  Y26  1  0.78200067  0.92148333  0.18540320  1.0
  Y  Y27  1  0.28200067  0.25481667  0.08540320  1.0
  Y  Y28  1  0.28200067  0.58815000  0.08540320  1.0
  Y  Y29  1  0.28200067  0.92148333  0.08540320  1.0
  Y  Y30  1  0.61533400  0.25481667  0.08540320  1.0
  Y  Y31  1  0.61533400  0.58815000  0.08540320  1.0
  Y  Y32  1  0.61533400  0.92148333  0.08540320  1.0
  Y  Y33  1  0.94866733  0.25481667  0.08540320  1.0
  Y  Y34  1  0.94866733  0.58815000  0.08540320  1.0
  Y  Y35  1  0.94866733  0.92148333  0.08540320  1.0
  Y  Y36  1  0.11071367  0.10620433  0.07363440  1.0
  Y  Y37  1  0.11071367  0.43953767  0.07363440  1.0
  Y  Y38  1  0.11071367  0.77287100  0.07363440  1.0
  Y  Y39  1  0.44404700  0.10620433  0.07363440  1.0
  Y  Y40  1  0.44404700  0.43953767  0.07363440  1.0
  Y  Y41  1  0.44404700  0.77287100  0.07363440  1.0
  Y  Y42  1  0.77738033  0.10620433  0.07363440  1.0
  Y  Y43  1  0.77738033  0.43953767  0.07363440  1.0
  Y  Y44  1  0.77738033  0.77287100  0.07363440  1.0
  Y  Y45  1  0.27738033  0.10620433  0.17363440  1.0
  Y  Y46  1  0.27738033  0.43953767  0.17363440  1.0
  Y  Y47  1  0.27738033  0.77287100  0.17363440  1.0
  Y  Y48  1  0.61071367  0.10620433  0.17363440  1.0
  Y  Y49  1  0.61071367  0.43953767  0.17363440  1.0
  Y  Y50  1  0.61071367  0.77287100  0.17363440  1.0
  Y  Y51  1  0.94404700  0.10620433  0.17363440  1.0
  Y  Y52  1  0.94404700  0.43953767  0.17363440  1.0
  Y  Y53  1  0.94404700  0.77287100  0.17363440  1.0
  Y  Y54  1  0.03027367  0.25000000  0.10727060  1.0
  Y  Y55  1  0.03027367  0.58333333  0.10727060  1.0
  Y  Y56  1  0.03027367  0.91666667  0.10727060  1.0
  Y  Y57  1  0.36360700  0.25000000  0.10727060  1.0
  Y  Y58  1  0.36360700  0.58333333  0.10727060  1.0
  Y  Y59  1  0.36360700  0.91666667  0.10727060  1.0
  Y  Y60  1  0.69694033  0.25000000  0.10727060  1.0
  Y  Y61  1  0.69694033  0.58333333  0.10727060  1.0
  Y  Y62  1  0.69694033  0.91666667  0.10727060  1.0
  Y  Y63  1  0.19694033  0.25000000  0.00727060  1.0
  Y  Y64  1  0.19694033  0.58333333  0.00727060  1.0
  Y  Y65  1  0.19694033  0.91666667  0.00727060  1.0
  Y  Y66  1  0.53027367  0.25000000  0.00727060  1.0
  Y  Y67  1  0.53027367  0.58333333  0.00727060  1.0
  Y  Y68  1  0.53027367  0.91666667  0.00727060  1.0
  Y  Y69  1  0.86360700  0.25000000  0.00727060  1.0
  Y  Y70  1  0.86360700  0.58333333  0.00727060  1.0
  Y  Y71  1  0.86360700  0.91666667  0.00727060  1.0
  Y  Y72  1  0.07754200  0.08333333  0.17890960  1.0
  Y  Y73  1  0.07754200  0.41666667  0.17890960  1.0
  Y  Y74  1  0.07754200  0.75000000  0.17890960  1.0
  Y  Y75  1  0.41087533  0.08333333  0.17890960  1.0
  Y  Y76  1  0.41087533  0.41666667  0.17890960  1.0
  Y  Y77  1  0.41087533  0.75000000  0.17890960  1.0
  Y  Y78  1  0.74420867  0.08333333  0.17890960  1.0
  Y  Y79  1  0.74420867  0.41666667  0.17890960  1.0
  Y  Y80  1  0.74420867  0.75000000  0.17890960  1.0
  Y  Y81  1  0.24420867  0.08333333  0.07890960  1.0
  Y  Y82  1  0.24420867  0.41666667  0.07890960  1.0
  Y  Y83  1  0.24420867  0.75000000  0.07890960  1.0
  Y  Y84  1  0.57754200  0.08333333  0.07890960  1.0
  Y  Y85  1  0.57754200  0.41666667  0.07890960  1.0
  Y  Y86  1  0.57754200  0.75000000  0.07890960  1.0
  Y  Y87  1  0.91087533  0.08333333  0.07890960  1.0
  Y  Y88  1  0.91087533  0.41666667  0.07890960  1.0
  Y  Y89  1  0.91087533  0.75000000  0.07890960  1.0
  Y  Y90  1  0.08081050  0.13579433  0.04717210  1.0
  Y  Y91  1  0.08081050  0.46912767  0.04717210  1.0
  Y  Y92  1  0.08081050  0.80246100  0.04717210  1.0
  Y  Y93  1  0.41414383  0.13579433  0.04717210  1.0
  Y  Y94  1  0.41414383  0.46912767  0.04717210  1.0
  Y  Y95  1  0.41414383  0.80246100  0.04717210  1.0
  Y  Y96  1  0.74747717  0.13579433  0.04717210  1.0
  Y  Y97  1  0.74747717  0.46912767  0.04717210  1.0
  Y  Y98  1  0.74747717  0.80246100  0.04717210  1.0
  Y  Y99  1  0.24747717  0.13579433  0.14717210  1.0
  Y  Y100  1  0.24747717  0.46912767  0.14717210  1.0
  Y  Y101  1  0.24747717  0.80246100  0.14717210  1.0
  Y  Y102  1  0.58081050  0.13579433  0.14717210  1.0
  Y  Y103  1  0.58081050  0.46912767  0.14717210  1.0
  Y  Y104  1  0.58081050  0.80246100  0.14717210  1.0
  Y  Y105  1  0.91414383  0.13579433  0.14717210  1.0
  Y  Y106  1  0.91414383  0.46912767  0.14717210  1.0
  Y  Y107  1  0.91414383  0.80246100  0.14717210  1.0
  Y  Y108  1  0.05670733  0.18953767  0.09032540  1.0
  Y  Y109  1  0.05670733  0.52287100  0.09032540  1.0
  Y  Y110  1  0.05670733  0.85620433  0.09032540  1.0
  Y  Y111  1  0.39004067  0.18953767  0.09032540  1.0
  Y  Y112  1  0.39004067  0.52287100  0.09032540  1.0
  Y  Y113  1  0.39004067  0.85620433  0.09032540  1.0
  Y  Y114  1  0.72337400  0.18953767  0.09032540  1.0
  Y  Y115  1  0.72337400  0.52287100  0.09032540  1.0
  Y  Y116  1  0.72337400  0.85620433  0.09032540  1.0
  Y  Y117  1  0.22337400  0.18953767  0.19032540  1.0
  Y  Y118  1  0.22337400  0.52287100  0.19032540  1.0
  Y  Y119  1  0.22337400  0.85620433  0.19032540  1.0
  Y  Y120  1  0.55670733  0.18953767  0.19032540  1.0
  Y  Y121  1  0.55670733  0.52287100  0.19032540  1.0
  Y  Y122  1  0.55670733  0.85620433  0.19032540  1.0
  Y  Y123  1  0.89004067  0.18953767  0.19032540  1.0
  Y  Y124  1  0.89004067  0.52287100  0.19032540  1.0
  Y  Y125  1  0.89004067  0.85620433  0.19032540  1.0
  Y  Y126  1  0.11360700  0.16666667  0.07992740  1.0
  Y  Y127  1  0.11360700  0.50000000  0.07992740  1.0
  Y  Y128  1  0.11360700  0.83333333  0.07992740  1.0
  Y  Y129  1  0.44694033  0.16666667  0.07992740  1.0
  Y  Y130  1  0.44694033  0.50000000  0.07992740  1.0
  Y  Y131  1  0.44694033  0.83333333  0.07992740  1.0
  Y  Y132  1  0.78027367  0.16666667  0.07992740  1.0
  Y  Y133  1  0.78027367  0.50000000  0.07992740  1.0
  Y  Y134  1  0.78027367  0.83333333  0.07992740  1.0
  Y  Y135  1  0.28027367  0.16666667  0.17992740  1.0
  Y  Y136  1  0.28027367  0.50000000  0.17992740  1.0
  Y  Y137  1  0.28027367  0.83333333  0.17992740  1.0
  Y  Y138  1  0.61360700  0.16666667  0.17992740  1.0
  Y  Y139  1  0.61360700  0.50000000  0.17992740  1.0
  Y  Y140  1  0.61360700  0.83333333  0.17992740  1.0
  Y  Y141  1  0.94694033  0.16666667  0.17992740  1.0
  Y  Y142  1  0.94694033  0.50000000  0.17992740  1.0
  Y  Y143  1  0.94694033  0.83333333  0.17992740  1.0
  Y  Y144  1  0.11061283  0.05356200  0.17171690  1.0
  Y  Y145  1  0.11061283  0.38689533  0.17171690  1.0
  Y  Y146  1  0.11061283  0.72022867  0.17171690  1.0
  Y  Y147  1  0.44394617  0.05356200  0.17171690  1.0
  Y  Y148  1  0.44394617  0.38689533  0.17171690  1.0
  Y  Y149  1  0.44394617  0.72022867  0.17171690  1.0
  Y  Y150  1  0.77727950  0.05356200  0.17171690  1.0
  Y  Y151  1  0.77727950  0.38689533  0.17171690  1.0
  Y  Y152  1  0.77727950  0.72022867  0.17171690  1.0
  Y  Y153  1  0.27727950  0.05356200  0.07171690  1.0
  Y  Y154  1  0.27727950  0.38689533  0.07171690  1.0
  Y  Y155  1  0.27727950  0.72022867  0.07171690  1.0
  Y  Y156  1  0.61061283  0.05356200  0.07171690  1.0
  Y  Y157  1  0.61061283  0.38689533  0.07171690  1.0
  Y  Y158  1  0.61061283  0.72022867  0.07171690  1.0
  Y  Y159  1  0.94394617  0.05356200  0.07171690  1.0
  Y  Y160  1  0.94394617  0.38689533  0.07171690  1.0
  Y  Y161  1  0.94394617  0.72022867  0.07171690  1.0
  Y  Y162  1  0.02738033  0.31046233  0.11009160  1.0
  Y  Y163  1  0.02738033  0.64379567  0.11009160  1.0
  Y  Y164  1  0.02738033  0.97712900  0.11009160  1.0
  Y  Y165  1  0.36071367  0.31046233  0.11009160  1.0
  Y  Y166  1  0.36071367  0.64379567  0.11009160  1.0
  Y  Y167  1  0.36071367  0.97712900  0.11009160  1.0
  Y  Y168  1  0.69404700  0.31046233  0.11009160  1.0
  Y  Y169  1  0.69404700  0.64379567  0.11009160  1.0
  Y  Y170  1  0.69404700  0.97712900  0.11009160  1.0
  Y  Y171  1  0.19404700  0.31046233  0.01009160  1.0
  Y  Y172  1  0.19404700  0.64379567  0.01009160  1.0
  Y  Y173  1  0.19404700  0.97712900  0.01009160  1.0
  Y  Y174  1  0.52738033  0.31046233  0.01009160  1.0
  Y  Y175  1  0.52738033  0.64379567  0.01009160  1.0
  Y  Y176  1  0.52738033  0.97712900  0.01009160  1.0
  Y  Y177  1  0.86071367  0.31046233  0.01009160  1.0
  Y  Y178  1  0.86071367  0.64379567  0.01009160  1.0
  Y  Y179  1  0.86071367  0.97712900  0.01009160  1.0
  Y  Y180  1  0.13938717  0.19643800  0.17470710  1.0
  Y  Y181  1  0.13938717  0.52977133  0.17470710  1.0
  Y  Y182  1  0.13938717  0.86310467  0.17470710  1.0
  Y  Y183  1  0.47272050  0.19643800  0.17470710  1.0
  Y  Y184  1  0.47272050  0.52977133  0.17470710  1.0
  Y  Y185  1  0.47272050  0.86310467  0.17470710  1.0
  Y  Y186  1  0.80605383  0.19643800  0.17470710  1.0
  Y  Y187  1  0.80605383  0.52977133  0.17470710  1.0
  Y  Y188  1  0.80605383  0.86310467  0.17470710  1.0
  Y  Y189  1  0.30605383  0.19643800  0.07470710  1.0
  Y  Y190  1  0.30605383  0.52977133  0.07470710  1.0
  Y  Y191  1  0.30605383  0.86310467  0.07470710  1.0
  Y  Y192  1  0.63938717  0.19643800  0.07470710  1.0
  Y  Y193  1  0.63938717  0.52977133  0.07470710  1.0
  Y  Y194  1  0.63938717  0.86310467  0.07470710  1.0
  Y  Y195  1  0.97272050  0.19643800  0.07470710  1.0
  Y  Y196  1  0.97272050  0.52977133  0.07470710  1.0
  Y  Y197  1  0.97272050  0.86310467  0.07470710  1.0
  Y  Y198  1  0.14281733  0.27526567  0.08758460  1.0
  Y  Y199  1  0.14281733  0.60859900  0.08758460  1.0
  Y  Y200  1  0.14281733  0.94193233  0.08758460  1.0
  Y  Y201  1  0.47615067  0.27526567  0.08758460  1.0
  Y  Y202  1  0.47615067  0.60859900  0.08758460  1.0
  Y  Y203  1  0.47615067  0.94193233  0.08758460  1.0
  Y  Y204  1  0.80948400  0.27526567  0.08758460  1.0
  Y  Y205  1  0.80948400  0.60859900  0.08758460  1.0
  Y  Y206  1  0.80948400  0.94193233  0.08758460  1.0
  Y  Y207  1  0.30948400  0.27526567  0.18758460  1.0
  Y  Y208  1  0.30948400  0.60859900  0.18758460  1.0
  Y  Y209  1  0.30948400  0.94193233  0.18758460  1.0
  Y  Y210  1  0.64281733  0.27526567  0.18758460  1.0
  Y  Y211  1  0.64281733  0.60859900  0.18758460  1.0
  Y  Y212  1  0.64281733  0.94193233  0.18758460  1.0
  Y  Y213  1  0.97615067  0.27526567  0.18758460  1.0
  Y  Y214  1  0.97615067  0.60859900  0.18758460  1.0
  Y  Y215  1  0.97615067  0.94193233  0.18758460  1.0
  Y  Y216  1  0.08518567  0.11310467  0.16167360  1.0
  Y  Y217  1  0.08518567  0.44643800  0.16167360  1.0
  Y  Y218  1  0.08518567  0.77977133  0.16167360  1.0
  Y  Y219  1  0.41851900  0.11310467  0.16167360  1.0
  Y  Y220  1  0.41851900  0.44643800  0.16167360  1.0
  Y  Y221  1  0.41851900  0.77977133  0.16167360  1.0
  Y  Y222  1  0.75185233  0.11310467  0.16167360  1.0
  Y  Y223  1  0.75185233  0.44643800  0.16167360  1.0
  Y  Y224  1  0.75185233  0.77977133  0.16167360  1.0
  Y  Y225  1  0.25185233  0.11310467  0.06167360  1.0
  Y  Y226  1  0.25185233  0.44643800  0.06167360  1.0
  Y  Y227  1  0.25185233  0.77977133  0.06167360  1.0
  Y  Y228  1  0.58518567  0.11310467  0.06167360  1.0
  Y  Y229  1  0.58518567  0.44643800  0.06167360  1.0
  Y  Y230  1  0.58518567  0.77977133  0.06167360  1.0
  Y  Y231  1  0.91851900  0.11310467  0.06167360  1.0
  Y  Y232  1  0.91851900  0.44643800  0.06167360  1.0
  Y  Y233  1  0.91851900  0.77977133  0.06167360  1.0
  Y  Y234  1  0.14004067  0.22712900  0.12859300  1.0
  Y  Y235  1  0.14004067  0.56046233  0.12859300  1.0
  Y  Y236  1  0.14004067  0.89379567  0.12859300  1.0
  Y  Y237  1  0.47337400  0.22712900  0.12859300  1.0
  Y  Y238  1  0.47337400  0.56046233  0.12859300  1.0
  Y  Y239  1  0.47337400  0.89379567  0.12859300  1.0
  Y  Y240  1  0.80670733  0.22712900  0.12859300  1.0
  Y  Y241  1  0.80670733  0.56046233  0.12859300  1.0
  Y  Y242  1  0.80670733  0.89379567  0.12859300  1.0
  Y  Y243  1  0.30670733  0.22712900  0.02859300  1.0
  Y  Y244  1  0.30670733  0.56046233  0.02859300  1.0
  Y  Y245  1  0.30670733  0.89379567  0.02859300  1.0
  Y  Y246  1  0.64004067  0.22712900  0.02859300  1.0
  Y  Y247  1  0.64004067  0.56046233  0.02859300  1.0
  Y  Y248  1  0.64004067  0.89379567  0.02859300  1.0
  Y  Y249  1  0.97337400  0.22712900  0.02859300  1.0
  Y  Y250  1  0.97337400  0.56046233  0.02859300  1.0
  Y  Y251  1  0.97337400  0.89379567  0.02859300  1.0
  Y  Y252  1  0.00252283  0.11420567  0.08724630  1.0
  Y  Y253  1  0.00252283  0.44753900  0.08724630  1.0
  Y  Y254  1  0.00252283  0.78087233  0.08724630  1.0
  Y  Y255  1  0.33585617  0.11420567  0.08724630  1.0
  Y  Y256  1  0.33585617  0.44753900  0.08724630  1.0
  Y  Y257  1  0.33585617  0.78087233  0.08724630  1.0
  Y  Y258  1  0.66918950  0.11420567  0.08724630  1.0
  Y  Y259  1  0.66918950  0.44753900  0.08724630  1.0
  Y  Y260  1  0.66918950  0.78087233  0.08724630  1.0
  Y  Y261  1  0.16918950  0.11420567  0.18724630  1.0
  Y  Y262  1  0.16918950  0.44753900  0.18724630  1.0
  Y  Y263  1  0.16918950  0.78087233  0.18724630  1.0
  Y  Y264  1  0.50252283  0.11420567  0.18724630  1.0
  Y  Y265  1  0.50252283  0.44753900  0.18724630  1.0
  Y  Y266  1  0.50252283  0.78087233  0.18724630  1.0
  Y  Y267  1  0.83585617  0.11420567  0.18724630  1.0
  Y  Y268  1  0.83585617  0.44753900  0.18724630  1.0
  Y  Y269  1  0.83585617  0.78087233  0.18724630  1.0
  Y  Y270  1  0.15656500  0.07851667  0.05488460  1.0
  Y  Y271  1  0.15656500  0.41185000  0.05488460  1.0
  Y  Y272  1  0.15656500  0.74518333  0.05488460  1.0
  Y  Y273  1  0.48989833  0.07851667  0.05488460  1.0
  Y  Y274  1  0.48989833  0.41185000  0.05488460  1.0
  Y  Y275  1  0.48989833  0.74518333  0.05488460  1.0
  Y  Y276  1  0.82323167  0.07851667  0.05488460  1.0
  Y  Y277  1  0.82323167  0.41185000  0.05488460  1.0
  Y  Y278  1  0.82323167  0.74518333  0.05488460  1.0
  Y  Y279  1  0.32323167  0.07851667  0.15488460  1.0
  Y  Y280  1  0.32323167  0.41185000  0.15488460  1.0
  Y  Y281  1  0.32323167  0.74518333  0.15488460  1.0
  Y  Y282  1  0.65656500  0.07851667  0.15488460  1.0
  Y  Y283  1  0.65656500  0.41185000  0.15488460  1.0
  Y  Y284  1  0.65656500  0.74518333  0.15488460  1.0
  Y  Y285  1  0.98989833  0.07851667  0.15488460  1.0
  Y  Y286  1  0.98989833  0.41185000  0.15488460  1.0
  Y  Y287  1  0.98989833  0.74518333  0.15488460  1.0
  Y  Y288  1  0.08148100  0.27977133  0.12492160  1.0
  Y  Y289  1  0.08148100  0.61310467  0.12492160  1.0
  Y  Y290  1  0.08148100  0.94643800  0.12492160  1.0
  Y  Y291  1  0.41481433  0.27977133  0.12492160  1.0
  Y  Y292  1  0.41481433  0.61310467  0.12492160  1.0
  Y  Y293  1  0.41481433  0.94643800  0.12492160  1.0
  Y  Y294  1  0.74814767  0.27977133  0.12492160  1.0
  Y  Y295  1  0.74814767  0.61310467  0.12492160  1.0
  Y  Y296  1  0.74814767  0.94643800  0.12492160  1.0
  Y  Y297  1  0.24814767  0.27977133  0.02492160  1.0
  Y  Y298  1  0.24814767  0.61310467  0.02492160  1.0
  Y  Y299  1  0.24814767  0.94643800  0.02492160  1.0
  Y  Y300  1  0.58148100  0.27977133  0.02492160  1.0
  Y  Y301  1  0.58148100  0.61310467  0.02492160  1.0
  Y  Y302  1  0.58148100  0.94643800  0.02492160  1.0
  Y  Y303  1  0.91481433  0.27977133  0.02492160  1.0
  Y  Y304  1  0.91481433  0.61310467  0.02492160  1.0
  Y  Y305  1  0.91481433  0.94643800  0.02492160  1.0
  Y  Y306  1  0.11558333  0.22473433  0.00824460  1.0
  Y  Y307  1  0.11558333  0.55806767  0.00824460  1.0
  Y  Y308  1  0.11558333  0.89140100  0.00824460  1.0
  Y  Y309  1  0.44891667  0.22473433  0.00824460  1.0
  Y  Y310  1  0.44891667  0.55806767  0.00824460  1.0
  Y  Y311  1  0.44891667  0.89140100  0.00824460  1.0
  Y  Y312  1  0.78225000  0.22473433  0.00824460  1.0
  Y  Y313  1  0.78225000  0.55806767  0.00824460  1.0
  Y  Y314  1  0.78225000  0.89140100  0.00824460  1.0
  Y  Y315  1  0.28225000  0.22473433  0.10824460  1.0
  Y  Y316  1  0.28225000  0.55806767  0.10824460  1.0
  Y  Y317  1  0.28225000  0.89140100  0.10824460  1.0
  Y  Y318  1  0.61558333  0.22473433  0.10824460  1.0
  Y  Y319  1  0.61558333  0.55806767  0.10824460  1.0
  Y  Y320  1  0.61558333  0.89140100  0.10824460  1.0
  Y  Y321  1  0.94891667  0.22473433  0.10824460  1.0
  Y  Y322  1  0.94891667  0.55806767  0.10824460  1.0
  Y  Y323  1  0.94891667  0.89140100  0.10824460  1.0
  Y  Y324  1  0.10995933  0.02287100  0.08798940  1.0
  Y  Y325  1  0.10995933  0.35620433  0.08798940  1.0
  Y  Y326  1  0.10995933  0.68953767  0.08798940  1.0
  Y  Y327  1  0.44329267  0.02287100  0.08798940  1.0
  Y  Y328  1  0.44329267  0.35620433  0.08798940  1.0
  Y  Y329  1  0.44329267  0.68953767  0.08798940  1.0
  Y  Y330  1  0.77662600  0.02287100  0.08798940  1.0
  Y  Y331  1  0.77662600  0.35620433  0.08798940  1.0
  Y  Y332  1  0.77662600  0.68953767  0.08798940  1.0
  Y  Y333  1  0.27662600  0.02287100  0.18798940  1.0
  Y  Y334  1  0.27662600  0.35620433  0.18798940  1.0
  Y  Y335  1  0.27662600  0.68953767  0.18798940  1.0
  Y  Y336  1  0.60995933  0.02287100  0.18798940  1.0
  Y  Y337  1  0.60995933  0.35620433  0.18798940  1.0
  Y  Y338  1  0.60995933  0.68953767  0.18798940  1.0
  Y  Y339  1  0.94329267  0.02287100  0.18798940  1.0
  Y  Y340  1  0.94329267  0.35620433  0.18798940  1.0
  Y  Y341  1  0.94329267  0.68953767  0.18798940  1.0
  Y  Y342  1  0.08912467  0.25000000  0.07196000  1.0
  Y  Y343  1  0.08912467  0.58333333  0.07196000  1.0
  Y  Y344  1  0.08912467  0.91666667  0.07196000  1.0
  Y  Y345  1  0.42245800  0.25000000  0.07196000  1.0
  Y  Y346  1  0.42245800  0.58333333  0.07196000  1.0
  Y  Y347  1  0.42245800  0.91666667  0.07196000  1.0
  Y  Y348  1  0.75579133  0.25000000  0.07196000  1.0
  Y  Y349  1  0.75579133  0.58333333  0.07196000  1.0
  Y  Y350  1  0.75579133  0.91666667  0.07196000  1.0
  Y  Y351  1  0.25579133  0.25000000  0.17196000  1.0
  Y  Y352  1  0.25579133  0.58333333  0.17196000  1.0
  Y  Y353  1  0.25579133  0.91666667  0.17196000  1.0
  Y  Y354  1  0.58912467  0.25000000  0.17196000  1.0
  Y  Y355  1  0.58912467  0.58333333  0.17196000  1.0
  Y  Y356  1  0.58912467  0.91666667  0.17196000  1.0
  Y  Y357  1  0.92245800  0.25000000  0.17196000  1.0
  Y  Y358  1  0.92245800  0.58333333  0.17196000  1.0
  Y  Y359  1  0.92245800  0.91666667  0.17196000  1.0
  Y  Y360  1  0.10718267  0.30806767  0.18588500  1.0
  Y  Y361  1  0.10718267  0.64140100  0.18588500  1.0
  Y  Y362  1  0.10718267  0.97473433  0.18588500  1.0
  Y  Y363  1  0.44051600  0.30806767  0.18588500  1.0
  Y  Y364  1  0.44051600  0.64140100  0.18588500  1.0
  Y  Y365  1  0.44051600  0.97473433  0.18588500  1.0
  Y  Y366  1  0.77384933  0.30806767  0.18588500  1.0
  Y  Y367  1  0.77384933  0.64140100  0.18588500  1.0
  Y  Y368  1  0.77384933  0.97473433  0.18588500  1.0
  Y  Y369  1  0.27384933  0.30806767  0.08588500  1.0
  Y  Y370  1  0.27384933  0.64140100  0.08588500  1.0
  Y  Y371  1  0.27384933  0.97473433  0.08588500  1.0
  Y  Y372  1  0.60718267  0.30806767  0.08588500  1.0
  Y  Y373  1  0.60718267  0.64140100  0.08588500  1.0
  Y  Y374  1  0.60718267  0.97473433  0.08588500  1.0
  Y  Y375  1  0.94051600  0.30806767  0.08588500  1.0
  Y  Y376  1  0.94051600  0.64140100  0.08588500  1.0
  Y  Y377  1  0.94051600  0.97473433  0.08588500  1.0
  Y  Y378  1  0.04852133  0.03087233  0.12609840  1.0
  Y  Y379  1  0.04852133  0.36420567  0.12609840  1.0
  Y  Y380  1  0.04852133  0.69753900  0.12609840  1.0
  Y  Y381  1  0.38185467  0.03087233  0.12609840  1.0
  Y  Y382  1  0.38185467  0.36420567  0.12609840  1.0
  Y  Y383  1  0.38185467  0.69753900  0.12609840  1.0
  Y  Y384  1  0.71518800  0.03087233  0.12609840  1.0
  Y  Y385  1  0.71518800  0.36420567  0.12609840  1.0
  Y  Y386  1  0.71518800  0.69753900  0.12609840  1.0
  Y  Y387  1  0.21518800  0.03087233  0.02609840  1.0
  Y  Y388  1  0.21518800  0.36420567  0.02609840  1.0
  Y  Y389  1  0.21518800  0.69753900  0.02609840  1.0
  Y  Y390  1  0.54852133  0.03087233  0.02609840  1.0
  Y  Y391  1  0.54852133  0.36420567  0.02609840  1.0
  Y  Y392  1  0.54852133  0.69753900  0.02609840  1.0
  Y  Y393  1  0.88185467  0.03087233  0.02609840  1.0
  Y  Y394  1  0.88185467  0.36420567  0.02609840  1.0
  Y  Y395  1  0.88185467  0.69753900  0.02609840  1.0
  Y  Y396  1  0.00185233  0.30356200  0.19141880  1.0
  Y  Y397  1  0.00185233  0.63689533  0.19141880  1.0
  Y  Y398  1  0.00185233  0.97022867  0.19141880  1.0
  Y  Y399  1  0.33518567  0.30356200  0.19141880  1.0
  Y  Y400  1  0.33518567  0.63689533  0.19141880  1.0
  Y  Y401  1  0.33518567  0.97022867  0.19141880  1.0
  Y  Y402  1  0.66851900  0.30356200  0.19141880  1.0
  Y  Y403  1  0.66851900  0.63689533  0.19141880  1.0
  Y  Y404  1  0.66851900  0.97022867  0.19141880  1.0
  Y  Y405  1  0.16851900  0.30356200  0.09141880  1.0
  Y  Y406  1  0.16851900  0.63689533  0.09141880  1.0
  Y  Y407  1  0.16851900  0.97022867  0.09141880  1.0
  Y  Y408  1  0.50185233  0.30356200  0.09141880  1.0
  Y  Y409  1  0.50185233  0.63689533  0.09141880  1.0
  Y  Y410  1  0.50185233  0.97022867  0.09141880  1.0
  Y  Y411  1  0.83518567  0.30356200  0.09141880  1.0
  Y  Y412  1  0.83518567  0.63689533  0.09141880  1.0
  Y  Y413  1  0.83518567  0.97022867  0.09141880  1.0
  Y  Y414  1  0.07323167  0.00481667  0.18386300  1.0
  Y  Y415  1  0.07323167  0.33815000  0.18386300  1.0
  Y  Y416  1  0.07323167  0.67148333  0.18386300  1.0
  Y  Y417  1  0.40656500  0.00481667  0.18386300  1.0
  Y  Y418  1  0.40656500  0.33815000  0.18386300  1.0
  Y  Y419  1  0.40656500  0.67148333  0.18386300  1.0
  Y  Y420  1  0.73989833  0.00481667  0.18386300  1.0
  Y  Y421  1  0.73989833  0.33815000  0.18386300  1.0
  Y  Y422  1  0.73989833  0.67148333  0.18386300  1.0
  Y  Y423  1  0.23989833  0.00481667  0.08386300  1.0
  Y  Y424  1  0.23989833  0.33815000  0.08386300  1.0
  Y  Y425  1  0.23989833  0.67148333  0.08386300  1.0
  Y  Y426  1  0.57323167  0.00481667  0.08386300  1.0
  Y  Y427  1  0.57323167  0.33815000  0.08386300  1.0
  Y  Y428  1  0.57323167  0.67148333  0.08386300  1.0
  Y  Y429  1  0.90656500  0.00481667  0.08386300  1.0
  Y  Y430  1  0.90656500  0.33815000  0.08386300  1.0
  Y  Y431  1  0.90656500  0.67148333  0.08386300  1.0
  Y  Y432  1  0.16087533  0.00000000  0.06501040  1.0
  Y  Y433  1  0.16087533  0.33333333  0.06501040  1.0
  Y  Y434  1  0.16087533  0.66666667  0.06501040  1.0
  Y  Y435  1  0.49420867  0.00000000  0.06501040  1.0
  Y  Y436  1  0.49420867  0.33333333  0.06501040  1.0
  Y  Y437  1  0.49420867  0.66666667  0.06501040  1.0
  Y  Y438  1  0.82754200  0.00000000  0.06501040  1.0
  Y  Y439  1  0.82754200  0.33333333  0.06501040  1.0
  Y  Y440  1  0.82754200  0.66666667  0.06501040  1.0
  Y  Y441  1  0.32754200  0.33333333  0.16501040  1.0
  Y  Y442  1  0.32754200  0.66666667  0.16501040  1.0
  Y  Y443  1  0.32754200  1.00000000  0.16501040  1.0
  Y  Y444  1  0.66087533  0.33333333  0.16501040  1.0
  Y  Y445  1  0.66087533  0.66666667  0.16501040  1.0
  Y  Y446  1  0.66087533  1.00000000  0.16501040  1.0
  Y  Y447  1  0.99420867  0.33333333  0.16501040  1.0
  Y  Y448  1  0.99420867  0.66666667  0.16501040  1.0
  Y  Y449  1  0.99420867  1.00000000  0.16501040  1.0
  Y  Y450  1  0.03481200  0.21912767  0.13082600  1.0
  Y  Y451  1  0.03481200  0.55246100  0.13082600  1.0
  Y  Y452  1  0.03481200  0.88579433  0.13082600  1.0
  Y  Y453  1  0.36814533  0.21912767  0.13082600  1.0
  Y  Y454  1  0.36814533  0.55246100  0.13082600  1.0
  Y  Y455  1  0.36814533  0.88579433  0.13082600  1.0
  Y  Y456  1  0.70147867  0.21912767  0.13082600  1.0
  Y  Y457  1  0.70147867  0.55246100  0.13082600  1.0
  Y  Y458  1  0.70147867  0.88579433  0.13082600  1.0
  Y  Y459  1  0.20147867  0.21912767  0.03082600  1.0
  Y  Y460  1  0.20147867  0.55246100  0.03082600  1.0
  Y  Y461  1  0.20147867  0.88579433  0.03082600  1.0
  Y  Y462  1  0.53481200  0.21912767  0.03082600  1.0
  Y  Y463  1  0.53481200  0.55246100  0.03082600  1.0
  Y  Y464  1  0.53481200  0.88579433  0.03082600  1.0
  Y  Y465  1  0.86814533  0.21912767  0.03082600  1.0
  Y  Y466  1  0.86814533  0.55246100  0.03082600  1.0
  Y  Y467  1  0.86814533  0.88579433  0.03082600  1.0
  Y  Y468  1  0.03225000  0.19193233  0.18132500  1.0
  Y  Y469  1  0.03225000  0.52526567  0.18132500  1.0
  Y  Y470  1  0.03225000  0.85859900  0.18132500  1.0
  Y  Y471  1  0.36558333  0.19193233  0.18132500  1.0
  Y  Y472  1  0.36558333  0.52526567  0.18132500  1.0
  Y  Y473  1  0.36558333  0.85859900  0.18132500  1.0
  Y  Y474  1  0.69891667  0.19193233  0.18132500  1.0
  Y  Y475  1  0.69891667  0.52526567  0.18132500  1.0
  Y  Y476  1  0.69891667  0.85859900  0.18132500  1.0
  Y  Y477  1  0.19891667  0.19193233  0.08132500  1.0
  Y  Y478  1  0.19891667  0.52526567  0.08132500  1.0
  Y  Y479  1  0.19891667  0.85859900  0.08132500  1.0
  Y  Y480  1  0.53225000  0.19193233  0.08132500  1.0
  Y  Y481  1  0.53225000  0.52526567  0.08132500  1.0
  Y  Y482  1  0.53225000  0.85859900  0.08132500  1.0
  Y  Y483  1  0.86558333  0.19193233  0.08132500  1.0
  Y  Y484  1  0.86558333  0.52526567  0.08132500  1.0
  Y  Y485  1  0.86558333  0.85859900  0.08132500  1.0
  Y  Y486  1  0.05595300  0.27287100  0.00468040  1.0
  Y  Y487  1  0.05595300  0.60620433  0.00468040  1.0
  Y  Y488  1  0.05595300  0.93953767  0.00468040  1.0
  Y  Y489  1  0.38928633  0.27287100  0.00468040  1.0
  Y  Y490  1  0.38928633  0.60620433  0.00468040  1.0
  Y  Y491  1  0.38928633  0.93953767  0.00468040  1.0
  Y  Y492  1  0.72261967  0.27287100  0.00468040  1.0
  Y  Y493  1  0.72261967  0.60620433  0.00468040  1.0
  Y  Y494  1  0.72261967  0.93953767  0.00468040  1.0
  Y  Y495  1  0.22261967  0.27287100  0.10468040  1.0
  Y  Y496  1  0.22261967  0.60620433  0.10468040  1.0
  Y  Y497  1  0.22261967  0.93953767  0.10468040  1.0
  Y  Y498  1  0.55595300  0.27287100  0.10468040  1.0
  Y  Y499  1  0.55595300  0.60620433  0.10468040  1.0
  Y  Y500  1  0.55595300  0.93953767  0.10468040  1.0
  Y  Y501  1  0.88928633  0.27287100  0.10468040  1.0
  Y  Y502  1  0.88928633  0.60620433  0.10468040  1.0
  Y  Y503  1  0.88928633  0.93953767  0.10468040  1.0
  Y  Y504  1  0.05305967  0.00000000  0.07094220  1.0
  Y  Y505  1  0.05305967  0.33333333  0.07094220  1.0
  Y  Y506  1  0.05305967  0.66666667  0.07094220  1.0
  Y  Y507  1  0.38639300  0.00000000  0.07094220  1.0
  Y  Y508  1  0.38639300  0.33333333  0.07094220  1.0
  Y  Y509  1  0.38639300  0.66666667  0.07094220  1.0
  Y  Y510  1  0.71972633  0.00000000  0.07094220  1.0
  Y  Y511  1  0.71972633  0.33333333  0.07094220  1.0
  Y  Y512  1  0.71972633  0.66666667  0.07094220  1.0
  Y  Y513  1  0.21972633  0.00000000  0.17094220  1.0
  Y  Y514  1  0.21972633  0.33333333  0.17094220  1.0
  Y  Y515  1  0.21972633  0.66666667  0.17094220  1.0
  Y  Y516  1  0.55305967  0.00000000  0.17094220  1.0
  Y  Y517  1  0.55305967  0.33333333  0.17094220  1.0
  Y  Y518  1  0.55305967  0.66666667  0.17094220  1.0
  Y  Y519  1  0.88639300  0.00000000  0.17094220  1.0
  Y  Y520  1  0.88639300  0.33333333  0.17094220  1.0
  Y  Y521  1  0.88639300  0.66666667  0.17094220  1.0
  Y  Y522  1  0.05133267  0.08815000  0.07124640  1.0
  Y  Y523  1  0.05133267  0.42148333  0.07124640  1.0
  Y  Y524  1  0.05133267  0.75481667  0.07124640  1.0
  Y  Y525  1  0.38466600  0.08815000  0.07124640  1.0
  Y  Y526  1  0.38466600  0.42148333  0.07124640  1.0
  Y  Y527  1  0.38466600  0.75481667  0.07124640  1.0
  Y  Y528  1  0.71799933  0.08815000  0.07124640  1.0
  Y  Y529  1  0.71799933  0.42148333  0.07124640  1.0
  Y  Y530  1  0.71799933  0.75481667  0.07124640  1.0
  Y  Y531  1  0.21799933  0.08815000  0.17124640  1.0
  Y  Y532  1  0.21799933  0.42148333  0.17124640  1.0
  Y  Y533  1  0.21799933  0.75481667  0.17124640  1.0
  Y  Y534  1  0.55133267  0.08815000  0.17124640  1.0
  Y  Y535  1  0.55133267  0.42148333  0.17124640  1.0
  Y  Y536  1  0.55133267  0.75481667  0.17124640  1.0
  Y  Y537  1  0.88466600  0.08815000  0.17124640  1.0
  Y  Y538  1  0.88466600  0.42148333  0.17124640  1.0
  Y  Y539  1  0.88466600  0.75481667  0.17124640  1.0
  Y  Y540  1  0.13928633  0.14379567  0.01333280  1.0
  Y  Y541  1  0.13928633  0.47712900  0.01333280  1.0
  Y  Y542  1  0.13928633  0.81046233  0.01333280  1.0
  Y  Y543  1  0.47261967  0.14379567  0.01333280  1.0
  Y  Y544  1  0.47261967  0.47712900  0.01333280  1.0
  Y  Y545  1  0.47261967  0.81046233  0.01333280  1.0
  Y  Y546  1  0.80595300  0.14379567  0.01333280  1.0
  Y  Y547  1  0.80595300  0.47712900  0.01333280  1.0
  Y  Y548  1  0.80595300  0.81046233  0.01333280  1.0
  Y  Y549  1  0.30595300  0.14379567  0.11333280  1.0
  Y  Y550  1  0.30595300  0.47712900  0.11333280  1.0
  Y  Y551  1  0.30595300  0.81046233  0.11333280  1.0
  Y  Y552  1  0.63928633  0.14379567  0.11333280  1.0
  Y  Y553  1  0.63928633  0.47712900  0.11333280  1.0
  Y  Y554  1  0.63928633  0.81046233  0.11333280  1.0
  Y  Y555  1  0.97261967  0.14379567  0.11333280  1.0
  Y  Y556  1  0.97261967  0.47712900  0.11333280  1.0
  Y  Y557  1  0.97261967  0.81046233  0.11333280  1.0
  Y  Y558  1  0.13639300  0.08333333  0.14359900  1.0
  Y  Y559  1  0.13639300  0.41666667  0.14359900  1.0
  Y  Y560  1  0.13639300  0.75000000  0.14359900  1.0
  Y  Y561  1  0.46972633  0.08333333  0.14359900  1.0
  Y  Y562  1  0.46972633  0.41666667  0.14359900  1.0
  Y  Y563  1  0.46972633  0.75000000  0.14359900  1.0
  Y  Y564  1  0.80305967  0.08333333  0.14359900  1.0
  Y  Y565  1  0.80305967  0.41666667  0.14359900  1.0
  Y  Y566  1  0.80305967  0.75000000  0.14359900  1.0
  Y  Y567  1  0.30305967  0.08333333  0.04359900  1.0
  Y  Y568  1  0.30305967  0.41666667  0.04359900  1.0
  Y  Y569  1  0.30305967  0.75000000  0.04359900  1.0
  Y  Y570  1  0.63639300  0.08333333  0.04359900  1.0
  Y  Y571  1  0.63639300  0.41666667  0.04359900  1.0
  Y  Y572  1  0.63639300  0.75000000  0.04359900  1.0
  Y  Y573  1  0.96972633  0.08333333  0.04359900  1.0
  Y  Y574  1  0.96972633  0.41666667  0.04359900  1.0
  Y  Y575  1  0.96972633  0.75000000  0.04359900  1.0
  Y  Y576  1  0.00579133  0.16666667  0.08585920  1.0
  Y  Y577  1  0.00579133  0.50000000  0.08585920  1.0
  Y  Y578  1  0.00579133  0.83333333  0.08585920  1.0
  Y  Y579  1  0.33912467  0.16666667  0.08585920  1.0
  Y  Y580  1  0.33912467  0.50000000  0.08585920  1.0
  Y  Y581  1  0.33912467  0.83333333  0.08585920  1.0
  Y  Y582  1  0.67245800  0.16666667  0.08585920  1.0
  Y  Y583  1  0.67245800  0.50000000  0.08585920  1.0
  Y  Y584  1  0.67245800  0.83333333  0.08585920  1.0
  Y  Y585  1  0.17245800  0.16666667  0.18585920  1.0
  Y  Y586  1  0.17245800  0.50000000  0.18585920  1.0
  Y  Y587  1  0.17245800  0.83333333  0.18585920  1.0
  Y  Y588  1  0.50579133  0.16666667  0.18585920  1.0
  Y  Y589  1  0.50579133  0.50000000  0.18585920  1.0
  Y  Y590  1  0.50579133  0.83333333  0.18585920  1.0
  Y  Y591  1  0.83912467  0.16666667  0.18585920  1.0
  Y  Y592  1  0.83912467  0.50000000  0.18585920  1.0
  Y  Y593  1  0.83912467  0.83333333  0.18585920  1.0
  Y  Y594  1  0.01010167  0.24518333  0.19020500  1.0
  Y  Y595  1  0.01010167  0.57851667  0.19020500  1.0
  Y  Y596  1  0.01010167  0.91185000  0.19020500  1.0
  Y  Y597  1  0.34343500  0.24518333  0.19020500  1.0
  Y  Y598  1  0.34343500  0.57851667  0.19020500  1.0
  Y  Y599  1  0.34343500  0.91185000  0.19020500  1.0
  Y  Y600  1  0.67676833  0.24518333  0.19020500  1.0
  Y  Y601  1  0.67676833  0.57851667  0.19020500  1.0
  Y  Y602  1  0.67676833  0.91185000  0.19020500  1.0
  Y  Y603  1  0.17676833  0.24518333  0.09020500  1.0
  Y  Y604  1  0.17676833  0.57851667  0.09020500  1.0
  Y  Y605  1  0.17676833  0.91185000  0.09020500  1.0
  Y  Y606  1  0.51010167  0.24518333  0.09020500  1.0
  Y  Y607  1  0.51010167  0.57851667  0.09020500  1.0
  Y  Y608  1  0.51010167  0.91185000  0.09020500  1.0
  Y  Y609  1  0.84343500  0.24518333  0.09020500  1.0
  Y  Y610  1  0.84343500  0.57851667  0.09020500  1.0
  Y  Y611  1  0.84343500  0.91185000  0.09020500  1.0
  Y  Y612  1  0.02384933  0.10859900  0.19360380  1.0
  Y  Y613  1  0.02384933  0.44193233  0.19360380  1.0
  Y  Y614  1  0.02384933  0.77526567  0.19360380  1.0
  Y  Y615  1  0.35718267  0.10859900  0.19360380  1.0
  Y  Y616  1  0.35718267  0.44193233  0.19360380  1.0
  Y  Y617  1  0.35718267  0.77526567  0.19360380  1.0
  Y  Y618  1  0.69051600  0.10859900  0.19360380  1.0
  Y  Y619  1  0.69051600  0.44193233  0.19360380  1.0
  Y  Y620  1  0.69051600  0.77526567  0.19360380  1.0
  Y  Y621  1  0.19051600  0.10859900  0.09360380  1.0
  Y  Y622  1  0.19051600  0.44193233  0.09360380  1.0
  Y  Y623  1  0.19051600  0.77526567  0.09360380  1.0
  Y  Y624  1  0.52384933  0.10859900  0.09360380  1.0
  Y  Y625  1  0.52384933  0.44193233  0.09360380  1.0
  Y  Y626  1  0.52384933  0.77526567  0.09360380  1.0
  Y  Y627  1  0.85718267  0.10859900  0.09360380  1.0
  Y  Y628  1  0.85718267  0.44193233  0.09360380  1.0
  Y  Y629  1  0.85718267  0.77526567  0.09360380  1.0
  Y  Y630  1  0.02662600  0.06046233  0.09483140  1.0
  Y  Y631  1  0.02662600  0.39379567  0.09483140  1.0
  Y  Y632  1  0.02662600  0.72712900  0.09483140  1.0
  Y  Y633  1  0.35995933  0.06046233  0.09483140  1.0
  Y  Y634  1  0.35995933  0.39379567  0.09483140  1.0
  Y  Y635  1  0.35995933  0.72712900  0.09483140  1.0
  Y  Y636  1  0.69329267  0.06046233  0.09483140  1.0
  Y  Y637  1  0.69329267  0.39379567  0.09483140  1.0
  Y  Y638  1  0.69329267  0.72712900  0.09483140  1.0
  Y  Y639  1  0.19329267  0.06046233  0.19483140  1.0
  Y  Y640  1  0.19329267  0.39379567  0.19483140  1.0
  Y  Y641  1  0.19329267  0.72712900  0.19483140  1.0
  Y  Y642  1  0.52662600  0.06046233  0.19483140  1.0
  Y  Y643  1  0.52662600  0.39379567  0.19483140  1.0
  Y  Y644  1  0.52662600  0.72712900  0.19483140  1.0
  Y  Y645  1  0.85995933  0.06046233  0.19483140  1.0
  Y  Y646  1  0.85995933  0.39379567  0.19483140  1.0
  Y  Y647  1  0.85995933  0.72712900  0.19483140  1.0
  Y  Y648  1  0.13466600  0.32851667  0.14122240  1.0
  Y  Y649  1  0.13466600  0.66185000  0.14122240  1.0
  Y  Y650  1  0.13466600  0.99518333  0.14122240  1.0
  Y  Y651  1  0.46799933  0.32851667  0.14122240  1.0
  Y  Y652  1  0.46799933  0.66185000  0.14122240  1.0
  Y  Y653  1  0.46799933  0.99518333  0.14122240  1.0
  Y  Y654  1  0.80133267  0.32851667  0.14122240  1.0
  Y  Y655  1  0.80133267  0.66185000  0.14122240  1.0
  Y  Y656  1  0.80133267  0.99518333  0.14122240  1.0
  Y  Y657  1  0.30133267  0.32851667  0.04122240  1.0
  Y  Y658  1  0.30133267  0.66185000  0.04122240  1.0
  Y  Y659  1  0.30133267  0.99518333  0.04122240  1.0
  Y  Y660  1  0.63466600  0.32851667  0.04122240  1.0
  Y  Y661  1  0.63466600  0.66185000  0.04122240  1.0
  Y  Y662  1  0.63466600  0.99518333  0.04122240  1.0
  Y  Y663  1  0.96799933  0.32851667  0.04122240  1.0
  Y  Y664  1  0.96799933  0.66185000  0.04122240  1.0
  Y  Y665  1  0.96799933  0.99518333  0.04122240  1.0
  Y  Y666  1  0.11814533  0.19753900  0.06181800  1.0
  Y  Y667  1  0.11814533  0.53087233  0.06181800  1.0
  Y  Y668  1  0.11814533  0.86420567  0.06181800  1.0
  Y  Y669  1  0.45147867  0.19753900  0.06181800  1.0
  Y  Y670  1  0.45147867  0.53087233  0.06181800  1.0
  Y  Y671  1  0.45147867  0.86420567  0.06181800  1.0
  Y  Y672  1  0.78481200  0.19753900  0.06181800  1.0
  Y  Y673  1  0.78481200  0.53087233  0.06181800  1.0
  Y  Y674  1  0.78481200  0.86420567  0.06181800  1.0
  Y  Y675  1  0.28481200  0.19753900  0.16181800  1.0
  Y  Y676  1  0.28481200  0.53087233  0.16181800  1.0
  Y  Y677  1  0.28481200  0.86420567  0.16181800  1.0
  Y  Y678  1  0.61814533  0.19753900  0.16181800  1.0
  Y  Y679  1  0.61814533  0.53087233  0.16181800  1.0
  Y  Y680  1  0.61814533  0.86420567  0.16181800  1.0
  Y  Y681  1  0.95147867  0.19753900  0.16181800  1.0
  Y  Y682  1  0.95147867  0.53087233  0.16181800  1.0
  Y  Y683  1  0.95147867  0.86420567  0.16181800  1.0
  Y  Y684  1  0.03200067  0.16185000  0.00386720  1.0
  Y  Y685  1  0.03200067  0.49518333  0.00386720  1.0
  Y  Y686  1  0.03200067  0.82851667  0.00386720  1.0
  Y  Y687  1  0.36533400  0.16185000  0.00386720  1.0
  Y  Y688  1  0.36533400  0.49518333  0.00386720  1.0
  Y  Y689  1  0.36533400  0.82851667  0.00386720  1.0
  Y  Y690  1  0.69866733  0.16185000  0.00386720  1.0
  Y  Y691  1  0.69866733  0.49518333  0.00386720  1.0
  Y  Y692  1  0.69866733  0.82851667  0.00386720  1.0
  Y  Y693  1  0.19866733  0.16185000  0.10386720  1.0
  Y  Y694  1  0.19866733  0.49518333  0.10386720  1.0
  Y  Y695  1  0.19866733  0.82851667  0.10386720  1.0
  Y  Y696  1  0.53200067  0.16185000  0.10386720  1.0
  Y  Y697  1  0.53200067  0.49518333  0.10386720  1.0
  Y  Y698  1  0.53200067  0.82851667  0.10386720  1.0
  Y  Y699  1  0.86533400  0.16185000  0.10386720  1.0
  Y  Y700  1  0.86533400  0.49518333  0.10386720  1.0
  Y  Y701  1  0.86533400  0.82851667  0.10386720  1.0
  Y  Y702  1  0.09343500  0.17148333  0.17278660  1.0
  Y  Y703  1  0.09343500  0.50481667  0.17278660  1.0
  Y  Y704  1  0.09343500  0.83815000  0.17278660  1.0
  Y  Y705  1  0.42676833  0.17148333  0.17278660  1.0
  Y  Y706  1  0.42676833  0.50481667  0.17278660  1.0
  Y  Y707  1  0.42676833  0.83815000  0.17278660  1.0
  Y  Y708  1  0.76010167  0.17148333  0.17278660  1.0
  Y  Y709  1  0.76010167  0.50481667  0.17278660  1.0
  Y  Y710  1  0.76010167  0.83815000  0.17278660  1.0
  Y  Y711  1  0.26010167  0.17148333  0.07278660  1.0
  Y  Y712  1  0.26010167  0.50481667  0.07278660  1.0
  Y  Y713  1  0.26010167  0.83815000  0.07278660  1.0
  Y  Y714  1  0.59343500  0.17148333  0.07278660  1.0
  Y  Y715  1  0.59343500  0.50481667  0.07278660  1.0
  Y  Y716  1  0.59343500  0.83815000  0.07278660  1.0
  Y  Y717  1  0.92676833  0.17148333  0.07278660  1.0
  Y  Y718  1  0.92676833  0.50481667  0.07278660  1.0
  Y  Y719  1  0.92676833  0.83815000  0.07278660  1.0
  Y  Y720  1  0.13441667  0.02526567  0.19986340  1.0
  Y  Y721  1  0.13441667  0.35859900  0.19986340  1.0
  Y  Y722  1  0.13441667  0.69193233  0.19986340  1.0
  Y  Y723  1  0.46775000  0.02526567  0.19986340  1.0
  Y  Y724  1  0.46775000  0.35859900  0.19986340  1.0
  Y  Y725  1  0.46775000  0.69193233  0.19986340  1.0
  Y  Y726  1  0.80108333  0.02526567  0.19986340  1.0
  Y  Y727  1  0.80108333  0.35859900  0.19986340  1.0
  Y  Y728  1  0.80108333  0.69193233  0.19986340  1.0
  Y  Y729  1  0.30108333  0.02526567  0.09986340  1.0
  Y  Y730  1  0.30108333  0.35859900  0.09986340  1.0
  Y  Y731  1  0.30108333  0.69193233  0.09986340  1.0
  Y  Y732  1  0.63441667  0.02526567  0.09986340  1.0
  Y  Y733  1  0.63441667  0.35859900  0.09986340  1.0
  Y  Y734  1  0.63441667  0.69193233  0.09986340  1.0
  Y  Y735  1  0.96775000  0.02526567  0.09986340  1.0
  Y  Y736  1  0.96775000  0.35859900  0.09986340  1.0
  Y  Y737  1  0.96775000  0.69193233  0.09986340  1.0
  Y  Y738  1  0.02727950  0.02977133  0.01188810  1.0
  Y  Y739  1  0.02727950  0.36310467  0.01188810  1.0
  Y  Y740  1  0.02727950  0.69643800  0.01188810  1.0
  Y  Y741  1  0.36061283  0.02977133  0.01188810  1.0
  Y  Y742  1  0.36061283  0.36310467  0.01188810  1.0
  Y  Y743  1  0.36061283  0.69643800  0.01188810  1.0
  Y  Y744  1  0.69394617  0.02977133  0.01188810  1.0
  Y  Y745  1  0.69394617  0.36310467  0.01188810  1.0
  Y  Y746  1  0.69394617  0.69643800  0.01188810  1.0
  Y  Y747  1  0.19394617  0.02977133  0.11188810  1.0
  Y  Y748  1  0.19394617  0.36310467  0.11188810  1.0
  Y  Y749  1  0.19394617  0.69643800  0.11188810  1.0
  Y  Y750  1  0.52727950  0.02977133  0.11188810  1.0
  Y  Y751  1  0.52727950  0.36310467  0.11188810  1.0
  Y  Y752  1  0.52727950  0.69643800  0.11188810  1.0
  Y  Y753  1  0.86061283  0.02977133  0.11188810  1.0
  Y  Y754  1  0.86061283  0.36310467  0.11188810  1.0
  Y  Y755  1  0.86061283  0.69643800  0.11188810  1.0
  Y  Y756  1  0.05605383  0.22022867  0.04342710  1.0
  Y  Y757  1  0.05605383  0.55356200  0.04342710  1.0
  Y  Y758  1  0.05605383  0.88689533  0.04342710  1.0
  Y  Y759  1  0.38938717  0.22022867  0.04342710  1.0
  Y  Y760  1  0.38938717  0.55356200  0.04342710  1.0
  Y  Y761  1  0.38938717  0.88689533  0.04342710  1.0
  Y  Y762  1  0.72272050  0.22022867  0.04342710  1.0
  Y  Y763  1  0.72272050  0.55356200  0.04342710  1.0
  Y  Y764  1  0.72272050  0.88689533  0.04342710  1.0
  Y  Y765  1  0.22272050  0.22022867  0.14342710  1.0
  Y  Y766  1  0.22272050  0.55356200  0.14342710  1.0
  Y  Y767  1  0.22272050  0.88689533  0.14342710  1.0
  Y  Y768  1  0.55605383  0.22022867  0.14342710  1.0
  Y  Y769  1  0.55605383  0.55356200  0.14342710  1.0
  Y  Y770  1  0.55605383  0.88689533  0.14342710  1.0
  Y  Y771  1  0.88938717  0.22022867  0.14342710  1.0
  Y  Y772  1  0.88938717  0.55356200  0.14342710  1.0
  Y  Y773  1  0.88938717  0.88689533  0.14342710  1.0
  Y  Y774  1  0.13185467  0.05246100  0.08299680  1.0
  Y  Y775  1  0.13185467  0.38579433  0.08299680  1.0
  Y  Y776  1  0.13185467  0.71912767  0.08299680  1.0
  Y  Y777  1  0.46518800  0.05246100  0.08299680  1.0
  Y  Y778  1  0.46518800  0.38579433  0.08299680  1.0
  Y  Y779  1  0.46518800  0.71912767  0.08299680  1.0
  Y  Y780  1  0.79852133  0.05246100  0.08299680  1.0
  Y  Y781  1  0.79852133  0.38579433  0.08299680  1.0
  Y  Y782  1  0.79852133  0.71912767  0.08299680  1.0
  Y  Y783  1  0.29852133  0.05246100  0.18299680  1.0
  Y  Y784  1  0.29852133  0.38579433  0.18299680  1.0
  Y  Y785  1  0.29852133  0.71912767  0.18299680  1.0
  Y  Y786  1  0.63185467  0.05246100  0.18299680  1.0
  Y  Y787  1  0.63185467  0.38579433  0.18299680  1.0
  Y  Y788  1  0.63185467  0.71912767  0.18299680  1.0
  Y  Y789  1  0.96518800  0.05246100  0.18299680  1.0
  Y  Y790  1  0.96518800  0.38579433  0.18299680  1.0
  Y  Y791  1  0.96518800  0.71912767  0.18299680  1.0
  Y  Y792  1  0.08585617  0.30246100  0.06665070  1.0
  Y  Y793  1  0.08585617  0.63579433  0.06665070  1.0
  Y  Y794  1  0.08585617  0.96912767  0.06665070  1.0
  Y  Y795  1  0.41918950  0.30246100  0.06665070  1.0
  Y  Y796  1  0.41918950  0.63579433  0.06665070  1.0
  Y  Y797  1  0.41918950  0.96912767  0.06665070  1.0
  Y  Y798  1  0.75252283  0.30246100  0.06665070  1.0
  Y  Y799  1  0.75252283  0.63579433  0.06665070  1.0
  Y  Y800  1  0.75252283  0.96912767  0.06665070  1.0
  Y  Y801  1  0.25252283  0.30246100  0.16665070  1.0
  Y  Y802  1  0.25252283  0.63579433  0.16665070  1.0
  Y  Y803  1  0.25252283  0.96912767  0.16665070  1.0
  Y  Y804  1  0.58585617  0.30246100  0.16665070  1.0
  Y  Y805  1  0.58585617  0.63579433  0.16665070  1.0
  Y  Y806  1  0.58585617  0.96912767  0.16665070  1.0
  Y  Y807  1  0.91918950  0.30246100  0.16665070  1.0
  Y  Y808  1  0.91918950  0.63579433  0.16665070  1.0
  Y  Y809  1  0.91918950  0.96912767  0.16665070  1.0
  Y  Y810  1  0.16414383  0.28087233  0.00067010  1.0
  Y  Y811  1  0.16414383  0.61420567  0.00067010  1.0
  Y  Y812  1  0.16414383  0.94753900  0.00067010  1.0
  Y  Y813  1  0.49747717  0.28087233  0.00067010  1.0
  Y  Y814  1  0.49747717  0.61420567  0.00067010  1.0
  Y  Y815  1  0.49747717  0.94753900  0.00067010  1.0
  Y  Y816  1  0.83081050  0.28087233  0.00067010  1.0
  Y  Y817  1  0.83081050  0.61420567  0.00067010  1.0
  Y  Y818  1  0.83081050  0.94753900  0.00067010  1.0
  Y  Y819  1  0.33081050  0.28087233  0.10067010  1.0
  Y  Y820  1  0.33081050  0.61420567  0.10067010  1.0
  Y  Y821  1  0.33081050  0.94753900  0.10067010  1.0
  Y  Y822  1  0.66414383  0.28087233  0.10067010  1.0
  Y  Y823  1  0.66414383  0.61420567  0.10067010  1.0
  Y  Y824  1  0.66414383  0.94753900  0.10067010  1.0
  Y  Y825  1  0.99747717  0.28087233  0.10067010  1.0
  Y  Y826  1  0.99747717  0.61420567  0.10067010  1.0
  Y  Y827  1  0.99747717  0.94753900  0.10067010  1.0
  Y  Y828  1  0.05948400  0.14140100  0.13466580  1.0
  Y  Y829  1  0.05948400  0.47473433  0.13466580  1.0
  Y  Y830  1  0.05948400  0.80806767  0.13466580  1.0
  Y  Y831  1  0.39281733  0.14140100  0.13466580  1.0
  Y  Y832  1  0.39281733  0.47473433  0.13466580  1.0
  Y  Y833  1  0.39281733  0.80806767  0.13466580  1.0
  Y  Y834  1  0.72615067  0.14140100  0.13466580  1.0
  Y  Y835  1  0.72615067  0.47473433  0.13466580  1.0
  Y  Y836  1  0.72615067  0.80806767  0.13466580  1.0
  Y  Y837  1  0.22615067  0.14140100  0.03466580  1.0
  Y  Y838  1  0.22615067  0.47473433  0.03466580  1.0
  Y  Y839  1  0.22615067  0.80806767  0.03466580  1.0
  Y  Y840  1  0.55948400  0.14140100  0.03466580  1.0
  Y  Y841  1  0.55948400  0.47473433  0.03466580  1.0
  Y  Y842  1  0.55948400  0.80806767  0.03466580  1.0
  Y  Y843  1  0.89281733  0.14140100  0.03466580  1.0
  Y  Y844  1  0.89281733  0.47473433  0.03466580  1.0
  Y  Y845  1  0.89281733  0.80806767  0.03466580  1.0
  Y  Y846  1  0.05108333  0.05806767  0.01230620  1.0
  Y  Y847  1  0.05108333  0.39140100  0.01230620  1.0
  Y  Y848  1  0.05108333  0.72473433  0.01230620  1.0
  Y  Y849  1  0.38441667  0.05806767  0.01230620  1.0
  Y  Y850  1  0.38441667  0.39140100  0.01230620  1.0
  Y  Y851  1  0.38441667  0.72473433  0.01230620  1.0
  Y  Y852  1  0.71775000  0.05806767  0.01230620  1.0
  Y  Y853  1  0.71775000  0.39140100  0.01230620  1.0
  Y  Y854  1  0.71775000  0.72473433  0.01230620  1.0
  Y  Y855  1  0.21775000  0.05806767  0.11230620  1.0
  Y  Y856  1  0.21775000  0.39140100  0.11230620  1.0
  Y  Y857  1  0.21775000  0.72473433  0.11230620  1.0
  Y  Y858  1  0.55108333  0.05806767  0.11230620  1.0
  Y  Y859  1  0.55108333  0.39140100  0.11230620  1.0
  Y  Y860  1  0.55108333  0.72473433  0.11230620  1.0
  Y  Y861  1  0.88441667  0.05806767  0.11230620  1.0
  Y  Y862  1  0.88441667  0.39140100  0.11230620  1.0
  Y  Y863  1  0.88441667  0.72473433  0.11230620  1.0
  Ni  Ni864  1  0.10892233  0.28529400  0.01431140  1.0
  Ni  Ni865  1  0.10892233  0.61862733  0.01431140  1.0
  Ni  Ni866  1  0.10892233  0.95196067  0.01431140  1.0
  Ni  Ni867  1  0.44225567  0.28529400  0.01431140  1.0
  Ni  Ni868  1  0.44225567  0.61862733  0.01431140  1.0
  Ni  Ni869  1  0.44225567  0.95196067  0.01431140  1.0
  Ni  Ni870  1  0.77558900  0.28529400  0.01431140  1.0
  Ni  Ni871  1  0.77558900  0.61862733  0.01431140  1.0
  Ni  Ni872  1  0.77558900  0.95196067  0.01431140  1.0
  Ni  Ni873  1  0.27558900  0.28529400  0.11431140  1.0
  Ni  Ni874  1  0.27558900  0.61862733  0.11431140  1.0
  Ni  Ni875  1  0.27558900  0.95196067  0.11431140  1.0
  Ni  Ni876  1  0.60892233  0.28529400  0.11431140  1.0
  Ni  Ni877  1  0.60892233  0.61862733  0.11431140  1.0
  Ni  Ni878  1  0.60892233  0.95196067  0.11431140  1.0
  Ni  Ni879  1  0.94225567  0.28529400  0.11431140  1.0
  Ni  Ni880  1  0.94225567  0.61862733  0.11431140  1.0
  Ni  Ni881  1  0.94225567  0.95196067  0.11431140  1.0
  Ni  Ni882  1  0.10430133  0.32543933  0.05385860  1.0
  Ni  Ni883  1  0.10430133  0.65877267  0.05385860  1.0
  Ni  Ni884  1  0.10430133  0.99210600  0.05385860  1.0
  Ni  Ni885  1  0.43763467  0.32543933  0.05385860  1.0
  Ni  Ni886  1  0.43763467  0.65877267  0.05385860  1.0
  Ni  Ni887  1  0.43763467  0.99210600  0.05385860  1.0
  Ni  Ni888  1  0.77096800  0.32543933  0.05385860  1.0
  Ni  Ni889  1  0.77096800  0.65877267  0.05385860  1.0
  Ni  Ni890  1  0.77096800  0.99210600  0.05385860  1.0
  Ni  Ni891  1  0.27096800  0.32543933  0.15385860  1.0
  Ni  Ni892  1  0.27096800  0.65877267  0.15385860  1.0
  Ni  Ni893  1  0.27096800  0.99210600  0.15385860  1.0
  Ni  Ni894  1  0.60430133  0.32543933  0.15385860  1.0
  Ni  Ni895  1  0.60430133  0.65877267  0.15385860  1.0
  Ni  Ni896  1  0.60430133  0.99210600  0.15385860  1.0
  Ni  Ni897  1  0.93763467  0.32543933  0.15385860  1.0
  Ni  Ni898  1  0.93763467  0.65877267  0.15385860  1.0
  Ni  Ni899  1  0.93763467  0.99210600  0.15385860  1.0
  Ni  Ni900  1  0.06618383  0.24210600  0.18557030  1.0
  Ni  Ni901  1  0.06618383  0.57543933  0.18557030  1.0
  Ni  Ni902  1  0.06618383  0.90877267  0.18557030  1.0
  Ni  Ni903  1  0.39951717  0.24210600  0.18557030  1.0
  Ni  Ni904  1  0.39951717  0.57543933  0.18557030  1.0
  Ni  Ni905  1  0.39951717  0.90877267  0.18557030  1.0
  Ni  Ni906  1  0.73285050  0.24210600  0.18557030  1.0
  Ni  Ni907  1  0.73285050  0.57543933  0.18557030  1.0
  Ni  Ni908  1  0.73285050  0.90877267  0.18557030  1.0
  Ni  Ni909  1  0.23285050  0.24210600  0.08557030  1.0
  Ni  Ni910  1  0.23285050  0.57543933  0.08557030  1.0
  Ni  Ni911  1  0.23285050  0.90877267  0.08557030  1.0
  Ni  Ni912  1  0.56618383  0.24210600  0.08557030  1.0
  Ni  Ni913  1  0.56618383  0.57543933  0.08557030  1.0
  Ni  Ni914  1  0.56618383  0.90877267  0.08557030  1.0
  Ni  Ni915  1  0.89951717  0.24210600  0.08557030  1.0
  Ni  Ni916  1  0.89951717  0.57543933  0.08557030  1.0
  Ni  Ni917  1  0.89951717  0.90877267  0.08557030  1.0
  Ni  Ni918  1  0.08137767  0.20196067  0.17614460  1.0
  Ni  Ni919  1  0.08137767  0.53529400  0.17614460  1.0
  Ni  Ni920  1  0.08137767  0.86862733  0.17614460  1.0
  Ni  Ni921  1  0.41471100  0.20196067  0.17614460  1.0
  Ni  Ni922  1  0.41471100  0.53529400  0.17614460  1.0
  Ni  Ni923  1  0.41471100  0.86862733  0.17614460  1.0
  Ni  Ni924  1  0.74804433  0.20196067  0.17614460  1.0
  Ni  Ni925  1  0.74804433  0.53529400  0.17614460  1.0
  Ni  Ni926  1  0.74804433  0.86862733  0.17614460  1.0
  Ni  Ni927  1  0.24804433  0.20196067  0.07614460  1.0
  Ni  Ni928  1  0.24804433  0.53529400  0.07614460  1.0
  Ni  Ni929  1  0.24804433  0.86862733  0.07614460  1.0
  Ni  Ni930  1  0.58137767  0.20196067  0.07614460  1.0
  Ni  Ni931  1  0.58137767  0.53529400  0.07614460  1.0
  Ni  Ni932  1  0.58137767  0.86862733  0.07614460  1.0
  Ni  Ni933  1  0.91471100  0.20196067  0.07614460  1.0
  Ni  Ni934  1  0.91471100  0.53529400  0.07614460  1.0
  Ni  Ni935  1  0.91471100  0.86862733  0.07614460  1.0
  Ni  Ni936  1  0.03180633  0.26622033  0.05652760  1.0
  Ni  Ni937  1  0.03180633  0.59955367  0.05652760  1.0
  Ni  Ni938  1  0.03180633  0.93288700  0.05652760  1.0
  Ni  Ni939  1  0.36513967  0.26622033  0.05652760  1.0
  Ni  Ni940  1  0.36513967  0.59955367  0.05652760  1.0
  Ni  Ni941  1  0.36513967  0.93288700  0.05652760  1.0
  Ni  Ni942  1  0.69847300  0.26622033  0.05652760  1.0
  Ni  Ni943  1  0.69847300  0.59955367  0.05652760  1.0
  Ni  Ni944  1  0.69847300  0.93288700  0.05652760  1.0
  Ni  Ni945  1  0.19847300  0.26622033  0.15652760  1.0
  Ni  Ni946  1  0.19847300  0.59955367  0.15652760  1.0
  Ni  Ni947  1  0.19847300  0.93288700  0.15652760  1.0
  Ni  Ni948  1  0.53180633  0.26622033  0.15652760  1.0
  Ni  Ni949  1  0.53180633  0.59955367  0.15652760  1.0
  Ni  Ni950  1  0.53180633  0.93288700  0.15652760  1.0
  Ni  Ni951  1  0.86513967  0.26622033  0.15652760  1.0
  Ni  Ni952  1  0.86513967  0.59955367  0.15652760  1.0
  Ni  Ni953  1  0.86513967  0.93288700  0.15652760  1.0
  Ni  Ni954  1  0.11513967  0.15044633  0.13250960  1.0
  Ni  Ni955  1  0.11513967  0.48377967  0.13250960  1.0
  Ni  Ni956  1  0.11513967  0.81711300  0.13250960  1.0
  Ni  Ni957  1  0.44847300  0.15044633  0.13250960  1.0
  Ni  Ni958  1  0.44847300  0.48377967  0.13250960  1.0
  Ni  Ni959  1  0.44847300  0.81711300  0.13250960  1.0
  Ni  Ni960  1  0.78180633  0.15044633  0.13250960  1.0
  Ni  Ni961  1  0.78180633  0.48377967  0.13250960  1.0
  Ni  Ni962  1  0.78180633  0.81711300  0.13250960  1.0
  Ni  Ni963  1  0.28180633  0.15044633  0.03250960  1.0
  Ni  Ni964  1  0.28180633  0.48377967  0.03250960  1.0
  Ni  Ni965  1  0.28180633  0.81711300  0.03250960  1.0
  Ni  Ni966  1  0.61513967  0.15044633  0.03250960  1.0
  Ni  Ni967  1  0.61513967  0.48377967  0.03250960  1.0
  Ni  Ni968  1  0.61513967  0.81711300  0.03250960  1.0
  Ni  Ni969  1  0.94847300  0.15044633  0.03250960  1.0
  Ni  Ni970  1  0.94847300  0.48377967  0.03250960  1.0
  Ni  Ni971  1  0.94847300  0.81711300  0.03250960  1.0
  Ni  Ni972  1  0.02558900  0.13137267  0.16726500  1.0
  Ni  Ni973  1  0.02558900  0.46470600  0.16726500  1.0
  Ni  Ni974  1  0.02558900  0.79803933  0.16726500  1.0
  Ni  Ni975  1  0.35892233  0.13137267  0.16726500  1.0
  Ni  Ni976  1  0.35892233  0.46470600  0.16726500  1.0
  Ni  Ni977  1  0.35892233  0.79803933  0.16726500  1.0
  Ni  Ni978  1  0.69225567  0.13137267  0.16726500  1.0
  Ni  Ni979  1  0.69225567  0.46470600  0.16726500  1.0
  Ni  Ni980  1  0.69225567  0.79803933  0.16726500  1.0
  Ni  Ni981  1  0.19225567  0.13137267  0.06726500  1.0
  Ni  Ni982  1  0.19225567  0.46470600  0.06726500  1.0
  Ni  Ni983  1  0.19225567  0.79803933  0.06726500  1.0
  Ni  Ni984  1  0.52558900  0.13137267  0.06726500  1.0
  Ni  Ni985  1  0.52558900  0.46470600  0.06726500  1.0
  Ni  Ni986  1  0.52558900  0.79803933  0.06726500  1.0
  Ni  Ni987  1  0.85892233  0.13137267  0.06726500  1.0
  Ni  Ni988  1  0.85892233  0.46470600  0.06726500  1.0
  Ni  Ni989  1  0.85892233  0.79803933  0.06726500  1.0
  Ni  Ni990  1  0.05152700  0.31711300  0.19889560  1.0
  Ni  Ni991  1  0.05152700  0.65044633  0.19889560  1.0
  Ni  Ni992  1  0.05152700  0.98377967  0.19889560  1.0
  Ni  Ni993  1  0.38486033  0.31711300  0.19889560  1.0
  Ni  Ni994  1  0.38486033  0.65044633  0.19889560  1.0
  Ni  Ni995  1  0.38486033  0.98377967  0.19889560  1.0
  Ni  Ni996  1  0.71819367  0.31711300  0.19889560  1.0
  Ni  Ni997  1  0.71819367  0.65044633  0.19889560  1.0
  Ni  Ni998  1  0.71819367  0.98377967  0.19889560  1.0
  Ni  Ni999  1  0.21819367  0.31711300  0.09889560  1.0
  Ni  Ni1000  1  0.21819367  0.65044633  0.09889560  1.0
  Ni  Ni1001  1  0.21819367  0.98377967  0.09889560  1.0
  Ni  Ni1002  1  0.55152700  0.31711300  0.09889560  1.0
  Ni  Ni1003  1  0.55152700  0.65044633  0.09889560  1.0
  Ni  Ni1004  1  0.55152700  0.98377967  0.09889560  1.0
  Ni  Ni1005  1  0.88486033  0.31711300  0.09889560  1.0
  Ni  Ni1006  1  0.88486033  0.65044633  0.09889560  1.0
  Ni  Ni1007  1  0.88486033  0.98377967  0.09889560  1.0
  Ni  Ni1008  1  0.01714950  0.00789400  0.11562250  1.0
  Ni  Ni1009  1  0.01714950  0.34122733  0.11562250  1.0
  Ni  Ni1010  1  0.01714950  0.67456067  0.11562250  1.0
  Ni  Ni1011  1  0.35048283  0.00789400  0.11562250  1.0
  Ni  Ni1012  1  0.35048283  0.34122733  0.11562250  1.0
  Ni  Ni1013  1  0.35048283  0.67456067  0.11562250  1.0
  Ni  Ni1014  1  0.68381617  0.00789400  0.11562250  1.0
  Ni  Ni1015  1  0.68381617  0.34122733  0.11562250  1.0
  Ni  Ni1016  1  0.68381617  0.67456067  0.11562250  1.0
  Ni  Ni1017  1  0.18381617  0.00789400  0.01562250  1.0
  Ni  Ni1018  1  0.18381617  0.34122733  0.01562250  1.0
  Ni  Ni1019  1  0.18381617  0.67456067  0.01562250  1.0
  Ni  Ni1020  1  0.51714950  0.00789400  0.01562250  1.0
  Ni  Ni1021  1  0.51714950  0.34122733  0.01562250  1.0
  Ni  Ni1022  1  0.51714950  0.67456067  0.01562250  1.0
  Ni  Ni1023  1  0.85048283  0.00789400  0.01562250  1.0
  Ni  Ni1024  1  0.85048283  0.34122733  0.01562250  1.0
  Ni  Ni1025  1  0.85048283  0.67456067  0.01562250  1.0
  Ni  Ni1026  1  0.14107767  0.29803933  0.14125180  1.0
  Ni  Ni1027  1  0.14107767  0.63137267  0.14125180  1.0
  Ni  Ni1028  1  0.14107767  0.96470600  0.14125180  1.0
  Ni  Ni1029  1  0.47441100  0.29803933  0.14125180  1.0
  Ni  Ni1030  1  0.47441100  0.63137267  0.14125180  1.0
  Ni  Ni1031  1  0.47441100  0.96470600  0.14125180  1.0
  Ni  Ni1032  1  0.80774433  0.29803933  0.14125180  1.0
  Ni  Ni1033  1  0.80774433  0.63137267  0.14125180  1.0
  Ni  Ni1034  1  0.80774433  0.96470600  0.14125180  1.0
  Ni  Ni1035  1  0.30774433  0.29803933  0.04125180  1.0
  Ni  Ni1036  1  0.30774433  0.63137267  0.04125180  1.0
  Ni  Ni1037  1  0.30774433  0.96470600  0.04125180  1.0
  Ni  Ni1038  1  0.64107767  0.29803933  0.04125180  1.0
  Ni  Ni1039  1  0.64107767  0.63137267  0.04125180  1.0
  Ni  Ni1040  1  0.64107767  0.96470600  0.04125180  1.0
  Ni  Ni1041  1  0.97441100  0.29803933  0.04125180  1.0
  Ni  Ni1042  1  0.97441100  0.63137267  0.04125180  1.0
  Ni  Ni1043  1  0.97441100  0.96470600  0.04125180  1.0
  Ni  Ni1044  1  0.05774433  0.11862733  0.07891100  1.0
  Ni  Ni1045  1  0.05774433  0.45196067  0.07891100  1.0
  Ni  Ni1046  1  0.05774433  0.78529400  0.07891100  1.0
  Ni  Ni1047  1  0.39107767  0.11862733  0.07891100  1.0
  Ni  Ni1048  1  0.39107767  0.45196067  0.07891100  1.0
  Ni  Ni1049  1  0.39107767  0.78529400  0.07891100  1.0
  Ni  Ni1050  1  0.72441100  0.11862733  0.07891100  1.0
  Ni  Ni1051  1  0.72441100  0.45196067  0.07891100  1.0
  Ni  Ni1052  1  0.72441100  0.78529400  0.07891100  1.0
  Ni  Ni1053  1  0.22441100  0.11862733  0.17891100  1.0
  Ni  Ni1054  1  0.22441100  0.45196067  0.17891100  1.0
  Ni  Ni1055  1  0.22441100  0.78529400  0.17891100  1.0
  Ni  Ni1056  1  0.55774433  0.11862733  0.17891100  1.0
  Ni  Ni1057  1  0.55774433  0.45196067  0.17891100  1.0
  Ni  Ni1058  1  0.55774433  0.78529400  0.17891100  1.0
  Ni  Ni1059  1  0.89107767  0.11862733  0.17891100  1.0
  Ni  Ni1060  1  0.89107767  0.45196067  0.17891100  1.0
  Ni  Ni1061  1  0.89107767  0.78529400  0.17891100  1.0
  Ni  Ni1062  1  0.08523067  0.06711300  0.10500860  1.0
  Ni  Ni1063  1  0.08523067  0.40044633  0.10500860  1.0
  Ni  Ni1064  1  0.08523067  0.73377967  0.10500860  1.0
  Ni  Ni1065  1  0.41856400  0.06711300  0.10500860  1.0
  Ni  Ni1066  1  0.41856400  0.40044633  0.10500860  1.0
  Ni  Ni1067  1  0.41856400  0.73377967  0.10500860  1.0
  Ni  Ni1068  1  0.75189733  0.06711300  0.10500860  1.0
  Ni  Ni1069  1  0.75189733  0.40044633  0.10500860  1.0
  Ni  Ni1070  1  0.75189733  0.73377967  0.10500860  1.0
  Ni  Ni1071  1  0.25189733  0.06711300  0.00500860  1.0
  Ni  Ni1072  1  0.25189733  0.40044633  0.00500860  1.0
  Ni  Ni1073  1  0.25189733  0.73377967  0.00500860  1.0
  Ni  Ni1074  1  0.58523067  0.06711300  0.00500860  1.0
  Ni  Ni1075  1  0.58523067  0.40044633  0.00500860  1.0
  Ni  Ni1076  1  0.58523067  0.73377967  0.00500860  1.0
  Ni  Ni1077  1  0.91856400  0.06711300  0.00500860  1.0
  Ni  Ni1078  1  0.91856400  0.40044633  0.00500860  1.0
  Ni  Ni1079  1  0.91856400  0.73377967  0.00500860  1.0
  Ni  Ni1080  1  0.08143600  0.23377967  0.12639660  1.0
  Ni  Ni1081  1  0.08143600  0.56711300  0.12639660  1.0
  Ni  Ni1082  1  0.08143600  0.90044633  0.12639660  1.0
  Ni  Ni1083  1  0.41476933  0.23377967  0.12639660  1.0
  Ni  Ni1084  1  0.41476933  0.56711300  0.12639660  1.0
  Ni  Ni1085  1  0.41476933  0.90044633  0.12639660  1.0
  Ni  Ni1086  1  0.74810267  0.23377967  0.12639660  1.0
  Ni  Ni1087  1  0.74810267  0.56711300  0.12639660  1.0
  Ni  Ni1088  1  0.74810267  0.90044633  0.12639660  1.0
  Ni  Ni1089  1  0.24810267  0.23377967  0.02639660  1.0
  Ni  Ni1090  1  0.24810267  0.56711300  0.02639660  1.0
  Ni  Ni1091  1  0.24810267  0.90044633  0.02639660  1.0
  Ni  Ni1092  1  0.58143600  0.23377967  0.02639660  1.0
  Ni  Ni1093  1  0.58143600  0.56711300  0.02639660  1.0
  Ni  Ni1094  1  0.58143600  0.90044633  0.02639660  1.0
  Ni  Ni1095  1  0.91476933  0.23377967  0.02639660  1.0
  Ni  Ni1096  1  0.91476933  0.56711300  0.02639660  1.0
  Ni  Ni1097  1  0.91476933  0.90044633  0.02639660  1.0
  Ni  Ni1098  1  0.00195567  0.04803933  0.13613860  1.0
  Ni  Ni1099  1  0.00195567  0.38137267  0.13613860  1.0
  Ni  Ni1100  1  0.00195567  0.71470600  0.13613860  1.0
  Ni  Ni1101  1  0.33528900  0.04803933  0.13613860  1.0
  Ni  Ni1102  1  0.33528900  0.38137267  0.13613860  1.0
  Ni  Ni1103  1  0.33528900  0.71470600  0.13613860  1.0
  Ni  Ni1104  1  0.66862233  0.04803933  0.13613860  1.0
  Ni  Ni1105  1  0.66862233  0.38137267  0.13613860  1.0
  Ni  Ni1106  1  0.66862233  0.71470600  0.13613860  1.0
  Ni  Ni1107  1  0.16862233  0.04803933  0.03613860  1.0
  Ni  Ni1108  1  0.16862233  0.38137267  0.03613860  1.0
  Ni  Ni1109  1  0.16862233  0.71470600  0.03613860  1.0
  Ni  Ni1110  1  0.50195567  0.04803933  0.03613860  1.0
  Ni  Ni1111  1  0.50195567  0.38137267  0.03613860  1.0
  Ni  Ni1112  1  0.50195567  0.71470600  0.03613860  1.0
  Ni  Ni1113  1  0.83528900  0.04803933  0.03613860  1.0
  Ni  Ni1114  1  0.83528900  0.38137267  0.03613860  1.0
  Ni  Ni1115  1  0.83528900  0.71470600  0.03613860  1.0
  Ni  Ni1116  1  0.05319150  0.29466433  0.17318550  1.0
  Ni  Ni1117  1  0.05319150  0.62799767  0.17318550  1.0
  Ni  Ni1118  1  0.05319150  0.96133100  0.17318550  1.0
  Ni  Ni1119  1  0.38652483  0.29466433  0.17318550  1.0
  Ni  Ni1120  1  0.38652483  0.62799767  0.17318550  1.0
  Ni  Ni1121  1  0.38652483  0.96133100  0.17318550  1.0
  Ni  Ni1122  1  0.71985817  0.29466433  0.17318550  1.0
  Ni  Ni1123  1  0.71985817  0.62799767  0.17318550  1.0
  Ni  Ni1124  1  0.71985817  0.96133100  0.17318550  1.0
  Ni  Ni1125  1  0.21985817  0.29466433  0.07318550  1.0
  Ni  Ni1126  1  0.21985817  0.62799767  0.07318550  1.0
  Ni  Ni1127  1  0.21985817  0.96133100  0.07318550  1.0
  Ni  Ni1128  1  0.55319150  0.29466433  0.07318550  1.0
  Ni  Ni1129  1  0.55319150  0.62799767  0.07318550  1.0
  Ni  Ni1130  1  0.55319150  0.96133100  0.07318550  1.0
  Ni  Ni1131  1  0.88652483  0.29466433  0.07318550  1.0
  Ni  Ni1132  1  0.88652483  0.62799767  0.07318550  1.0
  Ni  Ni1133  1  0.88652483  0.96133100  0.07318550  1.0
  Ni  Ni1134  1  0.02096800  0.09122733  0.12217260  1.0
  Ni  Ni1135  1  0.02096800  0.42456067  0.12217260  1.0
  Ni  Ni1136  1  0.02096800  0.75789400  0.12217260  1.0
  Ni  Ni1137  1  0.35430133  0.09122733  0.12217260  1.0
  Ni  Ni1138  1  0.35430133  0.42456067  0.12217260  1.0
  Ni  Ni1139  1  0.35430133  0.75789400  0.12217260  1.0
  Ni  Ni1140  1  0.68763467  0.09122733  0.12217260  1.0
  Ni  Ni1141  1  0.68763467  0.42456067  0.12217260  1.0
  Ni  Ni1142  1  0.68763467  0.75789400  0.12217260  1.0
  Ni  Ni1143  1  0.18763467  0.09122733  0.02217260  1.0
  Ni  Ni1144  1  0.18763467  0.42456067  0.02217260  1.0
  Ni  Ni1145  1  0.18763467  0.75789400  0.02217260  1.0
  Ni  Ni1146  1  0.52096800  0.09122733  0.02217260  1.0
  Ni  Ni1147  1  0.52096800  0.42456067  0.02217260  1.0
  Ni  Ni1148  1  0.52096800  0.75789400  0.02217260  1.0
  Ni  Ni1149  1  0.85430133  0.09122733  0.02217260  1.0
  Ni  Ni1150  1  0.85430133  0.42456067  0.02217260  1.0
  Ni  Ni1151  1  0.85430133  0.75789400  0.02217260  1.0
  Ni  Ni1152  1  0.13486033  0.09955367  0.01380640  1.0
  Ni  Ni1153  1  0.13486033  0.43288700  0.01380640  1.0
  Ni  Ni1154  1  0.13486033  0.76622033  0.01380640  1.0
  Ni  Ni1155  1  0.46819367  0.09955367  0.01380640  1.0
  Ni  Ni1156  1  0.46819367  0.43288700  0.01380640  1.0
  Ni  Ni1157  1  0.46819367  0.76622033  0.01380640  1.0
  Ni  Ni1158  1  0.80152700  0.09955367  0.01380640  1.0
  Ni  Ni1159  1  0.80152700  0.43288700  0.01380640  1.0
  Ni  Ni1160  1  0.80152700  0.76622033  0.01380640  1.0
  Ni  Ni1161  1  0.30152700  0.09955367  0.11380640  1.0
  Ni  Ni1162  1  0.30152700  0.43288700  0.11380640  1.0
  Ni  Ni1163  1  0.30152700  0.76622033  0.11380640  1.0
  Ni  Ni1164  1  0.63486033  0.09955367  0.11380640  1.0
  Ni  Ni1165  1  0.63486033  0.43288700  0.11380640  1.0
  Ni  Ni1166  1  0.63486033  0.76622033  0.11380640  1.0
  Ni  Ni1167  1  0.96819367  0.09955367  0.11380640  1.0
  Ni  Ni1168  1  0.96819367  0.43288700  0.11380640  1.0
  Ni  Ni1169  1  0.96819367  0.76622033  0.11380640  1.0
  Ni  Ni1170  1  0.11347517  0.12799767  0.13128130  1.0
  Ni  Ni1171  1  0.11347517  0.46133100  0.13128130  1.0
  Ni  Ni1172  1  0.11347517  0.79466433  0.13128130  1.0
  Ni  Ni1173  1  0.44680850  0.12799767  0.13128130  1.0
  Ni  Ni1174  1  0.44680850  0.46133100  0.13128130  1.0
  Ni  Ni1175  1  0.44680850  0.79466433  0.13128130  1.0
  Ni  Ni1176  1  0.78014183  0.12799767  0.13128130  1.0
  Ni  Ni1177  1  0.78014183  0.46133100  0.13128130  1.0
  Ni  Ni1178  1  0.78014183  0.79466433  0.13128130  1.0
  Ni  Ni1179  1  0.28014183  0.12799767  0.03128130  1.0
  Ni  Ni1180  1  0.28014183  0.46133100  0.03128130  1.0
  Ni  Ni1181  1  0.28014183  0.79466433  0.03128130  1.0
  Ni  Ni1182  1  0.61347517  0.12799767  0.03128130  1.0
  Ni  Ni1183  1  0.61347517  0.46133100  0.03128130  1.0
  Ni  Ni1184  1  0.61347517  0.79466433  0.03128130  1.0
  Ni  Ni1185  1  0.94680850  0.12799767  0.03128130  1.0
  Ni  Ni1186  1  0.94680850  0.46133100  0.03128130  1.0
  Ni  Ni1187  1  0.94680850  0.79466433  0.03128130  1.0
  Ni  Ni1188  1  0.06236533  0.15877267  0.08753820  1.0
  Ni  Ni1189  1  0.06236533  0.49210600  0.08753820  1.0
  Ni  Ni1190  1  0.06236533  0.82543933  0.08753820  1.0
  Ni  Ni1191  1  0.39569867  0.15877267  0.08753820  1.0
  Ni  Ni1192  1  0.39569867  0.49210600  0.08753820  1.0
  Ni  Ni1193  1  0.39569867  0.82543933  0.08753820  1.0
  Ni  Ni1194  1  0.72903200  0.15877267  0.08753820  1.0
  Ni  Ni1195  1  0.72903200  0.49210600  0.08753820  1.0
  Ni  Ni1196  1  0.72903200  0.82543933  0.08753820  1.0
  Ni  Ni1197  1  0.22903200  0.15877267  0.18753820  1.0
  Ni  Ni1198  1  0.22903200  0.49210600  0.18753820  1.0
  Ni  Ni1199  1  0.22903200  0.82543933  0.18753820  1.0
  Ni  Ni1200  1  0.56236533  0.15877267  0.18753820  1.0
  Ni  Ni1201  1  0.56236533  0.49210600  0.18753820  1.0
  Ni  Ni1202  1  0.56236533  0.82543933  0.18753820  1.0
  Ni  Ni1203  1  0.89569867  0.15877267  0.18753820  1.0
  Ni  Ni1204  1  0.89569867  0.49210600  0.18753820  1.0
  Ni  Ni1205  1  0.89569867  0.82543933  0.18753820  1.0
  Ni  Ni1206  1  0.16476933  0.18288700  0.12219620  1.0
  Ni  Ni1207  1  0.16476933  0.51622033  0.12219620  1.0
  Ni  Ni1208  1  0.16476933  0.84955367  0.12219620  1.0
  Ni  Ni1209  1  0.49810267  0.18288700  0.12219620  1.0
  Ni  Ni1210  1  0.49810267  0.51622033  0.12219620  1.0
  Ni  Ni1211  1  0.49810267  0.84955367  0.12219620  1.0
  Ni  Ni1212  1  0.83143600  0.18288700  0.12219620  1.0
  Ni  Ni1213  1  0.83143600  0.51622033  0.12219620  1.0
  Ni  Ni1214  1  0.83143600  0.84955367  0.12219620  1.0
  Ni  Ni1215  1  0.33143600  0.18288700  0.02219620  1.0
  Ni  Ni1216  1  0.33143600  0.51622033  0.02219620  1.0
  Ni  Ni1217  1  0.33143600  0.84955367  0.02219620  1.0
  Ni  Ni1218  1  0.66476933  0.18288700  0.02219620  1.0
  Ni  Ni1219  1  0.66476933  0.51622033  0.02219620  1.0
  Ni  Ni1220  1  0.66476933  0.84955367  0.02219620  1.0
  Ni  Ni1221  1  0.99810267  0.18288700  0.02219620  1.0
  Ni  Ni1222  1  0.99810267  0.51622033  0.02219620  1.0
  Ni  Ni1223  1  0.99810267  0.84955367  0.02219620  1.0
  Ni  Ni1224  1  0.14569867  0.25789400  0.13816980  1.0
  Ni  Ni1225  1  0.14569867  0.59122733  0.13816980  1.0
  Ni  Ni1226  1  0.14569867  0.92456067  0.13816980  1.0
  Ni  Ni1227  1  0.47903200  0.25789400  0.13816980  1.0
  Ni  Ni1228  1  0.47903200  0.59122733  0.13816980  1.0
  Ni  Ni1229  1  0.47903200  0.92456067  0.13816980  1.0
  Ni  Ni1230  1  0.81236533  0.25789400  0.13816980  1.0
  Ni  Ni1231  1  0.81236533  0.59122733  0.13816980  1.0
  Ni  Ni1232  1  0.81236533  0.92456067  0.13816980  1.0
  Ni  Ni1233  1  0.31236533  0.25789400  0.03816980  1.0
  Ni  Ni1234  1  0.31236533  0.59122733  0.03816980  1.0
  Ni  Ni1235  1  0.31236533  0.92456067  0.03816980  1.0
  Ni  Ni1236  1  0.64569867  0.25789400  0.03816980  1.0
  Ni  Ni1237  1  0.64569867  0.59122733  0.03816980  1.0
  Ni  Ni1238  1  0.64569867  0.92456067  0.03816980  1.0
  Ni  Ni1239  1  0.97903200  0.25789400  0.03816980  1.0
  Ni  Ni1240  1  0.97903200  0.59122733  0.03816980  1.0
  Ni  Ni1241  1  0.97903200  0.92456067  0.03816980  1.0
  Ni  Ni1242  1  0.16471100  0.21470600  0.07237820  1.0
  Ni  Ni1243  1  0.16471100  0.54803933  0.07237820  1.0
  Ni  Ni1244  1  0.16471100  0.88137267  0.07237820  1.0
  Ni  Ni1245  1  0.49804433  0.21470600  0.07237820  1.0
  Ni  Ni1246  1  0.49804433  0.54803933  0.07237820  1.0
  Ni  Ni1247  1  0.49804433  0.88137267  0.07237820  1.0
  Ni  Ni1248  1  0.83137767  0.21470600  0.07237820  1.0
  Ni  Ni1249  1  0.83137767  0.54803933  0.07237820  1.0
  Ni  Ni1250  1  0.83137767  0.88137267  0.07237820  1.0
  Ni  Ni1251  1  0.33137767  0.21470600  0.17237820  1.0
  Ni  Ni1252  1  0.33137767  0.54803933  0.17237820  1.0
  Ni  Ni1253  1  0.33137767  0.88137267  0.17237820  1.0
  Ni  Ni1254  1  0.66471100  0.21470600  0.17237820  1.0
  Ni  Ni1255  1  0.66471100  0.54803933  0.17237820  1.0
  Ni  Ni1256  1  0.66471100  0.88137267  0.17237820  1.0
  Ni  Ni1257  1  0.99804433  0.21470600  0.17237820  1.0
  Ni  Ni1258  1  0.99804433  0.54803933  0.17237820  1.0
  Ni  Ni1259  1  0.99804433  0.88137267  0.17237820  1.0
  Ni  Ni1260  1  0.09246900  0.21133100  0.12154460  1.0
  Ni  Ni1261  1  0.09246900  0.54466433  0.12154460  1.0
  Ni  Ni1262  1  0.09246900  0.87799767  0.12154460  1.0
  Ni  Ni1263  1  0.42580233  0.21133100  0.12154460  1.0
  Ni  Ni1264  1  0.42580233  0.54466433  0.12154460  1.0
  Ni  Ni1265  1  0.42580233  0.87799767  0.12154460  1.0
  Ni  Ni1266  1  0.75913567  0.21133100  0.12154460  1.0
  Ni  Ni1267  1  0.75913567  0.54466433  0.12154460  1.0
  Ni  Ni1268  1  0.75913567  0.87799767  0.12154460  1.0
  Ni  Ni1269  1  0.25913567  0.21133100  0.02154460  1.0
  Ni  Ni1270  1  0.25913567  0.54466433  0.02154460  1.0
  Ni  Ni1271  1  0.25913567  0.87799767  0.02154460  1.0
  Ni  Ni1272  1  0.59246900  0.21133100  0.02154460  1.0
  Ni  Ni1273  1  0.59246900  0.54466433  0.02154460  1.0
  Ni  Ni1274  1  0.59246900  0.87799767  0.02154460  1.0
  Ni  Ni1275  1  0.92580233  0.21133100  0.02154460  1.0
  Ni  Ni1276  1  0.92580233  0.54466433  0.02154460  1.0
  Ni  Ni1277  1  0.92580233  0.87799767  0.02154460  1.0
  Ni  Ni1278  1  0.15753100  0.03866900  0.15698460  1.0
  Ni  Ni1279  1  0.15753100  0.37200233  0.15698460  1.0
  Ni  Ni1280  1  0.15753100  0.70533567  0.15698460  1.0
  Ni  Ni1281  1  0.49086433  0.03866900  0.15698460  1.0
  Ni  Ni1282  1  0.49086433  0.37200233  0.15698460  1.0
  Ni  Ni1283  1  0.49086433  0.70533567  0.15698460  1.0
  Ni  Ni1284  1  0.82419767  0.03866900  0.15698460  1.0
  Ni  Ni1285  1  0.82419767  0.37200233  0.15698460  1.0
  Ni  Ni1286  1  0.82419767  0.70533567  0.15698460  1.0
  Ni  Ni1287  1  0.32419767  0.03866900  0.05698460  1.0
  Ni  Ni1288  1  0.32419767  0.37200233  0.05698460  1.0
  Ni  Ni1289  1  0.32419767  0.70533567  0.05698460  1.0
  Ni  Ni1290  1  0.65753100  0.03866900  0.05698460  1.0
  Ni  Ni1291  1  0.65753100  0.37200233  0.05698460  1.0
  Ni  Ni1292  1  0.65753100  0.70533567  0.05698460  1.0
  Ni  Ni1293  1  0.99086433  0.03866900  0.05698460  1.0
  Ni  Ni1294  1  0.99086433  0.37200233  0.05698460  1.0
  Ni  Ni1295  1  0.99086433  0.70533567  0.05698460  1.0
  Ni  Ni1296  1  0.00913567  0.20533567  0.04028780  1.0
  Ni  Ni1297  1  0.00913567  0.53866900  0.04028780  1.0
  Ni  Ni1298  1  0.00913567  0.87200233  0.04028780  1.0
  Ni  Ni1299  1  0.34246900  0.20533567  0.04028780  1.0
  Ni  Ni1300  1  0.34246900  0.53866900  0.04028780  1.0
  Ni  Ni1301  1  0.34246900  0.87200233  0.04028780  1.0
  Ni  Ni1302  1  0.67580233  0.20533567  0.04028780  1.0
  Ni  Ni1303  1  0.67580233  0.53866900  0.04028780  1.0
  Ni  Ni1304  1  0.67580233  0.87200233  0.04028780  1.0
  Ni  Ni1305  1  0.17580233  0.20533567  0.14028780  1.0
  Ni  Ni1306  1  0.17580233  0.53866900  0.14028780  1.0
  Ni  Ni1307  1  0.17580233  0.87200233  0.14028780  1.0
  Ni  Ni1308  1  0.50913567  0.20533567  0.14028780  1.0
  Ni  Ni1309  1  0.50913567  0.53866900  0.14028780  1.0
  Ni  Ni1310  1  0.50913567  0.87200233  0.14028780  1.0
  Ni  Ni1311  1  0.84246900  0.20533567  0.14028780  1.0
  Ni  Ni1312  1  0.84246900  0.53866900  0.14028780  1.0
  Ni  Ni1313  1  0.84246900  0.87200233  0.14028780  1.0
  Ni  Ni1314  1  0.14951717  0.17456067  0.04471990  1.0
  Ni  Ni1315  1  0.14951717  0.50789400  0.04471990  1.0
  Ni  Ni1316  1  0.14951717  0.84122733  0.04471990  1.0
  Ni  Ni1317  1  0.48285050  0.17456067  0.04471990  1.0
  Ni  Ni1318  1  0.48285050  0.50789400  0.04471990  1.0
  Ni  Ni1319  1  0.48285050  0.84122733  0.04471990  1.0
  Ni  Ni1320  1  0.81618383  0.17456067  0.04471990  1.0
  Ni  Ni1321  1  0.81618383  0.50789400  0.04471990  1.0
  Ni  Ni1322  1  0.81618383  0.84122733  0.04471990  1.0
  Ni  Ni1323  1  0.31618383  0.17456067  0.14471990  1.0
  Ni  Ni1324  1  0.31618383  0.50789400  0.14471990  1.0
  Ni  Ni1325  1  0.31618383  0.84122733  0.14471990  1.0
  Ni  Ni1326  1  0.64951717  0.17456067  0.14471990  1.0
  Ni  Ni1327  1  0.64951717  0.50789400  0.14471990  1.0
  Ni  Ni1328  1  0.64951717  0.84122733  0.14471990  1.0
  Ni  Ni1329  1  0.98285050  0.17456067  0.14471990  1.0
  Ni  Ni1330  1  0.98285050  0.50789400  0.14471990  1.0
  Ni  Ni1331  1  0.98285050  0.84122733  0.14471990  1.0
  Ni  Ni1332  1  0.13652483  0.12200233  0.04151390  1.0
  Ni  Ni1333  1  0.13652483  0.45533567  0.04151390  1.0
  Ni  Ni1334  1  0.13652483  0.78866900  0.04151390  1.0
  Ni  Ni1335  1  0.46985817  0.12200233  0.04151390  1.0
  Ni  Ni1336  1  0.46985817  0.45533567  0.04151390  1.0
  Ni  Ni1337  1  0.46985817  0.78866900  0.04151390  1.0
  Ni  Ni1338  1  0.80319150  0.12200233  0.04151390  1.0
  Ni  Ni1339  1  0.80319150  0.45533567  0.04151390  1.0
  Ni  Ni1340  1  0.80319150  0.78866900  0.04151390  1.0
  Ni  Ni1341  1  0.30319150  0.12200233  0.14151390  1.0
  Ni  Ni1342  1  0.30319150  0.45533567  0.14151390  1.0
  Ni  Ni1343  1  0.30319150  0.78866900  0.14151390  1.0
  Ni  Ni1344  1  0.63652483  0.12200233  0.14151390  1.0
  Ni  Ni1345  1  0.63652483  0.45533567  0.14151390  1.0
  Ni  Ni1346  1  0.63652483  0.78866900  0.14151390  1.0
  Ni  Ni1347  1  0.96985817  0.12200233  0.14151390  1.0
  Ni  Ni1348  1  0.96985817  0.45533567  0.14151390  1.0
  Ni  Ni1349  1  0.96985817  0.78866900  0.14151390  1.0
  Ni  Ni1350  1  0.07419767  0.04466433  0.08292220  1.0
  Ni  Ni1351  1  0.07419767  0.37799767  0.08292220  1.0
  Ni  Ni1352  1  0.07419767  0.71133100  0.08292220  1.0
  Ni  Ni1353  1  0.40753100  0.04466433  0.08292220  1.0
  Ni  Ni1354  1  0.40753100  0.37799767  0.08292220  1.0
  Ni  Ni1355  1  0.40753100  0.71133100  0.08292220  1.0
  Ni  Ni1356  1  0.74086433  0.04466433  0.08292220  1.0
  Ni  Ni1357  1  0.74086433  0.37799767  0.08292220  1.0
  Ni  Ni1358  1  0.74086433  0.71133100  0.08292220  1.0
  Ni  Ni1359  1  0.24086433  0.04466433  0.18292220  1.0
  Ni  Ni1360  1  0.24086433  0.37799767  0.18292220  1.0
  Ni  Ni1361  1  0.24086433  0.71133100  0.18292220  1.0
  Ni  Ni1362  1  0.57419767  0.04466433  0.18292220  1.0
  Ni  Ni1363  1  0.57419767  0.37799767  0.18292220  1.0
  Ni  Ni1364  1  0.57419767  0.71133100  0.18292220  1.0
  Ni  Ni1365  1  0.90753100  0.04466433  0.18292220  1.0
  Ni  Ni1366  1  0.90753100  0.37799767  0.18292220  1.0
  Ni  Ni1367  1  0.90753100  0.71133100  0.18292220  1.0
  Ni  Ni1368  1  0.00189733  0.01622033  0.04813780  1.0
  Ni  Ni1369  1  0.00189733  0.34955367  0.04813780  1.0
  Ni  Ni1370  1  0.00189733  0.68288700  0.04813780  1.0
  Ni  Ni1371  1  0.33523067  0.01622033  0.04813780  1.0
  Ni  Ni1372  1  0.33523067  0.34955367  0.04813780  1.0
  Ni  Ni1373  1  0.33523067  0.68288700  0.04813780  1.0
  Ni  Ni1374  1  0.66856400  0.01622033  0.04813780  1.0
  Ni  Ni1375  1  0.66856400  0.34955367  0.04813780  1.0
  Ni  Ni1376  1  0.66856400  0.68288700  0.04813780  1.0
  Ni  Ni1377  1  0.16856400  0.01622033  0.14813780  1.0
  Ni  Ni1378  1  0.16856400  0.34955367  0.14813780  1.0
  Ni  Ni1379  1  0.16856400  0.68288700  0.14813780  1.0
  Ni  Ni1380  1  0.50189733  0.01622033  0.14813780  1.0
  Ni  Ni1381  1  0.50189733  0.34955367  0.14813780  1.0
  Ni  Ni1382  1  0.50189733  0.68288700  0.14813780  1.0
  Ni  Ni1383  1  0.83523067  0.01622033  0.14813780  1.0
  Ni  Ni1384  1  0.83523067  0.34955367  0.14813780  1.0
  Ni  Ni1385  1  0.83523067  0.68288700  0.14813780  1.0
  Ni  Ni1386  1  0.03014183  0.28866900  0.05575850  1.0
  Ni  Ni1387  1  0.03014183  0.62200233  0.05575850  1.0
  Ni  Ni1388  1  0.03014183  0.95533567  0.05575850  1.0
  Ni  Ni1389  1  0.36347517  0.28866900  0.05575850  1.0
  Ni  Ni1390  1  0.36347517  0.62200233  0.05575850  1.0
  Ni  Ni1391  1  0.36347517  0.95533567  0.05575850  1.0
  Ni  Ni1392  1  0.69680850  0.28866900  0.05575850  1.0
  Ni  Ni1393  1  0.69680850  0.62200233  0.05575850  1.0
  Ni  Ni1394  1  0.69680850  0.95533567  0.05575850  1.0
  Ni  Ni1395  1  0.19680850  0.28866900  0.15575850  1.0
  Ni  Ni1396  1  0.19680850  0.62200233  0.15575850  1.0
  Ni  Ni1397  1  0.19680850  0.95533567  0.15575850  1.0
  Ni  Ni1398  1  0.53014183  0.28866900  0.15575850  1.0
  Ni  Ni1399  1  0.53014183  0.62200233  0.15575850  1.0
  Ni  Ni1400  1  0.53014183  0.95533567  0.15575850  1.0
  Ni  Ni1401  1  0.86347517  0.28866900  0.15575850  1.0
  Ni  Ni1402  1  0.86347517  0.62200233  0.15575850  1.0
  Ni  Ni1403  1  0.86347517  0.95533567  0.15575850  1.0
  Ni  Ni1404  1  0.10048283  0.07543933  0.05582650  1.0
  Ni  Ni1405  1  0.10048283  0.40877267  0.05582650  1.0
  Ni  Ni1406  1  0.10048283  0.74210600  0.05582650  1.0
  Ni  Ni1407  1  0.43381617  0.07543933  0.05582650  1.0
  Ni  Ni1408  1  0.43381617  0.40877267  0.05582650  1.0
  Ni  Ni1409  1  0.43381617  0.74210600  0.05582650  1.0
  Ni  Ni1410  1  0.76714950  0.07543933  0.05582650  1.0
  Ni  Ni1411  1  0.76714950  0.40877267  0.05582650  1.0
  Ni  Ni1412  1  0.76714950  0.74210600  0.05582650  1.0
  Ni  Ni1413  1  0.26714950  0.07543933  0.15582650  1.0
  Ni  Ni1414  1  0.26714950  0.40877267  0.15582650  1.0
  Ni  Ni1415  1  0.26714950  0.74210600  0.15582650  1.0
  Ni  Ni1416  1  0.60048283  0.07543933  0.15582650  1.0
  Ni  Ni1417  1  0.60048283  0.40877267  0.15582650  1.0
  Ni  Ni1418  1  0.60048283  0.74210600  0.15582650  1.0
  Ni  Ni1419  1  0.93381617  0.07543933  0.15582650  1.0
  Ni  Ni1420  1  0.93381617  0.40877267  0.15582650  1.0
  Ni  Ni1421  1  0.93381617  0.74210600  0.15582650  1.0
  Ni  Ni1422  1  0.08528900  0.03529400  0.01707780  1.0
  Ni  Ni1423  1  0.08528900  0.36862733  0.01707780  1.0
  Ni  Ni1424  1  0.08528900  0.70196067  0.01707780  1.0
  Ni  Ni1425  1  0.41862233  0.03529400  0.01707780  1.0
  Ni  Ni1426  1  0.41862233  0.36862733  0.01707780  1.0
  Ni  Ni1427  1  0.41862233  0.70196067  0.01707780  1.0
  Ni  Ni1428  1  0.75195567  0.03529400  0.01707780  1.0
  Ni  Ni1429  1  0.75195567  0.36862733  0.01707780  1.0
  Ni  Ni1430  1  0.75195567  0.70196067  0.01707780  1.0
  Ni  Ni1431  1  0.25195567  0.03529400  0.11707780  1.0
  Ni  Ni1432  1  0.25195567  0.36862733  0.11707780  1.0
  Ni  Ni1433  1  0.25195567  0.70196067  0.11707780  1.0
  Ni  Ni1434  1  0.58528900  0.03529400  0.11707780  1.0
  Ni  Ni1435  1  0.58528900  0.36862733  0.11707780  1.0
  Ni  Ni1436  1  0.58528900  0.70196067  0.11707780  1.0
  Ni  Ni1437  1  0.91862233  0.03529400  0.11707780  1.0
  Ni  Ni1438  1  0.91862233  0.36862733  0.11707780  1.0
  Ni  Ni1439  1  0.91862233  0.70196067  0.11707780  1.0
  Y  Y1440  1  0.16481433  0.13689533  0.32372520  1.0
  Y  Y1441  1  0.16481433  0.47022867  0.32372520  1.0
  Y  Y1442  1  0.16481433  0.80356200  0.32372520  1.0
  Y  Y1443  1  0.49814767  0.13689533  0.32372520  1.0
  Y  Y1444  1  0.49814767  0.47022867  0.32372520  1.0
  Y  Y1445  1  0.49814767  0.80356200  0.32372520  1.0
  Y  Y1446  1  0.83148100  0.13689533  0.32372520  1.0
  Y  Y1447  1  0.83148100  0.47022867  0.32372520  1.0
  Y  Y1448  1  0.83148100  0.80356200  0.32372520  1.0
  Y  Y1449  1  0.33148100  0.13689533  0.22372520  1.0
  Y  Y1450  1  0.33148100  0.47022867  0.22372520  1.0
  Y  Y1451  1  0.33148100  0.80356200  0.22372520  1.0
  Y  Y1452  1  0.66481433  0.13689533  0.22372520  1.0
  Y  Y1453  1  0.66481433  0.47022867  0.22372520  1.0
  Y  Y1454  1  0.66481433  0.80356200  0.22372520  1.0
  Y  Y1455  1  0.99814767  0.13689533  0.22372520  1.0
  Y  Y1456  1  0.99814767  0.47022867  0.22372520  1.0
  Y  Y1457  1  0.99814767  0.80356200  0.22372520  1.0
  Y  Y1458  1  0.11533400  0.25481667  0.38540320  1.0
  Y  Y1459  1  0.11533400  0.58815000  0.38540320  1.0
  Y  Y1460  1  0.11533400  0.92148333  0.38540320  1.0
  Y  Y1461  1  0.44866733  0.25481667  0.38540320  1.0
  Y  Y1462  1  0.44866733  0.58815000  0.38540320  1.0
  Y  Y1463  1  0.44866733  0.92148333  0.38540320  1.0
  Y  Y1464  1  0.78200067  0.25481667  0.38540320  1.0
  Y  Y1465  1  0.78200067  0.58815000  0.38540320  1.0
  Y  Y1466  1  0.78200067  0.92148333  0.38540320  1.0
  Y  Y1467  1  0.28200067  0.25481667  0.28540320  1.0
  Y  Y1468  1  0.28200067  0.58815000  0.28540320  1.0
  Y  Y1469  1  0.28200067  0.92148333  0.28540320  1.0
  Y  Y1470  1  0.61533400  0.25481667  0.28540320  1.0
  Y  Y1471  1  0.61533400  0.58815000  0.28540320  1.0
  Y  Y1472  1  0.61533400  0.92148333  0.28540320  1.0
  Y  Y1473  1  0.94866733  0.25481667  0.28540320  1.0
  Y  Y1474  1  0.94866733  0.58815000  0.28540320  1.0
  Y  Y1475  1  0.94866733  0.92148333  0.28540320  1.0
  Y  Y1476  1  0.11071367  0.10620433  0.27363440  1.0
  Y  Y1477  1  0.11071367  0.43953767  0.27363440  1.0
  Y  Y1478  1  0.11071367  0.77287100  0.27363440  1.0
  Y  Y1479  1  0.44404700  0.10620433  0.27363440  1.0
  Y  Y1480  1  0.44404700  0.43953767  0.27363440  1.0
  Y  Y1481  1  0.44404700  0.77287100  0.27363440  1.0
  Y  Y1482  1  0.77738033  0.10620433  0.27363440  1.0
  Y  Y1483  1  0.77738033  0.43953767  0.27363440  1.0
  Y  Y1484  1  0.77738033  0.77287100  0.27363440  1.0
  Y  Y1485  1  0.27738033  0.10620433  0.37363440  1.0
  Y  Y1486  1  0.27738033  0.43953767  0.37363440  1.0
  Y  Y1487  1  0.27738033  0.77287100  0.37363440  1.0
  Y  Y1488  1  0.61071367  0.10620433  0.37363440  1.0
  Y  Y1489  1  0.61071367  0.43953767  0.37363440  1.0
  Y  Y1490  1  0.61071367  0.77287100  0.37363440  1.0
  Y  Y1491  1  0.94404700  0.10620433  0.37363440  1.0
  Y  Y1492  1  0.94404700  0.43953767  0.37363440  1.0
  Y  Y1493  1  0.94404700  0.77287100  0.37363440  1.0
  Y  Y1494  1  0.03027367  0.25000000  0.30727060  1.0
  Y  Y1495  1  0.03027367  0.58333333  0.30727060  1.0
  Y  Y1496  1  0.03027367  0.91666667  0.30727060  1.0
  Y  Y1497  1  0.36360700  0.25000000  0.30727060  1.0
  Y  Y1498  1  0.36360700  0.58333333  0.30727060  1.0
  Y  Y1499  1  0.36360700  0.91666667  0.30727060  1.0
  Y  Y1500  1  0.69694033  0.25000000  0.30727060  1.0
  Y  Y1501  1  0.69694033  0.58333333  0.30727060  1.0
  Y  Y1502  1  0.69694033  0.91666667  0.30727060  1.0
  Y  Y1503  1  0.19694033  0.25000000  0.20727060  1.0
  Y  Y1504  1  0.19694033  0.58333333  0.20727060  1.0
  Y  Y1505  1  0.19694033  0.91666667  0.20727060  1.0
  Y  Y1506  1  0.53027367  0.25000000  0.20727060  1.0
  Y  Y1507  1  0.53027367  0.58333333  0.20727060  1.0
  Y  Y1508  1  0.53027367  0.91666667  0.20727060  1.0
  Y  Y1509  1  0.86360700  0.25000000  0.20727060  1.0
  Y  Y1510  1  0.86360700  0.58333333  0.20727060  1.0
  Y  Y1511  1  0.86360700  0.91666667  0.20727060  1.0
  Y  Y1512  1  0.07754200  0.08333333  0.37890960  1.0
  Y  Y1513  1  0.07754200  0.41666667  0.37890960  1.0
  Y  Y1514  1  0.07754200  0.75000000  0.37890960  1.0
  Y  Y1515  1  0.41087533  0.08333333  0.37890960  1.0
  Y  Y1516  1  0.41087533  0.41666667  0.37890960  1.0
  Y  Y1517  1  0.41087533  0.75000000  0.37890960  1.0
  Y  Y1518  1  0.74420867  0.08333333  0.37890960  1.0
  Y  Y1519  1  0.74420867  0.41666667  0.37890960  1.0
  Y  Y1520  1  0.74420867  0.75000000  0.37890960  1.0
  Y  Y1521  1  0.24420867  0.08333333  0.27890960  1.0
  Y  Y1522  1  0.24420867  0.41666667  0.27890960  1.0
  Y  Y1523  1  0.24420867  0.75000000  0.27890960  1.0
  Y  Y1524  1  0.57754200  0.08333333  0.27890960  1.0
  Y  Y1525  1  0.57754200  0.41666667  0.27890960  1.0
  Y  Y1526  1  0.57754200  0.75000000  0.27890960  1.0
  Y  Y1527  1  0.91087533  0.08333333  0.27890960  1.0
  Y  Y1528  1  0.91087533  0.41666667  0.27890960  1.0
  Y  Y1529  1  0.91087533  0.75000000  0.27890960  1.0
  Y  Y1530  1  0.08081050  0.13579433  0.24717210  1.0
  Y  Y1531  1  0.08081050  0.46912767  0.24717210  1.0
  Y  Y1532  1  0.08081050  0.80246100  0.24717210  1.0
  Y  Y1533  1  0.41414383  0.13579433  0.24717210  1.0
  Y  Y1534  1  0.41414383  0.46912767  0.24717210  1.0
  Y  Y1535  1  0.41414383  0.80246100  0.24717210  1.0
  Y  Y1536  1  0.74747717  0.13579433  0.24717210  1.0
  Y  Y1537  1  0.74747717  0.46912767  0.24717210  1.0
  Y  Y1538  1  0.74747717  0.80246100  0.24717210  1.0
  Y  Y1539  1  0.24747717  0.13579433  0.34717210  1.0
  Y  Y1540  1  0.24747717  0.46912767  0.34717210  1.0
  Y  Y1541  1  0.24747717  0.80246100  0.34717210  1.0
  Y  Y1542  1  0.58081050  0.13579433  0.34717210  1.0
  Y  Y1543  1  0.58081050  0.46912767  0.34717210  1.0
  Y  Y1544  1  0.58081050  0.80246100  0.34717210  1.0
  Y  Y1545  1  0.91414383  0.13579433  0.34717210  1.0
  Y  Y1546  1  0.91414383  0.46912767  0.34717210  1.0
  Y  Y1547  1  0.91414383  0.80246100  0.34717210  1.0
  Y  Y1548  1  0.05670733  0.18953767  0.29032540  1.0
  Y  Y1549  1  0.05670733  0.52287100  0.29032540  1.0
  Y  Y1550  1  0.05670733  0.85620433  0.29032540  1.0
  Y  Y1551  1  0.39004067  0.18953767  0.29032540  1.0
  Y  Y1552  1  0.39004067  0.52287100  0.29032540  1.0
  Y  Y1553  1  0.39004067  0.85620433  0.29032540  1.0
  Y  Y1554  1  0.72337400  0.18953767  0.29032540  1.0
  Y  Y1555  1  0.72337400  0.52287100  0.29032540  1.0
  Y  Y1556  1  0.72337400  0.85620433  0.29032540  1.0
  Y  Y1557  1  0.22337400  0.18953767  0.39032540  1.0
  Y  Y1558  1  0.22337400  0.52287100  0.39032540  1.0
  Y  Y1559  1  0.22337400  0.85620433  0.39032540  1.0
  Y  Y1560  1  0.55670733  0.18953767  0.39032540  1.0
  Y  Y1561  1  0.55670733  0.52287100  0.39032540  1.0
  Y  Y1562  1  0.55670733  0.85620433  0.39032540  1.0
  Y  Y1563  1  0.89004067  0.18953767  0.39032540  1.0
  Y  Y1564  1  0.89004067  0.52287100  0.39032540  1.0
  Y  Y1565  1  0.89004067  0.85620433  0.39032540  1.0
  Y  Y1566  1  0.11360700  0.16666667  0.27992740  1.0
  Y  Y1567  1  0.11360700  0.50000000  0.27992740  1.0
  Y  Y1568  1  0.11360700  0.83333333  0.27992740  1.0
  Y  Y1569  1  0.44694033  0.16666667  0.27992740  1.0
  Y  Y1570  1  0.44694033  0.50000000  0.27992740  1.0
  Y  Y1571  1  0.44694033  0.83333333  0.27992740  1.0
  Y  Y1572  1  0.78027367  0.16666667  0.27992740  1.0
  Y  Y1573  1  0.78027367  0.50000000  0.27992740  1.0
  Y  Y1574  1  0.78027367  0.83333333  0.27992740  1.0
  Y  Y1575  1  0.28027367  0.16666667  0.37992740  1.0
  Y  Y1576  1  0.28027367  0.50000000  0.37992740  1.0
  Y  Y1577  1  0.28027367  0.83333333  0.37992740  1.0
  Y  Y1578  1  0.61360700  0.16666667  0.37992740  1.0
  Y  Y1579  1  0.61360700  0.50000000  0.37992740  1.0
  Y  Y1580  1  0.61360700  0.83333333  0.37992740  1.0
  Y  Y1581  1  0.94694033  0.16666667  0.37992740  1.0
  Y  Y1582  1  0.94694033  0.50000000  0.37992740  1.0
  Y  Y1583  1  0.94694033  0.83333333  0.37992740  1.0
  Y  Y1584  1  0.11061283  0.05356200  0.37171690  1.0
  Y  Y1585  1  0.11061283  0.38689533  0.37171690  1.0
  Y  Y1586  1  0.11061283  0.72022867  0.37171690  1.0
  Y  Y1587  1  0.44394617  0.05356200  0.37171690  1.0
  Y  Y1588  1  0.44394617  0.38689533  0.37171690  1.0
  Y  Y1589  1  0.44394617  0.72022867  0.37171690  1.0
  Y  Y1590  1  0.77727950  0.05356200  0.37171690  1.0
  Y  Y1591  1  0.77727950  0.38689533  0.37171690  1.0
  Y  Y1592  1  0.77727950  0.72022867  0.37171690  1.0
  Y  Y1593  1  0.27727950  0.05356200  0.27171690  1.0
  Y  Y1594  1  0.27727950  0.38689533  0.27171690  1.0
  Y  Y1595  1  0.27727950  0.72022867  0.27171690  1.0
  Y  Y1596  1  0.61061283  0.05356200  0.27171690  1.0
  Y  Y1597  1  0.61061283  0.38689533  0.27171690  1.0
  Y  Y1598  1  0.61061283  0.72022867  0.27171690  1.0
  Y  Y1599  1  0.94394617  0.05356200  0.27171690  1.0
  Y  Y1600  1  0.94394617  0.38689533  0.27171690  1.0
  Y  Y1601  1  0.94394617  0.72022867  0.27171690  1.0
  Y  Y1602  1  0.02738033  0.31046233  0.31009160  1.0
  Y  Y1603  1  0.02738033  0.64379567  0.31009160  1.0
  Y  Y1604  1  0.02738033  0.97712900  0.31009160  1.0
  Y  Y1605  1  0.36071367  0.31046233  0.31009160  1.0
  Y  Y1606  1  0.36071367  0.64379567  0.31009160  1.0
  Y  Y1607  1  0.36071367  0.97712900  0.31009160  1.0
  Y  Y1608  1  0.69404700  0.31046233  0.31009160  1.0
  Y  Y1609  1  0.69404700  0.64379567  0.31009160  1.0
  Y  Y1610  1  0.69404700  0.97712900  0.31009160  1.0
  Y  Y1611  1  0.19404700  0.31046233  0.21009160  1.0
  Y  Y1612  1  0.19404700  0.64379567  0.21009160  1.0
  Y  Y1613  1  0.19404700  0.97712900  0.21009160  1.0
  Y  Y1614  1  0.52738033  0.31046233  0.21009160  1.0
  Y  Y1615  1  0.52738033  0.64379567  0.21009160  1.0
  Y  Y1616  1  0.52738033  0.97712900  0.21009160  1.0
  Y  Y1617  1  0.86071367  0.31046233  0.21009160  1.0
  Y  Y1618  1  0.86071367  0.64379567  0.21009160  1.0
  Y  Y1619  1  0.86071367  0.97712900  0.21009160  1.0
  Y  Y1620  1  0.13938717  0.19643800  0.37470710  1.0
  Y  Y1621  1  0.13938717  0.52977133  0.37470710  1.0
  Y  Y1622  1  0.13938717  0.86310467  0.37470710  1.0
  Y  Y1623  1  0.47272050  0.19643800  0.37470710  1.0
  Y  Y1624  1  0.47272050  0.52977133  0.37470710  1.0
  Y  Y1625  1  0.47272050  0.86310467  0.37470710  1.0
  Y  Y1626  1  0.80605383  0.19643800  0.37470710  1.0
  Y  Y1627  1  0.80605383  0.52977133  0.37470710  1.0
  Y  Y1628  1  0.80605383  0.86310467  0.37470710  1.0
  Y  Y1629  1  0.30605383  0.19643800  0.27470710  1.0
  Y  Y1630  1  0.30605383  0.52977133  0.27470710  1.0
  Y  Y1631  1  0.30605383  0.86310467  0.27470710  1.0
  Y  Y1632  1  0.63938717  0.19643800  0.27470710  1.0
  Y  Y1633  1  0.63938717  0.52977133  0.27470710  1.0
  Y  Y1634  1  0.63938717  0.86310467  0.27470710  1.0
  Y  Y1635  1  0.97272050  0.19643800  0.27470710  1.0
  Y  Y1636  1  0.97272050  0.52977133  0.27470710  1.0
  Y  Y1637  1  0.97272050  0.86310467  0.27470710  1.0
  Y  Y1638  1  0.14281733  0.27526567  0.28758460  1.0
  Y  Y1639  1  0.14281733  0.60859900  0.28758460  1.0
  Y  Y1640  1  0.14281733  0.94193233  0.28758460  1.0
  Y  Y1641  1  0.47615067  0.27526567  0.28758460  1.0
  Y  Y1642  1  0.47615067  0.60859900  0.28758460  1.0
  Y  Y1643  1  0.47615067  0.94193233  0.28758460  1.0
  Y  Y1644  1  0.80948400  0.27526567  0.28758460  1.0
  Y  Y1645  1  0.80948400  0.60859900  0.28758460  1.0
  Y  Y1646  1  0.80948400  0.94193233  0.28758460  1.0
  Y  Y1647  1  0.30948400  0.27526567  0.38758460  1.0
  Y  Y1648  1  0.30948400  0.60859900  0.38758460  1.0
  Y  Y1649  1  0.30948400  0.94193233  0.38758460  1.0
  Y  Y1650  1  0.64281733  0.27526567  0.38758460  1.0
  Y  Y1651  1  0.64281733  0.60859900  0.38758460  1.0
  Y  Y1652  1  0.64281733  0.94193233  0.38758460  1.0
  Y  Y1653  1  0.97615067  0.27526567  0.38758460  1.0
  Y  Y1654  1  0.97615067  0.60859900  0.38758460  1.0
  Y  Y1655  1  0.97615067  0.94193233  0.38758460  1.0
  Y  Y1656  1  0.08518567  0.11310467  0.36167360  1.0
  Y  Y1657  1  0.08518567  0.44643800  0.36167360  1.0
  Y  Y1658  1  0.08518567  0.77977133  0.36167360  1.0
  Y  Y1659  1  0.41851900  0.11310467  0.36167360  1.0
  Y  Y1660  1  0.41851900  0.44643800  0.36167360  1.0
  Y  Y1661  1  0.41851900  0.77977133  0.36167360  1.0
  Y  Y1662  1  0.75185233  0.11310467  0.36167360  1.0
  Y  Y1663  1  0.75185233  0.44643800  0.36167360  1.0
  Y  Y1664  1  0.75185233  0.77977133  0.36167360  1.0
  Y  Y1665  1  0.25185233  0.11310467  0.26167360  1.0
  Y  Y1666  1  0.25185233  0.44643800  0.26167360  1.0
  Y  Y1667  1  0.25185233  0.77977133  0.26167360  1.0
  Y  Y1668  1  0.58518567  0.11310467  0.26167360  1.0
  Y  Y1669  1  0.58518567  0.44643800  0.26167360  1.0
  Y  Y1670  1  0.58518567  0.77977133  0.26167360  1.0
  Y  Y1671  1  0.91851900  0.11310467  0.26167360  1.0
  Y  Y1672  1  0.91851900  0.44643800  0.26167360  1.0
  Y  Y1673  1  0.91851900  0.77977133  0.26167360  1.0
  Y  Y1674  1  0.14004067  0.22712900  0.32859300  1.0
  Y  Y1675  1  0.14004067  0.56046233  0.32859300  1.0
  Y  Y1676  1  0.14004067  0.89379567  0.32859300  1.0
  Y  Y1677  1  0.47337400  0.22712900  0.32859300  1.0
  Y  Y1678  1  0.47337400  0.56046233  0.32859300  1.0
  Y  Y1679  1  0.47337400  0.89379567  0.32859300  1.0
  Y  Y1680  1  0.80670733  0.22712900  0.32859300  1.0
  Y  Y1681  1  0.80670733  0.56046233  0.32859300  1.0
  Y  Y1682  1  0.80670733  0.89379567  0.32859300  1.0
  Y  Y1683  1  0.30670733  0.22712900  0.22859300  1.0
  Y  Y1684  1  0.30670733  0.56046233  0.22859300  1.0
  Y  Y1685  1  0.30670733  0.89379567  0.22859300  1.0
  Y  Y1686  1  0.64004067  0.22712900  0.22859300  1.0
  Y  Y1687  1  0.64004067  0.56046233  0.22859300  1.0
  Y  Y1688  1  0.64004067  0.89379567  0.22859300  1.0
  Y  Y1689  1  0.97337400  0.22712900  0.22859300  1.0
  Y  Y1690  1  0.97337400  0.56046233  0.22859300  1.0
  Y  Y1691  1  0.97337400  0.89379567  0.22859300  1.0
  Y  Y1692  1  0.00252283  0.11420567  0.28724630  1.0
  Y  Y1693  1  0.00252283  0.44753900  0.28724630  1.0
  Y  Y1694  1  0.00252283  0.78087233  0.28724630  1.0
  Y  Y1695  1  0.33585617  0.11420567  0.28724630  1.0
  Y  Y1696  1  0.33585617  0.44753900  0.28724630  1.0
  Y  Y1697  1  0.33585617  0.78087233  0.28724630  1.0
  Y  Y1698  1  0.66918950  0.11420567  0.28724630  1.0
  Y  Y1699  1  0.66918950  0.44753900  0.28724630  1.0
  Y  Y1700  1  0.66918950  0.78087233  0.28724630  1.0
  Y  Y1701  1  0.16918950  0.11420567  0.38724630  1.0
  Y  Y1702  1  0.16918950  0.44753900  0.38724630  1.0
  Y  Y1703  1  0.16918950  0.78087233  0.38724630  1.0
  Y  Y1704  1  0.50252283  0.11420567  0.38724630  1.0
  Y  Y1705  1  0.50252283  0.44753900  0.38724630  1.0
  Y  Y1706  1  0.50252283  0.78087233  0.38724630  1.0
  Y  Y1707  1  0.83585617  0.11420567  0.38724630  1.0
  Y  Y1708  1  0.83585617  0.44753900  0.38724630  1.0
  Y  Y1709  1  0.83585617  0.78087233  0.38724630  1.0
  Y  Y1710  1  0.15656500  0.07851667  0.25488460  1.0
  Y  Y1711  1  0.15656500  0.41185000  0.25488460  1.0
  Y  Y1712  1  0.15656500  0.74518333  0.25488460  1.0
  Y  Y1713  1  0.48989833  0.07851667  0.25488460  1.0
  Y  Y1714  1  0.48989833  0.41185000  0.25488460  1.0
  Y  Y1715  1  0.48989833  0.74518333  0.25488460  1.0
  Y  Y1716  1  0.82323167  0.07851667  0.25488460  1.0
  Y  Y1717  1  0.82323167  0.41185000  0.25488460  1.0
  Y  Y1718  1  0.82323167  0.74518333  0.25488460  1.0
  Y  Y1719  1  0.32323167  0.07851667  0.35488460  1.0
  Y  Y1720  1  0.32323167  0.41185000  0.35488460  1.0
  Y  Y1721  1  0.32323167  0.74518333  0.35488460  1.0
  Y  Y1722  1  0.65656500  0.07851667  0.35488460  1.0
  Y  Y1723  1  0.65656500  0.41185000  0.35488460  1.0
  Y  Y1724  1  0.65656500  0.74518333  0.35488460  1.0
  Y  Y1725  1  0.98989833  0.07851667  0.35488460  1.0
  Y  Y1726  1  0.98989833  0.41185000  0.35488460  1.0
  Y  Y1727  1  0.98989833  0.74518333  0.35488460  1.0
  Y  Y1728  1  0.08148100  0.27977133  0.32492160  1.0
  Y  Y1729  1  0.08148100  0.61310467  0.32492160  1.0
  Y  Y1730  1  0.08148100  0.94643800  0.32492160  1.0
  Y  Y1731  1  0.41481433  0.27977133  0.32492160  1.0
  Y  Y1732  1  0.41481433  0.61310467  0.32492160  1.0
  Y  Y1733  1  0.41481433  0.94643800  0.32492160  1.0
  Y  Y1734  1  0.74814767  0.27977133  0.32492160  1.0
  Y  Y1735  1  0.74814767  0.61310467  0.32492160  1.0
  Y  Y1736  1  0.74814767  0.94643800  0.32492160  1.0
  Y  Y1737  1  0.24814767  0.27977133  0.22492160  1.0
  Y  Y1738  1  0.24814767  0.61310467  0.22492160  1.0
  Y  Y1739  1  0.24814767  0.94643800  0.22492160  1.0
  Y  Y1740  1  0.58148100  0.27977133  0.22492160  1.0
  Y  Y1741  1  0.58148100  0.61310467  0.22492160  1.0
  Y  Y1742  1  0.58148100  0.94643800  0.22492160  1.0
  Y  Y1743  1  0.91481433  0.27977133  0.22492160  1.0
  Y  Y1744  1  0.91481433  0.61310467  0.22492160  1.0
  Y  Y1745  1  0.91481433  0.94643800  0.22492160  1.0
  Y  Y1746  1  0.11558333  0.22473433  0.20824460  1.0
  Y  Y1747  1  0.11558333  0.55806767  0.20824460  1.0
  Y  Y1748  1  0.11558333  0.89140100  0.20824460  1.0
  Y  Y1749  1  0.44891667  0.22473433  0.20824460  1.0
  Y  Y1750  1  0.44891667  0.55806767  0.20824460  1.0
  Y  Y1751  1  0.44891667  0.89140100  0.20824460  1.0
  Y  Y1752  1  0.78225000  0.22473433  0.20824460  1.0
  Y  Y1753  1  0.78225000  0.55806767  0.20824460  1.0
  Y  Y1754  1  0.78225000  0.89140100  0.20824460  1.0
  Y  Y1755  1  0.28225000  0.22473433  0.30824460  1.0
  Y  Y1756  1  0.28225000  0.55806767  0.30824460  1.0
  Y  Y1757  1  0.28225000  0.89140100  0.30824460  1.0
  Y  Y1758  1  0.61558333  0.22473433  0.30824460  1.0
  Y  Y1759  1  0.61558333  0.55806767  0.30824460  1.0
  Y  Y1760  1  0.61558333  0.89140100  0.30824460  1.0
  Y  Y1761  1  0.94891667  0.22473433  0.30824460  1.0
  Y  Y1762  1  0.94891667  0.55806767  0.30824460  1.0
  Y  Y1763  1  0.94891667  0.89140100  0.30824460  1.0
  Y  Y1764  1  0.10995933  0.02287100  0.28798940  1.0
  Y  Y1765  1  0.10995933  0.35620433  0.28798940  1.0
  Y  Y1766  1  0.10995933  0.68953767  0.28798940  1.0
  Y  Y1767  1  0.44329267  0.02287100  0.28798940  1.0
  Y  Y1768  1  0.44329267  0.35620433  0.28798940  1.0
  Y  Y1769  1  0.44329267  0.68953767  0.28798940  1.0
  Y  Y1770  1  0.77662600  0.02287100  0.28798940  1.0
  Y  Y1771  1  0.77662600  0.35620433  0.28798940  1.0
  Y  Y1772  1  0.77662600  0.68953767  0.28798940  1.0
  Y  Y1773  1  0.27662600  0.02287100  0.38798940  1.0
  Y  Y1774  1  0.27662600  0.35620433  0.38798940  1.0
  Y  Y1775  1  0.27662600  0.68953767  0.38798940  1.0
  Y  Y1776  1  0.60995933  0.02287100  0.38798940  1.0
  Y  Y1777  1  0.60995933  0.35620433  0.38798940  1.0
  Y  Y1778  1  0.60995933  0.68953767  0.38798940  1.0
  Y  Y1779  1  0.94329267  0.02287100  0.38798940  1.0
  Y  Y1780  1  0.94329267  0.35620433  0.38798940  1.0
  Y  Y1781  1  0.94329267  0.68953767  0.38798940  1.0
  Y  Y1782  1  0.08912467  0.25000000  0.27196000  1.0
  Y  Y1783  1  0.08912467  0.58333333  0.27196000  1.0
  Y  Y1784  1  0.08912467  0.91666667  0.27196000  1.0
  Y  Y1785  1  0.42245800  0.25000000  0.27196000  1.0
  Y  Y1786  1  0.42245800  0.58333333  0.27196000  1.0
  Y  Y1787  1  0.42245800  0.91666667  0.27196000  1.0
  Y  Y1788  1  0.75579133  0.25000000  0.27196000  1.0
  Y  Y1789  1  0.75579133  0.58333333  0.27196000  1.0
  Y  Y1790  1  0.75579133  0.91666667  0.27196000  1.0
  Y  Y1791  1  0.25579133  0.25000000  0.37196000  1.0
  Y  Y1792  1  0.25579133  0.58333333  0.37196000  1.0
  Y  Y1793  1  0.25579133  0.91666667  0.37196000  1.0
  Y  Y1794  1  0.58912467  0.25000000  0.37196000  1.0
  Y  Y1795  1  0.58912467  0.58333333  0.37196000  1.0
  Y  Y1796  1  0.58912467  0.91666667  0.37196000  1.0
  Y  Y1797  1  0.92245800  0.25000000  0.37196000  1.0
  Y  Y1798  1  0.92245800  0.58333333  0.37196000  1.0
  Y  Y1799  1  0.92245800  0.91666667  0.37196000  1.0
  Y  Y1800  1  0.10718267  0.30806767  0.38588500  1.0
  Y  Y1801  1  0.10718267  0.64140100  0.38588500  1.0
  Y  Y1802  1  0.10718267  0.97473433  0.38588500  1.0
  Y  Y1803  1  0.44051600  0.30806767  0.38588500  1.0
  Y  Y1804  1  0.44051600  0.64140100  0.38588500  1.0
  Y  Y1805  1  0.44051600  0.97473433  0.38588500  1.0
  Y  Y1806  1  0.77384933  0.30806767  0.38588500  1.0
  Y  Y1807  1  0.77384933  0.64140100  0.38588500  1.0
  Y  Y1808  1  0.77384933  0.97473433  0.38588500  1.0
  Y  Y1809  1  0.27384933  0.30806767  0.28588500  1.0
  Y  Y1810  1  0.27384933  0.64140100  0.28588500  1.0
  Y  Y1811  1  0.27384933  0.97473433  0.28588500  1.0
  Y  Y1812  1  0.60718267  0.30806767  0.28588500  1.0
  Y  Y1813  1  0.60718267  0.64140100  0.28588500  1.0
  Y  Y1814  1  0.60718267  0.97473433  0.28588500  1.0
  Y  Y1815  1  0.94051600  0.30806767  0.28588500  1.0
  Y  Y1816  1  0.94051600  0.64140100  0.28588500  1.0
  Y  Y1817  1  0.94051600  0.97473433  0.28588500  1.0
  Y  Y1818  1  0.04852133  0.03087233  0.32609840  1.0
  Y  Y1819  1  0.04852133  0.36420567  0.32609840  1.0
  Y  Y1820  1  0.04852133  0.69753900  0.32609840  1.0
  Y  Y1821  1  0.38185467  0.03087233  0.32609840  1.0
  Y  Y1822  1  0.38185467  0.36420567  0.32609840  1.0
  Y  Y1823  1  0.38185467  0.69753900  0.32609840  1.0
  Y  Y1824  1  0.71518800  0.03087233  0.32609840  1.0
  Y  Y1825  1  0.71518800  0.36420567  0.32609840  1.0
  Y  Y1826  1  0.71518800  0.69753900  0.32609840  1.0
  Y  Y1827  1  0.21518800  0.03087233  0.22609840  1.0
  Y  Y1828  1  0.21518800  0.36420567  0.22609840  1.0
  Y  Y1829  1  0.21518800  0.69753900  0.22609840  1.0
  Y  Y1830  1  0.54852133  0.03087233  0.22609840  1.0
  Y  Y1831  1  0.54852133  0.36420567  0.22609840  1.0
  Y  Y1832  1  0.54852133  0.69753900  0.22609840  1.0
  Y  Y1833  1  0.88185467  0.03087233  0.22609840  1.0
  Y  Y1834  1  0.88185467  0.36420567  0.22609840  1.0
  Y  Y1835  1  0.88185467  0.69753900  0.22609840  1.0
  Y  Y1836  1  0.00185233  0.30356200  0.39141880  1.0
  Y  Y1837  1  0.00185233  0.63689533  0.39141880  1.0
  Y  Y1838  1  0.00185233  0.97022867  0.39141880  1.0
  Y  Y1839  1  0.33518567  0.30356200  0.39141880  1.0
  Y  Y1840  1  0.33518567  0.63689533  0.39141880  1.0
  Y  Y1841  1  0.33518567  0.97022867  0.39141880  1.0
  Y  Y1842  1  0.66851900  0.30356200  0.39141880  1.0
  Y  Y1843  1  0.66851900  0.63689533  0.39141880  1.0
  Y  Y1844  1  0.66851900  0.97022867  0.39141880  1.0
  Y  Y1845  1  0.16851900  0.30356200  0.29141880  1.0
  Y  Y1846  1  0.16851900  0.63689533  0.29141880  1.0
  Y  Y1847  1  0.16851900  0.97022867  0.29141880  1.0
  Y  Y1848  1  0.50185233  0.30356200  0.29141880  1.0
  Y  Y1849  1  0.50185233  0.63689533  0.29141880  1.0
  Y  Y1850  1  0.50185233  0.97022867  0.29141880  1.0
  Y  Y1851  1  0.83518567  0.30356200  0.29141880  1.0
  Y  Y1852  1  0.83518567  0.63689533  0.29141880  1.0
  Y  Y1853  1  0.83518567  0.97022867  0.29141880  1.0
  Y  Y1854  1  0.07323167  0.00481667  0.38386300  1.0
  Y  Y1855  1  0.07323167  0.33815000  0.38386300  1.0
  Y  Y1856  1  0.07323167  0.67148333  0.38386300  1.0
  Y  Y1857  1  0.40656500  0.00481667  0.38386300  1.0
  Y  Y1858  1  0.40656500  0.33815000  0.38386300  1.0
  Y  Y1859  1  0.40656500  0.67148333  0.38386300  1.0
  Y  Y1860  1  0.73989833  0.00481667  0.38386300  1.0
  Y  Y1861  1  0.73989833  0.33815000  0.38386300  1.0
  Y  Y1862  1  0.73989833  0.67148333  0.38386300  1.0
  Y  Y1863  1  0.23989833  0.00481667  0.28386300  1.0
  Y  Y1864  1  0.23989833  0.33815000  0.28386300  1.0
  Y  Y1865  1  0.23989833  0.67148333  0.28386300  1.0
  Y  Y1866  1  0.57323167  0.00481667  0.28386300  1.0
  Y  Y1867  1  0.57323167  0.33815000  0.28386300  1.0
  Y  Y1868  1  0.57323167  0.67148333  0.28386300  1.0
  Y  Y1869  1  0.90656500  0.00481667  0.28386300  1.0
  Y  Y1870  1  0.90656500  0.33815000  0.28386300  1.0
  Y  Y1871  1  0.90656500  0.67148333  0.28386300  1.0
  Y  Y1872  1  0.16087533  0.00000000  0.26501040  1.0
  Y  Y1873  1  0.16087533  0.33333333  0.26501040  1.0
  Y  Y1874  1  0.16087533  0.66666667  0.26501040  1.0
  Y  Y1875  1  0.49420867  0.00000000  0.26501040  1.0
  Y  Y1876  1  0.49420867  0.33333333  0.26501040  1.0
  Y  Y1877  1  0.49420867  0.66666667  0.26501040  1.0
  Y  Y1878  1  0.82754200  0.00000000  0.26501040  1.0
  Y  Y1879  1  0.82754200  0.33333333  0.26501040  1.0
  Y  Y1880  1  0.82754200  0.66666667  0.26501040  1.0
  Y  Y1881  1  0.32754200  0.33333333  0.36501040  1.0
  Y  Y1882  1  0.32754200  0.66666667  0.36501040  1.0
  Y  Y1883  1  0.32754200  1.00000000  0.36501040  1.0
  Y  Y1884  1  0.66087533  0.33333333  0.36501040  1.0
  Y  Y1885  1  0.66087533  0.66666667  0.36501040  1.0
  Y  Y1886  1  0.66087533  1.00000000  0.36501040  1.0
  Y  Y1887  1  0.99420867  0.33333333  0.36501040  1.0
  Y  Y1888  1  0.99420867  0.66666667  0.36501040  1.0
  Y  Y1889  1  0.99420867  1.00000000  0.36501040  1.0
  Y  Y1890  1  0.03481200  0.21912767  0.33082600  1.0
  Y  Y1891  1  0.03481200  0.55246100  0.33082600  1.0
  Y  Y1892  1  0.03481200  0.88579433  0.33082600  1.0
  Y  Y1893  1  0.36814533  0.21912767  0.33082600  1.0
  Y  Y1894  1  0.36814533  0.55246100  0.33082600  1.0
  Y  Y1895  1  0.36814533  0.88579433  0.33082600  1.0
  Y  Y1896  1  0.70147867  0.21912767  0.33082600  1.0
  Y  Y1897  1  0.70147867  0.55246100  0.33082600  1.0
  Y  Y1898  1  0.70147867  0.88579433  0.33082600  1.0
  Y  Y1899  1  0.20147867  0.21912767  0.23082600  1.0
  Y  Y1900  1  0.20147867  0.55246100  0.23082600  1.0
  Y  Y1901  1  0.20147867  0.88579433  0.23082600  1.0
  Y  Y1902  1  0.53481200  0.21912767  0.23082600  1.0
  Y  Y1903  1  0.53481200  0.55246100  0.23082600  1.0
  Y  Y1904  1  0.53481200  0.88579433  0.23082600  1.0
  Y  Y1905  1  0.86814533  0.21912767  0.23082600  1.0
  Y  Y1906  1  0.86814533  0.55246100  0.23082600  1.0
  Y  Y1907  1  0.86814533  0.88579433  0.23082600  1.0
  Y  Y1908  1  0.03225000  0.19193233  0.38132500  1.0
  Y  Y1909  1  0.03225000  0.52526567  0.38132500  1.0
  Y  Y1910  1  0.03225000  0.85859900  0.38132500  1.0
  Y  Y1911  1  0.36558333  0.19193233  0.38132500  1.0
  Y  Y1912  1  0.36558333  0.52526567  0.38132500  1.0
  Y  Y1913  1  0.36558333  0.85859900  0.38132500  1.0
  Y  Y1914  1  0.69891667  0.19193233  0.38132500  1.0
  Y  Y1915  1  0.69891667  0.52526567  0.38132500  1.0
  Y  Y1916  1  0.69891667  0.85859900  0.38132500  1.0
  Y  Y1917  1  0.19891667  0.19193233  0.28132500  1.0
  Y  Y1918  1  0.19891667  0.52526567  0.28132500  1.0
  Y  Y1919  1  0.19891667  0.85859900  0.28132500  1.0
  Y  Y1920  1  0.53225000  0.19193233  0.28132500  1.0
  Y  Y1921  1  0.53225000  0.52526567  0.28132500  1.0
  Y  Y1922  1  0.53225000  0.85859900  0.28132500  1.0
  Y  Y1923  1  0.86558333  0.19193233  0.28132500  1.0
  Y  Y1924  1  0.86558333  0.52526567  0.28132500  1.0
  Y  Y1925  1  0.86558333  0.85859900  0.28132500  1.0
  Y  Y1926  1  0.05595300  0.27287100  0.20468040  1.0
  Y  Y1927  1  0.05595300  0.60620433  0.20468040  1.0
  Y  Y1928  1  0.05595300  0.93953767  0.20468040  1.0
  Y  Y1929  1  0.38928633  0.27287100  0.20468040  1.0
  Y  Y1930  1  0.38928633  0.60620433  0.20468040  1.0
  Y  Y1931  1  0.38928633  0.93953767  0.20468040  1.0
  Y  Y1932  1  0.72261967  0.27287100  0.20468040  1.0
  Y  Y1933  1  0.72261967  0.60620433  0.20468040  1.0
  Y  Y1934  1  0.72261967  0.93953767  0.20468040  1.0
  Y  Y1935  1  0.22261967  0.27287100  0.30468040  1.0
  Y  Y1936  1  0.22261967  0.60620433  0.30468040  1.0
  Y  Y1937  1  0.22261967  0.93953767  0.30468040  1.0
  Y  Y1938  1  0.55595300  0.27287100  0.30468040  1.0
  Y  Y1939  1  0.55595300  0.60620433  0.30468040  1.0
  Y  Y1940  1  0.55595300  0.93953767  0.30468040  1.0
  Y  Y1941  1  0.88928633  0.27287100  0.30468040  1.0
  Y  Y1942  1  0.88928633  0.60620433  0.30468040  1.0
  Y  Y1943  1  0.88928633  0.93953767  0.30468040  1.0
  Y  Y1944  1  0.05305967  0.00000000  0.27094220  1.0
  Y  Y1945  1  0.05305967  0.33333333  0.27094220  1.0
  Y  Y1946  1  0.05305967  0.66666667  0.27094220  1.0
  Y  Y1947  1  0.38639300  0.00000000  0.27094220  1.0
  Y  Y1948  1  0.38639300  0.33333333  0.27094220  1.0
  Y  Y1949  1  0.38639300  0.66666667  0.27094220  1.0
  Y  Y1950  1  0.71972633  0.00000000  0.27094220  1.0
  Y  Y1951  1  0.71972633  0.33333333  0.27094220  1.0
  Y  Y1952  1  0.71972633  0.66666667  0.27094220  1.0
  Y  Y1953  1  0.21972633  0.00000000  0.37094220  1.0
  Y  Y1954  1  0.21972633  0.33333333  0.37094220  1.0
  Y  Y1955  1  0.21972633  0.66666667  0.37094220  1.0
  Y  Y1956  1  0.55305967  0.00000000  0.37094220  1.0
  Y  Y1957  1  0.55305967  0.33333333  0.37094220  1.0
  Y  Y1958  1  0.55305967  0.66666667  0.37094220  1.0
  Y  Y1959  1  0.88639300  0.00000000  0.37094220  1.0
  Y  Y1960  1  0.88639300  0.33333333  0.37094220  1.0
  Y  Y1961  1  0.88639300  0.66666667  0.37094220  1.0
  Y  Y1962  1  0.05133267  0.08815000  0.27124640  1.0
  Y  Y1963  1  0.05133267  0.42148333  0.27124640  1.0
  Y  Y1964  1  0.05133267  0.75481667  0.27124640  1.0
  Y  Y1965  1  0.38466600  0.08815000  0.27124640  1.0
  Y  Y1966  1  0.38466600  0.42148333  0.27124640  1.0
  Y  Y1967  1  0.38466600  0.75481667  0.27124640  1.0
  Y  Y1968  1  0.71799933  0.08815000  0.27124640  1.0
  Y  Y1969  1  0.71799933  0.42148333  0.27124640  1.0
  Y  Y1970  1  0.71799933  0.75481667  0.27124640  1.0
  Y  Y1971  1  0.21799933  0.08815000  0.37124640  1.0
  Y  Y1972  1  0.21799933  0.42148333  0.37124640  1.0
  Y  Y1973  1  0.21799933  0.75481667  0.37124640  1.0
  Y  Y1974  1  0.55133267  0.08815000  0.37124640  1.0
  Y  Y1975  1  0.55133267  0.42148333  0.37124640  1.0
  Y  Y1976  1  0.55133267  0.75481667  0.37124640  1.0
  Y  Y1977  1  0.88466600  0.08815000  0.37124640  1.0
  Y  Y1978  1  0.88466600  0.42148333  0.37124640  1.0
  Y  Y1979  1  0.88466600  0.75481667  0.37124640  1.0
  Y  Y1980  1  0.13928633  0.14379567  0.21333280  1.0
  Y  Y1981  1  0.13928633  0.47712900  0.21333280  1.0
  Y  Y1982  1  0.13928633  0.81046233  0.21333280  1.0
  Y  Y1983  1  0.47261967  0.14379567  0.21333280  1.0
  Y  Y1984  1  0.47261967  0.47712900  0.21333280  1.0
  Y  Y1985  1  0.47261967  0.81046233  0.21333280  1.0
  Y  Y1986  1  0.80595300  0.14379567  0.21333280  1.0
  Y  Y1987  1  0.80595300  0.47712900  0.21333280  1.0
  Y  Y1988  1  0.80595300  0.81046233  0.21333280  1.0
  Y  Y1989  1  0.30595300  0.14379567  0.31333280  1.0
  Y  Y1990  1  0.30595300  0.47712900  0.31333280  1.0
  Y  Y1991  1  0.30595300  0.81046233  0.31333280  1.0
  Y  Y1992  1  0.63928633  0.14379567  0.31333280  1.0
  Y  Y1993  1  0.63928633  0.47712900  0.31333280  1.0
  Y  Y1994  1  0.63928633  0.81046233  0.31333280  1.0
  Y  Y1995  1  0.97261967  0.14379567  0.31333280  1.0
  Y  Y1996  1  0.97261967  0.47712900  0.31333280  1.0
  Y  Y1997  1  0.97261967  0.81046233  0.31333280  1.0
  Y  Y1998  1  0.13639300  0.08333333  0.34359900  1.0
  Y  Y1999  1  0.13639300  0.41666667  0.34359900  1.0
  Y  Y2000  1  0.13639300  0.75000000  0.34359900  1.0
  Y  Y2001  1  0.46972633  0.08333333  0.34359900  1.0
  Y  Y2002  1  0.46972633  0.41666667  0.34359900  1.0
  Y  Y2003  1  0.46972633  0.75000000  0.34359900  1.0
  Y  Y2004  1  0.80305967  0.08333333  0.34359900  1.0
  Y  Y2005  1  0.80305967  0.41666667  0.34359900  1.0
  Y  Y2006  1  0.80305967  0.75000000  0.34359900  1.0
  Y  Y2007  1  0.30305967  0.08333333  0.24359900  1.0
  Y  Y2008  1  0.30305967  0.41666667  0.24359900  1.0
  Y  Y2009  1  0.30305967  0.75000000  0.24359900  1.0
  Y  Y2010  1  0.63639300  0.08333333  0.24359900  1.0
  Y  Y2011  1  0.63639300  0.41666667  0.24359900  1.0
  Y  Y2012  1  0.63639300  0.75000000  0.24359900  1.0
  Y  Y2013  1  0.96972633  0.08333333  0.24359900  1.0
  Y  Y2014  1  0.96972633  0.41666667  0.24359900  1.0
  Y  Y2015  1  0.96972633  0.75000000  0.24359900  1.0
  Y  Y2016  1  0.00579133  0.16666667  0.28585920  1.0
  Y  Y2017  1  0.00579133  0.50000000  0.28585920  1.0
  Y  Y2018  1  0.00579133  0.83333333  0.28585920  1.0
  Y  Y2019  1  0.33912467  0.16666667  0.28585920  1.0
  Y  Y2020  1  0.33912467  0.50000000  0.28585920  1.0
  Y  Y2021  1  0.33912467  0.83333333  0.28585920  1.0
  Y  Y2022  1  0.67245800  0.16666667  0.28585920  1.0
  Y  Y2023  1  0.67245800  0.50000000  0.28585920  1.0
  Y  Y2024  1  0.67245800  0.83333333  0.28585920  1.0
  Y  Y2025  1  0.17245800  0.16666667  0.38585920  1.0
  Y  Y2026  1  0.17245800  0.50000000  0.38585920  1.0
  Y  Y2027  1  0.17245800  0.83333333  0.38585920  1.0
  Y  Y2028  1  0.50579133  0.16666667  0.38585920  1.0
  Y  Y2029  1  0.50579133  0.50000000  0.38585920  1.0
  Y  Y2030  1  0.50579133  0.83333333  0.38585920  1.0
  Y  Y2031  1  0.83912467  0.16666667  0.38585920  1.0
  Y  Y2032  1  0.83912467  0.50000000  0.38585920  1.0
  Y  Y2033  1  0.83912467  0.83333333  0.38585920  1.0
  Y  Y2034  1  0.01010167  0.24518333  0.39020500  1.0
  Y  Y2035  1  0.01010167  0.57851667  0.39020500  1.0
  Y  Y2036  1  0.01010167  0.91185000  0.39020500  1.0
  Y  Y2037  1  0.34343500  0.24518333  0.39020500  1.0
  Y  Y2038  1  0.34343500  0.57851667  0.39020500  1.0
  Y  Y2039  1  0.34343500  0.91185000  0.39020500  1.0
  Y  Y2040  1  0.67676833  0.24518333  0.39020500  1.0
  Y  Y2041  1  0.67676833  0.57851667  0.39020500  1.0
  Y  Y2042  1  0.67676833  0.91185000  0.39020500  1.0
  Y  Y2043  1  0.17676833  0.24518333  0.29020500  1.0
  Y  Y2044  1  0.17676833  0.57851667  0.29020500  1.0
  Y  Y2045  1  0.17676833  0.91185000  0.29020500  1.0
  Y  Y2046  1  0.51010167  0.24518333  0.29020500  1.0
  Y  Y2047  1  0.51010167  0.57851667  0.29020500  1.0
  Y  Y2048  1  0.51010167  0.91185000  0.29020500  1.0
  Y  Y2049  1  0.84343500  0.24518333  0.29020500  1.0
  Y  Y2050  1  0.84343500  0.57851667  0.29020500  1.0
  Y  Y2051  1  0.84343500  0.91185000  0.29020500  1.0
  Y  Y2052  1  0.02384933  0.10859900  0.39360380  1.0
  Y  Y2053  1  0.02384933  0.44193233  0.39360380  1.0
  Y  Y2054  1  0.02384933  0.77526567  0.39360380  1.0
  Y  Y2055  1  0.35718267  0.10859900  0.39360380  1.0
  Y  Y2056  1  0.35718267  0.44193233  0.39360380  1.0
  Y  Y2057  1  0.35718267  0.77526567  0.39360380  1.0
  Y  Y2058  1  0.69051600  0.10859900  0.39360380  1.0
  Y  Y2059  1  0.69051600  0.44193233  0.39360380  1.0
  Y  Y2060  1  0.69051600  0.77526567  0.39360380  1.0
  Y  Y2061  1  0.19051600  0.10859900  0.29360380  1.0
  Y  Y2062  1  0.19051600  0.44193233  0.29360380  1.0
  Y  Y2063  1  0.19051600  0.77526567  0.29360380  1.0
  Y  Y2064  1  0.52384933  0.10859900  0.29360380  1.0
  Y  Y2065  1  0.52384933  0.44193233  0.29360380  1.0
  Y  Y2066  1  0.52384933  0.77526567  0.29360380  1.0
  Y  Y2067  1  0.85718267  0.10859900  0.29360380  1.0
  Y  Y2068  1  0.85718267  0.44193233  0.29360380  1.0
  Y  Y2069  1  0.85718267  0.77526567  0.29360380  1.0
  Y  Y2070  1  0.02662600  0.06046233  0.29483140  1.0
  Y  Y2071  1  0.02662600  0.39379567  0.29483140  1.0
  Y  Y2072  1  0.02662600  0.72712900  0.29483140  1.0
  Y  Y2073  1  0.35995933  0.06046233  0.29483140  1.0
  Y  Y2074  1  0.35995933  0.39379567  0.29483140  1.0
  Y  Y2075  1  0.35995933  0.72712900  0.29483140  1.0
  Y  Y2076  1  0.69329267  0.06046233  0.29483140  1.0
  Y  Y2077  1  0.69329267  0.39379567  0.29483140  1.0
  Y  Y2078  1  0.69329267  0.72712900  0.29483140  1.0
  Y  Y2079  1  0.19329267  0.06046233  0.39483140  1.0
  Y  Y2080  1  0.19329267  0.39379567  0.39483140  1.0
  Y  Y2081  1  0.19329267  0.72712900  0.39483140  1.0
  Y  Y2082  1  0.52662600  0.06046233  0.39483140  1.0
  Y  Y2083  1  0.52662600  0.39379567  0.39483140  1.0
  Y  Y2084  1  0.52662600  0.72712900  0.39483140  1.0
  Y  Y2085  1  0.85995933  0.06046233  0.39483140  1.0
  Y  Y2086  1  0.85995933  0.39379567  0.39483140  1.0
  Y  Y2087  1  0.85995933  0.72712900  0.39483140  1.0
  Y  Y2088  1  0.13466600  0.32851667  0.34122240  1.0
  Y  Y2089  1  0.13466600  0.66185000  0.34122240  1.0
  Y  Y2090  1  0.13466600  0.99518333  0.34122240  1.0
  Y  Y2091  1  0.46799933  0.32851667  0.34122240  1.0
  Y  Y2092  1  0.46799933  0.66185000  0.34122240  1.0
  Y  Y2093  1  0.46799933  0.99518333  0.34122240  1.0
  Y  Y2094  1  0.80133267  0.32851667  0.34122240  1.0
  Y  Y2095  1  0.80133267  0.66185000  0.34122240  1.0
  Y  Y2096  1  0.80133267  0.99518333  0.34122240  1.0
  Y  Y2097  1  0.30133267  0.32851667  0.24122240  1.0
  Y  Y2098  1  0.30133267  0.66185000  0.24122240  1.0
  Y  Y2099  1  0.30133267  0.99518333  0.24122240  1.0
  Y  Y2100  1  0.63466600  0.32851667  0.24122240  1.0
  Y  Y2101  1  0.63466600  0.66185000  0.24122240  1.0
  Y  Y2102  1  0.63466600  0.99518333  0.24122240  1.0
  Y  Y2103  1  0.96799933  0.32851667  0.24122240  1.0
  Y  Y2104  1  0.96799933  0.66185000  0.24122240  1.0
  Y  Y2105  1  0.96799933  0.99518333  0.24122240  1.0
  Y  Y2106  1  0.11814533  0.19753900  0.26181800  1.0
  Y  Y2107  1  0.11814533  0.53087233  0.26181800  1.0
  Y  Y2108  1  0.11814533  0.86420567  0.26181800  1.0
  Y  Y2109  1  0.45147867  0.19753900  0.26181800  1.0
  Y  Y2110  1  0.45147867  0.53087233  0.26181800  1.0
  Y  Y2111  1  0.45147867  0.86420567  0.26181800  1.0
  Y  Y2112  1  0.78481200  0.19753900  0.26181800  1.0
  Y  Y2113  1  0.78481200  0.53087233  0.26181800  1.0
  Y  Y2114  1  0.78481200  0.86420567  0.26181800  1.0
  Y  Y2115  1  0.28481200  0.19753900  0.36181800  1.0
  Y  Y2116  1  0.28481200  0.53087233  0.36181800  1.0
  Y  Y2117  1  0.28481200  0.86420567  0.36181800  1.0
  Y  Y2118  1  0.61814533  0.19753900  0.36181800  1.0
  Y  Y2119  1  0.61814533  0.53087233  0.36181800  1.0
  Y  Y2120  1  0.61814533  0.86420567  0.36181800  1.0
  Y  Y2121  1  0.95147867  0.19753900  0.36181800  1.0
  Y  Y2122  1  0.95147867  0.53087233  0.36181800  1.0
  Y  Y2123  1  0.95147867  0.86420567  0.36181800  1.0
  Y  Y2124  1  0.03200067  0.16185000  0.20386720  1.0
  Y  Y2125  1  0.03200067  0.49518333  0.20386720  1.0
  Y  Y2126  1  0.03200067  0.82851667  0.20386720  1.0
  Y  Y2127  1  0.36533400  0.16185000  0.20386720  1.0
  Y  Y2128  1  0.36533400  0.49518333  0.20386720  1.0
  Y  Y2129  1  0.36533400  0.82851667  0.20386720  1.0
  Y  Y2130  1  0.69866733  0.16185000  0.20386720  1.0
  Y  Y2131  1  0.69866733  0.49518333  0.20386720  1.0
  Y  Y2132  1  0.69866733  0.82851667  0.20386720  1.0
  Y  Y2133  1  0.19866733  0.16185000  0.30386720  1.0
  Y  Y2134  1  0.19866733  0.49518333  0.30386720  1.0
  Y  Y2135  1  0.19866733  0.82851667  0.30386720  1.0
  Y  Y2136  1  0.53200067  0.16185000  0.30386720  1.0
  Y  Y2137  1  0.53200067  0.49518333  0.30386720  1.0
  Y  Y2138  1  0.53200067  0.82851667  0.30386720  1.0
  Y  Y2139  1  0.86533400  0.16185000  0.30386720  1.0
  Y  Y2140  1  0.86533400  0.49518333  0.30386720  1.0
  Y  Y2141  1  0.86533400  0.82851667  0.30386720  1.0
  Y  Y2142  1  0.09343500  0.17148333  0.37278660  1.0
  Y  Y2143  1  0.09343500  0.50481667  0.37278660  1.0
  Y  Y2144  1  0.09343500  0.83815000  0.37278660  1.0
  Y  Y2145  1  0.42676833  0.17148333  0.37278660  1.0
  Y  Y2146  1  0.42676833  0.50481667  0.37278660  1.0
  Y  Y2147  1  0.42676833  0.83815000  0.37278660  1.0
  Y  Y2148  1  0.76010167  0.17148333  0.37278660  1.0
  Y  Y2149  1  0.76010167  0.50481667  0.37278660  1.0
  Y  Y2150  1  0.76010167  0.83815000  0.37278660  1.0
  Y  Y2151  1  0.26010167  0.17148333  0.27278660  1.0
  Y  Y2152  1  0.26010167  0.50481667  0.27278660  1.0
  Y  Y2153  1  0.26010167  0.83815000  0.27278660  1.0
  Y  Y2154  1  0.59343500  0.17148333  0.27278660  1.0
  Y  Y2155  1  0.59343500  0.50481667  0.27278660  1.0
  Y  Y2156  1  0.59343500  0.83815000  0.27278660  1.0
  Y  Y2157  1  0.92676833  0.17148333  0.27278660  1.0
  Y  Y2158  1  0.92676833  0.50481667  0.27278660  1.0
  Y  Y2159  1  0.92676833  0.83815000  0.27278660  1.0
  Y  Y2160  1  0.13441667  0.02526567  0.39986340  1.0
  Y  Y2161  1  0.13441667  0.35859900  0.39986340  1.0
  Y  Y2162  1  0.13441667  0.69193233  0.39986340  1.0
  Y  Y2163  1  0.46775000  0.02526567  0.39986340  1.0
  Y  Y2164  1  0.46775000  0.35859900  0.39986340  1.0
  Y  Y2165  1  0.46775000  0.69193233  0.39986340  1.0
  Y  Y2166  1  0.80108333  0.02526567  0.39986340  1.0
  Y  Y2167  1  0.80108333  0.35859900  0.39986340  1.0
  Y  Y2168  1  0.80108333  0.69193233  0.39986340  1.0
  Y  Y2169  1  0.30108333  0.02526567  0.29986340  1.0
  Y  Y2170  1  0.30108333  0.35859900  0.29986340  1.0
  Y  Y2171  1  0.30108333  0.69193233  0.29986340  1.0
  Y  Y2172  1  0.63441667  0.02526567  0.29986340  1.0
  Y  Y2173  1  0.63441667  0.35859900  0.29986340  1.0
  Y  Y2174  1  0.63441667  0.69193233  0.29986340  1.0
  Y  Y2175  1  0.96775000  0.02526567  0.29986340  1.0
  Y  Y2176  1  0.96775000  0.35859900  0.29986340  1.0
  Y  Y2177  1  0.96775000  0.69193233  0.29986340  1.0
  Y  Y2178  1  0.02727950  0.02977133  0.21188810  1.0
  Y  Y2179  1  0.02727950  0.36310467  0.21188810  1.0
  Y  Y2180  1  0.02727950  0.69643800  0.21188810  1.0
  Y  Y2181  1  0.36061283  0.02977133  0.21188810  1.0
  Y  Y2182  1  0.36061283  0.36310467  0.21188810  1.0
  Y  Y2183  1  0.36061283  0.69643800  0.21188810  1.0
  Y  Y2184  1  0.69394617  0.02977133  0.21188810  1.0
  Y  Y2185  1  0.69394617  0.36310467  0.21188810  1.0
  Y  Y2186  1  0.69394617  0.69643800  0.21188810  1.0
  Y  Y2187  1  0.19394617  0.02977133  0.31188810  1.0
  Y  Y2188  1  0.19394617  0.36310467  0.31188810  1.0
  Y  Y2189  1  0.19394617  0.69643800  0.31188810  1.0
  Y  Y2190  1  0.52727950  0.02977133  0.31188810  1.0
  Y  Y2191  1  0.52727950  0.36310467  0.31188810  1.0
  Y  Y2192  1  0.52727950  0.69643800  0.31188810  1.0
  Y  Y2193  1  0.86061283  0.02977133  0.31188810  1.0
  Y  Y2194  1  0.86061283  0.36310467  0.31188810  1.0
  Y  Y2195  1  0.86061283  0.69643800  0.31188810  1.0
  Y  Y2196  1  0.05605383  0.22022867  0.24342710  1.0
  Y  Y2197  1  0.05605383  0.55356200  0.24342710  1.0
  Y  Y2198  1  0.05605383  0.88689533  0.24342710  1.0
  Y  Y2199  1  0.38938717  0.22022867  0.24342710  1.0
  Y  Y2200  1  0.38938717  0.55356200  0.24342710  1.0
  Y  Y2201  1  0.38938717  0.88689533  0.24342710  1.0
  Y  Y2202  1  0.72272050  0.22022867  0.24342710  1.0
  Y  Y2203  1  0.72272050  0.55356200  0.24342710  1.0
  Y  Y2204  1  0.72272050  0.88689533  0.24342710  1.0
  Y  Y2205  1  0.22272050  0.22022867  0.34342710  1.0
  Y  Y2206  1  0.22272050  0.55356200  0.34342710  1.0
  Y  Y2207  1  0.22272050  0.88689533  0.34342710  1.0
  Y  Y2208  1  0.55605383  0.22022867  0.34342710  1.0
  Y  Y2209  1  0.55605383  0.55356200  0.34342710  1.0
  Y  Y2210  1  0.55605383  0.88689533  0.34342710  1.0
  Y  Y2211  1  0.88938717  0.22022867  0.34342710  1.0
  Y  Y2212  1  0.88938717  0.55356200  0.34342710  1.0
  Y  Y2213  1  0.88938717  0.88689533  0.34342710  1.0
  Y  Y2214  1  0.13185467  0.05246100  0.28299680  1.0
  Y  Y2215  1  0.13185467  0.38579433  0.28299680  1.0
  Y  Y2216  1  0.13185467  0.71912767  0.28299680  1.0
  Y  Y2217  1  0.46518800  0.05246100  0.28299680  1.0
  Y  Y2218  1  0.46518800  0.38579433  0.28299680  1.0
  Y  Y2219  1  0.46518800  0.71912767  0.28299680  1.0
  Y  Y2220  1  0.79852133  0.05246100  0.28299680  1.0
  Y  Y2221  1  0.79852133  0.38579433  0.28299680  1.0
  Y  Y2222  1  0.79852133  0.71912767  0.28299680  1.0
  Y  Y2223  1  0.29852133  0.05246100  0.38299680  1.0
  Y  Y2224  1  0.29852133  0.38579433  0.38299680  1.0
  Y  Y2225  1  0.29852133  0.71912767  0.38299680  1.0
  Y  Y2226  1  0.63185467  0.05246100  0.38299680  1.0
  Y  Y2227  1  0.63185467  0.38579433  0.38299680  1.0
  Y  Y2228  1  0.63185467  0.71912767  0.38299680  1.0
  Y  Y2229  1  0.96518800  0.05246100  0.38299680  1.0
  Y  Y2230  1  0.96518800  0.38579433  0.38299680  1.0
  Y  Y2231  1  0.96518800  0.71912767  0.38299680  1.0
  Y  Y2232  1  0.08585617  0.30246100  0.26665070  1.0
  Y  Y2233  1  0.08585617  0.63579433  0.26665070  1.0
  Y  Y2234  1  0.08585617  0.96912767  0.26665070  1.0
  Y  Y2235  1  0.41918950  0.30246100  0.26665070  1.0
  Y  Y2236  1  0.41918950  0.63579433  0.26665070  1.0
  Y  Y2237  1  0.41918950  0.96912767  0.26665070  1.0
  Y  Y2238  1  0.75252283  0.30246100  0.26665070  1.0
  Y  Y2239  1  0.75252283  0.63579433  0.26665070  1.0
  Y  Y2240  1  0.75252283  0.96912767  0.26665070  1.0
  Y  Y2241  1  0.25252283  0.30246100  0.36665070  1.0
  Y  Y2242  1  0.25252283  0.63579433  0.36665070  1.0
  Y  Y2243  1  0.25252283  0.96912767  0.36665070  1.0
  Y  Y2244  1  0.58585617  0.30246100  0.36665070  1.0
  Y  Y2245  1  0.58585617  0.63579433  0.36665070  1.0
  Y  Y2246  1  0.58585617  0.96912767  0.36665070  1.0
  Y  Y2247  1  0.91918950  0.30246100  0.36665070  1.0
  Y  Y2248  1  0.91918950  0.63579433  0.36665070  1.0
  Y  Y2249  1  0.91918950  0.96912767  0.36665070  1.0
  Y  Y2250  1  0.16414383  0.28087233  0.20067010  1.0
  Y  Y2251  1  0.16414383  0.61420567  0.20067010  1.0
  Y  Y2252  1  0.16414383  0.94753900  0.20067010  1.0
  Y  Y2253  1  0.49747717  0.28087233  0.20067010  1.0
  Y  Y2254  1  0.49747717  0.61420567  0.20067010  1.0
  Y  Y2255  1  0.49747717  0.94753900  0.20067010  1.0
  Y  Y2256  1  0.83081050  0.28087233  0.20067010  1.0
  Y  Y2257  1  0.83081050  0.61420567  0.20067010  1.0
  Y  Y2258  1  0.83081050  0.94753900  0.20067010  1.0
  Y  Y2259  1  0.33081050  0.28087233  0.30067010  1.0
  Y  Y2260  1  0.33081050  0.61420567  0.30067010  1.0
  Y  Y2261  1  0.33081050  0.94753900  0.30067010  1.0
  Y  Y2262  1  0.66414383  0.28087233  0.30067010  1.0
  Y  Y2263  1  0.66414383  0.61420567  0.30067010  1.0
  Y  Y2264  1  0.66414383  0.94753900  0.30067010  1.0
  Y  Y2265  1  0.99747717  0.28087233  0.30067010  1.0
  Y  Y2266  1  0.99747717  0.61420567  0.30067010  1.0
  Y  Y2267  1  0.99747717  0.94753900  0.30067010  1.0
  Y  Y2268  1  0.05948400  0.14140100  0.33466580  1.0
  Y  Y2269  1  0.05948400  0.47473433  0.33466580  1.0
  Y  Y2270  1  0.05948400  0.80806767  0.33466580  1.0
  Y  Y2271  1  0.39281733  0.14140100  0.33466580  1.0
  Y  Y2272  1  0.39281733  0.47473433  0.33466580  1.0
  Y  Y2273  1  0.39281733  0.80806767  0.33466580  1.0
  Y  Y2274  1  0.72615067  0.14140100  0.33466580  1.0
  Y  Y2275  1  0.72615067  0.47473433  0.33466580  1.0
  Y  Y2276  1  0.72615067  0.80806767  0.33466580  1.0
  Y  Y2277  1  0.22615067  0.14140100  0.23466580  1.0
  Y  Y2278  1  0.22615067  0.47473433  0.23466580  1.0
  Y  Y2279  1  0.22615067  0.80806767  0.23466580  1.0
  Y  Y2280  1  0.55948400  0.14140100  0.23466580  1.0
  Y  Y2281  1  0.55948400  0.47473433  0.23466580  1.0
  Y  Y2282  1  0.55948400  0.80806767  0.23466580  1.0
  Y  Y2283  1  0.89281733  0.14140100  0.23466580  1.0
  Y  Y2284  1  0.89281733  0.47473433  0.23466580  1.0
  Y  Y2285  1  0.89281733  0.80806767  0.23466580  1.0
  Y  Y2286  1  0.05108333  0.05806767  0.21230620  1.0
  Y  Y2287  1  0.05108333  0.39140100  0.21230620  1.0
  Y  Y2288  1  0.05108333  0.72473433  0.21230620  1.0
  Y  Y2289  1  0.38441667  0.05806767  0.21230620  1.0
  Y  Y2290  1  0.38441667  0.39140100  0.21230620  1.0
  Y  Y2291  1  0.38441667  0.72473433  0.21230620  1.0
  Y  Y2292  1  0.71775000  0.05806767  0.21230620  1.0
  Y  Y2293  1  0.71775000  0.39140100  0.21230620  1.0
  Y  Y2294  1  0.71775000  0.72473433  0.21230620  1.0
  Y  Y2295  1  0.21775000  0.05806767  0.31230620  1.0
  Y  Y2296  1  0.21775000  0.39140100  0.31230620  1.0
  Y  Y2297  1  0.21775000  0.72473433  0.31230620  1.0
  Y  Y2298  1  0.55108333  0.05806767  0.31230620  1.0
  Y  Y2299  1  0.55108333  0.39140100  0.31230620  1.0
  Y  Y2300  1  0.55108333  0.72473433  0.31230620  1.0
  Y  Y2301  1  0.88441667  0.05806767  0.31230620  1.0
  Y  Y2302  1  0.88441667  0.39140100  0.31230620  1.0
  Y  Y2303  1  0.88441667  0.72473433  0.31230620  1.0
  Ni  Ni2304  1  0.10892233  0.28529400  0.21431140  1.0
  Ni  Ni2305  1  0.10892233  0.61862733  0.21431140  1.0
  Ni  Ni2306  1  0.10892233  0.95196067  0.21431140  1.0
  Ni  Ni2307  1  0.44225567  0.28529400  0.21431140  1.0
  Ni  Ni2308  1  0.44225567  0.61862733  0.21431140  1.0
  Ni  Ni2309  1  0.44225567  0.95196067  0.21431140  1.0
  Ni  Ni2310  1  0.77558900  0.28529400  0.21431140  1.0
  Ni  Ni2311  1  0.77558900  0.61862733  0.21431140  1.0
  Ni  Ni2312  1  0.77558900  0.95196067  0.21431140  1.0
  Ni  Ni2313  1  0.27558900  0.28529400  0.31431140  1.0
  Ni  Ni2314  1  0.27558900  0.61862733  0.31431140  1.0
  Ni  Ni2315  1  0.27558900  0.95196067  0.31431140  1.0
  Ni  Ni2316  1  0.60892233  0.28529400  0.31431140  1.0
  Ni  Ni2317  1  0.60892233  0.61862733  0.31431140  1.0
  Ni  Ni2318  1  0.60892233  0.95196067  0.31431140  1.0
  Ni  Ni2319  1  0.94225567  0.28529400  0.31431140  1.0
  Ni  Ni2320  1  0.94225567  0.61862733  0.31431140  1.0
  Ni  Ni2321  1  0.94225567  0.95196067  0.31431140  1.0
  Ni  Ni2322  1  0.10430133  0.32543933  0.25385860  1.0
  Ni  Ni2323  1  0.10430133  0.65877267  0.25385860  1.0
  Ni  Ni2324  1  0.10430133  0.99210600  0.25385860  1.0
  Ni  Ni2325  1  0.43763467  0.32543933  0.25385860  1.0
  Ni  Ni2326  1  0.43763467  0.65877267  0.25385860  1.0
  Ni  Ni2327  1  0.43763467  0.99210600  0.25385860  1.0
  Ni  Ni2328  1  0.77096800  0.32543933  0.25385860  1.0
  Ni  Ni2329  1  0.77096800  0.65877267  0.25385860  1.0
  Ni  Ni2330  1  0.77096800  0.99210600  0.25385860  1.0
  Ni  Ni2331  1  0.27096800  0.32543933  0.35385860  1.0
  Ni  Ni2332  1  0.27096800  0.65877267  0.35385860  1.0
  Ni  Ni2333  1  0.27096800  0.99210600  0.35385860  1.0
  Ni  Ni2334  1  0.60430133  0.32543933  0.35385860  1.0
  Ni  Ni2335  1  0.60430133  0.65877267  0.35385860  1.0
  Ni  Ni2336  1  0.60430133  0.99210600  0.35385860  1.0
  Ni  Ni2337  1  0.93763467  0.32543933  0.35385860  1.0
  Ni  Ni2338  1  0.93763467  0.65877267  0.35385860  1.0
  Ni  Ni2339  1  0.93763467  0.99210600  0.35385860  1.0
  Ni  Ni2340  1  0.06618383  0.24210600  0.38557030  1.0
  Ni  Ni2341  1  0.06618383  0.57543933  0.38557030  1.0
  Ni  Ni2342  1  0.06618383  0.90877267  0.38557030  1.0
  Ni  Ni2343  1  0.39951717  0.24210600  0.38557030  1.0
  Ni  Ni2344  1  0.39951717  0.57543933  0.38557030  1.0
  Ni  Ni2345  1  0.39951717  0.90877267  0.38557030  1.0
  Ni  Ni2346  1  0.73285050  0.24210600  0.38557030  1.0
  Ni  Ni2347  1  0.73285050  0.57543933  0.38557030  1.0
  Ni  Ni2348  1  0.73285050  0.90877267  0.38557030  1.0
  Ni  Ni2349  1  0.23285050  0.24210600  0.28557030  1.0
  Ni  Ni2350  1  0.23285050  0.57543933  0.28557030  1.0
  Ni  Ni2351  1  0.23285050  0.90877267  0.28557030  1.0
  Ni  Ni2352  1  0.56618383  0.24210600  0.28557030  1.0
  Ni  Ni2353  1  0.56618383  0.57543933  0.28557030  1.0
  Ni  Ni2354  1  0.56618383  0.90877267  0.28557030  1.0
  Ni  Ni2355  1  0.89951717  0.24210600  0.28557030  1.0
  Ni  Ni2356  1  0.89951717  0.57543933  0.28557030  1.0
  Ni  Ni2357  1  0.89951717  0.90877267  0.28557030  1.0
  Ni  Ni2358  1  0.08137767  0.20196067  0.37614460  1.0
  Ni  Ni2359  1  0.08137767  0.53529400  0.37614460  1.0
  Ni  Ni2360  1  0.08137767  0.86862733  0.37614460  1.0
  Ni  Ni2361  1  0.41471100  0.20196067  0.37614460  1.0
  Ni  Ni2362  1  0.41471100  0.53529400  0.37614460  1.0
  Ni  Ni2363  1  0.41471100  0.86862733  0.37614460  1.0
  Ni  Ni2364  1  0.74804433  0.20196067  0.37614460  1.0
  Ni  Ni2365  1  0.74804433  0.53529400  0.37614460  1.0
  Ni  Ni2366  1  0.74804433  0.86862733  0.37614460  1.0
  Ni  Ni2367  1  0.24804433  0.20196067  0.27614460  1.0
  Ni  Ni2368  1  0.24804433  0.53529400  0.27614460  1.0
  Ni  Ni2369  1  0.24804433  0.86862733  0.27614460  1.0
  Ni  Ni2370  1  0.58137767  0.20196067  0.27614460  1.0
  Ni  Ni2371  1  0.58137767  0.53529400  0.27614460  1.0
  Ni  Ni2372  1  0.58137767  0.86862733  0.27614460  1.0
  Ni  Ni2373  1  0.91471100  0.20196067  0.27614460  1.0
  Ni  Ni2374  1  0.91471100  0.53529400  0.27614460  1.0
  Ni  Ni2375  1  0.91471100  0.86862733  0.27614460  1.0
  Ni  Ni2376  1  0.03180633  0.26622033  0.25652760  1.0
  Ni  Ni2377  1  0.03180633  0.59955367  0.25652760  1.0
  Ni  Ni2378  1  0.03180633  0.93288700  0.25652760  1.0
  Ni  Ni2379  1  0.36513967  0.26622033  0.25652760  1.0
  Ni  Ni2380  1  0.36513967  0.59955367  0.25652760  1.0
  Ni  Ni2381  1  0.36513967  0.93288700  0.25652760  1.0
  Ni  Ni2382  1  0.69847300  0.26622033  0.25652760  1.0
  Ni  Ni2383  1  0.69847300  0.59955367  0.25652760  1.0
  Ni  Ni2384  1  0.69847300  0.93288700  0.25652760  1.0
  Ni  Ni2385  1  0.19847300  0.26622033  0.35652760  1.0
  Ni  Ni2386  1  0.19847300  0.59955367  0.35652760  1.0
  Ni  Ni2387  1  0.19847300  0.93288700  0.35652760  1.0
  Ni  Ni2388  1  0.53180633  0.26622033  0.35652760  1.0
  Ni  Ni2389  1  0.53180633  0.59955367  0.35652760  1.0
  Ni  Ni2390  1  0.53180633  0.93288700  0.35652760  1.0
  Ni  Ni2391  1  0.86513967  0.26622033  0.35652760  1.0
  Ni  Ni2392  1  0.86513967  0.59955367  0.35652760  1.0
  Ni  Ni2393  1  0.86513967  0.93288700  0.35652760  1.0
  Ni  Ni2394  1  0.11513967  0.15044633  0.33250960  1.0
  Ni  Ni2395  1  0.11513967  0.48377967  0.33250960  1.0
  Ni  Ni2396  1  0.11513967  0.81711300  0.33250960  1.0
  Ni  Ni2397  1  0.44847300  0.15044633  0.33250960  1.0
  Ni  Ni2398  1  0.44847300  0.48377967  0.33250960  1.0
  Ni  Ni2399  1  0.44847300  0.81711300  0.33250960  1.0
  Ni  Ni2400  1  0.78180633  0.15044633  0.33250960  1.0
  Ni  Ni2401  1  0.78180633  0.48377967  0.33250960  1.0
  Ni  Ni2402  1  0.78180633  0.81711300  0.33250960  1.0
  Ni  Ni2403  1  0.28180633  0.15044633  0.23250960  1.0
  Ni  Ni2404  1  0.28180633  0.48377967  0.23250960  1.0
  Ni  Ni2405  1  0.28180633  0.81711300  0.23250960  1.0
  Ni  Ni2406  1  0.61513967  0.15044633  0.23250960  1.0
  Ni  Ni2407  1  0.61513967  0.48377967  0.23250960  1.0
  Ni  Ni2408  1  0.61513967  0.81711300  0.23250960  1.0
  Ni  Ni2409  1  0.94847300  0.15044633  0.23250960  1.0
  Ni  Ni2410  1  0.94847300  0.48377967  0.23250960  1.0
  Ni  Ni2411  1  0.94847300  0.81711300  0.23250960  1.0
  Ni  Ni2412  1  0.02558900  0.13137267  0.36726500  1.0
  Ni  Ni2413  1  0.02558900  0.46470600  0.36726500  1.0
  Ni  Ni2414  1  0.02558900  0.79803933  0.36726500  1.0
  Ni  Ni2415  1  0.35892233  0.13137267  0.36726500  1.0
  Ni  Ni2416  1  0.35892233  0.46470600  0.36726500  1.0
  Ni  Ni2417  1  0.35892233  0.79803933  0.36726500  1.0
  Ni  Ni2418  1  0.69225567  0.13137267  0.36726500  1.0
  Ni  Ni2419  1  0.69225567  0.46470600  0.36726500  1.0
  Ni  Ni2420  1  0.69225567  0.79803933  0.36726500  1.0
  Ni  Ni2421  1  0.19225567  0.13137267  0.26726500  1.0
  Ni  Ni2422  1  0.19225567  0.46470600  0.26726500  1.0
  Ni  Ni2423  1  0.19225567  0.79803933  0.26726500  1.0
  Ni  Ni2424  1  0.52558900  0.13137267  0.26726500  1.0
  Ni  Ni2425  1  0.52558900  0.46470600  0.26726500  1.0
  Ni  Ni2426  1  0.52558900  0.79803933  0.26726500  1.0
  Ni  Ni2427  1  0.85892233  0.13137267  0.26726500  1.0
  Ni  Ni2428  1  0.85892233  0.46470600  0.26726500  1.0
  Ni  Ni2429  1  0.85892233  0.79803933  0.26726500  1.0
  Ni  Ni2430  1  0.05152700  0.31711300  0.39889560  1.0
  Ni  Ni2431  1  0.05152700  0.65044633  0.39889560  1.0
  Ni  Ni2432  1  0.05152700  0.98377967  0.39889560  1.0
  Ni  Ni2433  1  0.38486033  0.31711300  0.39889560  1.0
  Ni  Ni2434  1  0.38486033  0.65044633  0.39889560  1.0
  Ni  Ni2435  1  0.38486033  0.98377967  0.39889560  1.0
  Ni  Ni2436  1  0.71819367  0.31711300  0.39889560  1.0
  Ni  Ni2437  1  0.71819367  0.65044633  0.39889560  1.0
  Ni  Ni2438  1  0.71819367  0.98377967  0.39889560  1.0
  Ni  Ni2439  1  0.21819367  0.31711300  0.29889560  1.0
  Ni  Ni2440  1  0.21819367  0.65044633  0.29889560  1.0
  Ni  Ni2441  1  0.21819367  0.98377967  0.29889560  1.0
  Ni  Ni2442  1  0.55152700  0.31711300  0.29889560  1.0
  Ni  Ni2443  1  0.55152700  0.65044633  0.29889560  1.0
  Ni  Ni2444  1  0.55152700  0.98377967  0.29889560  1.0
  Ni  Ni2445  1  0.88486033  0.31711300  0.29889560  1.0
  Ni  Ni2446  1  0.88486033  0.65044633  0.29889560  1.0
  Ni  Ni2447  1  0.88486033  0.98377967  0.29889560  1.0
  Ni  Ni2448  1  0.01714950  0.00789400  0.31562250  1.0
  Ni  Ni2449  1  0.01714950  0.34122733  0.31562250  1.0
  Ni  Ni2450  1  0.01714950  0.67456067  0.31562250  1.0
  Ni  Ni2451  1  0.35048283  0.00789400  0.31562250  1.0
  Ni  Ni2452  1  0.35048283  0.34122733  0.31562250  1.0
  Ni  Ni2453  1  0.35048283  0.67456067  0.31562250  1.0
  Ni  Ni2454  1  0.68381617  0.00789400  0.31562250  1.0
  Ni  Ni2455  1  0.68381617  0.34122733  0.31562250  1.0
  Ni  Ni2456  1  0.68381617  0.67456067  0.31562250  1.0
  Ni  Ni2457  1  0.18381617  0.00789400  0.21562250  1.0
  Ni  Ni2458  1  0.18381617  0.34122733  0.21562250  1.0
  Ni  Ni2459  1  0.18381617  0.67456067  0.21562250  1.0
  Ni  Ni2460  1  0.51714950  0.00789400  0.21562250  1.0
  Ni  Ni2461  1  0.51714950  0.34122733  0.21562250  1.0
  Ni  Ni2462  1  0.51714950  0.67456067  0.21562250  1.0
  Ni  Ni2463  1  0.85048283  0.00789400  0.21562250  1.0
  Ni  Ni2464  1  0.85048283  0.34122733  0.21562250  1.0
  Ni  Ni2465  1  0.85048283  0.67456067  0.21562250  1.0
  Ni  Ni2466  1  0.14107767  0.29803933  0.34125180  1.0
  Ni  Ni2467  1  0.14107767  0.63137267  0.34125180  1.0
  Ni  Ni2468  1  0.14107767  0.96470600  0.34125180  1.0
  Ni  Ni2469  1  0.47441100  0.29803933  0.34125180  1.0
  Ni  Ni2470  1  0.47441100  0.63137267  0.34125180  1.0
  Ni  Ni2471  1  0.47441100  0.96470600  0.34125180  1.0
  Ni  Ni2472  1  0.80774433  0.29803933  0.34125180  1.0
  Ni  Ni2473  1  0.80774433  0.63137267  0.34125180  1.0
  Ni  Ni2474  1  0.80774433  0.96470600  0.34125180  1.0
  Ni  Ni2475  1  0.30774433  0.29803933  0.24125180  1.0
  Ni  Ni2476  1  0.30774433  0.63137267  0.24125180  1.0
  Ni  Ni2477  1  0.30774433  0.96470600  0.24125180  1.0
  Ni  Ni2478  1  0.64107767  0.29803933  0.24125180  1.0
  Ni  Ni2479  1  0.64107767  0.63137267  0.24125180  1.0
  Ni  Ni2480  1  0.64107767  0.96470600  0.24125180  1.0
  Ni  Ni2481  1  0.97441100  0.29803933  0.24125180  1.0
  Ni  Ni2482  1  0.97441100  0.63137267  0.24125180  1.0
  Ni  Ni2483  1  0.97441100  0.96470600  0.24125180  1.0
  Ni  Ni2484  1  0.05774433  0.11862733  0.27891100  1.0
  Ni  Ni2485  1  0.05774433  0.45196067  0.27891100  1.0
  Ni  Ni2486  1  0.05774433  0.78529400  0.27891100  1.0
  Ni  Ni2487  1  0.39107767  0.11862733  0.27891100  1.0
  Ni  Ni2488  1  0.39107767  0.45196067  0.27891100  1.0
  Ni  Ni2489  1  0.39107767  0.78529400  0.27891100  1.0
  Ni  Ni2490  1  0.72441100  0.11862733  0.27891100  1.0
  Ni  Ni2491  1  0.72441100  0.45196067  0.27891100  1.0
  Ni  Ni2492  1  0.72441100  0.78529400  0.27891100  1.0
  Ni  Ni2493  1  0.22441100  0.11862733  0.37891100  1.0
  Ni  Ni2494  1  0.22441100  0.45196067  0.37891100  1.0
  Ni  Ni2495  1  0.22441100  0.78529400  0.37891100  1.0
  Ni  Ni2496  1  0.55774433  0.11862733  0.37891100  1.0
  Ni  Ni2497  1  0.55774433  0.45196067  0.37891100  1.0
  Ni  Ni2498  1  0.55774433  0.78529400  0.37891100  1.0
  Ni  Ni2499  1  0.89107767  0.11862733  0.37891100  1.0
  Ni  Ni2500  1  0.89107767  0.45196067  0.37891100  1.0
  Ni  Ni2501  1  0.89107767  0.78529400  0.37891100  1.0
  Ni  Ni2502  1  0.08523067  0.06711300  0.30500860  1.0
  Ni  Ni2503  1  0.08523067  0.40044633  0.30500860  1.0
  Ni  Ni2504  1  0.08523067  0.73377967  0.30500860  1.0
  Ni  Ni2505  1  0.41856400  0.06711300  0.30500860  1.0
  Ni  Ni2506  1  0.41856400  0.40044633  0.30500860  1.0
  Ni  Ni2507  1  0.41856400  0.73377967  0.30500860  1.0
  Ni  Ni2508  1  0.75189733  0.06711300  0.30500860  1.0
  Ni  Ni2509  1  0.75189733  0.40044633  0.30500860  1.0
  Ni  Ni2510  1  0.75189733  0.73377967  0.30500860  1.0
  Ni  Ni2511  1  0.25189733  0.06711300  0.20500860  1.0
  Ni  Ni2512  1  0.25189733  0.40044633  0.20500860  1.0
  Ni  Ni2513  1  0.25189733  0.73377967  0.20500860  1.0
  Ni  Ni2514  1  0.58523067  0.06711300  0.20500860  1.0
  Ni  Ni2515  1  0.58523067  0.40044633  0.20500860  1.0
  Ni  Ni2516  1  0.58523067  0.73377967  0.20500860  1.0
  Ni  Ni2517  1  0.91856400  0.06711300  0.20500860  1.0
  Ni  Ni2518  1  0.91856400  0.40044633  0.20500860  1.0
  Ni  Ni2519  1  0.91856400  0.73377967  0.20500860  1.0
  Ni  Ni2520  1  0.08143600  0.23377967  0.32639660  1.0
  Ni  Ni2521  1  0.08143600  0.56711300  0.32639660  1.0
  Ni  Ni2522  1  0.08143600  0.90044633  0.32639660  1.0
  Ni  Ni2523  1  0.41476933  0.23377967  0.32639660  1.0
  Ni  Ni2524  1  0.41476933  0.56711300  0.32639660  1.0
  Ni  Ni2525  1  0.41476933  0.90044633  0.32639660  1.0
  Ni  Ni2526  1  0.74810267  0.23377967  0.32639660  1.0
  Ni  Ni2527  1  0.74810267  0.56711300  0.32639660  1.0
  Ni  Ni2528  1  0.74810267  0.90044633  0.32639660  1.0
  Ni  Ni2529  1  0.24810267  0.23377967  0.22639660  1.0
  Ni  Ni2530  1  0.24810267  0.56711300  0.22639660  1.0
  Ni  Ni2531  1  0.24810267  0.90044633  0.22639660  1.0
  Ni  Ni2532  1  0.58143600  0.23377967  0.22639660  1.0
  Ni  Ni2533  1  0.58143600  0.56711300  0.22639660  1.0
  Ni  Ni2534  1  0.58143600  0.90044633  0.22639660  1.0
  Ni  Ni2535  1  0.91476933  0.23377967  0.22639660  1.0
  Ni  Ni2536  1  0.91476933  0.56711300  0.22639660  1.0
  Ni  Ni2537  1  0.91476933  0.90044633  0.22639660  1.0
  Ni  Ni2538  1  0.00195567  0.04803933  0.33613860  1.0
  Ni  Ni2539  1  0.00195567  0.38137267  0.33613860  1.0
  Ni  Ni2540  1  0.00195567  0.71470600  0.33613860  1.0
  Ni  Ni2541  1  0.33528900  0.04803933  0.33613860  1.0
  Ni  Ni2542  1  0.33528900  0.38137267  0.33613860  1.0
  Ni  Ni2543  1  0.33528900  0.71470600  0.33613860  1.0
  Ni  Ni2544  1  0.66862233  0.04803933  0.33613860  1.0
  Ni  Ni2545  1  0.66862233  0.38137267  0.33613860  1.0
  Ni  Ni2546  1  0.66862233  0.71470600  0.33613860  1.0
  Ni  Ni2547  1  0.16862233  0.04803933  0.23613860  1.0
  Ni  Ni2548  1  0.16862233  0.38137267  0.23613860  1.0
  Ni  Ni2549  1  0.16862233  0.71470600  0.23613860  1.0
  Ni  Ni2550  1  0.50195567  0.04803933  0.23613860  1.0
  Ni  Ni2551  1  0.50195567  0.38137267  0.23613860  1.0
  Ni  Ni2552  1  0.50195567  0.71470600  0.23613860  1.0
  Ni  Ni2553  1  0.83528900  0.04803933  0.23613860  1.0
  Ni  Ni2554  1  0.83528900  0.38137267  0.23613860  1.0
  Ni  Ni2555  1  0.83528900  0.71470600  0.23613860  1.0
  Ni  Ni2556  1  0.05319150  0.29466433  0.37318550  1.0
  Ni  Ni2557  1  0.05319150  0.62799767  0.37318550  1.0
  Ni  Ni2558  1  0.05319150  0.96133100  0.37318550  1.0
  Ni  Ni2559  1  0.38652483  0.29466433  0.37318550  1.0
  Ni  Ni2560  1  0.38652483  0.62799767  0.37318550  1.0
  Ni  Ni2561  1  0.38652483  0.96133100  0.37318550  1.0
  Ni  Ni2562  1  0.71985817  0.29466433  0.37318550  1.0
  Ni  Ni2563  1  0.71985817  0.62799767  0.37318550  1.0
  Ni  Ni2564  1  0.71985817  0.96133100  0.37318550  1.0
  Ni  Ni2565  1  0.21985817  0.29466433  0.27318550  1.0
  Ni  Ni2566  1  0.21985817  0.62799767  0.27318550  1.0
  Ni  Ni2567  1  0.21985817  0.96133100  0.27318550  1.0
  Ni  Ni2568  1  0.55319150  0.29466433  0.27318550  1.0
  Ni  Ni2569  1  0.55319150  0.62799767  0.27318550  1.0
  Ni  Ni2570  1  0.55319150  0.96133100  0.27318550  1.0
  Ni  Ni2571  1  0.88652483  0.29466433  0.27318550  1.0
  Ni  Ni2572  1  0.88652483  0.62799767  0.27318550  1.0
  Ni  Ni2573  1  0.88652483  0.96133100  0.27318550  1.0
  Ni  Ni2574  1  0.02096800  0.09122733  0.32217260  1.0
  Ni  Ni2575  1  0.02096800  0.42456067  0.32217260  1.0
  Ni  Ni2576  1  0.02096800  0.75789400  0.32217260  1.0
  Ni  Ni2577  1  0.35430133  0.09122733  0.32217260  1.0
  Ni  Ni2578  1  0.35430133  0.42456067  0.32217260  1.0
  Ni  Ni2579  1  0.35430133  0.75789400  0.32217260  1.0
  Ni  Ni2580  1  0.68763467  0.09122733  0.32217260  1.0
  Ni  Ni2581  1  0.68763467  0.42456067  0.32217260  1.0
  Ni  Ni2582  1  0.68763467  0.75789400  0.32217260  1.0
  Ni  Ni2583  1  0.18763467  0.09122733  0.22217260  1.0
  Ni  Ni2584  1  0.18763467  0.42456067  0.22217260  1.0
  Ni  Ni2585  1  0.18763467  0.75789400  0.22217260  1.0
  Ni  Ni2586  1  0.52096800  0.09122733  0.22217260  1.0
  Ni  Ni2587  1  0.52096800  0.42456067  0.22217260  1.0
  Ni  Ni2588  1  0.52096800  0.75789400  0.22217260  1.0
  Ni  Ni2589  1  0.85430133  0.09122733  0.22217260  1.0
  Ni  Ni2590  1  0.85430133  0.42456067  0.22217260  1.0
  Ni  Ni2591  1  0.85430133  0.75789400  0.22217260  1.0
  Ni  Ni2592  1  0.13486033  0.09955367  0.21380640  1.0
  Ni  Ni2593  1  0.13486033  0.43288700  0.21380640  1.0
  Ni  Ni2594  1  0.13486033  0.76622033  0.21380640  1.0
  Ni  Ni2595  1  0.46819367  0.09955367  0.21380640  1.0
  Ni  Ni2596  1  0.46819367  0.43288700  0.21380640  1.0
  Ni  Ni2597  1  0.46819367  0.76622033  0.21380640  1.0
  Ni  Ni2598  1  0.80152700  0.09955367  0.21380640  1.0
  Ni  Ni2599  1  0.80152700  0.43288700  0.21380640  1.0
  Ni  Ni2600  1  0.80152700  0.76622033  0.21380640  1.0
  Ni  Ni2601  1  0.30152700  0.09955367  0.31380640  1.0
  Ni  Ni2602  1  0.30152700  0.43288700  0.31380640  1.0
  Ni  Ni2603  1  0.30152700  0.76622033  0.31380640  1.0
  Ni  Ni2604  1  0.63486033  0.09955367  0.31380640  1.0
  Ni  Ni2605  1  0.63486033  0.43288700  0.31380640  1.0
  Ni  Ni2606  1  0.63486033  0.76622033  0.31380640  1.0
  Ni  Ni2607  1  0.96819367  0.09955367  0.31380640  1.0
  Ni  Ni2608  1  0.96819367  0.43288700  0.31380640  1.0
  Ni  Ni2609  1  0.96819367  0.76622033  0.31380640  1.0
  Ni  Ni2610  1  0.11347517  0.12799767  0.33128130  1.0
  Ni  Ni2611  1  0.11347517  0.46133100  0.33128130  1.0
  Ni  Ni2612  1  0.11347517  0.79466433  0.33128130  1.0
  Ni  Ni2613  1  0.44680850  0.12799767  0.33128130  1.0
  Ni  Ni2614  1  0.44680850  0.46133100  0.33128130  1.0
  Ni  Ni2615  1  0.44680850  0.79466433  0.33128130  1.0
  Ni  Ni2616  1  0.78014183  0.12799767  0.33128130  1.0
  Ni  Ni2617  1  0.78014183  0.46133100  0.33128130  1.0
  Ni  Ni2618  1  0.78014183  0.79466433  0.33128130  1.0
  Ni  Ni2619  1  0.28014183  0.12799767  0.23128130  1.0
  Ni  Ni2620  1  0.28014183  0.46133100  0.23128130  1.0
  Ni  Ni2621  1  0.28014183  0.79466433  0.23128130  1.0
  Ni  Ni2622  1  0.61347517  0.12799767  0.23128130  1.0
  Ni  Ni2623  1  0.61347517  0.46133100  0.23128130  1.0
  Ni  Ni2624  1  0.61347517  0.79466433  0.23128130  1.0
  Ni  Ni2625  1  0.94680850  0.12799767  0.23128130  1.0
  Ni  Ni2626  1  0.94680850  0.46133100  0.23128130  1.0
  Ni  Ni2627  1  0.94680850  0.79466433  0.23128130  1.0
  Ni  Ni2628  1  0.06236533  0.15877267  0.28753820  1.0
  Ni  Ni2629  1  0.06236533  0.49210600  0.28753820  1.0
  Ni  Ni2630  1  0.06236533  0.82543933  0.28753820  1.0
  Ni  Ni2631  1  0.39569867  0.15877267  0.28753820  1.0
  Ni  Ni2632  1  0.39569867  0.49210600  0.28753820  1.0
  Ni  Ni2633  1  0.39569867  0.82543933  0.28753820  1.0
  Ni  Ni2634  1  0.72903200  0.15877267  0.28753820  1.0
  Ni  Ni2635  1  0.72903200  0.49210600  0.28753820  1.0
  Ni  Ni2636  1  0.72903200  0.82543933  0.28753820  1.0
  Ni  Ni2637  1  0.22903200  0.15877267  0.38753820  1.0
  Ni  Ni2638  1  0.22903200  0.49210600  0.38753820  1.0
  Ni  Ni2639  1  0.22903200  0.82543933  0.38753820  1.0
  Ni  Ni2640  1  0.56236533  0.15877267  0.38753820  1.0
  Ni  Ni2641  1  0.56236533  0.49210600  0.38753820  1.0
  Ni  Ni2642  1  0.56236533  0.82543933  0.38753820  1.0
  Ni  Ni2643  1  0.89569867  0.15877267  0.38753820  1.0
  Ni  Ni2644  1  0.89569867  0.49210600  0.38753820  1.0
  Ni  Ni2645  1  0.89569867  0.82543933  0.38753820  1.0
  Ni  Ni2646  1  0.16476933  0.18288700  0.32219620  1.0
  Ni  Ni2647  1  0.16476933  0.51622033  0.32219620  1.0
  Ni  Ni2648  1  0.16476933  0.84955367  0.32219620  1.0
  Ni  Ni2649  1  0.49810267  0.18288700  0.32219620  1.0
  Ni  Ni2650  1  0.49810267  0.51622033  0.32219620  1.0
  Ni  Ni2651  1  0.49810267  0.84955367  0.32219620  1.0
  Ni  Ni2652  1  0.83143600  0.18288700  0.32219620  1.0
  Ni  Ni2653  1  0.83143600  0.51622033  0.32219620  1.0
  Ni  Ni2654  1  0.83143600  0.84955367  0.32219620  1.0
  Ni  Ni2655  1  0.33143600  0.18288700  0.22219620  1.0
  Ni  Ni2656  1  0.33143600  0.51622033  0.22219620  1.0
  Ni  Ni2657  1  0.33143600  0.84955367  0.22219620  1.0
  Ni  Ni2658  1  0.66476933  0.18288700  0.22219620  1.0
  Ni  Ni2659  1  0.66476933  0.51622033  0.22219620  1.0
  Ni  Ni2660  1  0.66476933  0.84955367  0.22219620  1.0
  Ni  Ni2661  1  0.99810267  0.18288700  0.22219620  1.0
  Ni  Ni2662  1  0.99810267  0.51622033  0.22219620  1.0
  Ni  Ni2663  1  0.99810267  0.84955367  0.22219620  1.0
  Ni  Ni2664  1  0.14569867  0.25789400  0.33816980  1.0
  Ni  Ni2665  1  0.14569867  0.59122733  0.33816980  1.0
  Ni  Ni2666  1  0.14569867  0.92456067  0.33816980  1.0
  Ni  Ni2667  1  0.47903200  0.25789400  0.33816980  1.0
  Ni  Ni2668  1  0.47903200  0.59122733  0.33816980  1.0
  Ni  Ni2669  1  0.47903200  0.92456067  0.33816980  1.0
  Ni  Ni2670  1  0.81236533  0.25789400  0.33816980  1.0
  Ni  Ni2671  1  0.81236533  0.59122733  0.33816980  1.0
  Ni  Ni2672  1  0.81236533  0.92456067  0.33816980  1.0
  Ni  Ni2673  1  0.31236533  0.25789400  0.23816980  1.0
  Ni  Ni2674  1  0.31236533  0.59122733  0.23816980  1.0
  Ni  Ni2675  1  0.31236533  0.92456067  0.23816980  1.0
  Ni  Ni2676  1  0.64569867  0.25789400  0.23816980  1.0
  Ni  Ni2677  1  0.64569867  0.59122733  0.23816980  1.0
  Ni  Ni2678  1  0.64569867  0.92456067  0.23816980  1.0
  Ni  Ni2679  1  0.97903200  0.25789400  0.23816980  1.0
  Ni  Ni2680  1  0.97903200  0.59122733  0.23816980  1.0
  Ni  Ni2681  1  0.97903200  0.92456067  0.23816980  1.0
  Ni  Ni2682  1  0.16471100  0.21470600  0.27237820  1.0
  Ni  Ni2683  1  0.16471100  0.54803933  0.27237820  1.0
  Ni  Ni2684  1  0.16471100  0.88137267  0.27237820  1.0
  Ni  Ni2685  1  0.49804433  0.21470600  0.27237820  1.0
  Ni  Ni2686  1  0.49804433  0.54803933  0.27237820  1.0
  Ni  Ni2687  1  0.49804433  0.88137267  0.27237820  1.0
  Ni  Ni2688  1  0.83137767  0.21470600  0.27237820  1.0
  Ni  Ni2689  1  0.83137767  0.54803933  0.27237820  1.0
  Ni  Ni2690  1  0.83137767  0.88137267  0.27237820  1.0
  Ni  Ni2691  1  0.33137767  0.21470600  0.37237820  1.0
  Ni  Ni2692  1  0.33137767  0.54803933  0.37237820  1.0
  Ni  Ni2693  1  0.33137767  0.88137267  0.37237820  1.0
  Ni  Ni2694  1  0.66471100  0.21470600  0.37237820  1.0
  Ni  Ni2695  1  0.66471100  0.54803933  0.37237820  1.0
  Ni  Ni2696  1  0.66471100  0.88137267  0.37237820  1.0
  Ni  Ni2697  1  0.99804433  0.21470600  0.37237820  1.0
  Ni  Ni2698  1  0.99804433  0.54803933  0.37237820  1.0
  Ni  Ni2699  1  0.99804433  0.88137267  0.37237820  1.0
  Ni  Ni2700  1  0.09246900  0.21133100  0.32154460  1.0
  Ni  Ni2701  1  0.09246900  0.54466433  0.32154460  1.0
  Ni  Ni2702  1  0.09246900  0.87799767  0.32154460  1.0
  Ni  Ni2703  1  0.42580233  0.21133100  0.32154460  1.0
  Ni  Ni2704  1  0.42580233  0.54466433  0.32154460  1.0
  Ni  Ni2705  1  0.42580233  0.87799767  0.32154460  1.0
  Ni  Ni2706  1  0.75913567  0.21133100  0.32154460  1.0
  Ni  Ni2707  1  0.75913567  0.54466433  0.32154460  1.0
  Ni  Ni2708  1  0.75913567  0.87799767  0.32154460  1.0
  Ni  Ni2709  1  0.25913567  0.21133100  0.22154460  1.0
  Ni  Ni2710  1  0.25913567  0.54466433  0.22154460  1.0
  Ni  Ni2711  1  0.25913567  0.87799767  0.22154460  1.0
  Ni  Ni2712  1  0.59246900  0.21133100  0.22154460  1.0
  Ni  Ni2713  1  0.59246900  0.54466433  0.22154460  1.0
  Ni  Ni2714  1  0.59246900  0.87799767  0.22154460  1.0
  Ni  Ni2715  1  0.92580233  0.21133100  0.22154460  1.0
  Ni  Ni2716  1  0.92580233  0.54466433  0.22154460  1.0
  Ni  Ni2717  1  0.92580233  0.87799767  0.22154460  1.0
  Ni  Ni2718  1  0.15753100  0.03866900  0.35698460  1.0
  Ni  Ni2719  1  0.15753100  0.37200233  0.35698460  1.0
  Ni  Ni2720  1  0.15753100  0.70533567  0.35698460  1.0
  Ni  Ni2721  1  0.49086433  0.03866900  0.35698460  1.0
  Ni  Ni2722  1  0.49086433  0.37200233  0.35698460  1.0
  Ni  Ni2723  1  0.49086433  0.70533567  0.35698460  1.0
  Ni  Ni2724  1  0.82419767  0.03866900  0.35698460  1.0
  Ni  Ni2725  1  0.82419767  0.37200233  0.35698460  1.0
  Ni  Ni2726  1  0.82419767  0.70533567  0.35698460  1.0
  Ni  Ni2727  1  0.32419767  0.03866900  0.25698460  1.0
  Ni  Ni2728  1  0.32419767  0.37200233  0.25698460  1.0
  Ni  Ni2729  1  0.32419767  0.70533567  0.25698460  1.0
  Ni  Ni2730  1  0.65753100  0.03866900  0.25698460  1.0
  Ni  Ni2731  1  0.65753100  0.37200233  0.25698460  1.0
  Ni  Ni2732  1  0.65753100  0.70533567  0.25698460  1.0
  Ni  Ni2733  1  0.99086433  0.03866900  0.25698460  1.0
  Ni  Ni2734  1  0.99086433  0.37200233  0.25698460  1.0
  Ni  Ni2735  1  0.99086433  0.70533567  0.25698460  1.0
  Ni  Ni2736  1  0.00913567  0.20533567  0.24028780  1.0
  Ni  Ni2737  1  0.00913567  0.53866900  0.24028780  1.0
  Ni  Ni2738  1  0.00913567  0.87200233  0.24028780  1.0
  Ni  Ni2739  1  0.34246900  0.20533567  0.24028780  1.0
  Ni  Ni2740  1  0.34246900  0.53866900  0.24028780  1.0
  Ni  Ni2741  1  0.34246900  0.87200233  0.24028780  1.0
  Ni  Ni2742  1  0.67580233  0.20533567  0.24028780  1.0
  Ni  Ni2743  1  0.67580233  0.53866900  0.24028780  1.0
  Ni  Ni2744  1  0.67580233  0.87200233  0.24028780  1.0
  Ni  Ni2745  1  0.17580233  0.20533567  0.34028780  1.0
  Ni  Ni2746  1  0.17580233  0.53866900  0.34028780  1.0
  Ni  Ni2747  1  0.17580233  0.87200233  0.34028780  1.0
  Ni  Ni2748  1  0.50913567  0.20533567  0.34028780  1.0
  Ni  Ni2749  1  0.50913567  0.53866900  0.34028780  1.0
  Ni  Ni2750  1  0.50913567  0.87200233  0.34028780  1.0
  Ni  Ni2751  1  0.84246900  0.20533567  0.34028780  1.0
  Ni  Ni2752  1  0.84246900  0.53866900  0.34028780  1.0
  Ni  Ni2753  1  0.84246900  0.87200233  0.34028780  1.0
  Ni  Ni2754  1  0.14951717  0.17456067  0.24471990  1.0
  Ni  Ni2755  1  0.14951717  0.50789400  0.24471990  1.0
  Ni  Ni2756  1  0.14951717  0.84122733  0.24471990  1.0
  Ni  Ni2757  1  0.48285050  0.17456067  0.24471990  1.0
  Ni  Ni2758  1  0.48285050  0.50789400  0.24471990  1.0
  Ni  Ni2759  1  0.48285050  0.84122733  0.24471990  1.0
  Ni  Ni2760  1  0.81618383  0.17456067  0.24471990  1.0
  Ni  Ni2761  1  0.81618383  0.50789400  0.24471990  1.0
  Ni  Ni2762  1  0.81618383  0.84122733  0.24471990  1.0
  Ni  Ni2763  1  0.31618383  0.17456067  0.34471990  1.0
  Ni  Ni2764  1  0.31618383  0.50789400  0.34471990  1.0
  Ni  Ni2765  1  0.31618383  0.84122733  0.34471990  1.0
  Ni  Ni2766  1  0.64951717  0.17456067  0.34471990  1.0
  Ni  Ni2767  1  0.64951717  0.50789400  0.34471990  1.0
  Ni  Ni2768  1  0.64951717  0.84122733  0.34471990  1.0
  Ni  Ni2769  1  0.98285050  0.17456067  0.34471990  1.0
  Ni  Ni2770  1  0.98285050  0.50789400  0.34471990  1.0
  Ni  Ni2771  1  0.98285050  0.84122733  0.34471990  1.0
  Ni  Ni2772  1  0.13652483  0.12200233  0.24151390  1.0
  Ni  Ni2773  1  0.13652483  0.45533567  0.24151390  1.0
  Ni  Ni2774  1  0.13652483  0.78866900  0.24151390  1.0
  Ni  Ni2775  1  0.46985817  0.12200233  0.24151390  1.0
  Ni  Ni2776  1  0.46985817  0.45533567  0.24151390  1.0
  Ni  Ni2777  1  0.46985817  0.78866900  0.24151390  1.0
  Ni  Ni2778  1  0.80319150  0.12200233  0.24151390  1.0
  Ni  Ni2779  1  0.80319150  0.45533567  0.24151390  1.0
  Ni  Ni2780  1  0.80319150  0.78866900  0.24151390  1.0
  Ni  Ni2781  1  0.30319150  0.12200233  0.34151390  1.0
  Ni  Ni2782  1  0.30319150  0.45533567  0.34151390  1.0
  Ni  Ni2783  1  0.30319150  0.78866900  0.34151390  1.0
  Ni  Ni2784  1  0.63652483  0.12200233  0.34151390  1.0
  Ni  Ni2785  1  0.63652483  0.45533567  0.34151390  1.0
  Ni  Ni2786  1  0.63652483  0.78866900  0.34151390  1.0
  Ni  Ni2787  1  0.96985817  0.12200233  0.34151390  1.0
  Ni  Ni2788  1  0.96985817  0.45533567  0.34151390  1.0
  Ni  Ni2789  1  0.96985817  0.78866900  0.34151390  1.0
  Ni  Ni2790  1  0.07419767  0.04466433  0.28292220  1.0
  Ni  Ni2791  1  0.07419767  0.37799767  0.28292220  1.0
  Ni  Ni2792  1  0.07419767  0.71133100  0.28292220  1.0
  Ni  Ni2793  1  0.40753100  0.04466433  0.28292220  1.0
  Ni  Ni2794  1  0.40753100  0.37799767  0.28292220  1.0
  Ni  Ni2795  1  0.40753100  0.71133100  0.28292220  1.0
  Ni  Ni2796  1  0.74086433  0.04466433  0.28292220  1.0
  Ni  Ni2797  1  0.74086433  0.37799767  0.28292220  1.0
  Ni  Ni2798  1  0.74086433  0.71133100  0.28292220  1.0
  Ni  Ni2799  1  0.24086433  0.04466433  0.38292220  1.0
  Ni  Ni2800  1  0.24086433  0.37799767  0.38292220  1.0
  Ni  Ni2801  1  0.24086433  0.71133100  0.38292220  1.0
  Ni  Ni2802  1  0.57419767  0.04466433  0.38292220  1.0
  Ni  Ni2803  1  0.57419767  0.37799767  0.38292220  1.0
  Ni  Ni2804  1  0.57419767  0.71133100  0.38292220  1.0
  Ni  Ni2805  1  0.90753100  0.04466433  0.38292220  1.0
  Ni  Ni2806  1  0.90753100  0.37799767  0.38292220  1.0
  Ni  Ni2807  1  0.90753100  0.71133100  0.38292220  1.0
  Ni  Ni2808  1  0.00189733  0.01622033  0.24813780  1.0
  Ni  Ni2809  1  0.00189733  0.34955367  0.24813780  1.0
  Ni  Ni2810  1  0.00189733  0.68288700  0.24813780  1.0
  Ni  Ni2811  1  0.33523067  0.01622033  0.24813780  1.0
  Ni  Ni2812  1  0.33523067  0.34955367  0.24813780  1.0
  Ni  Ni2813  1  0.33523067  0.68288700  0.24813780  1.0
  Ni  Ni2814  1  0.66856400  0.01622033  0.24813780  1.0
  Ni  Ni2815  1  0.66856400  0.34955367  0.24813780  1.0
  Ni  Ni2816  1  0.66856400  0.68288700  0.24813780  1.0
  Ni  Ni2817  1  0.16856400  0.01622033  0.34813780  1.0
  Ni  Ni2818  1  0.16856400  0.34955367  0.34813780  1.0
  Ni  Ni2819  1  0.16856400  0.68288700  0.34813780  1.0
  Ni  Ni2820  1  0.50189733  0.01622033  0.34813780  1.0
  Ni  Ni2821  1  0.50189733  0.34955367  0.34813780  1.0
  Ni  Ni2822  1  0.50189733  0.68288700  0.34813780  1.0
  Ni  Ni2823  1  0.83523067  0.01622033  0.34813780  1.0
  Ni  Ni2824  1  0.83523067  0.34955367  0.34813780  1.0
  Ni  Ni2825  1  0.83523067  0.68288700  0.34813780  1.0
  Ni  Ni2826  1  0.03014183  0.28866900  0.25575850  1.0
  Ni  Ni2827  1  0.03014183  0.62200233  0.25575850  1.0
  Ni  Ni2828  1  0.03014183  0.95533567  0.25575850  1.0
  Ni  Ni2829  1  0.36347517  0.28866900  0.25575850  1.0
  Ni  Ni2830  1  0.36347517  0.62200233  0.25575850  1.0
  Ni  Ni2831  1  0.36347517  0.95533567  0.25575850  1.0
  Ni  Ni2832  1  0.69680850  0.28866900  0.25575850  1.0
  Ni  Ni2833  1  0.69680850  0.62200233  0.25575850  1.0
  Ni  Ni2834  1  0.69680850  0.95533567  0.25575850  1.0
  Ni  Ni2835  1  0.19680850  0.28866900  0.35575850  1.0
  Ni  Ni2836  1  0.19680850  0.62200233  0.35575850  1.0
  Ni  Ni2837  1  0.19680850  0.95533567  0.35575850  1.0
  Ni  Ni2838  1  0.53014183  0.28866900  0.35575850  1.0
  Ni  Ni2839  1  0.53014183  0.62200233  0.35575850  1.0
  Ni  Ni2840  1  0.53014183  0.95533567  0.35575850  1.0
  Ni  Ni2841  1  0.86347517  0.28866900  0.35575850  1.0
  Ni  Ni2842  1  0.86347517  0.62200233  0.35575850  1.0
  Ni  Ni2843  1  0.86347517  0.95533567  0.35575850  1.0
  Ni  Ni2844  1  0.10048283  0.07543933  0.25582650  1.0
  Ni  Ni2845  1  0.10048283  0.40877267  0.25582650  1.0
  Ni  Ni2846  1  0.10048283  0.74210600  0.25582650  1.0
  Ni  Ni2847  1  0.43381617  0.07543933  0.25582650  1.0
  Ni  Ni2848  1  0.43381617  0.40877267  0.25582650  1.0
  Ni  Ni2849  1  0.43381617  0.74210600  0.25582650  1.0
  Ni  Ni2850  1  0.76714950  0.07543933  0.25582650  1.0
  Ni  Ni2851  1  0.76714950  0.40877267  0.25582650  1.0
  Ni  Ni2852  1  0.76714950  0.74210600  0.25582650  1.0
  Ni  Ni2853  1  0.26714950  0.07543933  0.35582650  1.0
  Ni  Ni2854  1  0.26714950  0.40877267  0.35582650  1.0
  Ni  Ni2855  1  0.26714950  0.74210600  0.35582650  1.0
  Ni  Ni2856  1  0.60048283  0.07543933  0.35582650  1.0
  Ni  Ni2857  1  0.60048283  0.40877267  0.35582650  1.0
  Ni  Ni2858  1  0.60048283  0.74210600  0.35582650  1.0
  Ni  Ni2859  1  0.93381617  0.07543933  0.35582650  1.0
  Ni  Ni2860  1  0.93381617  0.40877267  0.35582650  1.0
  Ni  Ni2861  1  0.93381617  0.74210600  0.35582650  1.0
  Ni  Ni2862  1  0.08528900  0.03529400  0.21707780  1.0
  Ni  Ni2863  1  0.08528900  0.36862733  0.21707780  1.0
  Ni  Ni2864  1  0.08528900  0.70196067  0.21707780  1.0
  Ni  Ni2865  1  0.41862233  0.03529400  0.21707780  1.0
  Ni  Ni2866  1  0.41862233  0.36862733  0.21707780  1.0
  Ni  Ni2867  1  0.41862233  0.70196067  0.21707780  1.0
  Ni  Ni2868  1  0.75195567  0.03529400  0.21707780  1.0
  Ni  Ni2869  1  0.75195567  0.36862733  0.21707780  1.0
  Ni  Ni2870  1  0.75195567  0.70196067  0.21707780  1.0
  Ni  Ni2871  1  0.25195567  0.03529400  0.31707780  1.0
  Ni  Ni2872  1  0.25195567  0.36862733  0.31707780  1.0
  Ni  Ni2873  1  0.25195567  0.70196067  0.31707780  1.0
  Ni  Ni2874  1  0.58528900  0.03529400  0.31707780  1.0
  Ni  Ni2875  1  0.58528900  0.36862733  0.31707780  1.0
  Ni  Ni2876  1  0.58528900  0.70196067  0.31707780  1.0
  Ni  Ni2877  1  0.91862233  0.03529400  0.31707780  1.0
  Ni  Ni2878  1  0.91862233  0.36862733  0.31707780  1.0
  Ni  Ni2879  1  0.91862233  0.70196067  0.31707780  1.0
