# generated using pymatgen
data_Y3Ni2
_symmetry_space_group_name_H-M   'P 1'
_cell_length_a   21.21288900
_cell_length_b   221.16425979
_cell_length_c   35.35481500
_cell_angle_alpha   95.50396488
_cell_angle_beta   90.00000000
_cell_angle_gamma   90.00000000
_symmetry_Int_Tables_number   1
_chemical_formula_structural   Y3Ni2
_chemical_formula_sum   'Y1728 Ni1152'
_cell_volume   165103.55235140
_cell_formula_units_Z   576
loop_
 _symmetry_equiv_pos_site_id
 _symmetry_equiv_pos_as_xyz
  1  'x, y, z'
loop_
 _atom_site_type_symbol
 _atom_site_label
 _atom_site_symmetry_multiplicity
 _atom_site_fract_x
 _atom_site_fract_y
 _atom_site_fract_z
 _atom_site_occupancy
  Y  Y0  1  0.32962867  0.06844767  0.00620370  1.0
  Y  Y1  1  0.32962867  0.40178100  0.00620370  1.0
  Y  Y2  1  0.32962867  0.73511433  0.00620370  1.0
  Y  Y3  1  0.66296200  0.06844767  0.00620370  1.0
  Y  Y4  1  0.66296200  0.40178100  0.00620370  1.0
  Y  Y5  1  0.66296200  0.73511433  0.00620370  1.0
  Y  Y6  1  0.99629533  0.06844767  0.00620370  1.0
  Y  Y7  1  0.99629533  0.40178100  0.00620370  1.0
  Y  Y8  1  0.99629533  0.73511433  0.00620370  1.0
  Y  Y9  1  0.32962867  0.23511433  0.10620370  1.0
  Y  Y10  1  0.32962867  0.56844767  0.10620370  1.0
  Y  Y11  1  0.32962867  0.90178100  0.10620370  1.0
  Y  Y12  1  0.66296200  0.23511433  0.10620370  1.0
  Y  Y13  1  0.66296200  0.56844767  0.10620370  1.0
  Y  Y14  1  0.66296200  0.90178100  0.10620370  1.0
  Y  Y15  1  0.99629533  0.23511433  0.10620370  1.0
  Y  Y16  1  0.99629533  0.56844767  0.10620370  1.0
  Y  Y17  1  0.99629533  0.90178100  0.10620370  1.0
  Y  Y18  1  0.23066800  0.12740833  0.06219350  1.0
  Y  Y19  1  0.23066800  0.46074167  0.06219350  1.0
  Y  Y20  1  0.23066800  0.79407500  0.06219350  1.0
  Y  Y21  1  0.56400133  0.12740833  0.06219350  1.0
  Y  Y22  1  0.56400133  0.46074167  0.06219350  1.0
  Y  Y23  1  0.56400133  0.79407500  0.06219350  1.0
  Y  Y24  1  0.89733467  0.12740833  0.06219350  1.0
  Y  Y25  1  0.89733467  0.46074167  0.06219350  1.0
  Y  Y26  1  0.89733467  0.79407500  0.06219350  1.0
  Y  Y27  1  0.23066800  0.29407500  0.16219350  1.0
  Y  Y28  1  0.23066800  0.62740833  0.16219350  1.0
  Y  Y29  1  0.23066800  0.96074167  0.16219350  1.0
  Y  Y30  1  0.56400133  0.29407500  0.16219350  1.0
  Y  Y31  1  0.56400133  0.62740833  0.16219350  1.0
  Y  Y32  1  0.56400133  0.96074167  0.16219350  1.0
  Y  Y33  1  0.89733467  0.29407500  0.16219350  1.0
  Y  Y34  1  0.89733467  0.62740833  0.16219350  1.0
  Y  Y35  1  0.89733467  0.96074167  0.16219350  1.0
  Y  Y36  1  0.22142733  0.05310217  0.19778060  1.0
  Y  Y37  1  0.22142733  0.38643550  0.19778060  1.0
  Y  Y38  1  0.22142733  0.71976883  0.19778060  1.0
  Y  Y39  1  0.55476067  0.05310217  0.19778060  1.0
  Y  Y40  1  0.55476067  0.38643550  0.19778060  1.0
  Y  Y41  1  0.55476067  0.71976883  0.19778060  1.0
  Y  Y42  1  0.88809400  0.05310217  0.19778060  1.0
  Y  Y43  1  0.88809400  0.38643550  0.19778060  1.0
  Y  Y44  1  0.88809400  0.71976883  0.19778060  1.0
  Y  Y45  1  0.22142733  0.21976883  0.09778060  1.0
  Y  Y46  1  0.22142733  0.55310217  0.09778060  1.0
  Y  Y47  1  0.22142733  0.88643550  0.09778060  1.0
  Y  Y48  1  0.55476067  0.21976883  0.09778060  1.0
  Y  Y49  1  0.55476067  0.55310217  0.09778060  1.0
  Y  Y50  1  0.55476067  0.88643550  0.09778060  1.0
  Y  Y51  1  0.88809400  0.21976883  0.09778060  1.0
  Y  Y52  1  0.88809400  0.55310217  0.09778060  1.0
  Y  Y53  1  0.88809400  0.88643550  0.09778060  1.0
  Y  Y54  1  0.06054733  0.12500000  0.03654210  1.0
  Y  Y55  1  0.06054733  0.45833333  0.03654210  1.0
  Y  Y56  1  0.06054733  0.79166667  0.03654210  1.0
  Y  Y57  1  0.39388067  0.12500000  0.03654210  1.0
  Y  Y58  1  0.39388067  0.45833333  0.03654210  1.0
  Y  Y59  1  0.39388067  0.79166667  0.03654210  1.0
  Y  Y60  1  0.72721400  0.12500000  0.03654210  1.0
  Y  Y61  1  0.72721400  0.45833333  0.03654210  1.0
  Y  Y62  1  0.72721400  0.79166667  0.03654210  1.0
  Y  Y63  1  0.06054733  0.29166667  0.13654210  1.0
  Y  Y64  1  0.06054733  0.62500000  0.13654210  1.0
  Y  Y65  1  0.06054733  0.95833333  0.13654210  1.0
  Y  Y66  1  0.39388067  0.29166667  0.13654210  1.0
  Y  Y67  1  0.39388067  0.62500000  0.13654210  1.0
  Y  Y68  1  0.39388067  0.95833333  0.13654210  1.0
  Y  Y69  1  0.72721400  0.29166667  0.13654210  1.0
  Y  Y70  1  0.72721400  0.62500000  0.13654210  1.0
  Y  Y71  1  0.72721400  0.95833333  0.13654210  1.0
  Y  Y72  1  0.15508400  0.04166667  0.12982010  1.0
  Y  Y73  1  0.15508400  0.37500000  0.12982010  1.0
  Y  Y74  1  0.15508400  0.70833333  0.12982010  1.0
  Y  Y75  1  0.48841733  0.04166667  0.12982010  1.0
  Y  Y76  1  0.48841733  0.37500000  0.12982010  1.0
  Y  Y77  1  0.48841733  0.70833333  0.12982010  1.0
  Y  Y78  1  0.82175067  0.04166667  0.12982010  1.0
  Y  Y79  1  0.82175067  0.37500000  0.12982010  1.0
  Y  Y80  1  0.82175067  0.70833333  0.12982010  1.0
  Y  Y81  1  0.15508400  0.20833333  0.02982010  1.0
  Y  Y82  1  0.15508400  0.54166667  0.02982010  1.0
  Y  Y83  1  0.15508400  0.87500000  0.02982010  1.0
  Y  Y84  1  0.48841733  0.20833333  0.02982010  1.0
  Y  Y85  1  0.48841733  0.54166667  0.02982010  1.0
  Y  Y86  1  0.48841733  0.87500000  0.02982010  1.0
  Y  Y87  1  0.82175067  0.20833333  0.02982010  1.0
  Y  Y88  1  0.82175067  0.54166667  0.02982010  1.0
  Y  Y89  1  0.82175067  0.87500000  0.02982010  1.0
  Y  Y90  1  0.16162100  0.06789717  0.18038320  1.0
  Y  Y91  1  0.16162100  0.40123050  0.18038320  1.0
  Y  Y92  1  0.16162100  0.73456383  0.18038320  1.0
  Y  Y93  1  0.49495433  0.06789717  0.18038320  1.0
  Y  Y94  1  0.49495433  0.40123050  0.18038320  1.0
  Y  Y95  1  0.49495433  0.73456383  0.18038320  1.0
  Y  Y96  1  0.82828767  0.06789717  0.18038320  1.0
  Y  Y97  1  0.82828767  0.40123050  0.18038320  1.0
  Y  Y98  1  0.82828767  0.73456383  0.18038320  1.0
  Y  Y99  1  0.16162100  0.23456383  0.08038320  1.0
  Y  Y100  1  0.16162100  0.56789717  0.08038320  1.0
  Y  Y101  1  0.16162100  0.90123050  0.08038320  1.0
  Y  Y102  1  0.49495433  0.23456383  0.08038320  1.0
  Y  Y103  1  0.49495433  0.56789717  0.08038320  1.0
  Y  Y104  1  0.49495433  0.90123050  0.08038320  1.0
  Y  Y105  1  0.82828767  0.23456383  0.08038320  1.0
  Y  Y106  1  0.82828767  0.56789717  0.08038320  1.0
  Y  Y107  1  0.82828767  0.90123050  0.08038320  1.0
  Y  Y108  1  0.11341467  0.09476883  0.02187540  1.0
  Y  Y109  1  0.11341467  0.42810217  0.02187540  1.0
  Y  Y110  1  0.11341467  0.76143550  0.02187540  1.0
  Y  Y111  1  0.44674800  0.09476883  0.02187540  1.0
  Y  Y112  1  0.44674800  0.42810217  0.02187540  1.0
  Y  Y113  1  0.44674800  0.76143550  0.02187540  1.0
  Y  Y114  1  0.78008133  0.09476883  0.02187540  1.0
  Y  Y115  1  0.78008133  0.42810217  0.02187540  1.0
  Y  Y116  1  0.78008133  0.76143550  0.02187540  1.0
  Y  Y117  1  0.11341467  0.26143550  0.12187540  1.0
  Y  Y118  1  0.11341467  0.59476883  0.12187540  1.0
  Y  Y119  1  0.11341467  0.92810217  0.12187540  1.0
  Y  Y120  1  0.44674800  0.26143550  0.12187540  1.0
  Y  Y121  1  0.44674800  0.59476883  0.12187540  1.0
  Y  Y122  1  0.44674800  0.92810217  0.12187540  1.0
  Y  Y123  1  0.78008133  0.26143550  0.12187540  1.0
  Y  Y124  1  0.78008133  0.59476883  0.12187540  1.0
  Y  Y125  1  0.78008133  0.92810217  0.12187540  1.0
  Y  Y126  1  0.22721400  0.08333333  0.18419890  1.0
  Y  Y127  1  0.22721400  0.41666667  0.18419890  1.0
  Y  Y128  1  0.22721400  0.75000000  0.18419890  1.0
  Y  Y129  1  0.56054733  0.08333333  0.18419890  1.0
  Y  Y130  1  0.56054733  0.41666667  0.18419890  1.0
  Y  Y131  1  0.56054733  0.75000000  0.18419890  1.0
  Y  Y132  1  0.89388067  0.08333333  0.18419890  1.0
  Y  Y133  1  0.89388067  0.41666667  0.18419890  1.0
  Y  Y134  1  0.89388067  0.75000000  0.18419890  1.0
  Y  Y135  1  0.22721400  0.25000000  0.08419890  1.0
  Y  Y136  1  0.22721400  0.58333333  0.08419890  1.0
  Y  Y137  1  0.22721400  0.91666667  0.08419890  1.0
  Y  Y138  1  0.56054733  0.25000000  0.08419890  1.0
  Y  Y139  1  0.56054733  0.58333333  0.08419890  1.0
  Y  Y140  1  0.56054733  0.91666667  0.08419890  1.0
  Y  Y141  1  0.89388067  0.25000000  0.08419890  1.0
  Y  Y142  1  0.89388067  0.58333333  0.08419890  1.0
  Y  Y143  1  0.89388067  0.91666667  0.08419890  1.0
  Y  Y144  1  0.22122567  0.02678100  0.11171630  1.0
  Y  Y145  1  0.22122567  0.36011433  0.11171630  1.0
  Y  Y146  1  0.22122567  0.69344767  0.11171630  1.0
  Y  Y147  1  0.55455900  0.02678100  0.11171630  1.0
  Y  Y148  1  0.55455900  0.36011433  0.11171630  1.0
  Y  Y149  1  0.55455900  0.69344767  0.11171630  1.0
  Y  Y150  1  0.88789233  0.02678100  0.11171630  1.0
  Y  Y151  1  0.88789233  0.36011433  0.11171630  1.0
  Y  Y152  1  0.88789233  0.69344767  0.11171630  1.0
  Y  Y153  1  0.22122567  0.19344767  0.01171630  1.0
  Y  Y154  1  0.22122567  0.52678100  0.01171630  1.0
  Y  Y155  1  0.22122567  0.86011433  0.01171630  1.0
  Y  Y156  1  0.55455900  0.19344767  0.01171630  1.0
  Y  Y157  1  0.55455900  0.52678100  0.01171630  1.0
  Y  Y158  1  0.55455900  0.86011433  0.01171630  1.0
  Y  Y159  1  0.88789233  0.19344767  0.01171630  1.0
  Y  Y160  1  0.88789233  0.52678100  0.01171630  1.0
  Y  Y161  1  0.88789233  0.86011433  0.01171630  1.0
  Y  Y162  1  0.05476067  0.15523117  0.02296040  1.0
  Y  Y163  1  0.05476067  0.48856450  0.02296040  1.0
  Y  Y164  1  0.05476067  0.82189783  0.02296040  1.0
  Y  Y165  1  0.38809400  0.15523117  0.02296040  1.0
  Y  Y166  1  0.38809400  0.48856450  0.02296040  1.0
  Y  Y167  1  0.38809400  0.82189783  0.02296040  1.0
  Y  Y168  1  0.72142733  0.15523117  0.02296040  1.0
  Y  Y169  1  0.72142733  0.48856450  0.02296040  1.0
  Y  Y170  1  0.72142733  0.82189783  0.02296040  1.0
  Y  Y171  1  0.05476067  0.32189783  0.12296040  1.0
  Y  Y172  1  0.05476067  0.65523117  0.12296040  1.0
  Y  Y173  1  0.05476067  0.98856450  0.12296040  1.0
  Y  Y174  1  0.38809400  0.32189783  0.12296040  1.0
  Y  Y175  1  0.38809400  0.65523117  0.12296040  1.0
  Y  Y176  1  0.38809400  0.98856450  0.12296040  1.0
  Y  Y177  1  0.72142733  0.32189783  0.12296040  1.0
  Y  Y178  1  0.72142733  0.65523117  0.12296040  1.0
  Y  Y179  1  0.72142733  0.98856450  0.12296040  1.0
  Y  Y180  1  0.27877433  0.09821900  0.05457910  1.0
  Y  Y181  1  0.27877433  0.43155233  0.05457910  1.0
  Y  Y182  1  0.27877433  0.76488567  0.05457910  1.0
  Y  Y183  1  0.61210767  0.09821900  0.05457910  1.0
  Y  Y184  1  0.61210767  0.43155233  0.05457910  1.0
  Y  Y185  1  0.61210767  0.76488567  0.05457910  1.0
  Y  Y186  1  0.94544100  0.09821900  0.05457910  1.0
  Y  Y187  1  0.94544100  0.43155233  0.05457910  1.0
  Y  Y188  1  0.94544100  0.76488567  0.05457910  1.0
  Y  Y189  1  0.27877433  0.26488567  0.15457910  1.0
  Y  Y190  1  0.27877433  0.59821900  0.15457910  1.0
  Y  Y191  1  0.27877433  0.93155233  0.15457910  1.0
  Y  Y192  1  0.61210767  0.26488567  0.15457910  1.0
  Y  Y193  1  0.61210767  0.59821900  0.15457910  1.0
  Y  Y194  1  0.61210767  0.93155233  0.15457910  1.0
  Y  Y195  1  0.94544100  0.26488567  0.15457910  1.0
  Y  Y196  1  0.94544100  0.59821900  0.15457910  1.0
  Y  Y197  1  0.94544100  0.93155233  0.15457910  1.0
  Y  Y198  1  0.28563467  0.13763283  0.14175020  1.0
  Y  Y199  1  0.28563467  0.47096617  0.14175020  1.0
  Y  Y200  1  0.28563467  0.80429950  0.14175020  1.0
  Y  Y201  1  0.61896800  0.13763283  0.14175020  1.0
  Y  Y202  1  0.61896800  0.47096617  0.14175020  1.0
  Y  Y203  1  0.61896800  0.80429950  0.14175020  1.0
  Y  Y204  1  0.95230133  0.13763283  0.14175020  1.0
  Y  Y205  1  0.95230133  0.47096617  0.14175020  1.0
  Y  Y206  1  0.95230133  0.80429950  0.14175020  1.0
  Y  Y207  1  0.28563467  0.30429950  0.04175020  1.0
  Y  Y208  1  0.28563467  0.63763283  0.04175020  1.0
  Y  Y209  1  0.28563467  0.97096617  0.04175020  1.0
  Y  Y210  1  0.61896800  0.30429950  0.04175020  1.0
  Y  Y211  1  0.61896800  0.63763283  0.04175020  1.0
  Y  Y212  1  0.61896800  0.97096617  0.04175020  1.0
  Y  Y213  1  0.95230133  0.30429950  0.04175020  1.0
  Y  Y214  1  0.95230133  0.63763283  0.04175020  1.0
  Y  Y215  1  0.95230133  0.97096617  0.04175020  1.0
  Y  Y216  1  0.17037133  0.05655233  0.09906650  1.0
  Y  Y217  1  0.17037133  0.38988567  0.09906650  1.0
  Y  Y218  1  0.17037133  0.72321900  0.09906650  1.0
  Y  Y219  1  0.50370467  0.05655233  0.09906650  1.0
  Y  Y220  1  0.50370467  0.38988567  0.09906650  1.0
  Y  Y221  1  0.50370467  0.72321900  0.09906650  1.0
  Y  Y222  1  0.83703800  0.05655233  0.09906650  1.0
  Y  Y223  1  0.83703800  0.38988567  0.09906650  1.0
  Y  Y224  1  0.83703800  0.72321900  0.09906650  1.0
  Y  Y225  1  0.17037133  0.22321900  0.19906650  1.0
  Y  Y226  1  0.17037133  0.55655233  0.19906650  1.0
  Y  Y227  1  0.17037133  0.88988567  0.19906650  1.0
  Y  Y228  1  0.50370467  0.22321900  0.19906650  1.0
  Y  Y229  1  0.50370467  0.55655233  0.19906650  1.0
  Y  Y230  1  0.50370467  0.88988567  0.19906650  1.0
  Y  Y231  1  0.83703800  0.22321900  0.19906650  1.0
  Y  Y232  1  0.83703800  0.55655233  0.19906650  1.0
  Y  Y233  1  0.83703800  0.88988567  0.19906650  1.0
  Y  Y234  1  0.28008133  0.11356450  0.19886560  1.0
  Y  Y235  1  0.28008133  0.44689783  0.19886560  1.0
  Y  Y236  1  0.28008133  0.78023117  0.19886560  1.0
  Y  Y237  1  0.61341467  0.11356450  0.19886560  1.0
  Y  Y238  1  0.61341467  0.44689783  0.19886560  1.0
  Y  Y239  1  0.61341467  0.78023117  0.19886560  1.0
  Y  Y240  1  0.94674800  0.11356450  0.19886560  1.0
  Y  Y241  1  0.94674800  0.44689783  0.19886560  1.0
  Y  Y242  1  0.94674800  0.78023117  0.19886560  1.0
  Y  Y243  1  0.28008133  0.28023117  0.09886560  1.0
  Y  Y244  1  0.28008133  0.61356450  0.09886560  1.0
  Y  Y245  1  0.28008133  0.94689783  0.09886560  1.0
  Y  Y246  1  0.61341467  0.28023117  0.09886560  1.0
  Y  Y247  1  0.61341467  0.61356450  0.09886560  1.0
  Y  Y248  1  0.61341467  0.94689783  0.09886560  1.0
  Y  Y249  1  0.94674800  0.28023117  0.09886560  1.0
  Y  Y250  1  0.94674800  0.61356450  0.09886560  1.0
  Y  Y251  1  0.94674800  0.94689783  0.09886560  1.0
  Y  Y252  1  0.00504567  0.05710283  0.07390660  1.0
  Y  Y253  1  0.00504567  0.39043617  0.07390660  1.0
  Y  Y254  1  0.00504567  0.72376950  0.07390660  1.0
  Y  Y255  1  0.33837900  0.05710283  0.07390660  1.0
  Y  Y256  1  0.33837900  0.39043617  0.07390660  1.0
  Y  Y257  1  0.33837900  0.72376950  0.07390660  1.0
  Y  Y258  1  0.67171233  0.05710283  0.07390660  1.0
  Y  Y259  1  0.67171233  0.39043617  0.07390660  1.0
  Y  Y260  1  0.67171233  0.72376950  0.07390660  1.0
  Y  Y261  1  0.00504567  0.22376950  0.17390660  1.0
  Y  Y262  1  0.00504567  0.55710283  0.17390660  1.0
  Y  Y263  1  0.00504567  0.89043617  0.17390660  1.0
  Y  Y264  1  0.33837900  0.22376950  0.17390660  1.0
  Y  Y265  1  0.33837900  0.55710283  0.17390660  1.0
  Y  Y266  1  0.33837900  0.89043617  0.17390660  1.0
  Y  Y267  1  0.67171233  0.22376950  0.17390660  1.0
  Y  Y268  1  0.67171233  0.55710283  0.17390660  1.0
  Y  Y269  1  0.67171233  0.89043617  0.17390660  1.0
  Y  Y270  1  0.31313000  0.03925833  0.15982630  1.0
  Y  Y271  1  0.31313000  0.37259167  0.15982630  1.0
  Y  Y272  1  0.31313000  0.70592500  0.15982630  1.0
  Y  Y273  1  0.64646333  0.03925833  0.15982630  1.0
  Y  Y274  1  0.64646333  0.37259167  0.15982630  1.0
  Y  Y275  1  0.64646333  0.70592500  0.15982630  1.0
  Y  Y276  1  0.97979667  0.03925833  0.15982630  1.0
  Y  Y277  1  0.97979667  0.37259167  0.15982630  1.0
  Y  Y278  1  0.97979667  0.70592500  0.15982630  1.0
  Y  Y279  1  0.31313000  0.20592500  0.05982630  1.0
  Y  Y280  1  0.31313000  0.53925833  0.05982630  1.0
  Y  Y281  1  0.31313000  0.87259167  0.05982630  1.0
  Y  Y282  1  0.64646333  0.20592500  0.05982630  1.0
  Y  Y283  1  0.64646333  0.53925833  0.05982630  1.0
  Y  Y284  1  0.64646333  0.87259167  0.05982630  1.0
  Y  Y285  1  0.97979667  0.20592500  0.05982630  1.0
  Y  Y286  1  0.97979667  0.53925833  0.05982630  1.0
  Y  Y287  1  0.97979667  0.87259167  0.05982630  1.0
  Y  Y288  1  0.16296200  0.13988567  0.01453730  1.0
  Y  Y289  1  0.16296200  0.47321900  0.01453730  1.0
  Y  Y290  1  0.16296200  0.80655233  0.01453730  1.0
  Y  Y291  1  0.49629533  0.13988567  0.01453730  1.0
  Y  Y292  1  0.49629533  0.47321900  0.01453730  1.0
  Y  Y293  1  0.49629533  0.80655233  0.01453730  1.0
  Y  Y294  1  0.82962867  0.13988567  0.01453730  1.0
  Y  Y295  1  0.82962867  0.47321900  0.01453730  1.0
  Y  Y296  1  0.82962867  0.80655233  0.01453730  1.0
  Y  Y297  1  0.16296200  0.30655233  0.11453730  1.0
  Y  Y298  1  0.16296200  0.63988567  0.11453730  1.0
  Y  Y299  1  0.16296200  0.97321900  0.11453730  1.0
  Y  Y300  1  0.49629533  0.30655233  0.11453730  1.0
  Y  Y301  1  0.49629533  0.63988567  0.11453730  1.0
  Y  Y302  1  0.49629533  0.97321900  0.11453730  1.0
  Y  Y303  1  0.82962867  0.30655233  0.11453730  1.0
  Y  Y304  1  0.82962867  0.63988567  0.11453730  1.0
  Y  Y305  1  0.82962867  0.97321900  0.11453730  1.0
  Y  Y306  1  0.23116667  0.11236717  0.09391000  1.0
  Y  Y307  1  0.23116667  0.44570050  0.09391000  1.0
  Y  Y308  1  0.23116667  0.77903383  0.09391000  1.0
  Y  Y309  1  0.56450000  0.11236717  0.09391000  1.0
  Y  Y310  1  0.56450000  0.44570050  0.09391000  1.0
  Y  Y311  1  0.56450000  0.77903383  0.09391000  1.0
  Y  Y312  1  0.89783333  0.11236717  0.09391000  1.0
  Y  Y313  1  0.89783333  0.44570050  0.09391000  1.0
  Y  Y314  1  0.89783333  0.77903383  0.09391000  1.0
  Y  Y315  1  0.23116667  0.27903383  0.19391000  1.0
  Y  Y316  1  0.23116667  0.61236717  0.19391000  1.0
  Y  Y317  1  0.23116667  0.94570050  0.19391000  1.0
  Y  Y318  1  0.56450000  0.27903383  0.19391000  1.0
  Y  Y319  1  0.56450000  0.61236717  0.19391000  1.0
  Y  Y320  1  0.56450000  0.94570050  0.19391000  1.0
  Y  Y321  1  0.89783333  0.27903383  0.19391000  1.0
  Y  Y322  1  0.89783333  0.61236717  0.19391000  1.0
  Y  Y323  1  0.89783333  0.94570050  0.19391000  1.0
  Y  Y324  1  0.21991867  0.01143550  0.03758820  1.0
  Y  Y325  1  0.21991867  0.34476883  0.03758820  1.0
  Y  Y326  1  0.21991867  0.67810217  0.03758820  1.0
  Y  Y327  1  0.55325200  0.01143550  0.03758820  1.0
  Y  Y328  1  0.55325200  0.34476883  0.03758820  1.0
  Y  Y329  1  0.55325200  0.67810217  0.03758820  1.0
  Y  Y330  1  0.88658533  0.01143550  0.03758820  1.0
  Y  Y331  1  0.88658533  0.34476883  0.03758820  1.0
  Y  Y332  1  0.88658533  0.67810217  0.03758820  1.0
  Y  Y333  1  0.21991867  0.17810217  0.13758820  1.0
  Y  Y334  1  0.21991867  0.51143550  0.13758820  1.0
  Y  Y335  1  0.21991867  0.84476883  0.13758820  1.0
  Y  Y336  1  0.55325200  0.17810217  0.13758820  1.0
  Y  Y337  1  0.55325200  0.51143550  0.13758820  1.0
  Y  Y338  1  0.55325200  0.84476883  0.13758820  1.0
  Y  Y339  1  0.88658533  0.17810217  0.13758820  1.0
  Y  Y340  1  0.88658533  0.51143550  0.13758820  1.0
  Y  Y341  1  0.88658533  0.84476883  0.13758820  1.0
  Y  Y342  1  0.17824933  0.12500000  0.16592090  1.0
  Y  Y343  1  0.17824933  0.45833333  0.16592090  1.0
  Y  Y344  1  0.17824933  0.79166667  0.16592090  1.0
  Y  Y345  1  0.51158267  0.12500000  0.16592090  1.0
  Y  Y346  1  0.51158267  0.45833333  0.16592090  1.0
  Y  Y347  1  0.51158267  0.79166667  0.16592090  1.0
  Y  Y348  1  0.84491600  0.12500000  0.16592090  1.0
  Y  Y349  1  0.84491600  0.45833333  0.16592090  1.0
  Y  Y350  1  0.84491600  0.79166667  0.16592090  1.0
  Y  Y351  1  0.17824933  0.29166667  0.06592090  1.0
  Y  Y352  1  0.17824933  0.62500000  0.06592090  1.0
  Y  Y353  1  0.17824933  0.95833333  0.06592090  1.0
  Y  Y354  1  0.51158267  0.29166667  0.06592090  1.0
  Y  Y355  1  0.51158267  0.62500000  0.06592090  1.0
  Y  Y356  1  0.51158267  0.95833333  0.06592090  1.0
  Y  Y357  1  0.84491600  0.29166667  0.06592090  1.0
  Y  Y358  1  0.84491600  0.62500000  0.06592090  1.0
  Y  Y359  1  0.84491600  0.95833333  0.06592090  1.0
  Y  Y360  1  0.21436533  0.15403383  0.05159080  1.0
  Y  Y361  1  0.21436533  0.48736717  0.05159080  1.0
  Y  Y362  1  0.21436533  0.82070050  0.05159080  1.0
  Y  Y363  1  0.54769867  0.15403383  0.05159080  1.0
  Y  Y364  1  0.54769867  0.48736717  0.05159080  1.0
  Y  Y365  1  0.54769867  0.82070050  0.05159080  1.0
  Y  Y366  1  0.88103200  0.15403383  0.05159080  1.0
  Y  Y367  1  0.88103200  0.48736717  0.05159080  1.0
  Y  Y368  1  0.88103200  0.82070050  0.05159080  1.0
  Y  Y369  1  0.21436533  0.32070050  0.15159080  1.0
  Y  Y370  1  0.21436533  0.65403383  0.15159080  1.0
  Y  Y371  1  0.21436533  0.98736717  0.15159080  1.0
  Y  Y372  1  0.54769867  0.32070050  0.15159080  1.0
  Y  Y373  1  0.54769867  0.65403383  0.15159080  1.0
  Y  Y374  1  0.54769867  0.98736717  0.15159080  1.0
  Y  Y375  1  0.88103200  0.32070050  0.15159080  1.0
  Y  Y376  1  0.88103200  0.65403383  0.15159080  1.0
  Y  Y377  1  0.88103200  0.98736717  0.15159080  1.0
  Y  Y378  1  0.09704267  0.01543617  0.11015960  1.0
  Y  Y379  1  0.09704267  0.34876950  0.11015960  1.0
  Y  Y380  1  0.09704267  0.68210283  0.11015960  1.0
  Y  Y381  1  0.43037600  0.01543617  0.11015960  1.0
  Y  Y382  1  0.43037600  0.34876950  0.11015960  1.0
  Y  Y383  1  0.43037600  0.68210283  0.11015960  1.0
  Y  Y384  1  0.76370933  0.01543617  0.11015960  1.0
  Y  Y385  1  0.76370933  0.34876950  0.11015960  1.0
  Y  Y386  1  0.76370933  0.68210283  0.11015960  1.0
  Y  Y387  1  0.09704267  0.18210283  0.01015960  1.0
  Y  Y388  1  0.09704267  0.51543617  0.01015960  1.0
  Y  Y389  1  0.09704267  0.84876950  0.01015960  1.0
  Y  Y390  1  0.43037600  0.18210283  0.01015960  1.0
  Y  Y391  1  0.43037600  0.51543617  0.01015960  1.0
  Y  Y392  1  0.43037600  0.84876950  0.01015960  1.0
  Y  Y393  1  0.76370933  0.18210283  0.01015960  1.0
  Y  Y394  1  0.76370933  0.51543617  0.01015960  1.0
  Y  Y395  1  0.76370933  0.84876950  0.01015960  1.0
  Y  Y396  1  0.00370467  0.15178100  0.12167450  1.0
  Y  Y397  1  0.00370467  0.48511433  0.12167450  1.0
  Y  Y398  1  0.00370467  0.81844767  0.12167450  1.0
  Y  Y399  1  0.33703800  0.15178100  0.12167450  1.0
  Y  Y400  1  0.33703800  0.48511433  0.12167450  1.0
  Y  Y401  1  0.33703800  0.81844767  0.12167450  1.0
  Y  Y402  1  0.67037133  0.15178100  0.12167450  1.0
  Y  Y403  1  0.67037133  0.48511433  0.12167450  1.0
  Y  Y404  1  0.67037133  0.81844767  0.12167450  1.0
  Y  Y405  1  0.00370467  0.31844767  0.02167450  1.0
  Y  Y406  1  0.00370467  0.65178100  0.02167450  1.0
  Y  Y407  1  0.00370467  0.98511433  0.02167450  1.0
  Y  Y408  1  0.33703800  0.31844767  0.02167450  1.0
  Y  Y409  1  0.33703800  0.65178100  0.02167450  1.0
  Y  Y410  1  0.33703800  0.98511433  0.02167450  1.0
  Y  Y411  1  0.67037133  0.31844767  0.02167450  1.0
  Y  Y412  1  0.67037133  0.65178100  0.02167450  1.0
  Y  Y413  1  0.67037133  0.98511433  0.02167450  1.0
  Y  Y414  1  0.14646333  0.00240833  0.16091470  1.0
  Y  Y415  1  0.14646333  0.33574167  0.16091470  1.0
  Y  Y416  1  0.14646333  0.66907500  0.16091470  1.0
  Y  Y417  1  0.47979667  0.00240833  0.16091470  1.0
  Y  Y418  1  0.47979667  0.33574167  0.16091470  1.0
  Y  Y419  1  0.47979667  0.66907500  0.16091470  1.0
  Y  Y420  1  0.81313000  0.00240833  0.16091470  1.0
  Y  Y421  1  0.81313000  0.33574167  0.16091470  1.0
  Y  Y422  1  0.81313000  0.66907500  0.16091470  1.0
  Y  Y423  1  0.14646333  0.16907500  0.06091470  1.0
  Y  Y424  1  0.14646333  0.50240833  0.06091470  1.0
  Y  Y425  1  0.14646333  0.83574167  0.06091470  1.0
  Y  Y426  1  0.47979667  0.16907500  0.06091470  1.0
  Y  Y427  1  0.47979667  0.50240833  0.06091470  1.0
  Y  Y428  1  0.47979667  0.83574167  0.06091470  1.0
  Y  Y429  1  0.81313000  0.16907500  0.06091470  1.0
  Y  Y430  1  0.81313000  0.50240833  0.06091470  1.0
  Y  Y431  1  0.81313000  0.83574167  0.06091470  1.0
  Y  Y432  1  0.32175067  0.00000000  0.19092090  1.0
  Y  Y433  1  0.32175067  0.33333333  0.19092090  1.0
  Y  Y434  1  0.32175067  0.66666667  0.19092090  1.0
  Y  Y435  1  0.65508400  0.00000000  0.19092090  1.0
  Y  Y436  1  0.65508400  0.33333333  0.19092090  1.0
  Y  Y437  1  0.65508400  0.66666667  0.19092090  1.0
  Y  Y438  1  0.98841733  0.00000000  0.19092090  1.0
  Y  Y439  1  0.98841733  0.33333333  0.19092090  1.0
  Y  Y440  1  0.98841733  0.66666667  0.19092090  1.0
  Y  Y441  1  0.32175067  0.16666667  0.09092090  1.0
  Y  Y442  1  0.32175067  0.50000000  0.09092090  1.0
  Y  Y443  1  0.32175067  0.83333333  0.09092090  1.0
  Y  Y444  1  0.65508400  0.16666667  0.09092090  1.0
  Y  Y445  1  0.65508400  0.50000000  0.09092090  1.0
  Y  Y446  1  0.65508400  0.83333333  0.09092090  1.0
  Y  Y447  1  0.98841733  0.16666667  0.09092090  1.0
  Y  Y448  1  0.98841733  0.50000000  0.09092090  1.0
  Y  Y449  1  0.98841733  0.83333333  0.09092090  1.0
  Y  Y450  1  0.06962400  0.10956383  0.06663620  1.0
  Y  Y451  1  0.06962400  0.44289717  0.06663620  1.0
  Y  Y452  1  0.06962400  0.77623050  0.06663620  1.0
  Y  Y453  1  0.40295733  0.10956383  0.06663620  1.0
  Y  Y454  1  0.40295733  0.44289717  0.06663620  1.0
  Y  Y455  1  0.40295733  0.77623050  0.06663620  1.0
  Y  Y456  1  0.73629067  0.10956383  0.06663620  1.0
  Y  Y457  1  0.73629067  0.44289717  0.06663620  1.0
  Y  Y458  1  0.73629067  0.77623050  0.06663620  1.0
  Y  Y459  1  0.06962400  0.27623050  0.16663620  1.0
  Y  Y460  1  0.06962400  0.60956383  0.16663620  1.0
  Y  Y461  1  0.06962400  0.94289717  0.16663620  1.0
  Y  Y462  1  0.40295733  0.27623050  0.16663620  1.0
  Y  Y463  1  0.40295733  0.60956383  0.16663620  1.0
  Y  Y464  1  0.40295733  0.94289717  0.16663620  1.0
  Y  Y465  1  0.73629067  0.27623050  0.16663620  1.0
  Y  Y466  1  0.73629067  0.60956383  0.16663620  1.0
  Y  Y467  1  0.73629067  0.94289717  0.16663620  1.0
  Y  Y468  1  0.06450000  0.09596617  0.12683100  1.0
  Y  Y469  1  0.06450000  0.42929950  0.12683100  1.0
  Y  Y470  1  0.06450000  0.76263283  0.12683100  1.0
  Y  Y471  1  0.39783333  0.09596617  0.12683100  1.0
  Y  Y472  1  0.39783333  0.42929950  0.12683100  1.0
  Y  Y473  1  0.39783333  0.76263283  0.12683100  1.0
  Y  Y474  1  0.73116667  0.09596617  0.12683100  1.0
  Y  Y475  1  0.73116667  0.42929950  0.12683100  1.0
  Y  Y476  1  0.73116667  0.76263283  0.12683100  1.0
  Y  Y477  1  0.06450000  0.26263283  0.02683100  1.0
  Y  Y478  1  0.06450000  0.59596617  0.02683100  1.0
  Y  Y479  1  0.06450000  0.92929950  0.02683100  1.0
  Y  Y480  1  0.39783333  0.26263283  0.02683100  1.0
  Y  Y481  1  0.39783333  0.59596617  0.02683100  1.0
  Y  Y482  1  0.39783333  0.92929950  0.02683100  1.0
  Y  Y483  1  0.73116667  0.26263283  0.02683100  1.0
  Y  Y484  1  0.73116667  0.59596617  0.02683100  1.0
  Y  Y485  1  0.73116667  0.92929950  0.02683100  1.0
  Y  Y486  1  0.11190600  0.13643550  0.11168300  1.0
  Y  Y487  1  0.11190600  0.46976883  0.11168300  1.0
  Y  Y488  1  0.11190600  0.80310217  0.11168300  1.0
  Y  Y489  1  0.44523933  0.13643550  0.11168300  1.0
  Y  Y490  1  0.44523933  0.46976883  0.11168300  1.0
  Y  Y491  1  0.44523933  0.80310217  0.11168300  1.0
  Y  Y492  1  0.77857267  0.13643550  0.11168300  1.0
  Y  Y493  1  0.77857267  0.46976883  0.11168300  1.0
  Y  Y494  1  0.77857267  0.80310217  0.11168300  1.0
  Y  Y495  1  0.11190600  0.30310217  0.01168300  1.0
  Y  Y496  1  0.11190600  0.63643550  0.01168300  1.0
  Y  Y497  1  0.11190600  0.96976883  0.01168300  1.0
  Y  Y498  1  0.44523933  0.30310217  0.01168300  1.0
  Y  Y499  1  0.44523933  0.63643550  0.01168300  1.0
  Y  Y500  1  0.44523933  0.96976883  0.01168300  1.0
  Y  Y501  1  0.77857267  0.30310217  0.01168300  1.0
  Y  Y502  1  0.77857267  0.63643550  0.01168300  1.0
  Y  Y503  1  0.77857267  0.96976883  0.01168300  1.0
  Y  Y504  1  0.10611933  0.00000000  0.06154210  1.0
  Y  Y505  1  0.10611933  0.33333333  0.06154210  1.0
  Y  Y506  1  0.10611933  0.66666667  0.06154210  1.0
  Y  Y507  1  0.43945267  0.00000000  0.06154210  1.0
  Y  Y508  1  0.43945267  0.33333333  0.06154210  1.0
  Y  Y509  1  0.43945267  0.66666667  0.06154210  1.0
  Y  Y510  1  0.77278600  0.00000000  0.06154210  1.0
  Y  Y511  1  0.77278600  0.33333333  0.06154210  1.0
  Y  Y512  1  0.77278600  0.66666667  0.06154210  1.0
  Y  Y513  1  0.10611933  0.16666667  0.16154210  1.0
  Y  Y514  1  0.10611933  0.50000000  0.16154210  1.0
  Y  Y515  1  0.10611933  0.83333333  0.16154210  1.0
  Y  Y516  1  0.43945267  0.16666667  0.16154210  1.0
  Y  Y517  1  0.43945267  0.50000000  0.16154210  1.0
  Y  Y518  1  0.43945267  0.83333333  0.16154210  1.0
  Y  Y519  1  0.77278600  0.16666667  0.16154210  1.0
  Y  Y520  1  0.77278600  0.50000000  0.16154210  1.0
  Y  Y521  1  0.77278600  0.83333333  0.16154210  1.0
  Y  Y522  1  0.10266533  0.04407500  0.03643750  1.0
  Y  Y523  1  0.10266533  0.37740833  0.03643750  1.0
  Y  Y524  1  0.10266533  0.71074167  0.03643750  1.0
  Y  Y525  1  0.43599867  0.04407500  0.03643750  1.0
  Y  Y526  1  0.43599867  0.37740833  0.03643750  1.0
  Y  Y527  1  0.43599867  0.71074167  0.03643750  1.0
  Y  Y528  1  0.76933200  0.04407500  0.03643750  1.0
  Y  Y529  1  0.76933200  0.37740833  0.03643750  1.0
  Y  Y530  1  0.76933200  0.71074167  0.03643750  1.0
  Y  Y531  1  0.10266533  0.21074167  0.13643750  1.0
  Y  Y532  1  0.10266533  0.54407500  0.13643750  1.0
  Y  Y533  1  0.10266533  0.87740833  0.13643750  1.0
  Y  Y534  1  0.43599867  0.21074167  0.13643750  1.0
  Y  Y535  1  0.43599867  0.54407500  0.13643750  1.0
  Y  Y536  1  0.43599867  0.87740833  0.13643750  1.0
  Y  Y537  1  0.76933200  0.21074167  0.13643750  1.0
  Y  Y538  1  0.76933200  0.54407500  0.13643750  1.0
  Y  Y539  1  0.76933200  0.87740833  0.13643750  1.0
  Y  Y540  1  0.27857267  0.07189783  0.10905800  1.0
  Y  Y541  1  0.27857267  0.40523117  0.10905800  1.0
  Y  Y542  1  0.27857267  0.73856450  0.10905800  1.0
  Y  Y543  1  0.61190600  0.07189783  0.10905800  1.0
  Y  Y544  1  0.61190600  0.40523117  0.10905800  1.0
  Y  Y545  1  0.61190600  0.73856450  0.10905800  1.0
  Y  Y546  1  0.94523933  0.07189783  0.10905800  1.0
  Y  Y547  1  0.94523933  0.40523117  0.10905800  1.0
  Y  Y548  1  0.94523933  0.73856450  0.10905800  1.0
  Y  Y549  1  0.27857267  0.23856450  0.00905800  1.0
  Y  Y550  1  0.27857267  0.57189783  0.00905800  1.0
  Y  Y551  1  0.27857267  0.90523117  0.00905800  1.0
  Y  Y552  1  0.61190600  0.23856450  0.00905800  1.0
  Y  Y553  1  0.61190600  0.57189783  0.00905800  1.0
  Y  Y554  1  0.61190600  0.90523117  0.00905800  1.0
  Y  Y555  1  0.94523933  0.23856450  0.00905800  1.0
  Y  Y556  1  0.94523933  0.57189783  0.00905800  1.0
  Y  Y557  1  0.94523933  0.90523117  0.00905800  1.0
  Y  Y558  1  0.27278600  0.04166667  0.05919890  1.0
  Y  Y559  1  0.27278600  0.37500000  0.05919890  1.0
  Y  Y560  1  0.27278600  0.70833333  0.05919890  1.0
  Y  Y561  1  0.60611933  0.04166667  0.05919890  1.0
  Y  Y562  1  0.60611933  0.37500000  0.05919890  1.0
  Y  Y563  1  0.60611933  0.70833333  0.05919890  1.0
  Y  Y564  1  0.93945267  0.04166667  0.05919890  1.0
  Y  Y565  1  0.93945267  0.37500000  0.05919890  1.0
  Y  Y566  1  0.93945267  0.70833333  0.05919890  1.0
  Y  Y567  1  0.27278600  0.20833333  0.15919890  1.0
  Y  Y568  1  0.27278600  0.54166667  0.15919890  1.0
  Y  Y569  1  0.27278600  0.87500000  0.15919890  1.0
  Y  Y570  1  0.60611933  0.20833333  0.15919890  1.0
  Y  Y571  1  0.60611933  0.54166667  0.15919890  1.0
  Y  Y572  1  0.60611933  0.87500000  0.15919890  1.0
  Y  Y573  1  0.93945267  0.20833333  0.15919890  1.0
  Y  Y574  1  0.93945267  0.54166667  0.15919890  1.0
  Y  Y575  1  0.93945267  0.87500000  0.15919890  1.0
  Y  Y576  1  0.01158267  0.08333333  0.05482010  1.0
  Y  Y577  1  0.01158267  0.41666667  0.05482010  1.0
  Y  Y578  1  0.01158267  0.75000000  0.05482010  1.0
  Y  Y579  1  0.34491600  0.08333333  0.05482010  1.0
  Y  Y580  1  0.34491600  0.41666667  0.05482010  1.0
  Y  Y581  1  0.34491600  0.75000000  0.05482010  1.0
  Y  Y582  1  0.67824933  0.08333333  0.05482010  1.0
  Y  Y583  1  0.67824933  0.41666667  0.05482010  1.0
  Y  Y584  1  0.67824933  0.75000000  0.05482010  1.0
  Y  Y585  1  0.01158267  0.25000000  0.15482010  1.0
  Y  Y586  1  0.01158267  0.58333333  0.15482010  1.0
  Y  Y587  1  0.01158267  0.91666667  0.15482010  1.0
  Y  Y588  1  0.34491600  0.25000000  0.15482010  1.0
  Y  Y589  1  0.34491600  0.58333333  0.15482010  1.0
  Y  Y590  1  0.34491600  0.91666667  0.15482010  1.0
  Y  Y591  1  0.67824933  0.25000000  0.15482010  1.0
  Y  Y592  1  0.67824933  0.58333333  0.15482010  1.0
  Y  Y593  1  0.67824933  0.91666667  0.15482010  1.0
  Y  Y594  1  0.02020333  0.12259167  0.13302470  1.0
  Y  Y595  1  0.02020333  0.45592500  0.13302470  1.0
  Y  Y596  1  0.02020333  0.78925833  0.13302470  1.0
  Y  Y597  1  0.35353667  0.12259167  0.13302470  1.0
  Y  Y598  1  0.35353667  0.45592500  0.13302470  1.0
  Y  Y599  1  0.35353667  0.78925833  0.13302470  1.0
  Y  Y600  1  0.68687000  0.12259167  0.13302470  1.0
  Y  Y601  1  0.68687000  0.45592500  0.13302470  1.0
  Y  Y602  1  0.68687000  0.78925833  0.13302470  1.0
  Y  Y603  1  0.02020333  0.28925833  0.03302470  1.0
  Y  Y604  1  0.02020333  0.62259167  0.03302470  1.0
  Y  Y605  1  0.02020333  0.95592500  0.03302470  1.0
  Y  Y606  1  0.35353667  0.28925833  0.03302470  1.0
  Y  Y607  1  0.35353667  0.62259167  0.03302470  1.0
  Y  Y608  1  0.35353667  0.95592500  0.03302470  1.0
  Y  Y609  1  0.68687000  0.28925833  0.03302470  1.0
  Y  Y610  1  0.68687000  0.62259167  0.03302470  1.0
  Y  Y611  1  0.68687000  0.95592500  0.03302470  1.0
  Y  Y612  1  0.04769867  0.05429950  0.16915020  1.0
  Y  Y613  1  0.04769867  0.38763283  0.16915020  1.0
  Y  Y614  1  0.04769867  0.72096617  0.16915020  1.0
  Y  Y615  1  0.38103200  0.05429950  0.16915020  1.0
  Y  Y616  1  0.38103200  0.38763283  0.16915020  1.0
  Y  Y617  1  0.38103200  0.72096617  0.16915020  1.0
  Y  Y618  1  0.71436533  0.05429950  0.16915020  1.0
  Y  Y619  1  0.71436533  0.38763283  0.16915020  1.0
  Y  Y620  1  0.71436533  0.72096617  0.16915020  1.0
  Y  Y621  1  0.04769867  0.22096617  0.06915020  1.0
  Y  Y622  1  0.04769867  0.55429950  0.06915020  1.0
  Y  Y623  1  0.04769867  0.88763283  0.06915020  1.0
  Y  Y624  1  0.38103200  0.22096617  0.06915020  1.0
  Y  Y625  1  0.38103200  0.55429950  0.06915020  1.0
  Y  Y626  1  0.38103200  0.88763283  0.06915020  1.0
  Y  Y627  1  0.71436533  0.22096617  0.06915020  1.0
  Y  Y628  1  0.71436533  0.55429950  0.06915020  1.0
  Y  Y629  1  0.71436533  0.88763283  0.06915020  1.0
  Y  Y630  1  0.05325200  0.03023117  0.08315280  1.0
  Y  Y631  1  0.05325200  0.36356450  0.08315280  1.0
  Y  Y632  1  0.05325200  0.69689783  0.08315280  1.0
  Y  Y633  1  0.38658533  0.03023117  0.08315280  1.0
  Y  Y634  1  0.38658533  0.36356450  0.08315280  1.0
  Y  Y635  1  0.38658533  0.69689783  0.08315280  1.0
  Y  Y636  1  0.71991867  0.03023117  0.08315280  1.0
  Y  Y637  1  0.71991867  0.36356450  0.08315280  1.0
  Y  Y638  1  0.71991867  0.69689783  0.08315280  1.0
  Y  Y639  1  0.05325200  0.19689783  0.18315280  1.0
  Y  Y640  1  0.05325200  0.53023117  0.18315280  1.0
  Y  Y641  1  0.05325200  0.86356450  0.18315280  1.0
  Y  Y642  1  0.38658533  0.19689783  0.18315280  1.0
  Y  Y643  1  0.38658533  0.53023117  0.18315280  1.0
  Y  Y644  1  0.38658533  0.86356450  0.18315280  1.0
  Y  Y645  1  0.71991867  0.19689783  0.18315280  1.0
  Y  Y646  1  0.71991867  0.53023117  0.18315280  1.0
  Y  Y647  1  0.71991867  0.86356450  0.18315280  1.0
  Y  Y648  1  0.26933200  0.16425833  0.18430350  1.0
  Y  Y649  1  0.26933200  0.49759167  0.18430350  1.0
  Y  Y650  1  0.26933200  0.83092500  0.18430350  1.0
  Y  Y651  1  0.60266533  0.16425833  0.18430350  1.0
  Y  Y652  1  0.60266533  0.49759167  0.18430350  1.0
  Y  Y653  1  0.60266533  0.83092500  0.18430350  1.0
  Y  Y654  1  0.93599867  0.16425833  0.18430350  1.0
  Y  Y655  1  0.93599867  0.49759167  0.18430350  1.0
  Y  Y656  1  0.93599867  0.83092500  0.18430350  1.0
  Y  Y657  1  0.26933200  0.33092500  0.08430350  1.0
  Y  Y658  1  0.26933200  0.66425833  0.08430350  1.0
  Y  Y659  1  0.26933200  0.99759167  0.08430350  1.0
  Y  Y660  1  0.60266533  0.33092500  0.08430350  1.0
  Y  Y661  1  0.60266533  0.66425833  0.08430350  1.0
  Y  Y662  1  0.60266533  0.99759167  0.08430350  1.0
  Y  Y663  1  0.93599867  0.33092500  0.08430350  1.0
  Y  Y664  1  0.93599867  0.66425833  0.08430350  1.0
  Y  Y665  1  0.93599867  0.99759167  0.08430350  1.0
  Y  Y666  1  0.23629067  0.09876950  0.15410480  1.0
  Y  Y667  1  0.23629067  0.43210283  0.15410480  1.0
  Y  Y668  1  0.23629067  0.76543617  0.15410480  1.0
  Y  Y669  1  0.56962400  0.09876950  0.15410480  1.0
  Y  Y670  1  0.56962400  0.43210283  0.15410480  1.0
  Y  Y671  1  0.56962400  0.76543617  0.15410480  1.0
  Y  Y672  1  0.90295733  0.09876950  0.15410480  1.0
  Y  Y673  1  0.90295733  0.43210283  0.15410480  1.0
  Y  Y674  1  0.90295733  0.76543617  0.15410480  1.0
  Y  Y675  1  0.23629067  0.26543617  0.05410480  1.0
  Y  Y676  1  0.23629067  0.59876950  0.05410480  1.0
  Y  Y677  1  0.23629067  0.93210283  0.05410480  1.0
  Y  Y678  1  0.56962400  0.26543617  0.05410480  1.0
  Y  Y679  1  0.56962400  0.59876950  0.05410480  1.0
  Y  Y680  1  0.56962400  0.93210283  0.05410480  1.0
  Y  Y681  1  0.90295733  0.26543617  0.05410480  1.0
  Y  Y682  1  0.90295733  0.59876950  0.05410480  1.0
  Y  Y683  1  0.90295733  0.93210283  0.05410480  1.0
  Y  Y684  1  0.06400133  0.08092500  0.15854750  1.0
  Y  Y685  1  0.06400133  0.41425833  0.15854750  1.0
  Y  Y686  1  0.06400133  0.74759167  0.15854750  1.0
  Y  Y687  1  0.39733467  0.08092500  0.15854750  1.0
  Y  Y688  1  0.39733467  0.41425833  0.15854750  1.0
  Y  Y689  1  0.39733467  0.74759167  0.15854750  1.0
  Y  Y690  1  0.73066800  0.08092500  0.15854750  1.0
  Y  Y691  1  0.73066800  0.41425833  0.15854750  1.0
  Y  Y692  1  0.73066800  0.74759167  0.15854750  1.0
  Y  Y693  1  0.06400133  0.24759167  0.05854750  1.0
  Y  Y694  1  0.06400133  0.58092500  0.05854750  1.0
  Y  Y695  1  0.06400133  0.91425833  0.05854750  1.0
  Y  Y696  1  0.39733467  0.24759167  0.05854750  1.0
  Y  Y697  1  0.39733467  0.58092500  0.05854750  1.0
  Y  Y698  1  0.39733467  0.91425833  0.05854750  1.0
  Y  Y699  1  0.73066800  0.24759167  0.05854750  1.0
  Y  Y700  1  0.73066800  0.58092500  0.05854750  1.0
  Y  Y701  1  0.73066800  0.91425833  0.05854750  1.0
  Y  Y702  1  0.18687000  0.08574167  0.08771630  1.0
  Y  Y703  1  0.18687000  0.41907500  0.08771630  1.0
  Y  Y704  1  0.18687000  0.75240833  0.08771630  1.0
  Y  Y705  1  0.52020333  0.08574167  0.08771630  1.0
  Y  Y706  1  0.52020333  0.41907500  0.08771630  1.0
  Y  Y707  1  0.52020333  0.75240833  0.08771630  1.0
  Y  Y708  1  0.85353667  0.08574167  0.08771630  1.0
  Y  Y709  1  0.85353667  0.41907500  0.08771630  1.0
  Y  Y710  1  0.85353667  0.75240833  0.08771630  1.0
  Y  Y711  1  0.18687000  0.25240833  0.18771630  1.0
  Y  Y712  1  0.18687000  0.58574167  0.18771630  1.0
  Y  Y713  1  0.18687000  0.91907500  0.18771630  1.0
  Y  Y714  1  0.52020333  0.25240833  0.18771630  1.0
  Y  Y715  1  0.52020333  0.58574167  0.18771630  1.0
  Y  Y716  1  0.52020333  0.91907500  0.18771630  1.0
  Y  Y717  1  0.85353667  0.25240833  0.18771630  1.0
  Y  Y718  1  0.85353667  0.58574167  0.18771630  1.0
  Y  Y719  1  0.85353667  0.91907500  0.18771630  1.0
  Y  Y720  1  0.26883333  0.01263283  0.13406940  1.0
  Y  Y721  1  0.26883333  0.34596617  0.13406940  1.0
  Y  Y722  1  0.26883333  0.67929950  0.13406940  1.0
  Y  Y723  1  0.60216667  0.01263283  0.13406940  1.0
  Y  Y724  1  0.60216667  0.34596617  0.13406940  1.0
  Y  Y725  1  0.60216667  0.67929950  0.13406940  1.0
  Y  Y726  1  0.93550000  0.01263283  0.13406940  1.0
  Y  Y727  1  0.93550000  0.34596617  0.13406940  1.0
  Y  Y728  1  0.93550000  0.67929950  0.13406940  1.0
  Y  Y729  1  0.26883333  0.17929950  0.03406940  1.0
  Y  Y730  1  0.26883333  0.51263283  0.03406940  1.0
  Y  Y731  1  0.26883333  0.84596617  0.03406940  1.0
  Y  Y732  1  0.60216667  0.17929950  0.03406940  1.0
  Y  Y733  1  0.60216667  0.51263283  0.03406940  1.0
  Y  Y734  1  0.60216667  0.84596617  0.03406940  1.0
  Y  Y735  1  0.93550000  0.17929950  0.03406940  1.0
  Y  Y736  1  0.93550000  0.51263283  0.03406940  1.0
  Y  Y737  1  0.93550000  0.84596617  0.03406940  1.0
  Y  Y738  1  0.05455900  0.01488567  0.00902470  1.0
  Y  Y739  1  0.05455900  0.34821900  0.00902470  1.0
  Y  Y740  1  0.05455900  0.68155233  0.00902470  1.0
  Y  Y741  1  0.38789233  0.01488567  0.00902470  1.0
  Y  Y742  1  0.38789233  0.34821900  0.00902470  1.0
  Y  Y743  1  0.38789233  0.68155233  0.00902470  1.0
  Y  Y744  1  0.72122567  0.01488567  0.00902470  1.0
  Y  Y745  1  0.72122567  0.34821900  0.00902470  1.0
  Y  Y746  1  0.72122567  0.68155233  0.00902470  1.0
  Y  Y747  1  0.05455900  0.18155233  0.10902470  1.0
  Y  Y748  1  0.05455900  0.51488567  0.10902470  1.0
  Y  Y749  1  0.05455900  0.84821900  0.10902470  1.0
  Y  Y750  1  0.38789233  0.18155233  0.10902470  1.0
  Y  Y751  1  0.38789233  0.51488567  0.10902470  1.0
  Y  Y752  1  0.38789233  0.84821900  0.10902470  1.0
  Y  Y753  1  0.72122567  0.18155233  0.10902470  1.0
  Y  Y754  1  0.72122567  0.51488567  0.10902470  1.0
  Y  Y755  1  0.72122567  0.84821900  0.10902470  1.0
  Y  Y756  1  0.11210767  0.11011433  0.16616190  1.0
  Y  Y757  1  0.11210767  0.44344767  0.16616190  1.0
  Y  Y758  1  0.11210767  0.77678100  0.16616190  1.0
  Y  Y759  1  0.44544100  0.11011433  0.16616190  1.0
  Y  Y760  1  0.44544100  0.44344767  0.16616190  1.0
  Y  Y761  1  0.44544100  0.77678100  0.16616190  1.0
  Y  Y762  1  0.77877433  0.11011433  0.16616190  1.0
  Y  Y763  1  0.77877433  0.44344767  0.16616190  1.0
  Y  Y764  1  0.77877433  0.77678100  0.16616190  1.0
  Y  Y765  1  0.11210767  0.27678100  0.06616190  1.0
  Y  Y766  1  0.11210767  0.61011433  0.06616190  1.0
  Y  Y767  1  0.11210767  0.94344767  0.06616190  1.0
  Y  Y768  1  0.44544100  0.27678100  0.06616190  1.0
  Y  Y769  1  0.44544100  0.61011433  0.06616190  1.0
  Y  Y770  1  0.44544100  0.94344767  0.06616190  1.0
  Y  Y771  1  0.77877433  0.27678100  0.06616190  1.0
  Y  Y772  1  0.77877433  0.61011433  0.06616190  1.0
  Y  Y773  1  0.77877433  0.94344767  0.06616190  1.0
  Y  Y774  1  0.26370933  0.02623050  0.01058140  1.0
  Y  Y775  1  0.26370933  0.35956383  0.01058140  1.0
  Y  Y776  1  0.26370933  0.69289717  0.01058140  1.0
  Y  Y777  1  0.59704267  0.02623050  0.01058140  1.0
  Y  Y778  1  0.59704267  0.35956383  0.01058140  1.0
  Y  Y779  1  0.59704267  0.69289717  0.01058140  1.0
  Y  Y780  1  0.93037600  0.02623050  0.01058140  1.0
  Y  Y781  1  0.93037600  0.35956383  0.01058140  1.0
  Y  Y782  1  0.93037600  0.69289717  0.01058140  1.0
  Y  Y783  1  0.26370933  0.19289717  0.11058140  1.0
  Y  Y784  1  0.26370933  0.52623050  0.11058140  1.0
  Y  Y785  1  0.26370933  0.85956383  0.11058140  1.0
  Y  Y786  1  0.59704267  0.19289717  0.11058140  1.0
  Y  Y787  1  0.59704267  0.52623050  0.11058140  1.0
  Y  Y788  1  0.59704267  0.85956383  0.11058140  1.0
  Y  Y789  1  0.93037600  0.19289717  0.11058140  1.0
  Y  Y790  1  0.93037600  0.52623050  0.11058140  1.0
  Y  Y791  1  0.93037600  0.85956383  0.11058140  1.0
  Y  Y792  1  0.17171233  0.15123050  0.14683440  1.0
  Y  Y793  1  0.17171233  0.48456383  0.14683440  1.0
  Y  Y794  1  0.17171233  0.81789717  0.14683440  1.0
  Y  Y795  1  0.50504567  0.15123050  0.14683440  1.0
  Y  Y796  1  0.50504567  0.48456383  0.14683440  1.0
  Y  Y797  1  0.50504567  0.81789717  0.14683440  1.0
  Y  Y798  1  0.83837900  0.15123050  0.14683440  1.0
  Y  Y799  1  0.83837900  0.48456383  0.14683440  1.0
  Y  Y800  1  0.83837900  0.81789717  0.14683440  1.0
  Y  Y801  1  0.17171233  0.31789717  0.04683440  1.0
  Y  Y802  1  0.17171233  0.65123050  0.04683440  1.0
  Y  Y803  1  0.17171233  0.98456383  0.04683440  1.0
  Y  Y804  1  0.50504567  0.31789717  0.04683440  1.0
  Y  Y805  1  0.50504567  0.65123050  0.04683440  1.0
  Y  Y806  1  0.50504567  0.98456383  0.04683440  1.0
  Y  Y807  1  0.83837900  0.31789717  0.04683440  1.0
  Y  Y808  1  0.83837900  0.65123050  0.04683440  1.0
  Y  Y809  1  0.83837900  0.98456383  0.04683440  1.0
  Y  Y810  1  0.32828767  0.14043617  0.04035780  1.0
  Y  Y811  1  0.32828767  0.47376950  0.04035780  1.0
  Y  Y812  1  0.32828767  0.80710283  0.04035780  1.0
  Y  Y813  1  0.66162100  0.14043617  0.04035780  1.0
  Y  Y814  1  0.66162100  0.47376950  0.04035780  1.0
  Y  Y815  1  0.66162100  0.80710283  0.04035780  1.0
  Y  Y816  1  0.99495433  0.14043617  0.04035780  1.0
  Y  Y817  1  0.99495433  0.47376950  0.04035780  1.0
  Y  Y818  1  0.99495433  0.80710283  0.04035780  1.0
  Y  Y819  1  0.32828767  0.30710283  0.14035780  1.0
  Y  Y820  1  0.32828767  0.64043617  0.14035780  1.0
  Y  Y821  1  0.32828767  0.97376950  0.14035780  1.0
  Y  Y822  1  0.66162100  0.30710283  0.14035780  1.0
  Y  Y823  1  0.66162100  0.64043617  0.14035780  1.0
  Y  Y824  1  0.66162100  0.97376950  0.14035780  1.0
  Y  Y825  1  0.99495433  0.30710283  0.14035780  1.0
  Y  Y826  1  0.99495433  0.64043617  0.14035780  1.0
  Y  Y827  1  0.99495433  0.97376950  0.14035780  1.0
  Y  Y828  1  0.11896800  0.07070050  0.07899080  1.0
  Y  Y829  1  0.11896800  0.40403383  0.07899080  1.0
  Y  Y830  1  0.11896800  0.73736717  0.07899080  1.0
  Y  Y831  1  0.45230133  0.07070050  0.07899080  1.0
  Y  Y832  1  0.45230133  0.40403383  0.07899080  1.0
  Y  Y833  1  0.45230133  0.73736717  0.07899080  1.0
  Y  Y834  1  0.78563467  0.07070050  0.07899080  1.0
  Y  Y835  1  0.78563467  0.40403383  0.07899080  1.0
  Y  Y836  1  0.78563467  0.73736717  0.07899080  1.0
  Y  Y837  1  0.11896800  0.23736717  0.17899080  1.0
  Y  Y838  1  0.11896800  0.57070050  0.17899080  1.0
  Y  Y839  1  0.11896800  0.90403383  0.17899080  1.0
  Y  Y840  1  0.45230133  0.23736717  0.17899080  1.0
  Y  Y841  1  0.45230133  0.57070050  0.17899080  1.0
  Y  Y842  1  0.45230133  0.90403383  0.17899080  1.0
  Y  Y843  1  0.78563467  0.23736717  0.17899080  1.0
  Y  Y844  1  0.78563467  0.57070050  0.17899080  1.0
  Y  Y845  1  0.78563467  0.90403383  0.17899080  1.0
  Y  Y846  1  0.10216667  0.02903383  0.18667160  1.0
  Y  Y847  1  0.10216667  0.36236717  0.18667160  1.0
  Y  Y848  1  0.10216667  0.69570050  0.18667160  1.0
  Y  Y849  1  0.43550000  0.02903383  0.18667160  1.0
  Y  Y850  1  0.43550000  0.36236717  0.18667160  1.0
  Y  Y851  1  0.43550000  0.69570050  0.18667160  1.0
  Y  Y852  1  0.76883333  0.02903383  0.18667160  1.0
  Y  Y853  1  0.76883333  0.36236717  0.18667160  1.0
  Y  Y854  1  0.76883333  0.69570050  0.18667160  1.0
  Y  Y855  1  0.10216667  0.19570050  0.08667160  1.0
  Y  Y856  1  0.10216667  0.52903383  0.08667160  1.0
  Y  Y857  1  0.10216667  0.86236717  0.08667160  1.0
  Y  Y858  1  0.43550000  0.19570050  0.08667160  1.0
  Y  Y859  1  0.43550000  0.52903383  0.08667160  1.0
  Y  Y860  1  0.43550000  0.86236717  0.08667160  1.0
  Y  Y861  1  0.76883333  0.19570050  0.08667160  1.0
  Y  Y862  1  0.76883333  0.52903383  0.08667160  1.0
  Y  Y863  1  0.76883333  0.86236717  0.08667160  1.0
  Ni  Ni864  1  0.21784467  0.14264700  0.08580550  1.0
  Ni  Ni865  1  0.21784467  0.47598033  0.08580550  1.0
  Ni  Ni866  1  0.21784467  0.80931367  0.08580550  1.0
  Ni  Ni867  1  0.55117800  0.14264700  0.08580550  1.0
  Ni  Ni868  1  0.55117800  0.47598033  0.08580550  1.0
  Ni  Ni869  1  0.55117800  0.80931367  0.08580550  1.0
  Ni  Ni870  1  0.88451133  0.14264700  0.08580550  1.0
  Ni  Ni871  1  0.88451133  0.47598033  0.08580550  1.0
  Ni  Ni872  1  0.88451133  0.80931367  0.08580550  1.0
  Ni  Ni873  1  0.21784467  0.30931367  0.18580550  1.0
  Ni  Ni874  1  0.21784467  0.64264700  0.18580550  1.0
  Ni  Ni875  1  0.21784467  0.97598033  0.18580550  1.0
  Ni  Ni876  1  0.55117800  0.30931367  0.18580550  1.0
  Ni  Ni877  1  0.55117800  0.64264700  0.18580550  1.0
  Ni  Ni878  1  0.55117800  0.97598033  0.18580550  1.0
  Ni  Ni879  1  0.88451133  0.30931367  0.18580550  1.0
  Ni  Ni880  1  0.88451133  0.64264700  0.18580550  1.0
  Ni  Ni881  1  0.88451133  0.97598033  0.18580550  1.0
  Ni  Ni882  1  0.20860267  0.16271967  0.11608170  1.0
  Ni  Ni883  1  0.20860267  0.49605300  0.11608170  1.0
  Ni  Ni884  1  0.20860267  0.82938633  0.11608170  1.0
  Ni  Ni885  1  0.54193600  0.16271967  0.11608170  1.0
  Ni  Ni886  1  0.54193600  0.49605300  0.11608170  1.0
  Ni  Ni887  1  0.54193600  0.82938633  0.11608170  1.0
  Ni  Ni888  1  0.87526933  0.16271967  0.11608170  1.0
  Ni  Ni889  1  0.87526933  0.49605300  0.11608170  1.0
  Ni  Ni890  1  0.87526933  0.82938633  0.11608170  1.0
  Ni  Ni891  1  0.20860267  0.32938633  0.01608170  1.0
  Ni  Ni892  1  0.20860267  0.66271967  0.01608170  1.0
  Ni  Ni893  1  0.20860267  0.99605300  0.01608170  1.0
  Ni  Ni894  1  0.54193600  0.32938633  0.01608170  1.0
  Ni  Ni895  1  0.54193600  0.66271967  0.01608170  1.0
  Ni  Ni896  1  0.54193600  0.99605300  0.01608170  1.0
  Ni  Ni897  1  0.87526933  0.32938633  0.01608170  1.0
  Ni  Ni898  1  0.87526933  0.66271967  0.01608170  1.0
  Ni  Ni899  1  0.87526933  0.99605300  0.01608170  1.0
  Ni  Ni900  1  0.13236767  0.12105300  0.09566390  1.0
  Ni  Ni901  1  0.13236767  0.45438633  0.09566390  1.0
  Ni  Ni902  1  0.13236767  0.78771967  0.09566390  1.0
  Ni  Ni903  1  0.46570100  0.12105300  0.09566390  1.0
  Ni  Ni904  1  0.46570100  0.45438633  0.09566390  1.0
  Ni  Ni905  1  0.46570100  0.78771967  0.09566390  1.0
  Ni  Ni906  1  0.79903433  0.12105300  0.09566390  1.0
  Ni  Ni907  1  0.79903433  0.45438633  0.09566390  1.0
  Ni  Ni908  1  0.79903433  0.78771967  0.09566390  1.0
  Ni  Ni909  1  0.13236767  0.28771967  0.19566390  1.0
  Ni  Ni910  1  0.13236767  0.62105300  0.19566390  1.0
  Ni  Ni911  1  0.13236767  0.95438633  0.19566390  1.0
  Ni  Ni912  1  0.46570100  0.28771967  0.19566390  1.0
  Ni  Ni913  1  0.46570100  0.62105300  0.19566390  1.0
  Ni  Ni914  1  0.46570100  0.95438633  0.19566390  1.0
  Ni  Ni915  1  0.79903433  0.28771967  0.19566390  1.0
  Ni  Ni916  1  0.79903433  0.62105300  0.19566390  1.0
  Ni  Ni917  1  0.79903433  0.95438633  0.19566390  1.0
  Ni  Ni918  1  0.16275533  0.10098033  0.08916550  1.0
  Ni  Ni919  1  0.16275533  0.43431367  0.08916550  1.0
  Ni  Ni920  1  0.16275533  0.76764700  0.08916550  1.0
  Ni  Ni921  1  0.49608867  0.10098033  0.08916550  1.0
  Ni  Ni922  1  0.49608867  0.43431367  0.08916550  1.0
  Ni  Ni923  1  0.49608867  0.76764700  0.08916550  1.0
  Ni  Ni924  1  0.82942200  0.10098033  0.08916550  1.0
  Ni  Ni925  1  0.82942200  0.43431367  0.08916550  1.0
  Ni  Ni926  1  0.82942200  0.76764700  0.08916550  1.0
  Ni  Ni927  1  0.16275533  0.26764700  0.18916550  1.0
  Ni  Ni928  1  0.16275533  0.60098033  0.18916550  1.0
  Ni  Ni929  1  0.16275533  0.93431367  0.18916550  1.0
  Ni  Ni930  1  0.49608867  0.26764700  0.18916550  1.0
  Ni  Ni931  1  0.49608867  0.60098033  0.18916550  1.0
  Ni  Ni932  1  0.49608867  0.93431367  0.18916550  1.0
  Ni  Ni933  1  0.82942200  0.26764700  0.18916550  1.0
  Ni  Ni934  1  0.82942200  0.60098033  0.18916550  1.0
  Ni  Ni935  1  0.82942200  0.93431367  0.18916550  1.0
  Ni  Ni936  1  0.06361267  0.13311017  0.18001340  1.0
  Ni  Ni937  1  0.06361267  0.46644350  0.18001340  1.0
  Ni  Ni938  1  0.06361267  0.79977683  0.18001340  1.0
  Ni  Ni939  1  0.39694600  0.13311017  0.18001340  1.0
  Ni  Ni940  1  0.39694600  0.46644350  0.18001340  1.0
  Ni  Ni941  1  0.39694600  0.79977683  0.18001340  1.0
  Ni  Ni942  1  0.73027933  0.13311017  0.18001340  1.0
  Ni  Ni943  1  0.73027933  0.46644350  0.18001340  1.0
  Ni  Ni944  1  0.73027933  0.79977683  0.18001340  1.0
  Ni  Ni945  1  0.06361267  0.29977683  0.08001340  1.0
  Ni  Ni946  1  0.06361267  0.63311017  0.08001340  1.0
  Ni  Ni947  1  0.06361267  0.96644350  0.08001340  1.0
  Ni  Ni948  1  0.39694600  0.29977683  0.08001340  1.0
  Ni  Ni949  1  0.39694600  0.63311017  0.08001340  1.0
  Ni  Ni950  1  0.39694600  0.96644350  0.08001340  1.0
  Ni  Ni951  1  0.73027933  0.29977683  0.08001340  1.0
  Ni  Ni952  1  0.73027933  0.63311017  0.08001340  1.0
  Ni  Ni953  1  0.73027933  0.96644350  0.08001340  1.0
  Ni  Ni954  1  0.23027933  0.07522317  0.04072760  1.0
  Ni  Ni955  1  0.23027933  0.40855650  0.04072760  1.0
  Ni  Ni956  1  0.23027933  0.74188983  0.04072760  1.0
  Ni  Ni957  1  0.56361267  0.07522317  0.04072760  1.0
  Ni  Ni958  1  0.56361267  0.40855650  0.04072760  1.0
  Ni  Ni959  1  0.56361267  0.74188983  0.04072760  1.0
  Ni  Ni960  1  0.89694600  0.07522317  0.04072760  1.0
  Ni  Ni961  1  0.89694600  0.40855650  0.04072760  1.0
  Ni  Ni962  1  0.89694600  0.74188983  0.04072760  1.0
  Ni  Ni963  1  0.23027933  0.24188983  0.14072760  1.0
  Ni  Ni964  1  0.23027933  0.57522317  0.14072760  1.0
  Ni  Ni965  1  0.23027933  0.90855650  0.14072760  1.0
  Ni  Ni966  1  0.56361267  0.24188983  0.14072760  1.0
  Ni  Ni967  1  0.56361267  0.57522317  0.14072760  1.0
  Ni  Ni968  1  0.56361267  0.90855650  0.14072760  1.0
  Ni  Ni969  1  0.89694600  0.24188983  0.14072760  1.0
  Ni  Ni970  1  0.89694600  0.57522317  0.14072760  1.0
  Ni  Ni971  1  0.89694600  0.90855650  0.14072760  1.0
  Ni  Ni972  1  0.05117800  0.06568633  0.13493550  1.0
  Ni  Ni973  1  0.05117800  0.39901967  0.13493550  1.0
  Ni  Ni974  1  0.05117800  0.73235300  0.13493550  1.0
  Ni  Ni975  1  0.38451133  0.06568633  0.13493550  1.0
  Ni  Ni976  1  0.38451133  0.39901967  0.13493550  1.0
  Ni  Ni977  1  0.38451133  0.73235300  0.13493550  1.0
  Ni  Ni978  1  0.71784467  0.06568633  0.13493550  1.0
  Ni  Ni979  1  0.71784467  0.39901967  0.13493550  1.0
  Ni  Ni980  1  0.71784467  0.73235300  0.13493550  1.0
  Ni  Ni981  1  0.05117800  0.23235300  0.03493550  1.0
  Ni  Ni982  1  0.05117800  0.56568633  0.03493550  1.0
  Ni  Ni983  1  0.05117800  0.89901967  0.03493550  1.0
  Ni  Ni984  1  0.38451133  0.23235300  0.03493550  1.0
  Ni  Ni985  1  0.38451133  0.56568633  0.03493550  1.0
  Ni  Ni986  1  0.38451133  0.89901967  0.03493550  1.0
  Ni  Ni987  1  0.71784467  0.23235300  0.03493550  1.0
  Ni  Ni988  1  0.71784467  0.56568633  0.03493550  1.0
  Ni  Ni989  1  0.71784467  0.89901967  0.03493550  1.0
  Ni  Ni990  1  0.10305400  0.15855650  0.09528120  1.0
  Ni  Ni991  1  0.10305400  0.49188983  0.09528120  1.0
  Ni  Ni992  1  0.10305400  0.82522317  0.09528120  1.0
  Ni  Ni993  1  0.43638733  0.15855650  0.09528120  1.0
  Ni  Ni994  1  0.43638733  0.49188983  0.09528120  1.0
  Ni  Ni995  1  0.43638733  0.82522317  0.09528120  1.0
  Ni  Ni996  1  0.76972067  0.15855650  0.09528120  1.0
  Ni  Ni997  1  0.76972067  0.49188983  0.09528120  1.0
  Ni  Ni998  1  0.76972067  0.82522317  0.09528120  1.0
  Ni  Ni999  1  0.10305400  0.32522317  0.19528120  1.0
  Ni  Ni1000  1  0.10305400  0.65855650  0.19528120  1.0
  Ni  Ni1001  1  0.10305400  0.99188983  0.19528120  1.0
  Ni  Ni1002  1  0.43638733  0.32522317  0.19528120  1.0
  Ni  Ni1003  1  0.43638733  0.65855650  0.19528120  1.0
  Ni  Ni1004  1  0.43638733  0.99188983  0.19528120  1.0
  Ni  Ni1005  1  0.76972067  0.32522317  0.19528120  1.0
  Ni  Ni1006  1  0.76972067  0.65855650  0.19528120  1.0
  Ni  Ni1007  1  0.76972067  0.99188983  0.19528120  1.0
  Ni  Ni1008  1  0.03429900  0.00394700  0.12540030  1.0
  Ni  Ni1009  1  0.03429900  0.33728033  0.12540030  1.0
  Ni  Ni1010  1  0.03429900  0.67061367  0.12540030  1.0
  Ni  Ni1011  1  0.36763233  0.00394700  0.12540030  1.0
  Ni  Ni1012  1  0.36763233  0.33728033  0.12540030  1.0
  Ni  Ni1013  1  0.36763233  0.67061367  0.12540030  1.0
  Ni  Ni1014  1  0.70096567  0.00394700  0.12540030  1.0
  Ni  Ni1015  1  0.70096567  0.33728033  0.12540030  1.0
  Ni  Ni1016  1  0.70096567  0.67061367  0.12540030  1.0
  Ni  Ni1017  1  0.03429900  0.17061367  0.02540030  1.0
  Ni  Ni1018  1  0.03429900  0.50394700  0.02540030  1.0
  Ni  Ni1019  1  0.03429900  0.83728033  0.02540030  1.0
  Ni  Ni1020  1  0.36763233  0.17061367  0.02540030  1.0
  Ni  Ni1021  1  0.36763233  0.50394700  0.02540030  1.0
  Ni  Ni1022  1  0.36763233  0.83728033  0.02540030  1.0
  Ni  Ni1023  1  0.70096567  0.17061367  0.02540030  1.0
  Ni  Ni1024  1  0.70096567  0.50394700  0.02540030  1.0
  Ni  Ni1025  1  0.70096567  0.83728033  0.02540030  1.0
  Ni  Ni1026  1  0.28215533  0.14901967  0.18962910  1.0
  Ni  Ni1027  1  0.28215533  0.48235300  0.18962910  1.0
  Ni  Ni1028  1  0.28215533  0.81568633  0.18962910  1.0
  Ni  Ni1029  1  0.61548867  0.14901967  0.18962910  1.0
  Ni  Ni1030  1  0.61548867  0.48235300  0.18962910  1.0
  Ni  Ni1031  1  0.61548867  0.81568633  0.18962910  1.0
  Ni  Ni1032  1  0.94882200  0.14901967  0.18962910  1.0
  Ni  Ni1033  1  0.94882200  0.48235300  0.18962910  1.0
  Ni  Ni1034  1  0.94882200  0.81568633  0.18962910  1.0
  Ni  Ni1035  1  0.28215533  0.31568633  0.08962910  1.0
  Ni  Ni1036  1  0.28215533  0.64901967  0.08962910  1.0
  Ni  Ni1037  1  0.28215533  0.98235300  0.08962910  1.0
  Ni  Ni1038  1  0.61548867  0.31568633  0.08962910  1.0
  Ni  Ni1039  1  0.61548867  0.64901967  0.08962910  1.0
  Ni  Ni1040  1  0.61548867  0.98235300  0.08962910  1.0
  Ni  Ni1041  1  0.94882200  0.31568633  0.08962910  1.0
  Ni  Ni1042  1  0.94882200  0.64901967  0.08962910  1.0
  Ni  Ni1043  1  0.94882200  0.98235300  0.08962910  1.0
  Ni  Ni1044  1  0.11548867  0.05931367  0.03111190  1.0
  Ni  Ni1045  1  0.11548867  0.39264700  0.03111190  1.0
  Ni  Ni1046  1  0.11548867  0.72598033  0.03111190  1.0
  Ni  Ni1047  1  0.44882200  0.05931367  0.03111190  1.0
  Ni  Ni1048  1  0.44882200  0.39264700  0.03111190  1.0
  Ni  Ni1049  1  0.44882200  0.72598033  0.03111190  1.0
  Ni  Ni1050  1  0.78215533  0.05931367  0.03111190  1.0
  Ni  Ni1051  1  0.78215533  0.39264700  0.03111190  1.0
  Ni  Ni1052  1  0.78215533  0.72598033  0.03111190  1.0
  Ni  Ni1053  1  0.11548867  0.22598033  0.13111190  1.0
  Ni  Ni1054  1  0.11548867  0.55931367  0.13111190  1.0
  Ni  Ni1055  1  0.11548867  0.89264700  0.13111190  1.0
  Ni  Ni1056  1  0.44882200  0.22598033  0.13111190  1.0
  Ni  Ni1057  1  0.44882200  0.55931367  0.13111190  1.0
  Ni  Ni1058  1  0.44882200  0.89264700  0.13111190  1.0
  Ni  Ni1059  1  0.78215533  0.22598033  0.13111190  1.0
  Ni  Ni1060  1  0.78215533  0.55931367  0.13111190  1.0
  Ni  Ni1061  1  0.78215533  0.89264700  0.13111190  1.0
  Ni  Ni1062  1  0.17046133  0.03355650  0.05617200  1.0
  Ni  Ni1063  1  0.17046133  0.36688983  0.05617200  1.0
  Ni  Ni1064  1  0.17046133  0.70022317  0.05617200  1.0
  Ni  Ni1065  1  0.50379467  0.03355650  0.05617200  1.0
  Ni  Ni1066  1  0.50379467  0.36688983  0.05617200  1.0
  Ni  Ni1067  1  0.50379467  0.70022317  0.05617200  1.0
  Ni  Ni1068  1  0.83712800  0.03355650  0.05617200  1.0
  Ni  Ni1069  1  0.83712800  0.36688983  0.05617200  1.0
  Ni  Ni1070  1  0.83712800  0.70022317  0.05617200  1.0
  Ni  Ni1071  1  0.17046133  0.20022317  0.15617200  1.0
  Ni  Ni1072  1  0.17046133  0.53355650  0.15617200  1.0
  Ni  Ni1073  1  0.17046133  0.86688983  0.15617200  1.0
  Ni  Ni1074  1  0.50379467  0.20022317  0.15617200  1.0
  Ni  Ni1075  1  0.50379467  0.53355650  0.15617200  1.0
  Ni  Ni1076  1  0.50379467  0.86688983  0.15617200  1.0
  Ni  Ni1077  1  0.83712800  0.20022317  0.15617200  1.0
  Ni  Ni1078  1  0.83712800  0.53355650  0.15617200  1.0
  Ni  Ni1079  1  0.83712800  0.86688983  0.15617200  1.0
  Ni  Ni1080  1  0.16287200  0.11688983  0.02983680  1.0
  Ni  Ni1081  1  0.16287200  0.45022317  0.02983680  1.0
  Ni  Ni1082  1  0.16287200  0.78355650  0.02983680  1.0
  Ni  Ni1083  1  0.49620533  0.11688983  0.02983680  1.0
  Ni  Ni1084  1  0.49620533  0.45022317  0.02983680  1.0
  Ni  Ni1085  1  0.49620533  0.78355650  0.02983680  1.0
  Ni  Ni1086  1  0.82953867  0.11688983  0.02983680  1.0
  Ni  Ni1087  1  0.82953867  0.45022317  0.02983680  1.0
  Ni  Ni1088  1  0.82953867  0.78355650  0.02983680  1.0
  Ni  Ni1089  1  0.16287200  0.28355650  0.12983680  1.0
  Ni  Ni1090  1  0.16287200  0.61688983  0.12983680  1.0
  Ni  Ni1091  1  0.16287200  0.95022317  0.12983680  1.0
  Ni  Ni1092  1  0.49620533  0.28355650  0.12983680  1.0
  Ni  Ni1093  1  0.49620533  0.61688983  0.12983680  1.0
  Ni  Ni1094  1  0.49620533  0.95022317  0.12983680  1.0
  Ni  Ni1095  1  0.82953867  0.28355650  0.12983680  1.0
  Ni  Ni1096  1  0.82953867  0.61688983  0.12983680  1.0
  Ni  Ni1097  1  0.82953867  0.95022317  0.12983680  1.0
  Ni  Ni1098  1  0.00391133  0.02401967  0.14298910  1.0
  Ni  Ni1099  1  0.00391133  0.35735300  0.14298910  1.0
  Ni  Ni1100  1  0.00391133  0.69068633  0.14298910  1.0
  Ni  Ni1101  1  0.33724467  0.02401967  0.14298910  1.0
  Ni  Ni1102  1  0.33724467  0.35735300  0.14298910  1.0
  Ni  Ni1103  1  0.33724467  0.69068633  0.14298910  1.0
  Ni  Ni1104  1  0.67057800  0.02401967  0.14298910  1.0
  Ni  Ni1105  1  0.67057800  0.35735300  0.14298910  1.0
  Ni  Ni1106  1  0.67057800  0.69068633  0.14298910  1.0
  Ni  Ni1107  1  0.00391133  0.19068633  0.04298910  1.0
  Ni  Ni1108  1  0.00391133  0.52401967  0.04298910  1.0
  Ni  Ni1109  1  0.00391133  0.85735300  0.04298910  1.0
  Ni  Ni1110  1  0.33724467  0.19068633  0.04298910  1.0
  Ni  Ni1111  1  0.33724467  0.52401967  0.04298910  1.0
  Ni  Ni1112  1  0.33724467  0.85735300  0.04298910  1.0
  Ni  Ni1113  1  0.67057800  0.19068633  0.04298910  1.0
  Ni  Ni1114  1  0.67057800  0.52401967  0.04298910  1.0
  Ni  Ni1115  1  0.67057800  0.85735300  0.04298910  1.0
  Ni  Ni1116  1  0.10638300  0.14733217  0.07530700  1.0
  Ni  Ni1117  1  0.10638300  0.48066550  0.07530700  1.0
  Ni  Ni1118  1  0.10638300  0.81399883  0.07530700  1.0
  Ni  Ni1119  1  0.43971633  0.14733217  0.07530700  1.0
  Ni  Ni1120  1  0.43971633  0.48066550  0.07530700  1.0
  Ni  Ni1121  1  0.43971633  0.81399883  0.07530700  1.0
  Ni  Ni1122  1  0.77304967  0.14733217  0.07530700  1.0
  Ni  Ni1123  1  0.77304967  0.48066550  0.07530700  1.0
  Ni  Ni1124  1  0.77304967  0.81399883  0.07530700  1.0
  Ni  Ni1125  1  0.10638300  0.31399883  0.17530700  1.0
  Ni  Ni1126  1  0.10638300  0.64733217  0.17530700  1.0
  Ni  Ni1127  1  0.10638300  0.98066550  0.17530700  1.0
  Ni  Ni1128  1  0.43971633  0.31399883  0.17530700  1.0
  Ni  Ni1129  1  0.43971633  0.64733217  0.17530700  1.0
  Ni  Ni1130  1  0.43971633  0.98066550  0.17530700  1.0
  Ni  Ni1131  1  0.77304967  0.31399883  0.17530700  1.0
  Ni  Ni1132  1  0.77304967  0.64733217  0.17530700  1.0
  Ni  Ni1133  1  0.77304967  0.98066550  0.17530700  1.0
  Ni  Ni1134  1  0.04193600  0.04561367  0.10465930  1.0
  Ni  Ni1135  1  0.04193600  0.37894700  0.10465930  1.0
  Ni  Ni1136  1  0.04193600  0.71228033  0.10465930  1.0
  Ni  Ni1137  1  0.37526933  0.04561367  0.10465930  1.0
  Ni  Ni1138  1  0.37526933  0.37894700  0.10465930  1.0
  Ni  Ni1139  1  0.37526933  0.71228033  0.10465930  1.0
  Ni  Ni1140  1  0.70860267  0.04561367  0.10465930  1.0
  Ni  Ni1141  1  0.70860267  0.37894700  0.10465930  1.0
  Ni  Ni1142  1  0.70860267  0.71228033  0.10465930  1.0
  Ni  Ni1143  1  0.04193600  0.21228033  0.00465930  1.0
  Ni  Ni1144  1  0.04193600  0.54561367  0.00465930  1.0
  Ni  Ni1145  1  0.04193600  0.87894700  0.00465930  1.0
  Ni  Ni1146  1  0.37526933  0.21228033  0.00465930  1.0
  Ni  Ni1147  1  0.37526933  0.54561367  0.00465930  1.0
  Ni  Ni1148  1  0.37526933  0.87894700  0.00465930  1.0
  Ni  Ni1149  1  0.70860267  0.21228033  0.00465930  1.0
  Ni  Ni1150  1  0.70860267  0.54561367  0.00465930  1.0
  Ni  Ni1151  1  0.70860267  0.87894700  0.00465930  1.0
  Ni  Ni1152  1  0.26972067  0.04977683  0.12545980  1.0
  Ni  Ni1153  1  0.26972067  0.38311017  0.12545980  1.0
  Ni  Ni1154  1  0.26972067  0.71644350  0.12545980  1.0
  Ni  Ni1155  1  0.60305400  0.04977683  0.12545980  1.0
  Ni  Ni1156  1  0.60305400  0.38311017  0.12545980  1.0
  Ni  Ni1157  1  0.60305400  0.71644350  0.12545980  1.0
  Ni  Ni1158  1  0.93638733  0.04977683  0.12545980  1.0
  Ni  Ni1159  1  0.93638733  0.38311017  0.12545980  1.0
  Ni  Ni1160  1  0.93638733  0.71644350  0.12545980  1.0
  Ni  Ni1161  1  0.26972067  0.21644350  0.02545980  1.0
  Ni  Ni1162  1  0.26972067  0.54977683  0.02545980  1.0
  Ni  Ni1163  1  0.26972067  0.88311017  0.02545980  1.0
  Ni  Ni1164  1  0.60305400  0.21644350  0.02545980  1.0
  Ni  Ni1165  1  0.60305400  0.54977683  0.02545980  1.0
  Ni  Ni1166  1  0.60305400  0.88311017  0.02545980  1.0
  Ni  Ni1167  1  0.93638733  0.21644350  0.02545980  1.0
  Ni  Ni1168  1  0.93638733  0.54977683  0.02545980  1.0
  Ni  Ni1169  1  0.93638733  0.88311017  0.02545980  1.0
  Ni  Ni1170  1  0.22695033  0.06399883  0.04723260  1.0
  Ni  Ni1171  1  0.22695033  0.39733217  0.04723260  1.0
  Ni  Ni1172  1  0.22695033  0.73066550  0.04723260  1.0
  Ni  Ni1173  1  0.56028367  0.06399883  0.04723260  1.0
  Ni  Ni1174  1  0.56028367  0.39733217  0.04723260  1.0
  Ni  Ni1175  1  0.56028367  0.73066550  0.04723260  1.0
  Ni  Ni1176  1  0.89361700  0.06399883  0.04723260  1.0
  Ni  Ni1177  1  0.89361700  0.39733217  0.04723260  1.0
  Ni  Ni1178  1  0.89361700  0.73066550  0.04723260  1.0
  Ni  Ni1179  1  0.22695033  0.23066550  0.14723260  1.0
  Ni  Ni1180  1  0.22695033  0.56399883  0.14723260  1.0
  Ni  Ni1181  1  0.22695033  0.89733217  0.14723260  1.0
  Ni  Ni1182  1  0.56028367  0.23066550  0.14723260  1.0
  Ni  Ni1183  1  0.56028367  0.56399883  0.14723260  1.0
  Ni  Ni1184  1  0.56028367  0.89733217  0.14723260  1.0
  Ni  Ni1185  1  0.89361700  0.23066550  0.14723260  1.0
  Ni  Ni1186  1  0.89361700  0.56399883  0.14723260  1.0
  Ni  Ni1187  1  0.89361700  0.89733217  0.14723260  1.0
  Ni  Ni1188  1  0.12473067  0.07938633  0.02492290  1.0
  Ni  Ni1189  1  0.12473067  0.41271967  0.02492290  1.0
  Ni  Ni1190  1  0.12473067  0.74605300  0.02492290  1.0
  Ni  Ni1191  1  0.45806400  0.07938633  0.02492290  1.0
  Ni  Ni1192  1  0.45806400  0.41271967  0.02492290  1.0
  Ni  Ni1193  1  0.45806400  0.74605300  0.02492290  1.0
  Ni  Ni1194  1  0.79139733  0.07938633  0.02492290  1.0
  Ni  Ni1195  1  0.79139733  0.41271967  0.02492290  1.0
  Ni  Ni1196  1  0.79139733  0.74605300  0.02492290  1.0
  Ni  Ni1197  1  0.12473067  0.24605300  0.12492290  1.0
  Ni  Ni1198  1  0.12473067  0.57938633  0.12492290  1.0
  Ni  Ni1199  1  0.12473067  0.91271967  0.12492290  1.0
  Ni  Ni1200  1  0.45806400  0.24605300  0.12492290  1.0
  Ni  Ni1201  1  0.45806400  0.57938633  0.12492290  1.0
  Ni  Ni1202  1  0.45806400  0.91271967  0.12492290  1.0
  Ni  Ni1203  1  0.79139733  0.24605300  0.12492290  1.0
  Ni  Ni1204  1  0.79139733  0.57938633  0.12492290  1.0
  Ni  Ni1205  1  0.79139733  0.91271967  0.12492290  1.0
  Ni  Ni1206  1  0.32953867  0.09144350  0.19090420  1.0
  Ni  Ni1207  1  0.32953867  0.42477683  0.19090420  1.0
  Ni  Ni1208  1  0.32953867  0.75811017  0.19090420  1.0
  Ni  Ni1209  1  0.66287200  0.09144350  0.19090420  1.0
  Ni  Ni1210  1  0.66287200  0.42477683  0.19090420  1.0
  Ni  Ni1211  1  0.66287200  0.75811017  0.19090420  1.0
  Ni  Ni1212  1  0.99620533  0.09144350  0.19090420  1.0
  Ni  Ni1213  1  0.99620533  0.42477683  0.19090420  1.0
  Ni  Ni1214  1  0.99620533  0.75811017  0.19090420  1.0
  Ni  Ni1215  1  0.32953867  0.25811017  0.09090420  1.0
  Ni  Ni1216  1  0.32953867  0.59144350  0.09090420  1.0
  Ni  Ni1217  1  0.32953867  0.92477683  0.09090420  1.0
  Ni  Ni1218  1  0.66287200  0.25811017  0.09090420  1.0
  Ni  Ni1219  1  0.66287200  0.59144350  0.09090420  1.0
  Ni  Ni1220  1  0.66287200  0.92477683  0.09090420  1.0
  Ni  Ni1221  1  0.99620533  0.25811017  0.09090420  1.0
  Ni  Ni1222  1  0.99620533  0.59144350  0.09090420  1.0
  Ni  Ni1223  1  0.99620533  0.92477683  0.09090420  1.0
  Ni  Ni1224  1  0.29139733  0.12894700  0.19581810  1.0
  Ni  Ni1225  1  0.29139733  0.46228033  0.19581810  1.0
  Ni  Ni1226  1  0.29139733  0.79561367  0.19581810  1.0
  Ni  Ni1227  1  0.62473067  0.12894700  0.19581810  1.0
  Ni  Ni1228  1  0.62473067  0.46228033  0.19581810  1.0
  Ni  Ni1229  1  0.62473067  0.79561367  0.19581810  1.0
  Ni  Ni1230  1  0.95806400  0.12894700  0.19581810  1.0
  Ni  Ni1231  1  0.95806400  0.46228033  0.19581810  1.0
  Ni  Ni1232  1  0.95806400  0.79561367  0.19581810  1.0
  Ni  Ni1233  1  0.29139733  0.29561367  0.09581810  1.0
  Ni  Ni1234  1  0.29139733  0.62894700  0.09581810  1.0
  Ni  Ni1235  1  0.29139733  0.96228033  0.09581810  1.0
  Ni  Ni1236  1  0.62473067  0.29561367  0.09581810  1.0
  Ni  Ni1237  1  0.62473067  0.62894700  0.09581810  1.0
  Ni  Ni1238  1  0.62473067  0.96228033  0.09581810  1.0
  Ni  Ni1239  1  0.95806400  0.29561367  0.09581810  1.0
  Ni  Ni1240  1  0.95806400  0.62894700  0.09581810  1.0
  Ni  Ni1241  1  0.95806400  0.96228033  0.09581810  1.0
  Ni  Ni1242  1  0.32942200  0.10735300  0.13157550  1.0
  Ni  Ni1243  1  0.32942200  0.44068633  0.13157550  1.0
  Ni  Ni1244  1  0.32942200  0.77401967  0.13157550  1.0
  Ni  Ni1245  1  0.66275533  0.10735300  0.13157550  1.0
  Ni  Ni1246  1  0.66275533  0.44068633  0.13157550  1.0
  Ni  Ni1247  1  0.66275533  0.77401967  0.13157550  1.0
  Ni  Ni1248  1  0.99608867  0.10735300  0.13157550  1.0
  Ni  Ni1249  1  0.99608867  0.44068633  0.13157550  1.0
  Ni  Ni1250  1  0.99608867  0.77401967  0.13157550  1.0
  Ni  Ni1251  1  0.32942200  0.27401967  0.03157550  1.0
  Ni  Ni1252  1  0.32942200  0.60735300  0.03157550  1.0
  Ni  Ni1253  1  0.32942200  0.94068633  0.03157550  1.0
  Ni  Ni1254  1  0.66275533  0.27401967  0.03157550  1.0
  Ni  Ni1255  1  0.66275533  0.60735300  0.03157550  1.0
  Ni  Ni1256  1  0.66275533  0.94068633  0.03157550  1.0
  Ni  Ni1257  1  0.99608867  0.27401967  0.03157550  1.0
  Ni  Ni1258  1  0.99608867  0.60735300  0.03157550  1.0
  Ni  Ni1259  1  0.99608867  0.94068633  0.03157550  1.0
  Ni  Ni1260  1  0.18493800  0.10566550  0.02509960  1.0
  Ni  Ni1261  1  0.18493800  0.43899883  0.02509960  1.0
  Ni  Ni1262  1  0.18493800  0.77233217  0.02509960  1.0
  Ni  Ni1263  1  0.51827133  0.10566550  0.02509960  1.0
  Ni  Ni1264  1  0.51827133  0.43899883  0.02509960  1.0
  Ni  Ni1265  1  0.51827133  0.77233217  0.02509960  1.0
  Ni  Ni1266  1  0.85160467  0.10566550  0.02509960  1.0
  Ni  Ni1267  1  0.85160467  0.43899883  0.02509960  1.0
  Ni  Ni1268  1  0.85160467  0.77233217  0.02509960  1.0
  Ni  Ni1269  1  0.18493800  0.27233217  0.12509960  1.0
  Ni  Ni1270  1  0.18493800  0.60566550  0.12509960  1.0
  Ni  Ni1271  1  0.18493800  0.93899883  0.12509960  1.0
  Ni  Ni1272  1  0.51827133  0.27233217  0.12509960  1.0
  Ni  Ni1273  1  0.51827133  0.60566550  0.12509960  1.0
  Ni  Ni1274  1  0.51827133  0.93899883  0.12509960  1.0
  Ni  Ni1275  1  0.85160467  0.27233217  0.12509960  1.0
  Ni  Ni1276  1  0.85160467  0.60566550  0.12509960  1.0
  Ni  Ni1277  1  0.85160467  0.93899883  0.12509960  1.0
  Ni  Ni1278  1  0.31506200  0.01933450  0.07330100  1.0
  Ni  Ni1279  1  0.31506200  0.35266783  0.07330100  1.0
  Ni  Ni1280  1  0.31506200  0.68600117  0.07330100  1.0
  Ni  Ni1281  1  0.64839533  0.01933450  0.07330100  1.0
  Ni  Ni1282  1  0.64839533  0.35266783  0.07330100  1.0
  Ni  Ni1283  1  0.64839533  0.68600117  0.07330100  1.0
  Ni  Ni1284  1  0.98172867  0.01933450  0.07330100  1.0
  Ni  Ni1285  1  0.98172867  0.35266783  0.07330100  1.0
  Ni  Ni1286  1  0.98172867  0.68600117  0.07330100  1.0
  Ni  Ni1287  1  0.31506200  0.18600117  0.17330100  1.0
  Ni  Ni1288  1  0.31506200  0.51933450  0.17330100  1.0
  Ni  Ni1289  1  0.31506200  0.85266783  0.17330100  1.0
  Ni  Ni1290  1  0.64839533  0.18600117  0.17330100  1.0
  Ni  Ni1291  1  0.64839533  0.51933450  0.17330100  1.0
  Ni  Ni1292  1  0.64839533  0.85266783  0.17330100  1.0
  Ni  Ni1293  1  0.98172867  0.18600117  0.17330100  1.0
  Ni  Ni1294  1  0.98172867  0.51933450  0.17330100  1.0
  Ni  Ni1295  1  0.98172867  0.85266783  0.17330100  1.0
  Ni  Ni1296  1  0.01827133  0.10266783  0.19564140  1.0
  Ni  Ni1297  1  0.01827133  0.43600117  0.19564140  1.0
  Ni  Ni1298  1  0.01827133  0.76933450  0.19564140  1.0
  Ni  Ni1299  1  0.35160467  0.10266783  0.19564140  1.0
  Ni  Ni1300  1  0.35160467  0.43600117  0.19564140  1.0
  Ni  Ni1301  1  0.35160467  0.76933450  0.19564140  1.0
  Ni  Ni1302  1  0.68493800  0.10266783  0.19564140  1.0
  Ni  Ni1303  1  0.68493800  0.43600117  0.19564140  1.0
  Ni  Ni1304  1  0.68493800  0.76933450  0.19564140  1.0
  Ni  Ni1305  1  0.01827133  0.26933450  0.09564140  1.0
  Ni  Ni1306  1  0.01827133  0.60266783  0.09564140  1.0
  Ni  Ni1307  1  0.01827133  0.93600117  0.09564140  1.0
  Ni  Ni1308  1  0.35160467  0.26933450  0.09564140  1.0
  Ni  Ni1309  1  0.35160467  0.60266783  0.09564140  1.0
  Ni  Ni1310  1  0.35160467  0.93600117  0.09564140  1.0
  Ni  Ni1311  1  0.68493800  0.26933450  0.09564140  1.0
  Ni  Ni1312  1  0.68493800  0.60266783  0.09564140  1.0
  Ni  Ni1313  1  0.68493800  0.93600117  0.09564140  1.0
  Ni  Ni1314  1  0.29903433  0.08728033  0.12507710  1.0
  Ni  Ni1315  1  0.29903433  0.42061367  0.12507710  1.0
  Ni  Ni1316  1  0.29903433  0.75394700  0.12507710  1.0
  Ni  Ni1317  1  0.63236767  0.08728033  0.12507710  1.0
  Ni  Ni1318  1  0.63236767  0.42061367  0.12507710  1.0
  Ni  Ni1319  1  0.63236767  0.75394700  0.12507710  1.0
  Ni  Ni1320  1  0.96570100  0.08728033  0.12507710  1.0
  Ni  Ni1321  1  0.96570100  0.42061367  0.12507710  1.0
  Ni  Ni1322  1  0.96570100  0.75394700  0.12507710  1.0
  Ni  Ni1323  1  0.29903433  0.25394700  0.02507710  1.0
  Ni  Ni1324  1  0.29903433  0.58728033  0.02507710  1.0
  Ni  Ni1325  1  0.29903433  0.92061367  0.02507710  1.0
  Ni  Ni1326  1  0.63236767  0.25394700  0.02507710  1.0
  Ni  Ni1327  1  0.63236767  0.58728033  0.02507710  1.0
  Ni  Ni1328  1  0.63236767  0.92061367  0.02507710  1.0
  Ni  Ni1329  1  0.96570100  0.25394700  0.02507710  1.0
  Ni  Ni1330  1  0.96570100  0.58728033  0.02507710  1.0
  Ni  Ni1331  1  0.96570100  0.92061367  0.02507710  1.0
  Ni  Ni1332  1  0.27304967  0.06100117  0.14543400  1.0
  Ni  Ni1333  1  0.27304967  0.39433450  0.14543400  1.0
  Ni  Ni1334  1  0.27304967  0.72766783  0.14543400  1.0
  Ni  Ni1335  1  0.60638300  0.06100117  0.14543400  1.0
  Ni  Ni1336  1  0.60638300  0.39433450  0.14543400  1.0
  Ni  Ni1337  1  0.60638300  0.72766783  0.14543400  1.0
  Ni  Ni1338  1  0.93971633  0.06100117  0.14543400  1.0
  Ni  Ni1339  1  0.93971633  0.39433450  0.14543400  1.0
  Ni  Ni1340  1  0.93971633  0.72766783  0.14543400  1.0
  Ni  Ni1341  1  0.27304967  0.22766783  0.04543400  1.0
  Ni  Ni1342  1  0.27304967  0.56100117  0.04543400  1.0
  Ni  Ni1343  1  0.27304967  0.89433450  0.04543400  1.0
  Ni  Ni1344  1  0.60638300  0.22766783  0.04543400  1.0
  Ni  Ni1345  1  0.60638300  0.56100117  0.04543400  1.0
  Ni  Ni1346  1  0.60638300  0.89433450  0.04543400  1.0
  Ni  Ni1347  1  0.93971633  0.22766783  0.04543400  1.0
  Ni  Ni1348  1  0.93971633  0.56100117  0.04543400  1.0
  Ni  Ni1349  1  0.93971633  0.89433450  0.04543400  1.0
  Ni  Ni1350  1  0.14839533  0.02233217  0.04744000  1.0
  Ni  Ni1351  1  0.14839533  0.35566550  0.04744000  1.0
  Ni  Ni1352  1  0.14839533  0.68899883  0.04744000  1.0
  Ni  Ni1353  1  0.48172867  0.02233217  0.04744000  1.0
  Ni  Ni1354  1  0.48172867  0.35566550  0.04744000  1.0
  Ni  Ni1355  1  0.48172867  0.68899883  0.04744000  1.0
  Ni  Ni1356  1  0.81506200  0.02233217  0.04744000  1.0
  Ni  Ni1357  1  0.81506200  0.35566550  0.04744000  1.0
  Ni  Ni1358  1  0.81506200  0.68899883  0.04744000  1.0
  Ni  Ni1359  1  0.14839533  0.18899883  0.14744000  1.0
  Ni  Ni1360  1  0.14839533  0.52233217  0.14744000  1.0
  Ni  Ni1361  1  0.14839533  0.85566550  0.14744000  1.0
  Ni  Ni1362  1  0.48172867  0.18899883  0.14744000  1.0
  Ni  Ni1363  1  0.48172867  0.52233217  0.14744000  1.0
  Ni  Ni1364  1  0.48172867  0.85566550  0.14744000  1.0
  Ni  Ni1365  1  0.81506200  0.18899883  0.14744000  1.0
  Ni  Ni1366  1  0.81506200  0.52233217  0.14744000  1.0
  Ni  Ni1367  1  0.81506200  0.85566550  0.14744000  1.0
  Ni  Ni1368  1  0.00379467  0.00811017  0.06456900  1.0
  Ni  Ni1369  1  0.00379467  0.34144350  0.06456900  1.0
  Ni  Ni1370  1  0.00379467  0.67477683  0.06456900  1.0
  Ni  Ni1371  1  0.33712800  0.00811017  0.06456900  1.0
  Ni  Ni1372  1  0.33712800  0.34144350  0.06456900  1.0
  Ni  Ni1373  1  0.33712800  0.67477683  0.06456900  1.0
  Ni  Ni1374  1  0.67046133  0.00811017  0.06456900  1.0
  Ni  Ni1375  1  0.67046133  0.34144350  0.06456900  1.0
  Ni  Ni1376  1  0.67046133  0.67477683  0.06456900  1.0
  Ni  Ni1377  1  0.00379467  0.17477683  0.16456900  1.0
  Ni  Ni1378  1  0.00379467  0.50811017  0.16456900  1.0
  Ni  Ni1379  1  0.00379467  0.84144350  0.16456900  1.0
  Ni  Ni1380  1  0.33712800  0.17477683  0.16456900  1.0
  Ni  Ni1381  1  0.33712800  0.50811017  0.16456900  1.0
  Ni  Ni1382  1  0.33712800  0.84144350  0.16456900  1.0
  Ni  Ni1383  1  0.67046133  0.17477683  0.16456900  1.0
  Ni  Ni1384  1  0.67046133  0.50811017  0.16456900  1.0
  Ni  Ni1385  1  0.67046133  0.84144350  0.16456900  1.0
  Ni  Ni1386  1  0.06028367  0.14433450  0.17350840  1.0
  Ni  Ni1387  1  0.06028367  0.47766783  0.17350840  1.0
  Ni  Ni1388  1  0.06028367  0.81100117  0.17350840  1.0
  Ni  Ni1389  1  0.39361700  0.14433450  0.17350840  1.0
  Ni  Ni1390  1  0.39361700  0.47766783  0.17350840  1.0
  Ni  Ni1391  1  0.39361700  0.81100117  0.17350840  1.0
  Ni  Ni1392  1  0.72695033  0.14433450  0.17350840  1.0
  Ni  Ni1393  1  0.72695033  0.47766783  0.17350840  1.0
  Ni  Ni1394  1  0.72695033  0.81100117  0.17350840  1.0
  Ni  Ni1395  1  0.06028367  0.31100117  0.07350840  1.0
  Ni  Ni1396  1  0.06028367  0.64433450  0.07350840  1.0
  Ni  Ni1397  1  0.06028367  0.97766783  0.07350840  1.0
  Ni  Ni1398  1  0.39361700  0.31100117  0.07350840  1.0
  Ni  Ni1399  1  0.39361700  0.64433450  0.07350840  1.0
  Ni  Ni1400  1  0.39361700  0.97766783  0.07350840  1.0
  Ni  Ni1401  1  0.72695033  0.31100117  0.07350840  1.0
  Ni  Ni1402  1  0.72695033  0.64433450  0.07350840  1.0
  Ni  Ni1403  1  0.72695033  0.97766783  0.07350840  1.0
  Ni  Ni1404  1  0.20096567  0.03771967  0.19534070  1.0
  Ni  Ni1405  1  0.20096567  0.37105300  0.19534070  1.0
  Ni  Ni1406  1  0.20096567  0.70438633  0.19534070  1.0
  Ni  Ni1407  1  0.53429900  0.03771967  0.19534070  1.0
  Ni  Ni1408  1  0.53429900  0.37105300  0.19534070  1.0
  Ni  Ni1409  1  0.53429900  0.70438633  0.19534070  1.0
  Ni  Ni1410  1  0.86763233  0.03771967  0.19534070  1.0
  Ni  Ni1411  1  0.86763233  0.37105300  0.19534070  1.0
  Ni  Ni1412  1  0.86763233  0.70438633  0.19534070  1.0
  Ni  Ni1413  1  0.20096567  0.20438633  0.09534070  1.0
  Ni  Ni1414  1  0.20096567  0.53771967  0.09534070  1.0
  Ni  Ni1415  1  0.20096567  0.87105300  0.09534070  1.0
  Ni  Ni1416  1  0.53429900  0.20438633  0.09534070  1.0
  Ni  Ni1417  1  0.53429900  0.53771967  0.09534070  1.0
  Ni  Ni1418  1  0.53429900  0.87105300  0.09534070  1.0
  Ni  Ni1419  1  0.86763233  0.20438633  0.09534070  1.0
  Ni  Ni1420  1  0.86763233  0.53771967  0.09534070  1.0
  Ni  Ni1421  1  0.86763233  0.87105300  0.09534070  1.0
  Ni  Ni1422  1  0.17057800  0.01764700  0.17775190  1.0
  Ni  Ni1423  1  0.17057800  0.35098033  0.17775190  1.0
  Ni  Ni1424  1  0.17057800  0.68431367  0.17775190  1.0
  Ni  Ni1425  1  0.50391133  0.01764700  0.17775190  1.0
  Ni  Ni1426  1  0.50391133  0.35098033  0.17775190  1.0
  Ni  Ni1427  1  0.50391133  0.68431367  0.17775190  1.0
  Ni  Ni1428  1  0.83724467  0.01764700  0.17775190  1.0
  Ni  Ni1429  1  0.83724467  0.35098033  0.17775190  1.0
  Ni  Ni1430  1  0.83724467  0.68431367  0.17775190  1.0
  Ni  Ni1431  1  0.17057800  0.18431367  0.07775190  1.0
  Ni  Ni1432  1  0.17057800  0.51764700  0.07775190  1.0
  Ni  Ni1433  1  0.17057800  0.85098033  0.07775190  1.0
  Ni  Ni1434  1  0.50391133  0.18431367  0.07775190  1.0
  Ni  Ni1435  1  0.50391133  0.51764700  0.07775190  1.0
  Ni  Ni1436  1  0.50391133  0.85098033  0.07775190  1.0
  Ni  Ni1437  1  0.83724467  0.18431367  0.07775190  1.0
  Ni  Ni1438  1  0.83724467  0.51764700  0.07775190  1.0
  Ni  Ni1439  1  0.83724467  0.85098033  0.07775190  1.0
  Y  Y1440  1  0.32962867  0.06844767  0.20620370  1.0
  Y  Y1441  1  0.32962867  0.40178100  0.20620370  1.0
  Y  Y1442  1  0.32962867  0.73511433  0.20620370  1.0
  Y  Y1443  1  0.66296200  0.06844767  0.20620370  1.0
  Y  Y1444  1  0.66296200  0.40178100  0.20620370  1.0
  Y  Y1445  1  0.66296200  0.73511433  0.20620370  1.0
  Y  Y1446  1  0.99629533  0.06844767  0.20620370  1.0
  Y  Y1447  1  0.99629533  0.40178100  0.20620370  1.0
  Y  Y1448  1  0.99629533  0.73511433  0.20620370  1.0
  Y  Y1449  1  0.32962867  0.23511433  0.30620370  1.0
  Y  Y1450  1  0.32962867  0.56844767  0.30620370  1.0
  Y  Y1451  1  0.32962867  0.90178100  0.30620370  1.0
  Y  Y1452  1  0.66296200  0.23511433  0.30620370  1.0
  Y  Y1453  1  0.66296200  0.56844767  0.30620370  1.0
  Y  Y1454  1  0.66296200  0.90178100  0.30620370  1.0
  Y  Y1455  1  0.99629533  0.23511433  0.30620370  1.0
  Y  Y1456  1  0.99629533  0.56844767  0.30620370  1.0
  Y  Y1457  1  0.99629533  0.90178100  0.30620370  1.0
  Y  Y1458  1  0.23066800  0.12740833  0.26219350  1.0
  Y  Y1459  1  0.23066800  0.46074167  0.26219350  1.0
  Y  Y1460  1  0.23066800  0.79407500  0.26219350  1.0
  Y  Y1461  1  0.56400133  0.12740833  0.26219350  1.0
  Y  Y1462  1  0.56400133  0.46074167  0.26219350  1.0
  Y  Y1463  1  0.56400133  0.79407500  0.26219350  1.0
  Y  Y1464  1  0.89733467  0.12740833  0.26219350  1.0
  Y  Y1465  1  0.89733467  0.46074167  0.26219350  1.0
  Y  Y1466  1  0.89733467  0.79407500  0.26219350  1.0
  Y  Y1467  1  0.23066800  0.29407500  0.36219350  1.0
  Y  Y1468  1  0.23066800  0.62740833  0.36219350  1.0
  Y  Y1469  1  0.23066800  0.96074167  0.36219350  1.0
  Y  Y1470  1  0.56400133  0.29407500  0.36219350  1.0
  Y  Y1471  1  0.56400133  0.62740833  0.36219350  1.0
  Y  Y1472  1  0.56400133  0.96074167  0.36219350  1.0
  Y  Y1473  1  0.89733467  0.29407500  0.36219350  1.0
  Y  Y1474  1  0.89733467  0.62740833  0.36219350  1.0
  Y  Y1475  1  0.89733467  0.96074167  0.36219350  1.0
  Y  Y1476  1  0.22142733  0.05310217  0.39778060  1.0
  Y  Y1477  1  0.22142733  0.38643550  0.39778060  1.0
  Y  Y1478  1  0.22142733  0.71976883  0.39778060  1.0
  Y  Y1479  1  0.55476067  0.05310217  0.39778060  1.0
  Y  Y1480  1  0.55476067  0.38643550  0.39778060  1.0
  Y  Y1481  1  0.55476067  0.71976883  0.39778060  1.0
  Y  Y1482  1  0.88809400  0.05310217  0.39778060  1.0
  Y  Y1483  1  0.88809400  0.38643550  0.39778060  1.0
  Y  Y1484  1  0.88809400  0.71976883  0.39778060  1.0
  Y  Y1485  1  0.22142733  0.21976883  0.29778060  1.0
  Y  Y1486  1  0.22142733  0.55310217  0.29778060  1.0
  Y  Y1487  1  0.22142733  0.88643550  0.29778060  1.0
  Y  Y1488  1  0.55476067  0.21976883  0.29778060  1.0
  Y  Y1489  1  0.55476067  0.55310217  0.29778060  1.0
  Y  Y1490  1  0.55476067  0.88643550  0.29778060  1.0
  Y  Y1491  1  0.88809400  0.21976883  0.29778060  1.0
  Y  Y1492  1  0.88809400  0.55310217  0.29778060  1.0
  Y  Y1493  1  0.88809400  0.88643550  0.29778060  1.0
  Y  Y1494  1  0.06054733  0.12500000  0.23654210  1.0
  Y  Y1495  1  0.06054733  0.45833333  0.23654210  1.0
  Y  Y1496  1  0.06054733  0.79166667  0.23654210  1.0
  Y  Y1497  1  0.39388067  0.12500000  0.23654210  1.0
  Y  Y1498  1  0.39388067  0.45833333  0.23654210  1.0
  Y  Y1499  1  0.39388067  0.79166667  0.23654210  1.0
  Y  Y1500  1  0.72721400  0.12500000  0.23654210  1.0
  Y  Y1501  1  0.72721400  0.45833333  0.23654210  1.0
  Y  Y1502  1  0.72721400  0.79166667  0.23654210  1.0
  Y  Y1503  1  0.06054733  0.29166667  0.33654210  1.0
  Y  Y1504  1  0.06054733  0.62500000  0.33654210  1.0
  Y  Y1505  1  0.06054733  0.95833333  0.33654210  1.0
  Y  Y1506  1  0.39388067  0.29166667  0.33654210  1.0
  Y  Y1507  1  0.39388067  0.62500000  0.33654210  1.0
  Y  Y1508  1  0.39388067  0.95833333  0.33654210  1.0
  Y  Y1509  1  0.72721400  0.29166667  0.33654210  1.0
  Y  Y1510  1  0.72721400  0.62500000  0.33654210  1.0
  Y  Y1511  1  0.72721400  0.95833333  0.33654210  1.0
  Y  Y1512  1  0.15508400  0.04166667  0.32982010  1.0
  Y  Y1513  1  0.15508400  0.37500000  0.32982010  1.0
  Y  Y1514  1  0.15508400  0.70833333  0.32982010  1.0
  Y  Y1515  1  0.48841733  0.04166667  0.32982010  1.0
  Y  Y1516  1  0.48841733  0.37500000  0.32982010  1.0
  Y  Y1517  1  0.48841733  0.70833333  0.32982010  1.0
  Y  Y1518  1  0.82175067  0.04166667  0.32982010  1.0
  Y  Y1519  1  0.82175067  0.37500000  0.32982010  1.0
  Y  Y1520  1  0.82175067  0.70833333  0.32982010  1.0
  Y  Y1521  1  0.15508400  0.20833333  0.22982010  1.0
  Y  Y1522  1  0.15508400  0.54166667  0.22982010  1.0
  Y  Y1523  1  0.15508400  0.87500000  0.22982010  1.0
  Y  Y1524  1  0.48841733  0.20833333  0.22982010  1.0
  Y  Y1525  1  0.48841733  0.54166667  0.22982010  1.0
  Y  Y1526  1  0.48841733  0.87500000  0.22982010  1.0
  Y  Y1527  1  0.82175067  0.20833333  0.22982010  1.0
  Y  Y1528  1  0.82175067  0.54166667  0.22982010  1.0
  Y  Y1529  1  0.82175067  0.87500000  0.22982010  1.0
  Y  Y1530  1  0.16162100  0.06789717  0.38038320  1.0
  Y  Y1531  1  0.16162100  0.40123050  0.38038320  1.0
  Y  Y1532  1  0.16162100  0.73456383  0.38038320  1.0
  Y  Y1533  1  0.49495433  0.06789717  0.38038320  1.0
  Y  Y1534  1  0.49495433  0.40123050  0.38038320  1.0
  Y  Y1535  1  0.49495433  0.73456383  0.38038320  1.0
  Y  Y1536  1  0.82828767  0.06789717  0.38038320  1.0
  Y  Y1537  1  0.82828767  0.40123050  0.38038320  1.0
  Y  Y1538  1  0.82828767  0.73456383  0.38038320  1.0
  Y  Y1539  1  0.16162100  0.23456383  0.28038320  1.0
  Y  Y1540  1  0.16162100  0.56789717  0.28038320  1.0
  Y  Y1541  1  0.16162100  0.90123050  0.28038320  1.0
  Y  Y1542  1  0.49495433  0.23456383  0.28038320  1.0
  Y  Y1543  1  0.49495433  0.56789717  0.28038320  1.0
  Y  Y1544  1  0.49495433  0.90123050  0.28038320  1.0
  Y  Y1545  1  0.82828767  0.23456383  0.28038320  1.0
  Y  Y1546  1  0.82828767  0.56789717  0.28038320  1.0
  Y  Y1547  1  0.82828767  0.90123050  0.28038320  1.0
  Y  Y1548  1  0.11341467  0.09476883  0.22187540  1.0
  Y  Y1549  1  0.11341467  0.42810217  0.22187540  1.0
  Y  Y1550  1  0.11341467  0.76143550  0.22187540  1.0
  Y  Y1551  1  0.44674800  0.09476883  0.22187540  1.0
  Y  Y1552  1  0.44674800  0.42810217  0.22187540  1.0
  Y  Y1553  1  0.44674800  0.76143550  0.22187540  1.0
  Y  Y1554  1  0.78008133  0.09476883  0.22187540  1.0
  Y  Y1555  1  0.78008133  0.42810217  0.22187540  1.0
  Y  Y1556  1  0.78008133  0.76143550  0.22187540  1.0
  Y  Y1557  1  0.11341467  0.26143550  0.32187540  1.0
  Y  Y1558  1  0.11341467  0.59476883  0.32187540  1.0
  Y  Y1559  1  0.11341467  0.92810217  0.32187540  1.0
  Y  Y1560  1  0.44674800  0.26143550  0.32187540  1.0
  Y  Y1561  1  0.44674800  0.59476883  0.32187540  1.0
  Y  Y1562  1  0.44674800  0.92810217  0.32187540  1.0
  Y  Y1563  1  0.78008133  0.26143550  0.32187540  1.0
  Y  Y1564  1  0.78008133  0.59476883  0.32187540  1.0
  Y  Y1565  1  0.78008133  0.92810217  0.32187540  1.0
  Y  Y1566  1  0.22721400  0.08333333  0.38419890  1.0
  Y  Y1567  1  0.22721400  0.41666667  0.38419890  1.0
  Y  Y1568  1  0.22721400  0.75000000  0.38419890  1.0
  Y  Y1569  1  0.56054733  0.08333333  0.38419890  1.0
  Y  Y1570  1  0.56054733  0.41666667  0.38419890  1.0
  Y  Y1571  1  0.56054733  0.75000000  0.38419890  1.0
  Y  Y1572  1  0.89388067  0.08333333  0.38419890  1.0
  Y  Y1573  1  0.89388067  0.41666667  0.38419890  1.0
  Y  Y1574  1  0.89388067  0.75000000  0.38419890  1.0
  Y  Y1575  1  0.22721400  0.25000000  0.28419890  1.0
  Y  Y1576  1  0.22721400  0.58333333  0.28419890  1.0
  Y  Y1577  1  0.22721400  0.91666667  0.28419890  1.0
  Y  Y1578  1  0.56054733  0.25000000  0.28419890  1.0
  Y  Y1579  1  0.56054733  0.58333333  0.28419890  1.0
  Y  Y1580  1  0.56054733  0.91666667  0.28419890  1.0
  Y  Y1581  1  0.89388067  0.25000000  0.28419890  1.0
  Y  Y1582  1  0.89388067  0.58333333  0.28419890  1.0
  Y  Y1583  1  0.89388067  0.91666667  0.28419890  1.0
  Y  Y1584  1  0.22122567  0.02678100  0.31171630  1.0
  Y  Y1585  1  0.22122567  0.36011433  0.31171630  1.0
  Y  Y1586  1  0.22122567  0.69344767  0.31171630  1.0
  Y  Y1587  1  0.55455900  0.02678100  0.31171630  1.0
  Y  Y1588  1  0.55455900  0.36011433  0.31171630  1.0
  Y  Y1589  1  0.55455900  0.69344767  0.31171630  1.0
  Y  Y1590  1  0.88789233  0.02678100  0.31171630  1.0
  Y  Y1591  1  0.88789233  0.36011433  0.31171630  1.0
  Y  Y1592  1  0.88789233  0.69344767  0.31171630  1.0
  Y  Y1593  1  0.22122567  0.19344767  0.21171630  1.0
  Y  Y1594  1  0.22122567  0.52678100  0.21171630  1.0
  Y  Y1595  1  0.22122567  0.86011433  0.21171630  1.0
  Y  Y1596  1  0.55455900  0.19344767  0.21171630  1.0
  Y  Y1597  1  0.55455900  0.52678100  0.21171630  1.0
  Y  Y1598  1  0.55455900  0.86011433  0.21171630  1.0
  Y  Y1599  1  0.88789233  0.19344767  0.21171630  1.0
  Y  Y1600  1  0.88789233  0.52678100  0.21171630  1.0
  Y  Y1601  1  0.88789233  0.86011433  0.21171630  1.0
  Y  Y1602  1  0.05476067  0.15523117  0.22296040  1.0
  Y  Y1603  1  0.05476067  0.48856450  0.22296040  1.0
  Y  Y1604  1  0.05476067  0.82189783  0.22296040  1.0
  Y  Y1605  1  0.38809400  0.15523117  0.22296040  1.0
  Y  Y1606  1  0.38809400  0.48856450  0.22296040  1.0
  Y  Y1607  1  0.38809400  0.82189783  0.22296040  1.0
  Y  Y1608  1  0.72142733  0.15523117  0.22296040  1.0
  Y  Y1609  1  0.72142733  0.48856450  0.22296040  1.0
  Y  Y1610  1  0.72142733  0.82189783  0.22296040  1.0
  Y  Y1611  1  0.05476067  0.32189783  0.32296040  1.0
  Y  Y1612  1  0.05476067  0.65523117  0.32296040  1.0
  Y  Y1613  1  0.05476067  0.98856450  0.32296040  1.0
  Y  Y1614  1  0.38809400  0.32189783  0.32296040  1.0
  Y  Y1615  1  0.38809400  0.65523117  0.32296040  1.0
  Y  Y1616  1  0.38809400  0.98856450  0.32296040  1.0
  Y  Y1617  1  0.72142733  0.32189783  0.32296040  1.0
  Y  Y1618  1  0.72142733  0.65523117  0.32296040  1.0
  Y  Y1619  1  0.72142733  0.98856450  0.32296040  1.0
  Y  Y1620  1  0.27877433  0.09821900  0.25457910  1.0
  Y  Y1621  1  0.27877433  0.43155233  0.25457910  1.0
  Y  Y1622  1  0.27877433  0.76488567  0.25457910  1.0
  Y  Y1623  1  0.61210767  0.09821900  0.25457910  1.0
  Y  Y1624  1  0.61210767  0.43155233  0.25457910  1.0
  Y  Y1625  1  0.61210767  0.76488567  0.25457910  1.0
  Y  Y1626  1  0.94544100  0.09821900  0.25457910  1.0
  Y  Y1627  1  0.94544100  0.43155233  0.25457910  1.0
  Y  Y1628  1  0.94544100  0.76488567  0.25457910  1.0
  Y  Y1629  1  0.27877433  0.26488567  0.35457910  1.0
  Y  Y1630  1  0.27877433  0.59821900  0.35457910  1.0
  Y  Y1631  1  0.27877433  0.93155233  0.35457910  1.0
  Y  Y1632  1  0.61210767  0.26488567  0.35457910  1.0
  Y  Y1633  1  0.61210767  0.59821900  0.35457910  1.0
  Y  Y1634  1  0.61210767  0.93155233  0.35457910  1.0
  Y  Y1635  1  0.94544100  0.26488567  0.35457910  1.0
  Y  Y1636  1  0.94544100  0.59821900  0.35457910  1.0
  Y  Y1637  1  0.94544100  0.93155233  0.35457910  1.0
  Y  Y1638  1  0.28563467  0.13763283  0.34175020  1.0
  Y  Y1639  1  0.28563467  0.47096617  0.34175020  1.0
  Y  Y1640  1  0.28563467  0.80429950  0.34175020  1.0
  Y  Y1641  1  0.61896800  0.13763283  0.34175020  1.0
  Y  Y1642  1  0.61896800  0.47096617  0.34175020  1.0
  Y  Y1643  1  0.61896800  0.80429950  0.34175020  1.0
  Y  Y1644  1  0.95230133  0.13763283  0.34175020  1.0
  Y  Y1645  1  0.95230133  0.47096617  0.34175020  1.0
  Y  Y1646  1  0.95230133  0.80429950  0.34175020  1.0
  Y  Y1647  1  0.28563467  0.30429950  0.24175020  1.0
  Y  Y1648  1  0.28563467  0.63763283  0.24175020  1.0
  Y  Y1649  1  0.28563467  0.97096617  0.24175020  1.0
  Y  Y1650  1  0.61896800  0.30429950  0.24175020  1.0
  Y  Y1651  1  0.61896800  0.63763283  0.24175020  1.0
  Y  Y1652  1  0.61896800  0.97096617  0.24175020  1.0
  Y  Y1653  1  0.95230133  0.30429950  0.24175020  1.0
  Y  Y1654  1  0.95230133  0.63763283  0.24175020  1.0
  Y  Y1655  1  0.95230133  0.97096617  0.24175020  1.0
  Y  Y1656  1  0.17037133  0.05655233  0.29906650  1.0
  Y  Y1657  1  0.17037133  0.38988567  0.29906650  1.0
  Y  Y1658  1  0.17037133  0.72321900  0.29906650  1.0
  Y  Y1659  1  0.50370467  0.05655233  0.29906650  1.0
  Y  Y1660  1  0.50370467  0.38988567  0.29906650  1.0
  Y  Y1661  1  0.50370467  0.72321900  0.29906650  1.0
  Y  Y1662  1  0.83703800  0.05655233  0.29906650  1.0
  Y  Y1663  1  0.83703800  0.38988567  0.29906650  1.0
  Y  Y1664  1  0.83703800  0.72321900  0.29906650  1.0
  Y  Y1665  1  0.17037133  0.22321900  0.39906650  1.0
  Y  Y1666  1  0.17037133  0.55655233  0.39906650  1.0
  Y  Y1667  1  0.17037133  0.88988567  0.39906650  1.0
  Y  Y1668  1  0.50370467  0.22321900  0.39906650  1.0
  Y  Y1669  1  0.50370467  0.55655233  0.39906650  1.0
  Y  Y1670  1  0.50370467  0.88988567  0.39906650  1.0
  Y  Y1671  1  0.83703800  0.22321900  0.39906650  1.0
  Y  Y1672  1  0.83703800  0.55655233  0.39906650  1.0
  Y  Y1673  1  0.83703800  0.88988567  0.39906650  1.0
  Y  Y1674  1  0.28008133  0.11356450  0.39886560  1.0
  Y  Y1675  1  0.28008133  0.44689783  0.39886560  1.0
  Y  Y1676  1  0.28008133  0.78023117  0.39886560  1.0
  Y  Y1677  1  0.61341467  0.11356450  0.39886560  1.0
  Y  Y1678  1  0.61341467  0.44689783  0.39886560  1.0
  Y  Y1679  1  0.61341467  0.78023117  0.39886560  1.0
  Y  Y1680  1  0.94674800  0.11356450  0.39886560  1.0
  Y  Y1681  1  0.94674800  0.44689783  0.39886560  1.0
  Y  Y1682  1  0.94674800  0.78023117  0.39886560  1.0
  Y  Y1683  1  0.28008133  0.28023117  0.29886560  1.0
  Y  Y1684  1  0.28008133  0.61356450  0.29886560  1.0
  Y  Y1685  1  0.28008133  0.94689783  0.29886560  1.0
  Y  Y1686  1  0.61341467  0.28023117  0.29886560  1.0
  Y  Y1687  1  0.61341467  0.61356450  0.29886560  1.0
  Y  Y1688  1  0.61341467  0.94689783  0.29886560  1.0
  Y  Y1689  1  0.94674800  0.28023117  0.29886560  1.0
  Y  Y1690  1  0.94674800  0.61356450  0.29886560  1.0
  Y  Y1691  1  0.94674800  0.94689783  0.29886560  1.0
  Y  Y1692  1  0.00504567  0.05710283  0.27390660  1.0
  Y  Y1693  1  0.00504567  0.39043617  0.27390660  1.0
  Y  Y1694  1  0.00504567  0.72376950  0.27390660  1.0
  Y  Y1695  1  0.33837900  0.05710283  0.27390660  1.0
  Y  Y1696  1  0.33837900  0.39043617  0.27390660  1.0
  Y  Y1697  1  0.33837900  0.72376950  0.27390660  1.0
  Y  Y1698  1  0.67171233  0.05710283  0.27390660  1.0
  Y  Y1699  1  0.67171233  0.39043617  0.27390660  1.0
  Y  Y1700  1  0.67171233  0.72376950  0.27390660  1.0
  Y  Y1701  1  0.00504567  0.22376950  0.37390660  1.0
  Y  Y1702  1  0.00504567  0.55710283  0.37390660  1.0
  Y  Y1703  1  0.00504567  0.89043617  0.37390660  1.0
  Y  Y1704  1  0.33837900  0.22376950  0.37390660  1.0
  Y  Y1705  1  0.33837900  0.55710283  0.37390660  1.0
  Y  Y1706  1  0.33837900  0.89043617  0.37390660  1.0
  Y  Y1707  1  0.67171233  0.22376950  0.37390660  1.0
  Y  Y1708  1  0.67171233  0.55710283  0.37390660  1.0
  Y  Y1709  1  0.67171233  0.89043617  0.37390660  1.0
  Y  Y1710  1  0.31313000  0.03925833  0.35982630  1.0
  Y  Y1711  1  0.31313000  0.37259167  0.35982630  1.0
  Y  Y1712  1  0.31313000  0.70592500  0.35982630  1.0
  Y  Y1713  1  0.64646333  0.03925833  0.35982630  1.0
  Y  Y1714  1  0.64646333  0.37259167  0.35982630  1.0
  Y  Y1715  1  0.64646333  0.70592500  0.35982630  1.0
  Y  Y1716  1  0.97979667  0.03925833  0.35982630  1.0
  Y  Y1717  1  0.97979667  0.37259167  0.35982630  1.0
  Y  Y1718  1  0.97979667  0.70592500  0.35982630  1.0
  Y  Y1719  1  0.31313000  0.20592500  0.25982630  1.0
  Y  Y1720  1  0.31313000  0.53925833  0.25982630  1.0
  Y  Y1721  1  0.31313000  0.87259167  0.25982630  1.0
  Y  Y1722  1  0.64646333  0.20592500  0.25982630  1.0
  Y  Y1723  1  0.64646333  0.53925833  0.25982630  1.0
  Y  Y1724  1  0.64646333  0.87259167  0.25982630  1.0
  Y  Y1725  1  0.97979667  0.20592500  0.25982630  1.0
  Y  Y1726  1  0.97979667  0.53925833  0.25982630  1.0
  Y  Y1727  1  0.97979667  0.87259167  0.25982630  1.0
  Y  Y1728  1  0.16296200  0.13988567  0.21453730  1.0
  Y  Y1729  1  0.16296200  0.47321900  0.21453730  1.0
  Y  Y1730  1  0.16296200  0.80655233  0.21453730  1.0
  Y  Y1731  1  0.49629533  0.13988567  0.21453730  1.0
  Y  Y1732  1  0.49629533  0.47321900  0.21453730  1.0
  Y  Y1733  1  0.49629533  0.80655233  0.21453730  1.0
  Y  Y1734  1  0.82962867  0.13988567  0.21453730  1.0
  Y  Y1735  1  0.82962867  0.47321900  0.21453730  1.0
  Y  Y1736  1  0.82962867  0.80655233  0.21453730  1.0
  Y  Y1737  1  0.16296200  0.30655233  0.31453730  1.0
  Y  Y1738  1  0.16296200  0.63988567  0.31453730  1.0
  Y  Y1739  1  0.16296200  0.97321900  0.31453730  1.0
  Y  Y1740  1  0.49629533  0.30655233  0.31453730  1.0
  Y  Y1741  1  0.49629533  0.63988567  0.31453730  1.0
  Y  Y1742  1  0.49629533  0.97321900  0.31453730  1.0
  Y  Y1743  1  0.82962867  0.30655233  0.31453730  1.0
  Y  Y1744  1  0.82962867  0.63988567  0.31453730  1.0
  Y  Y1745  1  0.82962867  0.97321900  0.31453730  1.0
  Y  Y1746  1  0.23116667  0.11236717  0.29391000  1.0
  Y  Y1747  1  0.23116667  0.44570050  0.29391000  1.0
  Y  Y1748  1  0.23116667  0.77903383  0.29391000  1.0
  Y  Y1749  1  0.56450000  0.11236717  0.29391000  1.0
  Y  Y1750  1  0.56450000  0.44570050  0.29391000  1.0
  Y  Y1751  1  0.56450000  0.77903383  0.29391000  1.0
  Y  Y1752  1  0.89783333  0.11236717  0.29391000  1.0
  Y  Y1753  1  0.89783333  0.44570050  0.29391000  1.0
  Y  Y1754  1  0.89783333  0.77903383  0.29391000  1.0
  Y  Y1755  1  0.23116667  0.27903383  0.39391000  1.0
  Y  Y1756  1  0.23116667  0.61236717  0.39391000  1.0
  Y  Y1757  1  0.23116667  0.94570050  0.39391000  1.0
  Y  Y1758  1  0.56450000  0.27903383  0.39391000  1.0
  Y  Y1759  1  0.56450000  0.61236717  0.39391000  1.0
  Y  Y1760  1  0.56450000  0.94570050  0.39391000  1.0
  Y  Y1761  1  0.89783333  0.27903383  0.39391000  1.0
  Y  Y1762  1  0.89783333  0.61236717  0.39391000  1.0
  Y  Y1763  1  0.89783333  0.94570050  0.39391000  1.0
  Y  Y1764  1  0.21991867  0.01143550  0.23758820  1.0
  Y  Y1765  1  0.21991867  0.34476883  0.23758820  1.0
  Y  Y1766  1  0.21991867  0.67810217  0.23758820  1.0
  Y  Y1767  1  0.55325200  0.01143550  0.23758820  1.0
  Y  Y1768  1  0.55325200  0.34476883  0.23758820  1.0
  Y  Y1769  1  0.55325200  0.67810217  0.23758820  1.0
  Y  Y1770  1  0.88658533  0.01143550  0.23758820  1.0
  Y  Y1771  1  0.88658533  0.34476883  0.23758820  1.0
  Y  Y1772  1  0.88658533  0.67810217  0.23758820  1.0
  Y  Y1773  1  0.21991867  0.17810217  0.33758820  1.0
  Y  Y1774  1  0.21991867  0.51143550  0.33758820  1.0
  Y  Y1775  1  0.21991867  0.84476883  0.33758820  1.0
  Y  Y1776  1  0.55325200  0.17810217  0.33758820  1.0
  Y  Y1777  1  0.55325200  0.51143550  0.33758820  1.0
  Y  Y1778  1  0.55325200  0.84476883  0.33758820  1.0
  Y  Y1779  1  0.88658533  0.17810217  0.33758820  1.0
  Y  Y1780  1  0.88658533  0.51143550  0.33758820  1.0
  Y  Y1781  1  0.88658533  0.84476883  0.33758820  1.0
  Y  Y1782  1  0.17824933  0.12500000  0.36592090  1.0
  Y  Y1783  1  0.17824933  0.45833333  0.36592090  1.0
  Y  Y1784  1  0.17824933  0.79166667  0.36592090  1.0
  Y  Y1785  1  0.51158267  0.12500000  0.36592090  1.0
  Y  Y1786  1  0.51158267  0.45833333  0.36592090  1.0
  Y  Y1787  1  0.51158267  0.79166667  0.36592090  1.0
  Y  Y1788  1  0.84491600  0.12500000  0.36592090  1.0
  Y  Y1789  1  0.84491600  0.45833333  0.36592090  1.0
  Y  Y1790  1  0.84491600  0.79166667  0.36592090  1.0
  Y  Y1791  1  0.17824933  0.29166667  0.26592090  1.0
  Y  Y1792  1  0.17824933  0.62500000  0.26592090  1.0
  Y  Y1793  1  0.17824933  0.95833333  0.26592090  1.0
  Y  Y1794  1  0.51158267  0.29166667  0.26592090  1.0
  Y  Y1795  1  0.51158267  0.62500000  0.26592090  1.0
  Y  Y1796  1  0.51158267  0.95833333  0.26592090  1.0
  Y  Y1797  1  0.84491600  0.29166667  0.26592090  1.0
  Y  Y1798  1  0.84491600  0.62500000  0.26592090  1.0
  Y  Y1799  1  0.84491600  0.95833333  0.26592090  1.0
  Y  Y1800  1  0.21436533  0.15403383  0.25159080  1.0
  Y  Y1801  1  0.21436533  0.48736717  0.25159080  1.0
  Y  Y1802  1  0.21436533  0.82070050  0.25159080  1.0
  Y  Y1803  1  0.54769867  0.15403383  0.25159080  1.0
  Y  Y1804  1  0.54769867  0.48736717  0.25159080  1.0
  Y  Y1805  1  0.54769867  0.82070050  0.25159080  1.0
  Y  Y1806  1  0.88103200  0.15403383  0.25159080  1.0
  Y  Y1807  1  0.88103200  0.48736717  0.25159080  1.0
  Y  Y1808  1  0.88103200  0.82070050  0.25159080  1.0
  Y  Y1809  1  0.21436533  0.32070050  0.35159080  1.0
  Y  Y1810  1  0.21436533  0.65403383  0.35159080  1.0
  Y  Y1811  1  0.21436533  0.98736717  0.35159080  1.0
  Y  Y1812  1  0.54769867  0.32070050  0.35159080  1.0
  Y  Y1813  1  0.54769867  0.65403383  0.35159080  1.0
  Y  Y1814  1  0.54769867  0.98736717  0.35159080  1.0
  Y  Y1815  1  0.88103200  0.32070050  0.35159080  1.0
  Y  Y1816  1  0.88103200  0.65403383  0.35159080  1.0
  Y  Y1817  1  0.88103200  0.98736717  0.35159080  1.0
  Y  Y1818  1  0.09704267  0.01543617  0.31015960  1.0
  Y  Y1819  1  0.09704267  0.34876950  0.31015960  1.0
  Y  Y1820  1  0.09704267  0.68210283  0.31015960  1.0
  Y  Y1821  1  0.43037600  0.01543617  0.31015960  1.0
  Y  Y1822  1  0.43037600  0.34876950  0.31015960  1.0
  Y  Y1823  1  0.43037600  0.68210283  0.31015960  1.0
  Y  Y1824  1  0.76370933  0.01543617  0.31015960  1.0
  Y  Y1825  1  0.76370933  0.34876950  0.31015960  1.0
  Y  Y1826  1  0.76370933  0.68210283  0.31015960  1.0
  Y  Y1827  1  0.09704267  0.18210283  0.21015960  1.0
  Y  Y1828  1  0.09704267  0.51543617  0.21015960  1.0
  Y  Y1829  1  0.09704267  0.84876950  0.21015960  1.0
  Y  Y1830  1  0.43037600  0.18210283  0.21015960  1.0
  Y  Y1831  1  0.43037600  0.51543617  0.21015960  1.0
  Y  Y1832  1  0.43037600  0.84876950  0.21015960  1.0
  Y  Y1833  1  0.76370933  0.18210283  0.21015960  1.0
  Y  Y1834  1  0.76370933  0.51543617  0.21015960  1.0
  Y  Y1835  1  0.76370933  0.84876950  0.21015960  1.0
  Y  Y1836  1  0.00370467  0.15178100  0.32167450  1.0
  Y  Y1837  1  0.00370467  0.48511433  0.32167450  1.0
  Y  Y1838  1  0.00370467  0.81844767  0.32167450  1.0
  Y  Y1839  1  0.33703800  0.15178100  0.32167450  1.0
  Y  Y1840  1  0.33703800  0.48511433  0.32167450  1.0
  Y  Y1841  1  0.33703800  0.81844767  0.32167450  1.0
  Y  Y1842  1  0.67037133  0.15178100  0.32167450  1.0
  Y  Y1843  1  0.67037133  0.48511433  0.32167450  1.0
  Y  Y1844  1  0.67037133  0.81844767  0.32167450  1.0
  Y  Y1845  1  0.00370467  0.31844767  0.22167450  1.0
  Y  Y1846  1  0.00370467  0.65178100  0.22167450  1.0
  Y  Y1847  1  0.00370467  0.98511433  0.22167450  1.0
  Y  Y1848  1  0.33703800  0.31844767  0.22167450  1.0
  Y  Y1849  1  0.33703800  0.65178100  0.22167450  1.0
  Y  Y1850  1  0.33703800  0.98511433  0.22167450  1.0
  Y  Y1851  1  0.67037133  0.31844767  0.22167450  1.0
  Y  Y1852  1  0.67037133  0.65178100  0.22167450  1.0
  Y  Y1853  1  0.67037133  0.98511433  0.22167450  1.0
  Y  Y1854  1  0.14646333  0.00240833  0.36091470  1.0
  Y  Y1855  1  0.14646333  0.33574167  0.36091470  1.0
  Y  Y1856  1  0.14646333  0.66907500  0.36091470  1.0
  Y  Y1857  1  0.47979667  0.00240833  0.36091470  1.0
  Y  Y1858  1  0.47979667  0.33574167  0.36091470  1.0
  Y  Y1859  1  0.47979667  0.66907500  0.36091470  1.0
  Y  Y1860  1  0.81313000  0.00240833  0.36091470  1.0
  Y  Y1861  1  0.81313000  0.33574167  0.36091470  1.0
  Y  Y1862  1  0.81313000  0.66907500  0.36091470  1.0
  Y  Y1863  1  0.14646333  0.16907500  0.26091470  1.0
  Y  Y1864  1  0.14646333  0.50240833  0.26091470  1.0
  Y  Y1865  1  0.14646333  0.83574167  0.26091470  1.0
  Y  Y1866  1  0.47979667  0.16907500  0.26091470  1.0
  Y  Y1867  1  0.47979667  0.50240833  0.26091470  1.0
  Y  Y1868  1  0.47979667  0.83574167  0.26091470  1.0
  Y  Y1869  1  0.81313000  0.16907500  0.26091470  1.0
  Y  Y1870  1  0.81313000  0.50240833  0.26091470  1.0
  Y  Y1871  1  0.81313000  0.83574167  0.26091470  1.0
  Y  Y1872  1  0.32175067  0.00000000  0.39092090  1.0
  Y  Y1873  1  0.32175067  0.33333333  0.39092090  1.0
  Y  Y1874  1  0.32175067  0.66666667  0.39092090  1.0
  Y  Y1875  1  0.65508400  0.00000000  0.39092090  1.0
  Y  Y1876  1  0.65508400  0.33333333  0.39092090  1.0
  Y  Y1877  1  0.65508400  0.66666667  0.39092090  1.0
  Y  Y1878  1  0.98841733  0.00000000  0.39092090  1.0
  Y  Y1879  1  0.98841733  0.33333333  0.39092090  1.0
  Y  Y1880  1  0.98841733  0.66666667  0.39092090  1.0
  Y  Y1881  1  0.32175067  0.16666667  0.29092090  1.0
  Y  Y1882  1  0.32175067  0.50000000  0.29092090  1.0
  Y  Y1883  1  0.32175067  0.83333333  0.29092090  1.0
  Y  Y1884  1  0.65508400  0.16666667  0.29092090  1.0
  Y  Y1885  1  0.65508400  0.50000000  0.29092090  1.0
  Y  Y1886  1  0.65508400  0.83333333  0.29092090  1.0
  Y  Y1887  1  0.98841733  0.16666667  0.29092090  1.0
  Y  Y1888  1  0.98841733  0.50000000  0.29092090  1.0
  Y  Y1889  1  0.98841733  0.83333333  0.29092090  1.0
  Y  Y1890  1  0.06962400  0.10956383  0.26663620  1.0
  Y  Y1891  1  0.06962400  0.44289717  0.26663620  1.0
  Y  Y1892  1  0.06962400  0.77623050  0.26663620  1.0
  Y  Y1893  1  0.40295733  0.10956383  0.26663620  1.0
  Y  Y1894  1  0.40295733  0.44289717  0.26663620  1.0
  Y  Y1895  1  0.40295733  0.77623050  0.26663620  1.0
  Y  Y1896  1  0.73629067  0.10956383  0.26663620  1.0
  Y  Y1897  1  0.73629067  0.44289717  0.26663620  1.0
  Y  Y1898  1  0.73629067  0.77623050  0.26663620  1.0
  Y  Y1899  1  0.06962400  0.27623050  0.36663620  1.0
  Y  Y1900  1  0.06962400  0.60956383  0.36663620  1.0
  Y  Y1901  1  0.06962400  0.94289717  0.36663620  1.0
  Y  Y1902  1  0.40295733  0.27623050  0.36663620  1.0
  Y  Y1903  1  0.40295733  0.60956383  0.36663620  1.0
  Y  Y1904  1  0.40295733  0.94289717  0.36663620  1.0
  Y  Y1905  1  0.73629067  0.27623050  0.36663620  1.0
  Y  Y1906  1  0.73629067  0.60956383  0.36663620  1.0
  Y  Y1907  1  0.73629067  0.94289717  0.36663620  1.0
  Y  Y1908  1  0.06450000  0.09596617  0.32683100  1.0
  Y  Y1909  1  0.06450000  0.42929950  0.32683100  1.0
  Y  Y1910  1  0.06450000  0.76263283  0.32683100  1.0
  Y  Y1911  1  0.39783333  0.09596617  0.32683100  1.0
  Y  Y1912  1  0.39783333  0.42929950  0.32683100  1.0
  Y  Y1913  1  0.39783333  0.76263283  0.32683100  1.0
  Y  Y1914  1  0.73116667  0.09596617  0.32683100  1.0
  Y  Y1915  1  0.73116667  0.42929950  0.32683100  1.0
  Y  Y1916  1  0.73116667  0.76263283  0.32683100  1.0
  Y  Y1917  1  0.06450000  0.26263283  0.22683100  1.0
  Y  Y1918  1  0.06450000  0.59596617  0.22683100  1.0
  Y  Y1919  1  0.06450000  0.92929950  0.22683100  1.0
  Y  Y1920  1  0.39783333  0.26263283  0.22683100  1.0
  Y  Y1921  1  0.39783333  0.59596617  0.22683100  1.0
  Y  Y1922  1  0.39783333  0.92929950  0.22683100  1.0
  Y  Y1923  1  0.73116667  0.26263283  0.22683100  1.0
  Y  Y1924  1  0.73116667  0.59596617  0.22683100  1.0
  Y  Y1925  1  0.73116667  0.92929950  0.22683100  1.0
  Y  Y1926  1  0.11190600  0.13643550  0.31168300  1.0
  Y  Y1927  1  0.11190600  0.46976883  0.31168300  1.0
  Y  Y1928  1  0.11190600  0.80310217  0.31168300  1.0
  Y  Y1929  1  0.44523933  0.13643550  0.31168300  1.0
  Y  Y1930  1  0.44523933  0.46976883  0.31168300  1.0
  Y  Y1931  1  0.44523933  0.80310217  0.31168300  1.0
  Y  Y1932  1  0.77857267  0.13643550  0.31168300  1.0
  Y  Y1933  1  0.77857267  0.46976883  0.31168300  1.0
  Y  Y1934  1  0.77857267  0.80310217  0.31168300  1.0
  Y  Y1935  1  0.11190600  0.30310217  0.21168300  1.0
  Y  Y1936  1  0.11190600  0.63643550  0.21168300  1.0
  Y  Y1937  1  0.11190600  0.96976883  0.21168300  1.0
  Y  Y1938  1  0.44523933  0.30310217  0.21168300  1.0
  Y  Y1939  1  0.44523933  0.63643550  0.21168300  1.0
  Y  Y1940  1  0.44523933  0.96976883  0.21168300  1.0
  Y  Y1941  1  0.77857267  0.30310217  0.21168300  1.0
  Y  Y1942  1  0.77857267  0.63643550  0.21168300  1.0
  Y  Y1943  1  0.77857267  0.96976883  0.21168300  1.0
  Y  Y1944  1  0.10611933  0.00000000  0.26154210  1.0
  Y  Y1945  1  0.10611933  0.33333333  0.26154210  1.0
  Y  Y1946  1  0.10611933  0.66666667  0.26154210  1.0
  Y  Y1947  1  0.43945267  0.00000000  0.26154210  1.0
  Y  Y1948  1  0.43945267  0.33333333  0.26154210  1.0
  Y  Y1949  1  0.43945267  0.66666667  0.26154210  1.0
  Y  Y1950  1  0.77278600  0.00000000  0.26154210  1.0
  Y  Y1951  1  0.77278600  0.33333333  0.26154210  1.0
  Y  Y1952  1  0.77278600  0.66666667  0.26154210  1.0
  Y  Y1953  1  0.10611933  0.16666667  0.36154210  1.0
  Y  Y1954  1  0.10611933  0.50000000  0.36154210  1.0
  Y  Y1955  1  0.10611933  0.83333333  0.36154210  1.0
  Y  Y1956  1  0.43945267  0.16666667  0.36154210  1.0
  Y  Y1957  1  0.43945267  0.50000000  0.36154210  1.0
  Y  Y1958  1  0.43945267  0.83333333  0.36154210  1.0
  Y  Y1959  1  0.77278600  0.16666667  0.36154210  1.0
  Y  Y1960  1  0.77278600  0.50000000  0.36154210  1.0
  Y  Y1961  1  0.77278600  0.83333333  0.36154210  1.0
  Y  Y1962  1  0.10266533  0.04407500  0.23643750  1.0
  Y  Y1963  1  0.10266533  0.37740833  0.23643750  1.0
  Y  Y1964  1  0.10266533  0.71074167  0.23643750  1.0
  Y  Y1965  1  0.43599867  0.04407500  0.23643750  1.0
  Y  Y1966  1  0.43599867  0.37740833  0.23643750  1.0
  Y  Y1967  1  0.43599867  0.71074167  0.23643750  1.0
  Y  Y1968  1  0.76933200  0.04407500  0.23643750  1.0
  Y  Y1969  1  0.76933200  0.37740833  0.23643750  1.0
  Y  Y1970  1  0.76933200  0.71074167  0.23643750  1.0
  Y  Y1971  1  0.10266533  0.21074167  0.33643750  1.0
  Y  Y1972  1  0.10266533  0.54407500  0.33643750  1.0
  Y  Y1973  1  0.10266533  0.87740833  0.33643750  1.0
  Y  Y1974  1  0.43599867  0.21074167  0.33643750  1.0
  Y  Y1975  1  0.43599867  0.54407500  0.33643750  1.0
  Y  Y1976  1  0.43599867  0.87740833  0.33643750  1.0
  Y  Y1977  1  0.76933200  0.21074167  0.33643750  1.0
  Y  Y1978  1  0.76933200  0.54407500  0.33643750  1.0
  Y  Y1979  1  0.76933200  0.87740833  0.33643750  1.0
  Y  Y1980  1  0.27857267  0.07189783  0.30905800  1.0
  Y  Y1981  1  0.27857267  0.40523117  0.30905800  1.0
  Y  Y1982  1  0.27857267  0.73856450  0.30905800  1.0
  Y  Y1983  1  0.61190600  0.07189783  0.30905800  1.0
  Y  Y1984  1  0.61190600  0.40523117  0.30905800  1.0
  Y  Y1985  1  0.61190600  0.73856450  0.30905800  1.0
  Y  Y1986  1  0.94523933  0.07189783  0.30905800  1.0
  Y  Y1987  1  0.94523933  0.40523117  0.30905800  1.0
  Y  Y1988  1  0.94523933  0.73856450  0.30905800  1.0
  Y  Y1989  1  0.27857267  0.23856450  0.20905800  1.0
  Y  Y1990  1  0.27857267  0.57189783  0.20905800  1.0
  Y  Y1991  1  0.27857267  0.90523117  0.20905800  1.0
  Y  Y1992  1  0.61190600  0.23856450  0.20905800  1.0
  Y  Y1993  1  0.61190600  0.57189783  0.20905800  1.0
  Y  Y1994  1  0.61190600  0.90523117  0.20905800  1.0
  Y  Y1995  1  0.94523933  0.23856450  0.20905800  1.0
  Y  Y1996  1  0.94523933  0.57189783  0.20905800  1.0
  Y  Y1997  1  0.94523933  0.90523117  0.20905800  1.0
  Y  Y1998  1  0.27278600  0.04166667  0.25919890  1.0
  Y  Y1999  1  0.27278600  0.37500000  0.25919890  1.0
  Y  Y2000  1  0.27278600  0.70833333  0.25919890  1.0
  Y  Y2001  1  0.60611933  0.04166667  0.25919890  1.0
  Y  Y2002  1  0.60611933  0.37500000  0.25919890  1.0
  Y  Y2003  1  0.60611933  0.70833333  0.25919890  1.0
  Y  Y2004  1  0.93945267  0.04166667  0.25919890  1.0
  Y  Y2005  1  0.93945267  0.37500000  0.25919890  1.0
  Y  Y2006  1  0.93945267  0.70833333  0.25919890  1.0
  Y  Y2007  1  0.27278600  0.20833333  0.35919890  1.0
  Y  Y2008  1  0.27278600  0.54166667  0.35919890  1.0
  Y  Y2009  1  0.27278600  0.87500000  0.35919890  1.0
  Y  Y2010  1  0.60611933  0.20833333  0.35919890  1.0
  Y  Y2011  1  0.60611933  0.54166667  0.35919890  1.0
  Y  Y2012  1  0.60611933  0.87500000  0.35919890  1.0
  Y  Y2013  1  0.93945267  0.20833333  0.35919890  1.0
  Y  Y2014  1  0.93945267  0.54166667  0.35919890  1.0
  Y  Y2015  1  0.93945267  0.87500000  0.35919890  1.0
  Y  Y2016  1  0.01158267  0.08333333  0.25482010  1.0
  Y  Y2017  1  0.01158267  0.41666667  0.25482010  1.0
  Y  Y2018  1  0.01158267  0.75000000  0.25482010  1.0
  Y  Y2019  1  0.34491600  0.08333333  0.25482010  1.0
  Y  Y2020  1  0.34491600  0.41666667  0.25482010  1.0
  Y  Y2021  1  0.34491600  0.75000000  0.25482010  1.0
  Y  Y2022  1  0.67824933  0.08333333  0.25482010  1.0
  Y  Y2023  1  0.67824933  0.41666667  0.25482010  1.0
  Y  Y2024  1  0.67824933  0.75000000  0.25482010  1.0
  Y  Y2025  1  0.01158267  0.25000000  0.35482010  1.0
  Y  Y2026  1  0.01158267  0.58333333  0.35482010  1.0
  Y  Y2027  1  0.01158267  0.91666667  0.35482010  1.0
  Y  Y2028  1  0.34491600  0.25000000  0.35482010  1.0
  Y  Y2029  1  0.34491600  0.58333333  0.35482010  1.0
  Y  Y2030  1  0.34491600  0.91666667  0.35482010  1.0
  Y  Y2031  1  0.67824933  0.25000000  0.35482010  1.0
  Y  Y2032  1  0.67824933  0.58333333  0.35482010  1.0
  Y  Y2033  1  0.67824933  0.91666667  0.35482010  1.0
  Y  Y2034  1  0.02020333  0.12259167  0.33302470  1.0
  Y  Y2035  1  0.02020333  0.45592500  0.33302470  1.0
  Y  Y2036  1  0.02020333  0.78925833  0.33302470  1.0
  Y  Y2037  1  0.35353667  0.12259167  0.33302470  1.0
  Y  Y2038  1  0.35353667  0.45592500  0.33302470  1.0
  Y  Y2039  1  0.35353667  0.78925833  0.33302470  1.0
  Y  Y2040  1  0.68687000  0.12259167  0.33302470  1.0
  Y  Y2041  1  0.68687000  0.45592500  0.33302470  1.0
  Y  Y2042  1  0.68687000  0.78925833  0.33302470  1.0
  Y  Y2043  1  0.02020333  0.28925833  0.23302470  1.0
  Y  Y2044  1  0.02020333  0.62259167  0.23302470  1.0
  Y  Y2045  1  0.02020333  0.95592500  0.23302470  1.0
  Y  Y2046  1  0.35353667  0.28925833  0.23302470  1.0
  Y  Y2047  1  0.35353667  0.62259167  0.23302470  1.0
  Y  Y2048  1  0.35353667  0.95592500  0.23302470  1.0
  Y  Y2049  1  0.68687000  0.28925833  0.23302470  1.0
  Y  Y2050  1  0.68687000  0.62259167  0.23302470  1.0
  Y  Y2051  1  0.68687000  0.95592500  0.23302470  1.0
  Y  Y2052  1  0.04769867  0.05429950  0.36915020  1.0
  Y  Y2053  1  0.04769867  0.38763283  0.36915020  1.0
  Y  Y2054  1  0.04769867  0.72096617  0.36915020  1.0
  Y  Y2055  1  0.38103200  0.05429950  0.36915020  1.0
  Y  Y2056  1  0.38103200  0.38763283  0.36915020  1.0
  Y  Y2057  1  0.38103200  0.72096617  0.36915020  1.0
  Y  Y2058  1  0.71436533  0.05429950  0.36915020  1.0
  Y  Y2059  1  0.71436533  0.38763283  0.36915020  1.0
  Y  Y2060  1  0.71436533  0.72096617  0.36915020  1.0
  Y  Y2061  1  0.04769867  0.22096617  0.26915020  1.0
  Y  Y2062  1  0.04769867  0.55429950  0.26915020  1.0
  Y  Y2063  1  0.04769867  0.88763283  0.26915020  1.0
  Y  Y2064  1  0.38103200  0.22096617  0.26915020  1.0
  Y  Y2065  1  0.38103200  0.55429950  0.26915020  1.0
  Y  Y2066  1  0.38103200  0.88763283  0.26915020  1.0
  Y  Y2067  1  0.71436533  0.22096617  0.26915020  1.0
  Y  Y2068  1  0.71436533  0.55429950  0.26915020  1.0
  Y  Y2069  1  0.71436533  0.88763283  0.26915020  1.0
  Y  Y2070  1  0.05325200  0.03023117  0.28315280  1.0
  Y  Y2071  1  0.05325200  0.36356450  0.28315280  1.0
  Y  Y2072  1  0.05325200  0.69689783  0.28315280  1.0
  Y  Y2073  1  0.38658533  0.03023117  0.28315280  1.0
  Y  Y2074  1  0.38658533  0.36356450  0.28315280  1.0
  Y  Y2075  1  0.38658533  0.69689783  0.28315280  1.0
  Y  Y2076  1  0.71991867  0.03023117  0.28315280  1.0
  Y  Y2077  1  0.71991867  0.36356450  0.28315280  1.0
  Y  Y2078  1  0.71991867  0.69689783  0.28315280  1.0
  Y  Y2079  1  0.05325200  0.19689783  0.38315280  1.0
  Y  Y2080  1  0.05325200  0.53023117  0.38315280  1.0
  Y  Y2081  1  0.05325200  0.86356450  0.38315280  1.0
  Y  Y2082  1  0.38658533  0.19689783  0.38315280  1.0
  Y  Y2083  1  0.38658533  0.53023117  0.38315280  1.0
  Y  Y2084  1  0.38658533  0.86356450  0.38315280  1.0
  Y  Y2085  1  0.71991867  0.19689783  0.38315280  1.0
  Y  Y2086  1  0.71991867  0.53023117  0.38315280  1.0
  Y  Y2087  1  0.71991867  0.86356450  0.38315280  1.0
  Y  Y2088  1  0.26933200  0.16425833  0.38430350  1.0
  Y  Y2089  1  0.26933200  0.49759167  0.38430350  1.0
  Y  Y2090  1  0.26933200  0.83092500  0.38430350  1.0
  Y  Y2091  1  0.60266533  0.16425833  0.38430350  1.0
  Y  Y2092  1  0.60266533  0.49759167  0.38430350  1.0
  Y  Y2093  1  0.60266533  0.83092500  0.38430350  1.0
  Y  Y2094  1  0.93599867  0.16425833  0.38430350  1.0
  Y  Y2095  1  0.93599867  0.49759167  0.38430350  1.0
  Y  Y2096  1  0.93599867  0.83092500  0.38430350  1.0
  Y  Y2097  1  0.26933200  0.33092500  0.28430350  1.0
  Y  Y2098  1  0.26933200  0.66425833  0.28430350  1.0
  Y  Y2099  1  0.26933200  0.99759167  0.28430350  1.0
  Y  Y2100  1  0.60266533  0.33092500  0.28430350  1.0
  Y  Y2101  1  0.60266533  0.66425833  0.28430350  1.0
  Y  Y2102  1  0.60266533  0.99759167  0.28430350  1.0
  Y  Y2103  1  0.93599867  0.33092500  0.28430350  1.0
  Y  Y2104  1  0.93599867  0.66425833  0.28430350  1.0
  Y  Y2105  1  0.93599867  0.99759167  0.28430350  1.0
  Y  Y2106  1  0.23629067  0.09876950  0.35410480  1.0
  Y  Y2107  1  0.23629067  0.43210283  0.35410480  1.0
  Y  Y2108  1  0.23629067  0.76543617  0.35410480  1.0
  Y  Y2109  1  0.56962400  0.09876950  0.35410480  1.0
  Y  Y2110  1  0.56962400  0.43210283  0.35410480  1.0
  Y  Y2111  1  0.56962400  0.76543617  0.35410480  1.0
  Y  Y2112  1  0.90295733  0.09876950  0.35410480  1.0
  Y  Y2113  1  0.90295733  0.43210283  0.35410480  1.0
  Y  Y2114  1  0.90295733  0.76543617  0.35410480  1.0
  Y  Y2115  1  0.23629067  0.26543617  0.25410480  1.0
  Y  Y2116  1  0.23629067  0.59876950  0.25410480  1.0
  Y  Y2117  1  0.23629067  0.93210283  0.25410480  1.0
  Y  Y2118  1  0.56962400  0.26543617  0.25410480  1.0
  Y  Y2119  1  0.56962400  0.59876950  0.25410480  1.0
  Y  Y2120  1  0.56962400  0.93210283  0.25410480  1.0
  Y  Y2121  1  0.90295733  0.26543617  0.25410480  1.0
  Y  Y2122  1  0.90295733  0.59876950  0.25410480  1.0
  Y  Y2123  1  0.90295733  0.93210283  0.25410480  1.0
  Y  Y2124  1  0.06400133  0.08092500  0.35854750  1.0
  Y  Y2125  1  0.06400133  0.41425833  0.35854750  1.0
  Y  Y2126  1  0.06400133  0.74759167  0.35854750  1.0
  Y  Y2127  1  0.39733467  0.08092500  0.35854750  1.0
  Y  Y2128  1  0.39733467  0.41425833  0.35854750  1.0
  Y  Y2129  1  0.39733467  0.74759167  0.35854750  1.0
  Y  Y2130  1  0.73066800  0.08092500  0.35854750  1.0
  Y  Y2131  1  0.73066800  0.41425833  0.35854750  1.0
  Y  Y2132  1  0.73066800  0.74759167  0.35854750  1.0
  Y  Y2133  1  0.06400133  0.24759167  0.25854750  1.0
  Y  Y2134  1  0.06400133  0.58092500  0.25854750  1.0
  Y  Y2135  1  0.06400133  0.91425833  0.25854750  1.0
  Y  Y2136  1  0.39733467  0.24759167  0.25854750  1.0
  Y  Y2137  1  0.39733467  0.58092500  0.25854750  1.0
  Y  Y2138  1  0.39733467  0.91425833  0.25854750  1.0
  Y  Y2139  1  0.73066800  0.24759167  0.25854750  1.0
  Y  Y2140  1  0.73066800  0.58092500  0.25854750  1.0
  Y  Y2141  1  0.73066800  0.91425833  0.25854750  1.0
  Y  Y2142  1  0.18687000  0.08574167  0.28771630  1.0
  Y  Y2143  1  0.18687000  0.41907500  0.28771630  1.0
  Y  Y2144  1  0.18687000  0.75240833  0.28771630  1.0
  Y  Y2145  1  0.52020333  0.08574167  0.28771630  1.0
  Y  Y2146  1  0.52020333  0.41907500  0.28771630  1.0
  Y  Y2147  1  0.52020333  0.75240833  0.28771630  1.0
  Y  Y2148  1  0.85353667  0.08574167  0.28771630  1.0
  Y  Y2149  1  0.85353667  0.41907500  0.28771630  1.0
  Y  Y2150  1  0.85353667  0.75240833  0.28771630  1.0
  Y  Y2151  1  0.18687000  0.25240833  0.38771630  1.0
  Y  Y2152  1  0.18687000  0.58574167  0.38771630  1.0
  Y  Y2153  1  0.18687000  0.91907500  0.38771630  1.0
  Y  Y2154  1  0.52020333  0.25240833  0.38771630  1.0
  Y  Y2155  1  0.52020333  0.58574167  0.38771630  1.0
  Y  Y2156  1  0.52020333  0.91907500  0.38771630  1.0
  Y  Y2157  1  0.85353667  0.25240833  0.38771630  1.0
  Y  Y2158  1  0.85353667  0.58574167  0.38771630  1.0
  Y  Y2159  1  0.85353667  0.91907500  0.38771630  1.0
  Y  Y2160  1  0.26883333  0.01263283  0.33406940  1.0
  Y  Y2161  1  0.26883333  0.34596617  0.33406940  1.0
  Y  Y2162  1  0.26883333  0.67929950  0.33406940  1.0
  Y  Y2163  1  0.60216667  0.01263283  0.33406940  1.0
  Y  Y2164  1  0.60216667  0.34596617  0.33406940  1.0
  Y  Y2165  1  0.60216667  0.67929950  0.33406940  1.0
  Y  Y2166  1  0.93550000  0.01263283  0.33406940  1.0
  Y  Y2167  1  0.93550000  0.34596617  0.33406940  1.0
  Y  Y2168  1  0.93550000  0.67929950  0.33406940  1.0
  Y  Y2169  1  0.26883333  0.17929950  0.23406940  1.0
  Y  Y2170  1  0.26883333  0.51263283  0.23406940  1.0
  Y  Y2171  1  0.26883333  0.84596617  0.23406940  1.0
  Y  Y2172  1  0.60216667  0.17929950  0.23406940  1.0
  Y  Y2173  1  0.60216667  0.51263283  0.23406940  1.0
  Y  Y2174  1  0.60216667  0.84596617  0.23406940  1.0
  Y  Y2175  1  0.93550000  0.17929950  0.23406940  1.0
  Y  Y2176  1  0.93550000  0.51263283  0.23406940  1.0
  Y  Y2177  1  0.93550000  0.84596617  0.23406940  1.0
  Y  Y2178  1  0.05455900  0.01488567  0.20902470  1.0
  Y  Y2179  1  0.05455900  0.34821900  0.20902470  1.0
  Y  Y2180  1  0.05455900  0.68155233  0.20902470  1.0
  Y  Y2181  1  0.38789233  0.01488567  0.20902470  1.0
  Y  Y2182  1  0.38789233  0.34821900  0.20902470  1.0
  Y  Y2183  1  0.38789233  0.68155233  0.20902470  1.0
  Y  Y2184  1  0.72122567  0.01488567  0.20902470  1.0
  Y  Y2185  1  0.72122567  0.34821900  0.20902470  1.0
  Y  Y2186  1  0.72122567  0.68155233  0.20902470  1.0
  Y  Y2187  1  0.05455900  0.18155233  0.30902470  1.0
  Y  Y2188  1  0.05455900  0.51488567  0.30902470  1.0
  Y  Y2189  1  0.05455900  0.84821900  0.30902470  1.0
  Y  Y2190  1  0.38789233  0.18155233  0.30902470  1.0
  Y  Y2191  1  0.38789233  0.51488567  0.30902470  1.0
  Y  Y2192  1  0.38789233  0.84821900  0.30902470  1.0
  Y  Y2193  1  0.72122567  0.18155233  0.30902470  1.0
  Y  Y2194  1  0.72122567  0.51488567  0.30902470  1.0
  Y  Y2195  1  0.72122567  0.84821900  0.30902470  1.0
  Y  Y2196  1  0.11210767  0.11011433  0.36616190  1.0
  Y  Y2197  1  0.11210767  0.44344767  0.36616190  1.0
  Y  Y2198  1  0.11210767  0.77678100  0.36616190  1.0
  Y  Y2199  1  0.44544100  0.11011433  0.36616190  1.0
  Y  Y2200  1  0.44544100  0.44344767  0.36616190  1.0
  Y  Y2201  1  0.44544100  0.77678100  0.36616190  1.0
  Y  Y2202  1  0.77877433  0.11011433  0.36616190  1.0
  Y  Y2203  1  0.77877433  0.44344767  0.36616190  1.0
  Y  Y2204  1  0.77877433  0.77678100  0.36616190  1.0
  Y  Y2205  1  0.11210767  0.27678100  0.26616190  1.0
  Y  Y2206  1  0.11210767  0.61011433  0.26616190  1.0
  Y  Y2207  1  0.11210767  0.94344767  0.26616190  1.0
  Y  Y2208  1  0.44544100  0.27678100  0.26616190  1.0
  Y  Y2209  1  0.44544100  0.61011433  0.26616190  1.0
  Y  Y2210  1  0.44544100  0.94344767  0.26616190  1.0
  Y  Y2211  1  0.77877433  0.27678100  0.26616190  1.0
  Y  Y2212  1  0.77877433  0.61011433  0.26616190  1.0
  Y  Y2213  1  0.77877433  0.94344767  0.26616190  1.0
  Y  Y2214  1  0.26370933  0.02623050  0.21058140  1.0
  Y  Y2215  1  0.26370933  0.35956383  0.21058140  1.0
  Y  Y2216  1  0.26370933  0.69289717  0.21058140  1.0
  Y  Y2217  1  0.59704267  0.02623050  0.21058140  1.0
  Y  Y2218  1  0.59704267  0.35956383  0.21058140  1.0
  Y  Y2219  1  0.59704267  0.69289717  0.21058140  1.0
  Y  Y2220  1  0.93037600  0.02623050  0.21058140  1.0
  Y  Y2221  1  0.93037600  0.35956383  0.21058140  1.0
  Y  Y2222  1  0.93037600  0.69289717  0.21058140  1.0
  Y  Y2223  1  0.26370933  0.19289717  0.31058140  1.0
  Y  Y2224  1  0.26370933  0.52623050  0.31058140  1.0
  Y  Y2225  1  0.26370933  0.85956383  0.31058140  1.0
  Y  Y2226  1  0.59704267  0.19289717  0.31058140  1.0
  Y  Y2227  1  0.59704267  0.52623050  0.31058140  1.0
  Y  Y2228  1  0.59704267  0.85956383  0.31058140  1.0
  Y  Y2229  1  0.93037600  0.19289717  0.31058140  1.0
  Y  Y2230  1  0.93037600  0.52623050  0.31058140  1.0
  Y  Y2231  1  0.93037600  0.85956383  0.31058140  1.0
  Y  Y2232  1  0.17171233  0.15123050  0.34683440  1.0
  Y  Y2233  1  0.17171233  0.48456383  0.34683440  1.0
  Y  Y2234  1  0.17171233  0.81789717  0.34683440  1.0
  Y  Y2235  1  0.50504567  0.15123050  0.34683440  1.0
  Y  Y2236  1  0.50504567  0.48456383  0.34683440  1.0
  Y  Y2237  1  0.50504567  0.81789717  0.34683440  1.0
  Y  Y2238  1  0.83837900  0.15123050  0.34683440  1.0
  Y  Y2239  1  0.83837900  0.48456383  0.34683440  1.0
  Y  Y2240  1  0.83837900  0.81789717  0.34683440  1.0
  Y  Y2241  1  0.17171233  0.31789717  0.24683440  1.0
  Y  Y2242  1  0.17171233  0.65123050  0.24683440  1.0
  Y  Y2243  1  0.17171233  0.98456383  0.24683440  1.0
  Y  Y2244  1  0.50504567  0.31789717  0.24683440  1.0
  Y  Y2245  1  0.50504567  0.65123050  0.24683440  1.0
  Y  Y2246  1  0.50504567  0.98456383  0.24683440  1.0
  Y  Y2247  1  0.83837900  0.31789717  0.24683440  1.0
  Y  Y2248  1  0.83837900  0.65123050  0.24683440  1.0
  Y  Y2249  1  0.83837900  0.98456383  0.24683440  1.0
  Y  Y2250  1  0.32828767  0.14043617  0.24035780  1.0
  Y  Y2251  1  0.32828767  0.47376950  0.24035780  1.0
  Y  Y2252  1  0.32828767  0.80710283  0.24035780  1.0
  Y  Y2253  1  0.66162100  0.14043617  0.24035780  1.0
  Y  Y2254  1  0.66162100  0.47376950  0.24035780  1.0
  Y  Y2255  1  0.66162100  0.80710283  0.24035780  1.0
  Y  Y2256  1  0.99495433  0.14043617  0.24035780  1.0
  Y  Y2257  1  0.99495433  0.47376950  0.24035780  1.0
  Y  Y2258  1  0.99495433  0.80710283  0.24035780  1.0
  Y  Y2259  1  0.32828767  0.30710283  0.34035780  1.0
  Y  Y2260  1  0.32828767  0.64043617  0.34035780  1.0
  Y  Y2261  1  0.32828767  0.97376950  0.34035780  1.0
  Y  Y2262  1  0.66162100  0.30710283  0.34035780  1.0
  Y  Y2263  1  0.66162100  0.64043617  0.34035780  1.0
  Y  Y2264  1  0.66162100  0.97376950  0.34035780  1.0
  Y  Y2265  1  0.99495433  0.30710283  0.34035780  1.0
  Y  Y2266  1  0.99495433  0.64043617  0.34035780  1.0
  Y  Y2267  1  0.99495433  0.97376950  0.34035780  1.0
  Y  Y2268  1  0.11896800  0.07070050  0.27899080  1.0
  Y  Y2269  1  0.11896800  0.40403383  0.27899080  1.0
  Y  Y2270  1  0.11896800  0.73736717  0.27899080  1.0
  Y  Y2271  1  0.45230133  0.07070050  0.27899080  1.0
  Y  Y2272  1  0.45230133  0.40403383  0.27899080  1.0
  Y  Y2273  1  0.45230133  0.73736717  0.27899080  1.0
  Y  Y2274  1  0.78563467  0.07070050  0.27899080  1.0
  Y  Y2275  1  0.78563467  0.40403383  0.27899080  1.0
  Y  Y2276  1  0.78563467  0.73736717  0.27899080  1.0
  Y  Y2277  1  0.11896800  0.23736717  0.37899080  1.0
  Y  Y2278  1  0.11896800  0.57070050  0.37899080  1.0
  Y  Y2279  1  0.11896800  0.90403383  0.37899080  1.0
  Y  Y2280  1  0.45230133  0.23736717  0.37899080  1.0
  Y  Y2281  1  0.45230133  0.57070050  0.37899080  1.0
  Y  Y2282  1  0.45230133  0.90403383  0.37899080  1.0
  Y  Y2283  1  0.78563467  0.23736717  0.37899080  1.0
  Y  Y2284  1  0.78563467  0.57070050  0.37899080  1.0
  Y  Y2285  1  0.78563467  0.90403383  0.37899080  1.0
  Y  Y2286  1  0.10216667  0.02903383  0.38667160  1.0
  Y  Y2287  1  0.10216667  0.36236717  0.38667160  1.0
  Y  Y2288  1  0.10216667  0.69570050  0.38667160  1.0
  Y  Y2289  1  0.43550000  0.02903383  0.38667160  1.0
  Y  Y2290  1  0.43550000  0.36236717  0.38667160  1.0
  Y  Y2291  1  0.43550000  0.69570050  0.38667160  1.0
  Y  Y2292  1  0.76883333  0.02903383  0.38667160  1.0
  Y  Y2293  1  0.76883333  0.36236717  0.38667160  1.0
  Y  Y2294  1  0.76883333  0.69570050  0.38667160  1.0
  Y  Y2295  1  0.10216667  0.19570050  0.28667160  1.0
  Y  Y2296  1  0.10216667  0.52903383  0.28667160  1.0
  Y  Y2297  1  0.10216667  0.86236717  0.28667160  1.0
  Y  Y2298  1  0.43550000  0.19570050  0.28667160  1.0
  Y  Y2299  1  0.43550000  0.52903383  0.28667160  1.0
  Y  Y2300  1  0.43550000  0.86236717  0.28667160  1.0
  Y  Y2301  1  0.76883333  0.19570050  0.28667160  1.0
  Y  Y2302  1  0.76883333  0.52903383  0.28667160  1.0
  Y  Y2303  1  0.76883333  0.86236717  0.28667160  1.0
  Ni  Ni2304  1  0.21784467  0.14264700  0.28580550  1.0
  Ni  Ni2305  1  0.21784467  0.47598033  0.28580550  1.0
  Ni  Ni2306  1  0.21784467  0.80931367  0.28580550  1.0
  Ni  Ni2307  1  0.55117800  0.14264700  0.28580550  1.0
  Ni  Ni2308  1  0.55117800  0.47598033  0.28580550  1.0
  Ni  Ni2309  1  0.55117800  0.80931367  0.28580550  1.0
  Ni  Ni2310  1  0.88451133  0.14264700  0.28580550  1.0
  Ni  Ni2311  1  0.88451133  0.47598033  0.28580550  1.0
  Ni  Ni2312  1  0.88451133  0.80931367  0.28580550  1.0
  Ni  Ni2313  1  0.21784467  0.30931367  0.38580550  1.0
  Ni  Ni2314  1  0.21784467  0.64264700  0.38580550  1.0
  Ni  Ni2315  1  0.21784467  0.97598033  0.38580550  1.0
  Ni  Ni2316  1  0.55117800  0.30931367  0.38580550  1.0
  Ni  Ni2317  1  0.55117800  0.64264700  0.38580550  1.0
  Ni  Ni2318  1  0.55117800  0.97598033  0.38580550  1.0
  Ni  Ni2319  1  0.88451133  0.30931367  0.38580550  1.0
  Ni  Ni2320  1  0.88451133  0.64264700  0.38580550  1.0
  Ni  Ni2321  1  0.88451133  0.97598033  0.38580550  1.0
  Ni  Ni2322  1  0.20860267  0.16271967  0.31608170  1.0
  Ni  Ni2323  1  0.20860267  0.49605300  0.31608170  1.0
  Ni  Ni2324  1  0.20860267  0.82938633  0.31608170  1.0
  Ni  Ni2325  1  0.54193600  0.16271967  0.31608170  1.0
  Ni  Ni2326  1  0.54193600  0.49605300  0.31608170  1.0
  Ni  Ni2327  1  0.54193600  0.82938633  0.31608170  1.0
  Ni  Ni2328  1  0.87526933  0.16271967  0.31608170  1.0
  Ni  Ni2329  1  0.87526933  0.49605300  0.31608170  1.0
  Ni  Ni2330  1  0.87526933  0.82938633  0.31608170  1.0
  Ni  Ni2331  1  0.20860267  0.32938633  0.21608170  1.0
  Ni  Ni2332  1  0.20860267  0.66271967  0.21608170  1.0
  Ni  Ni2333  1  0.20860267  0.99605300  0.21608170  1.0
  Ni  Ni2334  1  0.54193600  0.32938633  0.21608170  1.0
  Ni  Ni2335  1  0.54193600  0.66271967  0.21608170  1.0
  Ni  Ni2336  1  0.54193600  0.99605300  0.21608170  1.0
  Ni  Ni2337  1  0.87526933  0.32938633  0.21608170  1.0
  Ni  Ni2338  1  0.87526933  0.66271967  0.21608170  1.0
  Ni  Ni2339  1  0.87526933  0.99605300  0.21608170  1.0
  Ni  Ni2340  1  0.13236767  0.12105300  0.29566390  1.0
  Ni  Ni2341  1  0.13236767  0.45438633  0.29566390  1.0
  Ni  Ni2342  1  0.13236767  0.78771967  0.29566390  1.0
  Ni  Ni2343  1  0.46570100  0.12105300  0.29566390  1.0
  Ni  Ni2344  1  0.46570100  0.45438633  0.29566390  1.0
  Ni  Ni2345  1  0.46570100  0.78771967  0.29566390  1.0
  Ni  Ni2346  1  0.79903433  0.12105300  0.29566390  1.0
  Ni  Ni2347  1  0.79903433  0.45438633  0.29566390  1.0
  Ni  Ni2348  1  0.79903433  0.78771967  0.29566390  1.0
  Ni  Ni2349  1  0.13236767  0.28771967  0.39566390  1.0
  Ni  Ni2350  1  0.13236767  0.62105300  0.39566390  1.0
  Ni  Ni2351  1  0.13236767  0.95438633  0.39566390  1.0
  Ni  Ni2352  1  0.46570100  0.28771967  0.39566390  1.0
  Ni  Ni2353  1  0.46570100  0.62105300  0.39566390  1.0
  Ni  Ni2354  1  0.46570100  0.95438633  0.39566390  1.0
  Ni  Ni2355  1  0.79903433  0.28771967  0.39566390  1.0
  Ni  Ni2356  1  0.79903433  0.62105300  0.39566390  1.0
  Ni  Ni2357  1  0.79903433  0.95438633  0.39566390  1.0
  Ni  Ni2358  1  0.16275533  0.10098033  0.28916550  1.0
  Ni  Ni2359  1  0.16275533  0.43431367  0.28916550  1.0
  Ni  Ni2360  1  0.16275533  0.76764700  0.28916550  1.0
  Ni  Ni2361  1  0.49608867  0.10098033  0.28916550  1.0
  Ni  Ni2362  1  0.49608867  0.43431367  0.28916550  1.0
  Ni  Ni2363  1  0.49608867  0.76764700  0.28916550  1.0
  Ni  Ni2364  1  0.82942200  0.10098033  0.28916550  1.0
  Ni  Ni2365  1  0.82942200  0.43431367  0.28916550  1.0
  Ni  Ni2366  1  0.82942200  0.76764700  0.28916550  1.0
  Ni  Ni2367  1  0.16275533  0.26764700  0.38916550  1.0
  Ni  Ni2368  1  0.16275533  0.60098033  0.38916550  1.0
  Ni  Ni2369  1  0.16275533  0.93431367  0.38916550  1.0
  Ni  Ni2370  1  0.49608867  0.26764700  0.38916550  1.0
  Ni  Ni2371  1  0.49608867  0.60098033  0.38916550  1.0
  Ni  Ni2372  1  0.49608867  0.93431367  0.38916550  1.0
  Ni  Ni2373  1  0.82942200  0.26764700  0.38916550  1.0
  Ni  Ni2374  1  0.82942200  0.60098033  0.38916550  1.0
  Ni  Ni2375  1  0.82942200  0.93431367  0.38916550  1.0
  Ni  Ni2376  1  0.06361267  0.13311017  0.38001340  1.0
  Ni  Ni2377  1  0.06361267  0.46644350  0.38001340  1.0
  Ni  Ni2378  1  0.06361267  0.79977683  0.38001340  1.0
  Ni  Ni2379  1  0.39694600  0.13311017  0.38001340  1.0
  Ni  Ni2380  1  0.39694600  0.46644350  0.38001340  1.0
  Ni  Ni2381  1  0.39694600  0.79977683  0.38001340  1.0
  Ni  Ni2382  1  0.73027933  0.13311017  0.38001340  1.0
  Ni  Ni2383  1  0.73027933  0.46644350  0.38001340  1.0
  Ni  Ni2384  1  0.73027933  0.79977683  0.38001340  1.0
  Ni  Ni2385  1  0.06361267  0.29977683  0.28001340  1.0
  Ni  Ni2386  1  0.06361267  0.63311017  0.28001340  1.0
  Ni  Ni2387  1  0.06361267  0.96644350  0.28001340  1.0
  Ni  Ni2388  1  0.39694600  0.29977683  0.28001340  1.0
  Ni  Ni2389  1  0.39694600  0.63311017  0.28001340  1.0
  Ni  Ni2390  1  0.39694600  0.96644350  0.28001340  1.0
  Ni  Ni2391  1  0.73027933  0.29977683  0.28001340  1.0
  Ni  Ni2392  1  0.73027933  0.63311017  0.28001340  1.0
  Ni  Ni2393  1  0.73027933  0.96644350  0.28001340  1.0
  Ni  Ni2394  1  0.23027933  0.07522317  0.24072760  1.0
  Ni  Ni2395  1  0.23027933  0.40855650  0.24072760  1.0
  Ni  Ni2396  1  0.23027933  0.74188983  0.24072760  1.0
  Ni  Ni2397  1  0.56361267  0.07522317  0.24072760  1.0
  Ni  Ni2398  1  0.56361267  0.40855650  0.24072760  1.0
  Ni  Ni2399  1  0.56361267  0.74188983  0.24072760  1.0
  Ni  Ni2400  1  0.89694600  0.07522317  0.24072760  1.0
  Ni  Ni2401  1  0.89694600  0.40855650  0.24072760  1.0
  Ni  Ni2402  1  0.89694600  0.74188983  0.24072760  1.0
  Ni  Ni2403  1  0.23027933  0.24188983  0.34072760  1.0
  Ni  Ni2404  1  0.23027933  0.57522317  0.34072760  1.0
  Ni  Ni2405  1  0.23027933  0.90855650  0.34072760  1.0
  Ni  Ni2406  1  0.56361267  0.24188983  0.34072760  1.0
  Ni  Ni2407  1  0.56361267  0.57522317  0.34072760  1.0
  Ni  Ni2408  1  0.56361267  0.90855650  0.34072760  1.0
  Ni  Ni2409  1  0.89694600  0.24188983  0.34072760  1.0
  Ni  Ni2410  1  0.89694600  0.57522317  0.34072760  1.0
  Ni  Ni2411  1  0.89694600  0.90855650  0.34072760  1.0
  Ni  Ni2412  1  0.05117800  0.06568633  0.33493550  1.0
  Ni  Ni2413  1  0.05117800  0.39901967  0.33493550  1.0
  Ni  Ni2414  1  0.05117800  0.73235300  0.33493550  1.0
  Ni  Ni2415  1  0.38451133  0.06568633  0.33493550  1.0
  Ni  Ni2416  1  0.38451133  0.39901967  0.33493550  1.0
  Ni  Ni2417  1  0.38451133  0.73235300  0.33493550  1.0
  Ni  Ni2418  1  0.71784467  0.06568633  0.33493550  1.0
  Ni  Ni2419  1  0.71784467  0.39901967  0.33493550  1.0
  Ni  Ni2420  1  0.71784467  0.73235300  0.33493550  1.0
  Ni  Ni2421  1  0.05117800  0.23235300  0.23493550  1.0
  Ni  Ni2422  1  0.05117800  0.56568633  0.23493550  1.0
  Ni  Ni2423  1  0.05117800  0.89901967  0.23493550  1.0
  Ni  Ni2424  1  0.38451133  0.23235300  0.23493550  1.0
  Ni  Ni2425  1  0.38451133  0.56568633  0.23493550  1.0
  Ni  Ni2426  1  0.38451133  0.89901967  0.23493550  1.0
  Ni  Ni2427  1  0.71784467  0.23235300  0.23493550  1.0
  Ni  Ni2428  1  0.71784467  0.56568633  0.23493550  1.0
  Ni  Ni2429  1  0.71784467  0.89901967  0.23493550  1.0
  Ni  Ni2430  1  0.10305400  0.15855650  0.29528120  1.0
  Ni  Ni2431  1  0.10305400  0.49188983  0.29528120  1.0
  Ni  Ni2432  1  0.10305400  0.82522317  0.29528120  1.0
  Ni  Ni2433  1  0.43638733  0.15855650  0.29528120  1.0
  Ni  Ni2434  1  0.43638733  0.49188983  0.29528120  1.0
  Ni  Ni2435  1  0.43638733  0.82522317  0.29528120  1.0
  Ni  Ni2436  1  0.76972067  0.15855650  0.29528120  1.0
  Ni  Ni2437  1  0.76972067  0.49188983  0.29528120  1.0
  Ni  Ni2438  1  0.76972067  0.82522317  0.29528120  1.0
  Ni  Ni2439  1  0.10305400  0.32522317  0.39528120  1.0
  Ni  Ni2440  1  0.10305400  0.65855650  0.39528120  1.0
  Ni  Ni2441  1  0.10305400  0.99188983  0.39528120  1.0
  Ni  Ni2442  1  0.43638733  0.32522317  0.39528120  1.0
  Ni  Ni2443  1  0.43638733  0.65855650  0.39528120  1.0
  Ni  Ni2444  1  0.43638733  0.99188983  0.39528120  1.0
  Ni  Ni2445  1  0.76972067  0.32522317  0.39528120  1.0
  Ni  Ni2446  1  0.76972067  0.65855650  0.39528120  1.0
  Ni  Ni2447  1  0.76972067  0.99188983  0.39528120  1.0
  Ni  Ni2448  1  0.03429900  0.00394700  0.32540030  1.0
  Ni  Ni2449  1  0.03429900  0.33728033  0.32540030  1.0
  Ni  Ni2450  1  0.03429900  0.67061367  0.32540030  1.0
  Ni  Ni2451  1  0.36763233  0.00394700  0.32540030  1.0
  Ni  Ni2452  1  0.36763233  0.33728033  0.32540030  1.0
  Ni  Ni2453  1  0.36763233  0.67061367  0.32540030  1.0
  Ni  Ni2454  1  0.70096567  0.00394700  0.32540030  1.0
  Ni  Ni2455  1  0.70096567  0.33728033  0.32540030  1.0
  Ni  Ni2456  1  0.70096567  0.67061367  0.32540030  1.0
  Ni  Ni2457  1  0.03429900  0.17061367  0.22540030  1.0
  Ni  Ni2458  1  0.03429900  0.50394700  0.22540030  1.0
  Ni  Ni2459  1  0.03429900  0.83728033  0.22540030  1.0
  Ni  Ni2460  1  0.36763233  0.17061367  0.22540030  1.0
  Ni  Ni2461  1  0.36763233  0.50394700  0.22540030  1.0
  Ni  Ni2462  1  0.36763233  0.83728033  0.22540030  1.0
  Ni  Ni2463  1  0.70096567  0.17061367  0.22540030  1.0
  Ni  Ni2464  1  0.70096567  0.50394700  0.22540030  1.0
  Ni  Ni2465  1  0.70096567  0.83728033  0.22540030  1.0
  Ni  Ni2466  1  0.28215533  0.14901967  0.38962910  1.0
  Ni  Ni2467  1  0.28215533  0.48235300  0.38962910  1.0
  Ni  Ni2468  1  0.28215533  0.81568633  0.38962910  1.0
  Ni  Ni2469  1  0.61548867  0.14901967  0.38962910  1.0
  Ni  Ni2470  1  0.61548867  0.48235300  0.38962910  1.0
  Ni  Ni2471  1  0.61548867  0.81568633  0.38962910  1.0
  Ni  Ni2472  1  0.94882200  0.14901967  0.38962910  1.0
  Ni  Ni2473  1  0.94882200  0.48235300  0.38962910  1.0
  Ni  Ni2474  1  0.94882200  0.81568633  0.38962910  1.0
  Ni  Ni2475  1  0.28215533  0.31568633  0.28962910  1.0
  Ni  Ni2476  1  0.28215533  0.64901967  0.28962910  1.0
  Ni  Ni2477  1  0.28215533  0.98235300  0.28962910  1.0
  Ni  Ni2478  1  0.61548867  0.31568633  0.28962910  1.0
  Ni  Ni2479  1  0.61548867  0.64901967  0.28962910  1.0
  Ni  Ni2480  1  0.61548867  0.98235300  0.28962910  1.0
  Ni  Ni2481  1  0.94882200  0.31568633  0.28962910  1.0
  Ni  Ni2482  1  0.94882200  0.64901967  0.28962910  1.0
  Ni  Ni2483  1  0.94882200  0.98235300  0.28962910  1.0
  Ni  Ni2484  1  0.11548867  0.05931367  0.23111190  1.0
  Ni  Ni2485  1  0.11548867  0.39264700  0.23111190  1.0
  Ni  Ni2486  1  0.11548867  0.72598033  0.23111190  1.0
  Ni  Ni2487  1  0.44882200  0.05931367  0.23111190  1.0
  Ni  Ni2488  1  0.44882200  0.39264700  0.23111190  1.0
  Ni  Ni2489  1  0.44882200  0.72598033  0.23111190  1.0
  Ni  Ni2490  1  0.78215533  0.05931367  0.23111190  1.0
  Ni  Ni2491  1  0.78215533  0.39264700  0.23111190  1.0
  Ni  Ni2492  1  0.78215533  0.72598033  0.23111190  1.0
  Ni  Ni2493  1  0.11548867  0.22598033  0.33111190  1.0
  Ni  Ni2494  1  0.11548867  0.55931367  0.33111190  1.0
  Ni  Ni2495  1  0.11548867  0.89264700  0.33111190  1.0
  Ni  Ni2496  1  0.44882200  0.22598033  0.33111190  1.0
  Ni  Ni2497  1  0.44882200  0.55931367  0.33111190  1.0
  Ni  Ni2498  1  0.44882200  0.89264700  0.33111190  1.0
  Ni  Ni2499  1  0.78215533  0.22598033  0.33111190  1.0
  Ni  Ni2500  1  0.78215533  0.55931367  0.33111190  1.0
  Ni  Ni2501  1  0.78215533  0.89264700  0.33111190  1.0
  Ni  Ni2502  1  0.17046133  0.03355650  0.25617200  1.0
  Ni  Ni2503  1  0.17046133  0.36688983  0.25617200  1.0
  Ni  Ni2504  1  0.17046133  0.70022317  0.25617200  1.0
  Ni  Ni2505  1  0.50379467  0.03355650  0.25617200  1.0
  Ni  Ni2506  1  0.50379467  0.36688983  0.25617200  1.0
  Ni  Ni2507  1  0.50379467  0.70022317  0.25617200  1.0
  Ni  Ni2508  1  0.83712800  0.03355650  0.25617200  1.0
  Ni  Ni2509  1  0.83712800  0.36688983  0.25617200  1.0
  Ni  Ni2510  1  0.83712800  0.70022317  0.25617200  1.0
  Ni  Ni2511  1  0.17046133  0.20022317  0.35617200  1.0
  Ni  Ni2512  1  0.17046133  0.53355650  0.35617200  1.0
  Ni  Ni2513  1  0.17046133  0.86688983  0.35617200  1.0
  Ni  Ni2514  1  0.50379467  0.20022317  0.35617200  1.0
  Ni  Ni2515  1  0.50379467  0.53355650  0.35617200  1.0
  Ni  Ni2516  1  0.50379467  0.86688983  0.35617200  1.0
  Ni  Ni2517  1  0.83712800  0.20022317  0.35617200  1.0
  Ni  Ni2518  1  0.83712800  0.53355650  0.35617200  1.0
  Ni  Ni2519  1  0.83712800  0.86688983  0.35617200  1.0
  Ni  Ni2520  1  0.16287200  0.11688983  0.22983680  1.0
  Ni  Ni2521  1  0.16287200  0.45022317  0.22983680  1.0
  Ni  Ni2522  1  0.16287200  0.78355650  0.22983680  1.0
  Ni  Ni2523  1  0.49620533  0.11688983  0.22983680  1.0
  Ni  Ni2524  1  0.49620533  0.45022317  0.22983680  1.0
  Ni  Ni2525  1  0.49620533  0.78355650  0.22983680  1.0
  Ni  Ni2526  1  0.82953867  0.11688983  0.22983680  1.0
  Ni  Ni2527  1  0.82953867  0.45022317  0.22983680  1.0
  Ni  Ni2528  1  0.82953867  0.78355650  0.22983680  1.0
  Ni  Ni2529  1  0.16287200  0.28355650  0.32983680  1.0
  Ni  Ni2530  1  0.16287200  0.61688983  0.32983680  1.0
  Ni  Ni2531  1  0.16287200  0.95022317  0.32983680  1.0
  Ni  Ni2532  1  0.49620533  0.28355650  0.32983680  1.0
  Ni  Ni2533  1  0.49620533  0.61688983  0.32983680  1.0
  Ni  Ni2534  1  0.49620533  0.95022317  0.32983680  1.0
  Ni  Ni2535  1  0.82953867  0.28355650  0.32983680  1.0
  Ni  Ni2536  1  0.82953867  0.61688983  0.32983680  1.0
  Ni  Ni2537  1  0.82953867  0.95022317  0.32983680  1.0
  Ni  Ni2538  1  0.00391133  0.02401967  0.34298910  1.0
  Ni  Ni2539  1  0.00391133  0.35735300  0.34298910  1.0
  Ni  Ni2540  1  0.00391133  0.69068633  0.34298910  1.0
  Ni  Ni2541  1  0.33724467  0.02401967  0.34298910  1.0
  Ni  Ni2542  1  0.33724467  0.35735300  0.34298910  1.0
  Ni  Ni2543  1  0.33724467  0.69068633  0.34298910  1.0
  Ni  Ni2544  1  0.67057800  0.02401967  0.34298910  1.0
  Ni  Ni2545  1  0.67057800  0.35735300  0.34298910  1.0
  Ni  Ni2546  1  0.67057800  0.69068633  0.34298910  1.0
  Ni  Ni2547  1  0.00391133  0.19068633  0.24298910  1.0
  Ni  Ni2548  1  0.00391133  0.52401967  0.24298910  1.0
  Ni  Ni2549  1  0.00391133  0.85735300  0.24298910  1.0
  Ni  Ni2550  1  0.33724467  0.19068633  0.24298910  1.0
  Ni  Ni2551  1  0.33724467  0.52401967  0.24298910  1.0
  Ni  Ni2552  1  0.33724467  0.85735300  0.24298910  1.0
  Ni  Ni2553  1  0.67057800  0.19068633  0.24298910  1.0
  Ni  Ni2554  1  0.67057800  0.52401967  0.24298910  1.0
  Ni  Ni2555  1  0.67057800  0.85735300  0.24298910  1.0
  Ni  Ni2556  1  0.10638300  0.14733217  0.27530700  1.0
  Ni  Ni2557  1  0.10638300  0.48066550  0.27530700  1.0
  Ni  Ni2558  1  0.10638300  0.81399883  0.27530700  1.0
  Ni  Ni2559  1  0.43971633  0.14733217  0.27530700  1.0
  Ni  Ni2560  1  0.43971633  0.48066550  0.27530700  1.0
  Ni  Ni2561  1  0.43971633  0.81399883  0.27530700  1.0
  Ni  Ni2562  1  0.77304967  0.14733217  0.27530700  1.0
  Ni  Ni2563  1  0.77304967  0.48066550  0.27530700  1.0
  Ni  Ni2564  1  0.77304967  0.81399883  0.27530700  1.0
  Ni  Ni2565  1  0.10638300  0.31399883  0.37530700  1.0
  Ni  Ni2566  1  0.10638300  0.64733217  0.37530700  1.0
  Ni  Ni2567  1  0.10638300  0.98066550  0.37530700  1.0
  Ni  Ni2568  1  0.43971633  0.31399883  0.37530700  1.0
  Ni  Ni2569  1  0.43971633  0.64733217  0.37530700  1.0
  Ni  Ni2570  1  0.43971633  0.98066550  0.37530700  1.0
  Ni  Ni2571  1  0.77304967  0.31399883  0.37530700  1.0
  Ni  Ni2572  1  0.77304967  0.64733217  0.37530700  1.0
  Ni  Ni2573  1  0.77304967  0.98066550  0.37530700  1.0
  Ni  Ni2574  1  0.04193600  0.04561367  0.30465930  1.0
  Ni  Ni2575  1  0.04193600  0.37894700  0.30465930  1.0
  Ni  Ni2576  1  0.04193600  0.71228033  0.30465930  1.0
  Ni  Ni2577  1  0.37526933  0.04561367  0.30465930  1.0
  Ni  Ni2578  1  0.37526933  0.37894700  0.30465930  1.0
  Ni  Ni2579  1  0.37526933  0.71228033  0.30465930  1.0
  Ni  Ni2580  1  0.70860267  0.04561367  0.30465930  1.0
  Ni  Ni2581  1  0.70860267  0.37894700  0.30465930  1.0
  Ni  Ni2582  1  0.70860267  0.71228033  0.30465930  1.0
  Ni  Ni2583  1  0.04193600  0.21228033  0.20465930  1.0
  Ni  Ni2584  1  0.04193600  0.54561367  0.20465930  1.0
  Ni  Ni2585  1  0.04193600  0.87894700  0.20465930  1.0
  Ni  Ni2586  1  0.37526933  0.21228033  0.20465930  1.0
  Ni  Ni2587  1  0.37526933  0.54561367  0.20465930  1.0
  Ni  Ni2588  1  0.37526933  0.87894700  0.20465930  1.0
  Ni  Ni2589  1  0.70860267  0.21228033  0.20465930  1.0
  Ni  Ni2590  1  0.70860267  0.54561367  0.20465930  1.0
  Ni  Ni2591  1  0.70860267  0.87894700  0.20465930  1.0
  Ni  Ni2592  1  0.26972067  0.04977683  0.32545980  1.0
  Ni  Ni2593  1  0.26972067  0.38311017  0.32545980  1.0
  Ni  Ni2594  1  0.26972067  0.71644350  0.32545980  1.0
  Ni  Ni2595  1  0.60305400  0.04977683  0.32545980  1.0
  Ni  Ni2596  1  0.60305400  0.38311017  0.32545980  1.0
  Ni  Ni2597  1  0.60305400  0.71644350  0.32545980  1.0
  Ni  Ni2598  1  0.93638733  0.04977683  0.32545980  1.0
  Ni  Ni2599  1  0.93638733  0.38311017  0.32545980  1.0
  Ni  Ni2600  1  0.93638733  0.71644350  0.32545980  1.0
  Ni  Ni2601  1  0.26972067  0.21644350  0.22545980  1.0
  Ni  Ni2602  1  0.26972067  0.54977683  0.22545980  1.0
  Ni  Ni2603  1  0.26972067  0.88311017  0.22545980  1.0
  Ni  Ni2604  1  0.60305400  0.21644350  0.22545980  1.0
  Ni  Ni2605  1  0.60305400  0.54977683  0.22545980  1.0
  Ni  Ni2606  1  0.60305400  0.88311017  0.22545980  1.0
  Ni  Ni2607  1  0.93638733  0.21644350  0.22545980  1.0
  Ni  Ni2608  1  0.93638733  0.54977683  0.22545980  1.0
  Ni  Ni2609  1  0.93638733  0.88311017  0.22545980  1.0
  Ni  Ni2610  1  0.22695033  0.06399883  0.24723260  1.0
  Ni  Ni2611  1  0.22695033  0.39733217  0.24723260  1.0
  Ni  Ni2612  1  0.22695033  0.73066550  0.24723260  1.0
  Ni  Ni2613  1  0.56028367  0.06399883  0.24723260  1.0
  Ni  Ni2614  1  0.56028367  0.39733217  0.24723260  1.0
  Ni  Ni2615  1  0.56028367  0.73066550  0.24723260  1.0
  Ni  Ni2616  1  0.89361700  0.06399883  0.24723260  1.0
  Ni  Ni2617  1  0.89361700  0.39733217  0.24723260  1.0
  Ni  Ni2618  1  0.89361700  0.73066550  0.24723260  1.0
  Ni  Ni2619  1  0.22695033  0.23066550  0.34723260  1.0
  Ni  Ni2620  1  0.22695033  0.56399883  0.34723260  1.0
  Ni  Ni2621  1  0.22695033  0.89733217  0.34723260  1.0
  Ni  Ni2622  1  0.56028367  0.23066550  0.34723260  1.0
  Ni  Ni2623  1  0.56028367  0.56399883  0.34723260  1.0
  Ni  Ni2624  1  0.56028367  0.89733217  0.34723260  1.0
  Ni  Ni2625  1  0.89361700  0.23066550  0.34723260  1.0
  Ni  Ni2626  1  0.89361700  0.56399883  0.34723260  1.0
  Ni  Ni2627  1  0.89361700  0.89733217  0.34723260  1.0
  Ni  Ni2628  1  0.12473067  0.07938633  0.22492290  1.0
  Ni  Ni2629  1  0.12473067  0.41271967  0.22492290  1.0
  Ni  Ni2630  1  0.12473067  0.74605300  0.22492290  1.0
  Ni  Ni2631  1  0.45806400  0.07938633  0.22492290  1.0
  Ni  Ni2632  1  0.45806400  0.41271967  0.22492290  1.0
  Ni  Ni2633  1  0.45806400  0.74605300  0.22492290  1.0
  Ni  Ni2634  1  0.79139733  0.07938633  0.22492290  1.0
  Ni  Ni2635  1  0.79139733  0.41271967  0.22492290  1.0
  Ni  Ni2636  1  0.79139733  0.74605300  0.22492290  1.0
  Ni  Ni2637  1  0.12473067  0.24605300  0.32492290  1.0
  Ni  Ni2638  1  0.12473067  0.57938633  0.32492290  1.0
  Ni  Ni2639  1  0.12473067  0.91271967  0.32492290  1.0
  Ni  Ni2640  1  0.45806400  0.24605300  0.32492290  1.0
  Ni  Ni2641  1  0.45806400  0.57938633  0.32492290  1.0
  Ni  Ni2642  1  0.45806400  0.91271967  0.32492290  1.0
  Ni  Ni2643  1  0.79139733  0.24605300  0.32492290  1.0
  Ni  Ni2644  1  0.79139733  0.57938633  0.32492290  1.0
  Ni  Ni2645  1  0.79139733  0.91271967  0.32492290  1.0
  Ni  Ni2646  1  0.32953867  0.09144350  0.39090420  1.0
  Ni  Ni2647  1  0.32953867  0.42477683  0.39090420  1.0
  Ni  Ni2648  1  0.32953867  0.75811017  0.39090420  1.0
  Ni  Ni2649  1  0.66287200  0.09144350  0.39090420  1.0
  Ni  Ni2650  1  0.66287200  0.42477683  0.39090420  1.0
  Ni  Ni2651  1  0.66287200  0.75811017  0.39090420  1.0
  Ni  Ni2652  1  0.99620533  0.09144350  0.39090420  1.0
  Ni  Ni2653  1  0.99620533  0.42477683  0.39090420  1.0
  Ni  Ni2654  1  0.99620533  0.75811017  0.39090420  1.0
  Ni  Ni2655  1  0.32953867  0.25811017  0.29090420  1.0
  Ni  Ni2656  1  0.32953867  0.59144350  0.29090420  1.0
  Ni  Ni2657  1  0.32953867  0.92477683  0.29090420  1.0
  Ni  Ni2658  1  0.66287200  0.25811017  0.29090420  1.0
  Ni  Ni2659  1  0.66287200  0.59144350  0.29090420  1.0
  Ni  Ni2660  1  0.66287200  0.92477683  0.29090420  1.0
  Ni  Ni2661  1  0.99620533  0.25811017  0.29090420  1.0
  Ni  Ni2662  1  0.99620533  0.59144350  0.29090420  1.0
  Ni  Ni2663  1  0.99620533  0.92477683  0.29090420  1.0
  Ni  Ni2664  1  0.29139733  0.12894700  0.39581810  1.0
  Ni  Ni2665  1  0.29139733  0.46228033  0.39581810  1.0
  Ni  Ni2666  1  0.29139733  0.79561367  0.39581810  1.0
  Ni  Ni2667  1  0.62473067  0.12894700  0.39581810  1.0
  Ni  Ni2668  1  0.62473067  0.46228033  0.39581810  1.0
  Ni  Ni2669  1  0.62473067  0.79561367  0.39581810  1.0
  Ni  Ni2670  1  0.95806400  0.12894700  0.39581810  1.0
  Ni  Ni2671  1  0.95806400  0.46228033  0.39581810  1.0
  Ni  Ni2672  1  0.95806400  0.79561367  0.39581810  1.0
  Ni  Ni2673  1  0.29139733  0.29561367  0.29581810  1.0
  Ni  Ni2674  1  0.29139733  0.62894700  0.29581810  1.0
  Ni  Ni2675  1  0.29139733  0.96228033  0.29581810  1.0
  Ni  Ni2676  1  0.62473067  0.29561367  0.29581810  1.0
  Ni  Ni2677  1  0.62473067  0.62894700  0.29581810  1.0
  Ni  Ni2678  1  0.62473067  0.96228033  0.29581810  1.0
  Ni  Ni2679  1  0.95806400  0.29561367  0.29581810  1.0
  Ni  Ni2680  1  0.95806400  0.62894700  0.29581810  1.0
  Ni  Ni2681  1  0.95806400  0.96228033  0.29581810  1.0
  Ni  Ni2682  1  0.32942200  0.10735300  0.33157550  1.0
  Ni  Ni2683  1  0.32942200  0.44068633  0.33157550  1.0
  Ni  Ni2684  1  0.32942200  0.77401967  0.33157550  1.0
  Ni  Ni2685  1  0.66275533  0.10735300  0.33157550  1.0
  Ni  Ni2686  1  0.66275533  0.44068633  0.33157550  1.0
  Ni  Ni2687  1  0.66275533  0.77401967  0.33157550  1.0
  Ni  Ni2688  1  0.99608867  0.10735300  0.33157550  1.0
  Ni  Ni2689  1  0.99608867  0.44068633  0.33157550  1.0
  Ni  Ni2690  1  0.99608867  0.77401967  0.33157550  1.0
  Ni  Ni2691  1  0.32942200  0.27401967  0.23157550  1.0
  Ni  Ni2692  1  0.32942200  0.60735300  0.23157550  1.0
  Ni  Ni2693  1  0.32942200  0.94068633  0.23157550  1.0
  Ni  Ni2694  1  0.66275533  0.27401967  0.23157550  1.0
  Ni  Ni2695  1  0.66275533  0.60735300  0.23157550  1.0
  Ni  Ni2696  1  0.66275533  0.94068633  0.23157550  1.0
  Ni  Ni2697  1  0.99608867  0.27401967  0.23157550  1.0
  Ni  Ni2698  1  0.99608867  0.60735300  0.23157550  1.0
  Ni  Ni2699  1  0.99608867  0.94068633  0.23157550  1.0
  Ni  Ni2700  1  0.18493800  0.10566550  0.22509960  1.0
  Ni  Ni2701  1  0.18493800  0.43899883  0.22509960  1.0
  Ni  Ni2702  1  0.18493800  0.77233217  0.22509960  1.0
  Ni  Ni2703  1  0.51827133  0.10566550  0.22509960  1.0
  Ni  Ni2704  1  0.51827133  0.43899883  0.22509960  1.0
  Ni  Ni2705  1  0.51827133  0.77233217  0.22509960  1.0
  Ni  Ni2706  1  0.85160467  0.10566550  0.22509960  1.0
  Ni  Ni2707  1  0.85160467  0.43899883  0.22509960  1.0
  Ni  Ni2708  1  0.85160467  0.77233217  0.22509960  1.0
  Ni  Ni2709  1  0.18493800  0.27233217  0.32509960  1.0
  Ni  Ni2710  1  0.18493800  0.60566550  0.32509960  1.0
  Ni  Ni2711  1  0.18493800  0.93899883  0.32509960  1.0
  Ni  Ni2712  1  0.51827133  0.27233217  0.32509960  1.0
  Ni  Ni2713  1  0.51827133  0.60566550  0.32509960  1.0
  Ni  Ni2714  1  0.51827133  0.93899883  0.32509960  1.0
  Ni  Ni2715  1  0.85160467  0.27233217  0.32509960  1.0
  Ni  Ni2716  1  0.85160467  0.60566550  0.32509960  1.0
  Ni  Ni2717  1  0.85160467  0.93899883  0.32509960  1.0
  Ni  Ni2718  1  0.31506200  0.01933450  0.27330100  1.0
  Ni  Ni2719  1  0.31506200  0.35266783  0.27330100  1.0
  Ni  Ni2720  1  0.31506200  0.68600117  0.27330100  1.0
  Ni  Ni2721  1  0.64839533  0.01933450  0.27330100  1.0
  Ni  Ni2722  1  0.64839533  0.35266783  0.27330100  1.0
  Ni  Ni2723  1  0.64839533  0.68600117  0.27330100  1.0
  Ni  Ni2724  1  0.98172867  0.01933450  0.27330100  1.0
  Ni  Ni2725  1  0.98172867  0.35266783  0.27330100  1.0
  Ni  Ni2726  1  0.98172867  0.68600117  0.27330100  1.0
  Ni  Ni2727  1  0.31506200  0.18600117  0.37330100  1.0
  Ni  Ni2728  1  0.31506200  0.51933450  0.37330100  1.0
  Ni  Ni2729  1  0.31506200  0.85266783  0.37330100  1.0
  Ni  Ni2730  1  0.64839533  0.18600117  0.37330100  1.0
  Ni  Ni2731  1  0.64839533  0.51933450  0.37330100  1.0
  Ni  Ni2732  1  0.64839533  0.85266783  0.37330100  1.0
  Ni  Ni2733  1  0.98172867  0.18600117  0.37330100  1.0
  Ni  Ni2734  1  0.98172867  0.51933450  0.37330100  1.0
  Ni  Ni2735  1  0.98172867  0.85266783  0.37330100  1.0
  Ni  Ni2736  1  0.01827133  0.10266783  0.39564140  1.0
  Ni  Ni2737  1  0.01827133  0.43600117  0.39564140  1.0
  Ni  Ni2738  1  0.01827133  0.76933450  0.39564140  1.0
  Ni  Ni2739  1  0.35160467  0.10266783  0.39564140  1.0
  Ni  Ni2740  1  0.35160467  0.43600117  0.39564140  1.0
  Ni  Ni2741  1  0.35160467  0.76933450  0.39564140  1.0
  Ni  Ni2742  1  0.68493800  0.10266783  0.39564140  1.0
  Ni  Ni2743  1  0.68493800  0.43600117  0.39564140  1.0
  Ni  Ni2744  1  0.68493800  0.76933450  0.39564140  1.0
  Ni  Ni2745  1  0.01827133  0.26933450  0.29564140  1.0
  Ni  Ni2746  1  0.01827133  0.60266783  0.29564140  1.0
  Ni  Ni2747  1  0.01827133  0.93600117  0.29564140  1.0
  Ni  Ni2748  1  0.35160467  0.26933450  0.29564140  1.0
  Ni  Ni2749  1  0.35160467  0.60266783  0.29564140  1.0
  Ni  Ni2750  1  0.35160467  0.93600117  0.29564140  1.0
  Ni  Ni2751  1  0.68493800  0.26933450  0.29564140  1.0
  Ni  Ni2752  1  0.68493800  0.60266783  0.29564140  1.0
  Ni  Ni2753  1  0.68493800  0.93600117  0.29564140  1.0
  Ni  Ni2754  1  0.29903433  0.08728033  0.32507710  1.0
  Ni  Ni2755  1  0.29903433  0.42061367  0.32507710  1.0
  Ni  Ni2756  1  0.29903433  0.75394700  0.32507710  1.0
  Ni  Ni2757  1  0.63236767  0.08728033  0.32507710  1.0
  Ni  Ni2758  1  0.63236767  0.42061367  0.32507710  1.0
  Ni  Ni2759  1  0.63236767  0.75394700  0.32507710  1.0
  Ni  Ni2760  1  0.96570100  0.08728033  0.32507710  1.0
  Ni  Ni2761  1  0.96570100  0.42061367  0.32507710  1.0
  Ni  Ni2762  1  0.96570100  0.75394700  0.32507710  1.0
  Ni  Ni2763  1  0.29903433  0.25394700  0.22507710  1.0
  Ni  Ni2764  1  0.29903433  0.58728033  0.22507710  1.0
  Ni  Ni2765  1  0.29903433  0.92061367  0.22507710  1.0
  Ni  Ni2766  1  0.63236767  0.25394700  0.22507710  1.0
  Ni  Ni2767  1  0.63236767  0.58728033  0.22507710  1.0
  Ni  Ni2768  1  0.63236767  0.92061367  0.22507710  1.0
  Ni  Ni2769  1  0.96570100  0.25394700  0.22507710  1.0
  Ni  Ni2770  1  0.96570100  0.58728033  0.22507710  1.0
  Ni  Ni2771  1  0.96570100  0.92061367  0.22507710  1.0
  Ni  Ni2772  1  0.27304967  0.06100117  0.34543400  1.0
  Ni  Ni2773  1  0.27304967  0.39433450  0.34543400  1.0
  Ni  Ni2774  1  0.27304967  0.72766783  0.34543400  1.0
  Ni  Ni2775  1  0.60638300  0.06100117  0.34543400  1.0
  Ni  Ni2776  1  0.60638300  0.39433450  0.34543400  1.0
  Ni  Ni2777  1  0.60638300  0.72766783  0.34543400  1.0
  Ni  Ni2778  1  0.93971633  0.06100117  0.34543400  1.0
  Ni  Ni2779  1  0.93971633  0.39433450  0.34543400  1.0
  Ni  Ni2780  1  0.93971633  0.72766783  0.34543400  1.0
  Ni  Ni2781  1  0.27304967  0.22766783  0.24543400  1.0
  Ni  Ni2782  1  0.27304967  0.56100117  0.24543400  1.0
  Ni  Ni2783  1  0.27304967  0.89433450  0.24543400  1.0
  Ni  Ni2784  1  0.60638300  0.22766783  0.24543400  1.0
  Ni  Ni2785  1  0.60638300  0.56100117  0.24543400  1.0
  Ni  Ni2786  1  0.60638300  0.89433450  0.24543400  1.0
  Ni  Ni2787  1  0.93971633  0.22766783  0.24543400  1.0
  Ni  Ni2788  1  0.93971633  0.56100117  0.24543400  1.0
  Ni  Ni2789  1  0.93971633  0.89433450  0.24543400  1.0
  Ni  Ni2790  1  0.14839533  0.02233217  0.24744000  1.0
  Ni  Ni2791  1  0.14839533  0.35566550  0.24744000  1.0
  Ni  Ni2792  1  0.14839533  0.68899883  0.24744000  1.0
  Ni  Ni2793  1  0.48172867  0.02233217  0.24744000  1.0
  Ni  Ni2794  1  0.48172867  0.35566550  0.24744000  1.0
  Ni  Ni2795  1  0.48172867  0.68899883  0.24744000  1.0
  Ni  Ni2796  1  0.81506200  0.02233217  0.24744000  1.0
  Ni  Ni2797  1  0.81506200  0.35566550  0.24744000  1.0
  Ni  Ni2798  1  0.81506200  0.68899883  0.24744000  1.0
  Ni  Ni2799  1  0.14839533  0.18899883  0.34744000  1.0
  Ni  Ni2800  1  0.14839533  0.52233217  0.34744000  1.0
  Ni  Ni2801  1  0.14839533  0.85566550  0.34744000  1.0
  Ni  Ni2802  1  0.48172867  0.18899883  0.34744000  1.0
  Ni  Ni2803  1  0.48172867  0.52233217  0.34744000  1.0
  Ni  Ni2804  1  0.48172867  0.85566550  0.34744000  1.0
  Ni  Ni2805  1  0.81506200  0.18899883  0.34744000  1.0
  Ni  Ni2806  1  0.81506200  0.52233217  0.34744000  1.0
  Ni  Ni2807  1  0.81506200  0.85566550  0.34744000  1.0
  Ni  Ni2808  1  0.00379467  0.00811017  0.26456900  1.0
  Ni  Ni2809  1  0.00379467  0.34144350  0.26456900  1.0
  Ni  Ni2810  1  0.00379467  0.67477683  0.26456900  1.0
  Ni  Ni2811  1  0.33712800  0.00811017  0.26456900  1.0
  Ni  Ni2812  1  0.33712800  0.34144350  0.26456900  1.0
  Ni  Ni2813  1  0.33712800  0.67477683  0.26456900  1.0
  Ni  Ni2814  1  0.67046133  0.00811017  0.26456900  1.0
  Ni  Ni2815  1  0.67046133  0.34144350  0.26456900  1.0
  Ni  Ni2816  1  0.67046133  0.67477683  0.26456900  1.0
  Ni  Ni2817  1  0.00379467  0.17477683  0.36456900  1.0
  Ni  Ni2818  1  0.00379467  0.50811017  0.36456900  1.0
  Ni  Ni2819  1  0.00379467  0.84144350  0.36456900  1.0
  Ni  Ni2820  1  0.33712800  0.17477683  0.36456900  1.0
  Ni  Ni2821  1  0.33712800  0.50811017  0.36456900  1.0
  Ni  Ni2822  1  0.33712800  0.84144350  0.36456900  1.0
  Ni  Ni2823  1  0.67046133  0.17477683  0.36456900  1.0
  Ni  Ni2824  1  0.67046133  0.50811017  0.36456900  1.0
  Ni  Ni2825  1  0.67046133  0.84144350  0.36456900  1.0
  Ni  Ni2826  1  0.06028367  0.14433450  0.37350840  1.0
  Ni  Ni2827  1  0.06028367  0.47766783  0.37350840  1.0
  Ni  Ni2828  1  0.06028367  0.81100117  0.37350840  1.0
  Ni  Ni2829  1  0.39361700  0.14433450  0.37350840  1.0
  Ni  Ni2830  1  0.39361700  0.47766783  0.37350840  1.0
  Ni  Ni2831  1  0.39361700  0.81100117  0.37350840  1.0
  Ni  Ni2832  1  0.72695033  0.14433450  0.37350840  1.0
  Ni  Ni2833  1  0.72695033  0.47766783  0.37350840  1.0
  Ni  Ni2834  1  0.72695033  0.81100117  0.37350840  1.0
  Ni  Ni2835  1  0.06028367  0.31100117  0.27350840  1.0
  Ni  Ni2836  1  0.06028367  0.64433450  0.27350840  1.0
  Ni  Ni2837  1  0.06028367  0.97766783  0.27350840  1.0
  Ni  Ni2838  1  0.39361700  0.31100117  0.27350840  1.0
  Ni  Ni2839  1  0.39361700  0.64433450  0.27350840  1.0
  Ni  Ni2840  1  0.39361700  0.97766783  0.27350840  1.0
  Ni  Ni2841  1  0.72695033  0.31100117  0.27350840  1.0
  Ni  Ni2842  1  0.72695033  0.64433450  0.27350840  1.0
  Ni  Ni2843  1  0.72695033  0.97766783  0.27350840  1.0
  Ni  Ni2844  1  0.20096567  0.03771967  0.39534070  1.0
  Ni  Ni2845  1  0.20096567  0.37105300  0.39534070  1.0
  Ni  Ni2846  1  0.20096567  0.70438633  0.39534070  1.0
  Ni  Ni2847  1  0.53429900  0.03771967  0.39534070  1.0
  Ni  Ni2848  1  0.53429900  0.37105300  0.39534070  1.0
  Ni  Ni2849  1  0.53429900  0.70438633  0.39534070  1.0
  Ni  Ni2850  1  0.86763233  0.03771967  0.39534070  1.0
  Ni  Ni2851  1  0.86763233  0.37105300  0.39534070  1.0
  Ni  Ni2852  1  0.86763233  0.70438633  0.39534070  1.0
  Ni  Ni2853  1  0.20096567  0.20438633  0.29534070  1.0
  Ni  Ni2854  1  0.20096567  0.53771967  0.29534070  1.0
  Ni  Ni2855  1  0.20096567  0.87105300  0.29534070  1.0
  Ni  Ni2856  1  0.53429900  0.20438633  0.29534070  1.0
  Ni  Ni2857  1  0.53429900  0.53771967  0.29534070  1.0
  Ni  Ni2858  1  0.53429900  0.87105300  0.29534070  1.0
  Ni  Ni2859  1  0.86763233  0.20438633  0.29534070  1.0
  Ni  Ni2860  1  0.86763233  0.53771967  0.29534070  1.0
  Ni  Ni2861  1  0.86763233  0.87105300  0.29534070  1.0
  Ni  Ni2862  1  0.17057800  0.01764700  0.37775190  1.0
  Ni  Ni2863  1  0.17057800  0.35098033  0.37775190  1.0
  Ni  Ni2864  1  0.17057800  0.68431367  0.37775190  1.0
  Ni  Ni2865  1  0.50391133  0.01764700  0.37775190  1.0
  Ni  Ni2866  1  0.50391133  0.35098033  0.37775190  1.0
  Ni  Ni2867  1  0.50391133  0.68431367  0.37775190  1.0
  Ni  Ni2868  1  0.83724467  0.01764700  0.37775190  1.0
  Ni  Ni2869  1  0.83724467  0.35098033  0.37775190  1.0
  Ni  Ni2870  1  0.83724467  0.68431367  0.37775190  1.0
  Ni  Ni2871  1  0.17057800  0.18431367  0.27775190  1.0
  Ni  Ni2872  1  0.17057800  0.51764700  0.27775190  1.0
  Ni  Ni2873  1  0.17057800  0.85098033  0.27775190  1.0
  Ni  Ni2874  1  0.50391133  0.18431367  0.27775190  1.0
  Ni  Ni2875  1  0.50391133  0.51764700  0.27775190  1.0
  Ni  Ni2876  1  0.50391133  0.85098033  0.27775190  1.0
  Ni  Ni2877  1  0.83724467  0.18431367  0.27775190  1.0
  Ni  Ni2878  1  0.83724467  0.51764700  0.27775190  1.0
  Ni  Ni2879  1  0.83724467  0.85098033  0.27775190  1.0
