# generated using pymatgen
data_Y3Ni2
_symmetry_space_group_name_H-M   'P 1'
_cell_length_a   21.21288900
_cell_length_b   21.21288900
_cell_length_c   73.38153200
_cell_angle_alpha   90.00000000
_cell_angle_beta   90.00000000
_cell_angle_gamma   90.00000000
_symmetry_Int_Tables_number   1
_chemical_formula_structural   Y3Ni2
_chemical_formula_sum   'Y432 Ni288'
_cell_volume   33020.71047028
_cell_formula_units_Z   144
loop_
 _symmetry_equiv_pos_site_id
 _symmetry_equiv_pos_as_xyz
  1  'x, y, z'
loop_
 _atom_site_type_symbol
 _atom_site_label
 _atom_site_symmetry_multiplicity
 _atom_site_fract_x
 _atom_site_fract_y
 _atom_site_fract_z
 _atom_site_occupancy
  Y  Y0  1  0.27877433  0.32962867  0.20173050  1.0
  Y  Y1  1  0.27877433  0.66296200  0.20173050  1.0
  Y  Y2  1  0.27877433  0.99629533  0.20173050  1.0
  Y  Y3  1  0.61210767  0.32962867  0.20173050  1.0
  Y  Y4  1  0.61210767  0.66296200  0.20173050  1.0
  Y  Y5  1  0.61210767  0.99629533  0.20173050  1.0
  Y  Y6  1  0.94544100  0.32962867  0.20173050  1.0
  Y  Y7  1  0.94544100  0.66296200  0.20173050  1.0
  Y  Y8  1  0.94544100  0.99629533  0.20173050  1.0
  Y  Y9  1  0.31313000  0.23066800  0.37861250  1.0
  Y  Y10  1  0.31313000  0.56400133  0.37861250  1.0
  Y  Y11  1  0.31313000  0.89733467  0.37861250  1.0
  Y  Y12  1  0.64646333  0.23066800  0.37861250  1.0
  Y  Y13  1  0.64646333  0.56400133  0.37861250  1.0
  Y  Y14  1  0.64646333  0.89733467  0.37861250  1.0
  Y  Y15  1  0.97979667  0.23066800  0.37861250  1.0
  Y  Y16  1  0.97979667  0.56400133  0.37861250  1.0
  Y  Y17  1  0.97979667  0.89733467  0.37861250  1.0
  Y  Y18  1  0.28008133  0.22142733  0.15569400  1.0
  Y  Y19  1  0.28008133  0.55476067  0.15569400  1.0
  Y  Y20  1  0.28008133  0.88809400  0.15569400  1.0
  Y  Y21  1  0.61341467  0.22142733  0.15569400  1.0
  Y  Y22  1  0.61341467  0.55476067  0.15569400  1.0
  Y  Y23  1  0.61341467  0.88809400  0.15569400  1.0
  Y  Y24  1  0.94674800  0.22142733  0.15569400  1.0
  Y  Y25  1  0.94674800  0.55476067  0.15569400  1.0
  Y  Y26  1  0.94674800  0.88809400  0.15569400  1.0
  Y  Y27  1  0.27278600  0.06054733  0.37138750  1.0
  Y  Y28  1  0.27278600  0.39388067  0.37138750  1.0
  Y  Y29  1  0.27278600  0.72721400  0.37138750  1.0
  Y  Y30  1  0.60611933  0.06054733  0.37138750  1.0
  Y  Y31  1  0.60611933  0.39388067  0.37138750  1.0
  Y  Y32  1  0.60611933  0.72721400  0.37138750  1.0
  Y  Y33  1  0.93945267  0.06054733  0.37138750  1.0
  Y  Y34  1  0.93945267  0.39388067  0.37138750  1.0
  Y  Y35  1  0.93945267  0.72721400  0.37138750  1.0
  Y  Y36  1  0.17824933  0.15508400  0.12138750  1.0
  Y  Y37  1  0.17824933  0.48841733  0.12138750  1.0
  Y  Y38  1  0.17824933  0.82175067  0.12138750  1.0
  Y  Y39  1  0.51158267  0.15508400  0.12138750  1.0
  Y  Y40  1  0.51158267  0.48841733  0.12138750  1.0
  Y  Y41  1  0.51158267  0.82175067  0.12138750  1.0
  Y  Y42  1  0.84491600  0.15508400  0.12138750  1.0
  Y  Y43  1  0.84491600  0.48841733  0.12138750  1.0
  Y  Y44  1  0.84491600  0.82175067  0.12138750  1.0
  Y  Y45  1  0.23629067  0.16162100  0.20007900  1.0
  Y  Y46  1  0.23629067  0.49495433  0.20007900  1.0
  Y  Y47  1  0.23629067  0.82828767  0.20007900  1.0
  Y  Y48  1  0.56962400  0.16162100  0.20007900  1.0
  Y  Y49  1  0.56962400  0.49495433  0.20007900  1.0
  Y  Y50  1  0.56962400  0.82828767  0.20007900  1.0
  Y  Y51  1  0.90295733  0.16162100  0.20007900  1.0
  Y  Y52  1  0.90295733  0.49495433  0.20007900  1.0
  Y  Y53  1  0.90295733  0.82828767  0.20007900  1.0
  Y  Y54  1  0.27857267  0.11341467  0.28069400  1.0
  Y  Y55  1  0.27857267  0.44674800  0.28069400  1.0
  Y  Y56  1  0.27857267  0.78008133  0.28069400  1.0
  Y  Y57  1  0.61190600  0.11341467  0.28069400  1.0
  Y  Y58  1  0.61190600  0.44674800  0.28069400  1.0
  Y  Y59  1  0.61190600  0.78008133  0.28069400  1.0
  Y  Y60  1  0.94523933  0.11341467  0.28069400  1.0
  Y  Y61  1  0.94523933  0.44674800  0.28069400  1.0
  Y  Y62  1  0.94523933  0.78008133  0.28069400  1.0
  Y  Y63  1  0.22721400  0.22721400  0.24638750  1.0
  Y  Y64  1  0.22721400  0.56054733  0.24638750  1.0
  Y  Y65  1  0.22721400  0.89388067  0.24638750  1.0
  Y  Y66  1  0.56054733  0.22721400  0.24638750  1.0
  Y  Y67  1  0.56054733  0.56054733  0.24638750  1.0
  Y  Y68  1  0.56054733  0.89388067  0.24638750  1.0
  Y  Y69  1  0.89388067  0.22721400  0.24638750  1.0
  Y  Y70  1  0.89388067  0.56054733  0.24638750  1.0
  Y  Y71  1  0.89388067  0.89388067  0.24638750  1.0
  Y  Y72  1  0.16296200  0.22122567  0.07673050  1.0
  Y  Y73  1  0.16296200  0.55455900  0.07673050  1.0
  Y  Y74  1  0.16296200  0.88789233  0.07673050  1.0
  Y  Y75  1  0.49629533  0.22122567  0.07673050  1.0
  Y  Y76  1  0.49629533  0.55455900  0.07673050  1.0
  Y  Y77  1  0.49629533  0.88789233  0.07673050  1.0
  Y  Y78  1  0.82962867  0.22122567  0.07673050  1.0
  Y  Y79  1  0.82962867  0.55455900  0.07673050  1.0
  Y  Y80  1  0.82962867  0.88789233  0.07673050  1.0
  Y  Y81  1  0.21991867  0.05476067  0.46208100  1.0
  Y  Y82  1  0.21991867  0.38809400  0.46208100  1.0
  Y  Y83  1  0.21991867  0.72142733  0.46208100  1.0
  Y  Y84  1  0.55325200  0.05476067  0.46208100  1.0
  Y  Y85  1  0.55325200  0.38809400  0.46208100  1.0
  Y  Y86  1  0.55325200  0.72142733  0.46208100  1.0
  Y  Y87  1  0.88658533  0.05476067  0.46208100  1.0
  Y  Y88  1  0.88658533  0.38809400  0.46208100  1.0
  Y  Y89  1  0.88658533  0.72142733  0.46208100  1.0
  Y  Y90  1  0.32962867  0.27877433  0.29104450  1.0
  Y  Y91  1  0.32962867  0.61210767  0.29104450  1.0
  Y  Y92  1  0.32962867  0.94544100  0.29104450  1.0
  Y  Y93  1  0.66296200  0.27877433  0.29104450  1.0
  Y  Y94  1  0.66296200  0.61210767  0.29104450  1.0
  Y  Y95  1  0.66296200  0.94544100  0.29104450  1.0
  Y  Y96  1  0.99629533  0.27877433  0.29104450  1.0
  Y  Y97  1  0.99629533  0.61210767  0.29104450  1.0
  Y  Y98  1  0.99629533  0.94544100  0.29104450  1.0
  Y  Y99  1  0.10216667  0.28563467  0.40928600  1.0
  Y  Y100  1  0.10216667  0.61896800  0.40928600  1.0
  Y  Y101  1  0.10216667  0.95230133  0.40928600  1.0
  Y  Y102  1  0.43550000  0.28563467  0.40928600  1.0
  Y  Y103  1  0.43550000  0.61896800  0.40928600  1.0
  Y  Y104  1  0.43550000  0.95230133  0.40928600  1.0
  Y  Y105  1  0.76883333  0.28563467  0.40928600  1.0
  Y  Y106  1  0.76883333  0.61896800  0.40928600  1.0
  Y  Y107  1  0.76883333  0.95230133  0.40928600  1.0
  Y  Y108  1  0.11210767  0.17037133  0.16604450  1.0
  Y  Y109  1  0.11210767  0.50370467  0.16604450  1.0
  Y  Y110  1  0.11210767  0.83703800  0.16604450  1.0
  Y  Y111  1  0.44544100  0.17037133  0.16604450  1.0
  Y  Y112  1  0.44544100  0.50370467  0.16604450  1.0
  Y  Y113  1  0.44544100  0.83703800  0.16604450  1.0
  Y  Y114  1  0.77877433  0.17037133  0.16604450  1.0
  Y  Y115  1  0.77877433  0.50370467  0.16604450  1.0
  Y  Y116  1  0.77877433  0.83703800  0.16604450  1.0
  Y  Y117  1  0.22142733  0.28008133  0.33708100  1.0
  Y  Y118  1  0.22142733  0.61341467  0.33708100  1.0
  Y  Y119  1  0.22142733  0.94674800  0.33708100  1.0
  Y  Y120  1  0.55476067  0.28008133  0.33708100  1.0
  Y  Y121  1  0.55476067  0.61341467  0.33708100  1.0
  Y  Y122  1  0.55476067  0.94674800  0.33708100  1.0
  Y  Y123  1  0.88809400  0.28008133  0.33708100  1.0
  Y  Y124  1  0.88809400  0.61341467  0.33708100  1.0
  Y  Y125  1  0.88809400  0.94674800  0.33708100  1.0
  Y  Y126  1  0.06962400  0.00504567  0.16769600  1.0
  Y  Y127  1  0.06962400  0.33837900  0.16769600  1.0
  Y  Y128  1  0.06962400  0.67171233  0.16769600  1.0
  Y  Y129  1  0.40295733  0.00504567  0.16769600  1.0
  Y  Y130  1  0.40295733  0.33837900  0.16769600  1.0
  Y  Y131  1  0.40295733  0.67171233  0.16769600  1.0
  Y  Y132  1  0.73629067  0.00504567  0.16769600  1.0
  Y  Y133  1  0.73629067  0.33837900  0.16769600  1.0
  Y  Y134  1  0.73629067  0.67171233  0.16769600  1.0
  Y  Y135  1  0.23066800  0.31313000  0.11416250  1.0
  Y  Y136  1  0.23066800  0.64646333  0.11416250  1.0
  Y  Y137  1  0.23066800  0.97979667  0.11416250  1.0
  Y  Y138  1  0.56400133  0.31313000  0.11416250  1.0
  Y  Y139  1  0.56400133  0.64646333  0.11416250  1.0
  Y  Y140  1  0.56400133  0.97979667  0.11416250  1.0
  Y  Y141  1  0.89733467  0.31313000  0.11416250  1.0
  Y  Y142  1  0.89733467  0.64646333  0.11416250  1.0
  Y  Y143  1  0.89733467  0.97979667  0.11416250  1.0
  Y  Y144  1  0.22122567  0.16296200  0.41604450  1.0
  Y  Y145  1  0.22122567  0.49629533  0.41604450  1.0
  Y  Y146  1  0.22122567  0.82962867  0.41604450  1.0
  Y  Y147  1  0.55455900  0.16296200  0.41604450  1.0
  Y  Y148  1  0.55455900  0.49629533  0.41604450  1.0
  Y  Y149  1  0.55455900  0.82962867  0.41604450  1.0
  Y  Y150  1  0.88789233  0.16296200  0.41604450  1.0
  Y  Y151  1  0.88789233  0.49629533  0.41604450  1.0
  Y  Y152  1  0.88789233  0.82962867  0.41604450  1.0
  Y  Y153  1  0.04769867  0.23116667  0.33348900  1.0
  Y  Y154  1  0.04769867  0.56450000  0.33348900  1.0
  Y  Y155  1  0.04769867  0.89783333  0.33348900  1.0
  Y  Y156  1  0.38103200  0.23116667  0.33348900  1.0
  Y  Y157  1  0.38103200  0.56450000  0.33348900  1.0
  Y  Y158  1  0.38103200  0.89783333  0.33348900  1.0
  Y  Y159  1  0.71436533  0.23116667  0.33348900  1.0
  Y  Y160  1  0.71436533  0.56450000  0.33348900  1.0
  Y  Y161  1  0.71436533  0.89783333  0.33348900  1.0
  Y  Y162  1  0.05476067  0.21991867  0.03069400  1.0
  Y  Y163  1  0.05476067  0.55325200  0.03069400  1.0
  Y  Y164  1  0.05476067  0.88658533  0.03069400  1.0
  Y  Y165  1  0.38809400  0.21991867  0.03069400  1.0
  Y  Y166  1  0.38809400  0.55325200  0.03069400  1.0
  Y  Y167  1  0.38809400  0.88658533  0.03069400  1.0
  Y  Y168  1  0.72142733  0.21991867  0.03069400  1.0
  Y  Y169  1  0.72142733  0.55325200  0.03069400  1.0
  Y  Y170  1  0.72142733  0.88658533  0.03069400  1.0
  Y  Y171  1  0.15508400  0.17824933  0.37138750  1.0
  Y  Y172  1  0.15508400  0.51158267  0.37138750  1.0
  Y  Y173  1  0.15508400  0.84491600  0.37138750  1.0
  Y  Y174  1  0.48841733  0.17824933  0.37138750  1.0
  Y  Y175  1  0.48841733  0.51158267  0.37138750  1.0
  Y  Y176  1  0.48841733  0.84491600  0.37138750  1.0
  Y  Y177  1  0.82175067  0.17824933  0.37138750  1.0
  Y  Y178  1  0.82175067  0.51158267  0.37138750  1.0
  Y  Y179  1  0.82175067  0.84491600  0.37138750  1.0
  Y  Y180  1  0.26883333  0.21436533  0.45848900  1.0
  Y  Y181  1  0.26883333  0.54769867  0.45848900  1.0
  Y  Y182  1  0.26883333  0.88103200  0.45848900  1.0
  Y  Y183  1  0.60216667  0.21436533  0.45848900  1.0
  Y  Y184  1  0.60216667  0.54769867  0.45848900  1.0
  Y  Y185  1  0.60216667  0.88103200  0.45848900  1.0
  Y  Y186  1  0.93550000  0.21436533  0.45848900  1.0
  Y  Y187  1  0.93550000  0.54769867  0.45848900  1.0
  Y  Y188  1  0.93550000  0.88103200  0.45848900  1.0
  Y  Y189  1  0.17171233  0.09704267  0.04269600  1.0
  Y  Y190  1  0.17171233  0.43037600  0.04269600  1.0
  Y  Y191  1  0.17171233  0.76370933  0.04269600  1.0
  Y  Y192  1  0.50504567  0.09704267  0.04269600  1.0
  Y  Y193  1  0.50504567  0.43037600  0.04269600  1.0
  Y  Y194  1  0.50504567  0.76370933  0.04269600  1.0
  Y  Y195  1  0.83837900  0.09704267  0.04269600  1.0
  Y  Y196  1  0.83837900  0.43037600  0.04269600  1.0
  Y  Y197  1  0.83837900  0.76370933  0.04269600  1.0
  Y  Y198  1  0.05455900  0.00370467  0.45173050  1.0
  Y  Y199  1  0.05455900  0.33703800  0.45173050  1.0
  Y  Y200  1  0.05455900  0.67037133  0.45173050  1.0
  Y  Y201  1  0.38789233  0.00370467  0.45173050  1.0
  Y  Y202  1  0.38789233  0.33703800  0.45173050  1.0
  Y  Y203  1  0.38789233  0.67037133  0.45173050  1.0
  Y  Y204  1  0.72122567  0.00370467  0.45173050  1.0
  Y  Y205  1  0.72122567  0.33703800  0.45173050  1.0
  Y  Y206  1  0.72122567  0.67037133  0.45173050  1.0
  Y  Y207  1  0.26933200  0.14646333  0.00361250  1.0
  Y  Y208  1  0.26933200  0.47979667  0.00361250  1.0
  Y  Y209  1  0.26933200  0.81313000  0.00361250  1.0
  Y  Y210  1  0.60266533  0.14646333  0.00361250  1.0
  Y  Y211  1  0.60266533  0.47979667  0.00361250  1.0
  Y  Y212  1  0.60266533  0.81313000  0.00361250  1.0
  Y  Y213  1  0.93599867  0.14646333  0.00361250  1.0
  Y  Y214  1  0.93599867  0.47979667  0.00361250  1.0
  Y  Y215  1  0.93599867  0.81313000  0.00361250  1.0
  Y  Y216  1  0.32175067  0.32175067  0.49638750  1.0
  Y  Y217  1  0.32175067  0.65508400  0.49638750  1.0
  Y  Y218  1  0.32175067  0.98841733  0.49638750  1.0
  Y  Y219  1  0.65508400  0.32175067  0.49638750  1.0
  Y  Y220  1  0.65508400  0.65508400  0.49638750  1.0
  Y  Y221  1  0.65508400  0.98841733  0.49638750  1.0
  Y  Y222  1  0.98841733  0.32175067  0.49638750  1.0
  Y  Y223  1  0.98841733  0.65508400  0.49638750  1.0
  Y  Y224  1  0.98841733  0.98841733  0.49638750  1.0
  Y  Y225  1  0.00504567  0.06962400  0.32507900  1.0
  Y  Y226  1  0.00504567  0.40295733  0.32507900  1.0
  Y  Y227  1  0.00504567  0.73629067  0.32507900  1.0
  Y  Y228  1  0.33837900  0.06962400  0.32507900  1.0
  Y  Y229  1  0.33837900  0.40295733  0.32507900  1.0
  Y  Y230  1  0.33837900  0.73629067  0.32507900  1.0
  Y  Y231  1  0.67171233  0.06962400  0.32507900  1.0
  Y  Y232  1  0.67171233  0.40295733  0.32507900  1.0
  Y  Y233  1  0.67171233  0.73629067  0.32507900  1.0
  Y  Y234  1  0.11896800  0.06450000  0.28428600  1.0
  Y  Y235  1  0.11896800  0.39783333  0.28428600  1.0
  Y  Y236  1  0.11896800  0.73116667  0.28428600  1.0
  Y  Y237  1  0.45230133  0.06450000  0.28428600  1.0
  Y  Y238  1  0.45230133  0.39783333  0.28428600  1.0
  Y  Y239  1  0.45230133  0.73116667  0.28428600  1.0
  Y  Y240  1  0.78563467  0.06450000  0.28428600  1.0
  Y  Y241  1  0.78563467  0.39783333  0.28428600  1.0
  Y  Y242  1  0.78563467  0.73116667  0.28428600  1.0
  Y  Y243  1  0.05325200  0.11190600  0.40569400  1.0
  Y  Y244  1  0.05325200  0.44523933  0.40569400  1.0
  Y  Y245  1  0.05325200  0.77857267  0.40569400  1.0
  Y  Y246  1  0.38658533  0.11190600  0.40569400  1.0
  Y  Y247  1  0.38658533  0.44523933  0.40569400  1.0
  Y  Y248  1  0.38658533  0.77857267  0.40569400  1.0
  Y  Y249  1  0.71991867  0.11190600  0.40569400  1.0
  Y  Y250  1  0.71991867  0.44523933  0.40569400  1.0
  Y  Y251  1  0.71991867  0.77857267  0.40569400  1.0
  Y  Y252  1  0.10611933  0.10611933  0.49638750  1.0
  Y  Y253  1  0.10611933  0.43945267  0.49638750  1.0
  Y  Y254  1  0.10611933  0.77278600  0.49638750  1.0
  Y  Y255  1  0.43945267  0.10611933  0.49638750  1.0
  Y  Y256  1  0.43945267  0.43945267  0.49638750  1.0
  Y  Y257  1  0.43945267  0.77278600  0.49638750  1.0
  Y  Y258  1  0.77278600  0.10611933  0.49638750  1.0
  Y  Y259  1  0.77278600  0.43945267  0.49638750  1.0
  Y  Y260  1  0.77278600  0.77278600  0.49638750  1.0
  Y  Y261  1  0.02020333  0.10266533  0.12861250  1.0
  Y  Y262  1  0.02020333  0.43599867  0.12861250  1.0
  Y  Y263  1  0.02020333  0.76933200  0.12861250  1.0
  Y  Y264  1  0.35353667  0.10266533  0.12861250  1.0
  Y  Y265  1  0.35353667  0.43599867  0.12861250  1.0
  Y  Y266  1  0.35353667  0.76933200  0.12861250  1.0
  Y  Y267  1  0.68687000  0.10266533  0.12861250  1.0
  Y  Y268  1  0.68687000  0.43599867  0.12861250  1.0
  Y  Y269  1  0.68687000  0.76933200  0.12861250  1.0
  Y  Y270  1  0.11341467  0.27857267  0.21208100  1.0
  Y  Y271  1  0.11341467  0.61190600  0.21208100  1.0
  Y  Y272  1  0.11341467  0.94523933  0.21208100  1.0
  Y  Y273  1  0.44674800  0.27857267  0.21208100  1.0
  Y  Y274  1  0.44674800  0.61190600  0.21208100  1.0
  Y  Y275  1  0.44674800  0.94523933  0.21208100  1.0
  Y  Y276  1  0.78008133  0.27857267  0.21208100  1.0
  Y  Y277  1  0.78008133  0.61190600  0.21208100  1.0
  Y  Y278  1  0.78008133  0.94523933  0.21208100  1.0
  Y  Y279  1  0.06054733  0.27278600  0.12138750  1.0
  Y  Y280  1  0.06054733  0.60611933  0.12138750  1.0
  Y  Y281  1  0.06054733  0.93945267  0.12138750  1.0
  Y  Y282  1  0.39388067  0.27278600  0.12138750  1.0
  Y  Y283  1  0.39388067  0.60611933  0.12138750  1.0
  Y  Y284  1  0.39388067  0.93945267  0.12138750  1.0
  Y  Y285  1  0.72721400  0.27278600  0.12138750  1.0
  Y  Y286  1  0.72721400  0.60611933  0.12138750  1.0
  Y  Y287  1  0.72721400  0.93945267  0.12138750  1.0
  Y  Y288  1  0.01158267  0.01158267  0.24638750  1.0
  Y  Y289  1  0.01158267  0.34491600  0.24638750  1.0
  Y  Y290  1  0.01158267  0.67824933  0.24638750  1.0
  Y  Y291  1  0.34491600  0.01158267  0.24638750  1.0
  Y  Y292  1  0.34491600  0.34491600  0.24638750  1.0
  Y  Y293  1  0.34491600  0.67824933  0.24638750  1.0
  Y  Y294  1  0.67824933  0.01158267  0.24638750  1.0
  Y  Y295  1  0.67824933  0.34491600  0.24638750  1.0
  Y  Y296  1  0.67824933  0.67824933  0.24638750  1.0
  Y  Y297  1  0.10266533  0.02020333  0.36416250  1.0
  Y  Y298  1  0.10266533  0.35353667  0.36416250  1.0
  Y  Y299  1  0.10266533  0.68687000  0.36416250  1.0
  Y  Y300  1  0.43599867  0.02020333  0.36416250  1.0
  Y  Y301  1  0.43599867  0.35353667  0.36416250  1.0
  Y  Y302  1  0.43599867  0.68687000  0.36416250  1.0
  Y  Y303  1  0.76933200  0.02020333  0.36416250  1.0
  Y  Y304  1  0.76933200  0.35353667  0.36416250  1.0
  Y  Y305  1  0.76933200  0.68687000  0.36416250  1.0
  Y  Y306  1  0.23116667  0.04769867  0.15928600  1.0
  Y  Y307  1  0.23116667  0.38103200  0.15928600  1.0
  Y  Y308  1  0.23116667  0.71436533  0.15928600  1.0
  Y  Y309  1  0.56450000  0.04769867  0.15928600  1.0
  Y  Y310  1  0.56450000  0.38103200  0.15928600  1.0
  Y  Y311  1  0.56450000  0.71436533  0.15928600  1.0
  Y  Y312  1  0.89783333  0.04769867  0.15928600  1.0
  Y  Y313  1  0.89783333  0.38103200  0.15928600  1.0
  Y  Y314  1  0.89783333  0.71436533  0.15928600  1.0
  Y  Y315  1  0.11190600  0.05325200  0.08708100  1.0
  Y  Y316  1  0.11190600  0.38658533  0.08708100  1.0
  Y  Y317  1  0.11190600  0.71991867  0.08708100  1.0
  Y  Y318  1  0.44523933  0.05325200  0.08708100  1.0
  Y  Y319  1  0.44523933  0.38658533  0.08708100  1.0
  Y  Y320  1  0.44523933  0.71991867  0.08708100  1.0
  Y  Y321  1  0.77857267  0.05325200  0.08708100  1.0
  Y  Y322  1  0.77857267  0.38658533  0.08708100  1.0
  Y  Y323  1  0.77857267  0.71991867  0.08708100  1.0
  Y  Y324  1  0.14646333  0.26933200  0.48916250  1.0
  Y  Y325  1  0.14646333  0.60266533  0.48916250  1.0
  Y  Y326  1  0.14646333  0.93599867  0.48916250  1.0
  Y  Y327  1  0.47979667  0.26933200  0.48916250  1.0
  Y  Y328  1  0.47979667  0.60266533  0.48916250  1.0
  Y  Y329  1  0.47979667  0.93599867  0.48916250  1.0
  Y  Y330  1  0.81313000  0.26933200  0.48916250  1.0
  Y  Y331  1  0.81313000  0.60266533  0.48916250  1.0
  Y  Y332  1  0.81313000  0.93599867  0.48916250  1.0
  Y  Y333  1  0.16162100  0.23629067  0.29269600  1.0
  Y  Y334  1  0.16162100  0.56962400  0.29269600  1.0
  Y  Y335  1  0.16162100  0.90295733  0.29269600  1.0
  Y  Y336  1  0.49495433  0.23629067  0.29269600  1.0
  Y  Y337  1  0.49495433  0.56962400  0.29269600  1.0
  Y  Y338  1  0.49495433  0.90295733  0.29269600  1.0
  Y  Y339  1  0.82828767  0.23629067  0.29269600  1.0
  Y  Y340  1  0.82828767  0.56962400  0.29269600  1.0
  Y  Y341  1  0.82828767  0.90295733  0.29269600  1.0
  Y  Y342  1  0.18687000  0.06400133  0.23916250  1.0
  Y  Y343  1  0.18687000  0.39733467  0.23916250  1.0
  Y  Y344  1  0.18687000  0.73066800  0.23916250  1.0
  Y  Y345  1  0.52020333  0.06400133  0.23916250  1.0
  Y  Y346  1  0.52020333  0.39733467  0.23916250  1.0
  Y  Y347  1  0.52020333  0.73066800  0.23916250  1.0
  Y  Y348  1  0.85353667  0.06400133  0.23916250  1.0
  Y  Y349  1  0.85353667  0.39733467  0.23916250  1.0
  Y  Y350  1  0.85353667  0.73066800  0.23916250  1.0
  Y  Y351  1  0.06400133  0.18687000  0.25361250  1.0
  Y  Y352  1  0.06400133  0.52020333  0.25361250  1.0
  Y  Y353  1  0.06400133  0.85353667  0.25361250  1.0
  Y  Y354  1  0.39733467  0.18687000  0.25361250  1.0
  Y  Y355  1  0.39733467  0.52020333  0.25361250  1.0
  Y  Y356  1  0.39733467  0.85353667  0.25361250  1.0
  Y  Y357  1  0.73066800  0.18687000  0.25361250  1.0
  Y  Y358  1  0.73066800  0.52020333  0.25361250  1.0
  Y  Y359  1  0.73066800  0.85353667  0.25361250  1.0
  Y  Y360  1  0.21436533  0.26883333  0.03428600  1.0
  Y  Y361  1  0.21436533  0.60216667  0.03428600  1.0
  Y  Y362  1  0.21436533  0.93550000  0.03428600  1.0
  Y  Y363  1  0.54769867  0.26883333  0.03428600  1.0
  Y  Y364  1  0.54769867  0.60216667  0.03428600  1.0
  Y  Y365  1  0.54769867  0.93550000  0.03428600  1.0
  Y  Y366  1  0.88103200  0.26883333  0.03428600  1.0
  Y  Y367  1  0.88103200  0.60216667  0.03428600  1.0
  Y  Y368  1  0.88103200  0.93550000  0.03428600  1.0
  Y  Y369  1  0.00370467  0.05455900  0.04104450  1.0
  Y  Y370  1  0.00370467  0.38789233  0.04104450  1.0
  Y  Y371  1  0.00370467  0.72122567  0.04104450  1.0
  Y  Y372  1  0.33703800  0.05455900  0.04104450  1.0
  Y  Y373  1  0.33703800  0.38789233  0.04104450  1.0
  Y  Y374  1  0.33703800  0.72122567  0.04104450  1.0
  Y  Y375  1  0.67037133  0.05455900  0.04104450  1.0
  Y  Y376  1  0.67037133  0.38789233  0.04104450  1.0
  Y  Y377  1  0.67037133  0.72122567  0.04104450  1.0
  Y  Y378  1  0.17037133  0.11210767  0.32673050  1.0
  Y  Y379  1  0.17037133  0.44544100  0.32673050  1.0
  Y  Y380  1  0.17037133  0.77877433  0.32673050  1.0
  Y  Y381  1  0.50370467  0.11210767  0.32673050  1.0
  Y  Y382  1  0.50370467  0.44544100  0.32673050  1.0
  Y  Y383  1  0.50370467  0.77877433  0.32673050  1.0
  Y  Y384  1  0.83703800  0.11210767  0.32673050  1.0
  Y  Y385  1  0.83703800  0.44544100  0.32673050  1.0
  Y  Y386  1  0.83703800  0.77877433  0.32673050  1.0
  Y  Y387  1  0.32828767  0.26370933  0.07507900  1.0
  Y  Y388  1  0.32828767  0.59704267  0.07507900  1.0
  Y  Y389  1  0.32828767  0.93037600  0.07507900  1.0
  Y  Y390  1  0.66162100  0.26370933  0.07507900  1.0
  Y  Y391  1  0.66162100  0.59704267  0.07507900  1.0
  Y  Y392  1  0.66162100  0.93037600  0.07507900  1.0
  Y  Y393  1  0.99495433  0.26370933  0.07507900  1.0
  Y  Y394  1  0.99495433  0.59704267  0.07507900  1.0
  Y  Y395  1  0.99495433  0.93037600  0.07507900  1.0
  Y  Y396  1  0.09704267  0.17171233  0.45007900  1.0
  Y  Y397  1  0.09704267  0.50504567  0.45007900  1.0
  Y  Y398  1  0.09704267  0.83837900  0.45007900  1.0
  Y  Y399  1  0.43037600  0.17171233  0.45007900  1.0
  Y  Y400  1  0.43037600  0.50504567  0.45007900  1.0
  Y  Y401  1  0.43037600  0.83837900  0.45007900  1.0
  Y  Y402  1  0.76370933  0.17171233  0.45007900  1.0
  Y  Y403  1  0.76370933  0.50504567  0.45007900  1.0
  Y  Y404  1  0.76370933  0.83837900  0.45007900  1.0
  Y  Y405  1  0.26370933  0.32828767  0.41769600  1.0
  Y  Y406  1  0.26370933  0.66162100  0.41769600  1.0
  Y  Y407  1  0.26370933  0.99495433  0.41769600  1.0
  Y  Y408  1  0.59704267  0.32828767  0.41769600  1.0
  Y  Y409  1  0.59704267  0.66162100  0.41769600  1.0
  Y  Y410  1  0.59704267  0.99495433  0.41769600  1.0
  Y  Y411  1  0.93037600  0.32828767  0.41769600  1.0
  Y  Y412  1  0.93037600  0.66162100  0.41769600  1.0
  Y  Y413  1  0.93037600  0.99495433  0.41769600  1.0
  Y  Y414  1  0.06450000  0.11896800  0.20848900  1.0
  Y  Y415  1  0.06450000  0.45230133  0.20848900  1.0
  Y  Y416  1  0.06450000  0.78563467  0.20848900  1.0
  Y  Y417  1  0.39783333  0.11896800  0.20848900  1.0
  Y  Y418  1  0.39783333  0.45230133  0.20848900  1.0
  Y  Y419  1  0.39783333  0.78563467  0.20848900  1.0
  Y  Y420  1  0.73116667  0.11896800  0.20848900  1.0
  Y  Y421  1  0.73116667  0.45230133  0.20848900  1.0
  Y  Y422  1  0.73116667  0.78563467  0.20848900  1.0
  Y  Y423  1  0.28563467  0.10216667  0.08348900  1.0
  Y  Y424  1  0.28563467  0.43550000  0.08348900  1.0
  Y  Y425  1  0.28563467  0.76883333  0.08348900  1.0
  Y  Y426  1  0.61896800  0.10216667  0.08348900  1.0
  Y  Y427  1  0.61896800  0.43550000  0.08348900  1.0
  Y  Y428  1  0.61896800  0.76883333  0.08348900  1.0
  Y  Y429  1  0.95230133  0.10216667  0.08348900  1.0
  Y  Y430  1  0.95230133  0.43550000  0.08348900  1.0
  Y  Y431  1  0.95230133  0.76883333  0.08348900  1.0
  Ni  Ni432  1  0.00391133  0.21784467  0.42432850  1.0
  Ni  Ni433  1  0.00391133  0.55117800  0.42432850  1.0
  Ni  Ni434  1  0.00391133  0.88451133  0.42432850  1.0
  Ni  Ni435  1  0.33724467  0.21784467  0.42432850  1.0
  Ni  Ni436  1  0.33724467  0.55117800  0.42432850  1.0
  Ni  Ni437  1  0.33724467  0.88451133  0.42432850  1.0
  Ni  Ni438  1  0.67057800  0.21784467  0.42432850  1.0
  Ni  Ni439  1  0.67057800  0.55117800  0.42432850  1.0
  Ni  Ni440  1  0.67057800  0.88451133  0.42432850  1.0
  Ni  Ni441  1  0.03429900  0.20860267  0.48454650  1.0
  Ni  Ni442  1  0.03429900  0.54193600  0.48454650  1.0
  Ni  Ni443  1  0.03429900  0.87526933  0.48454650  1.0
  Ni  Ni444  1  0.36763233  0.20860267  0.48454650  1.0
  Ni  Ni445  1  0.36763233  0.54193600  0.48454650  1.0
  Ni  Ni446  1  0.36763233  0.87526933  0.48454650  1.0
  Ni  Ni447  1  0.70096567  0.20860267  0.48454650  1.0
  Ni  Ni448  1  0.70096567  0.54193600  0.48454650  1.0
  Ni  Ni449  1  0.70096567  0.87526933  0.48454650  1.0
  Ni  Ni450  1  0.04193600  0.13236767  0.35954650  1.0
  Ni  Ni451  1  0.04193600  0.46570100  0.35954650  1.0
  Ni  Ni452  1  0.04193600  0.79903433  0.35954650  1.0
  Ni  Ni453  1  0.37526933  0.13236767  0.35954650  1.0
  Ni  Ni454  1  0.37526933  0.46570100  0.35954650  1.0
  Ni  Ni455  1  0.37526933  0.79903433  0.35954650  1.0
  Ni  Ni456  1  0.70860267  0.13236767  0.35954650  1.0
  Ni  Ni457  1  0.70860267  0.46570100  0.35954650  1.0
  Ni  Ni458  1  0.70860267  0.79903433  0.35954650  1.0
  Ni  Ni459  1  0.05117800  0.16275533  0.29932850  1.0
  Ni  Ni460  1  0.05117800  0.49608867  0.29932850  1.0
  Ni  Ni461  1  0.05117800  0.82942200  0.29932850  1.0
  Ni  Ni462  1  0.38451133  0.16275533  0.29932850  1.0
  Ni  Ni463  1  0.38451133  0.49608867  0.29932850  1.0
  Ni  Ni464  1  0.38451133  0.82942200  0.29932850  1.0
  Ni  Ni465  1  0.71784467  0.16275533  0.29932850  1.0
  Ni  Ni466  1  0.71784467  0.49608867  0.29932850  1.0
  Ni  Ni467  1  0.71784467  0.82942200  0.29932850  1.0
  Ni  Ni468  1  0.17046133  0.06361267  0.39571800  1.0
  Ni  Ni469  1  0.17046133  0.39694600  0.39571800  1.0
  Ni  Ni470  1  0.17046133  0.73027933  0.39571800  1.0
  Ni  Ni471  1  0.50379467  0.06361267  0.39571800  1.0
  Ni  Ni472  1  0.50379467  0.39694600  0.39571800  1.0
  Ni  Ni473  1  0.50379467  0.73027933  0.39571800  1.0
  Ni  Ni474  1  0.83712800  0.06361267  0.39571800  1.0
  Ni  Ni475  1  0.83712800  0.39694600  0.39571800  1.0
  Ni  Ni476  1  0.83712800  0.73027933  0.39571800  1.0
  Ni  Ni477  1  0.32953867  0.23027933  0.22205700  1.0
  Ni  Ni478  1  0.32953867  0.56361267  0.22205700  1.0
  Ni  Ni479  1  0.32953867  0.89694600  0.22205700  1.0
  Ni  Ni480  1  0.66287200  0.23027933  0.22205700  1.0
  Ni  Ni481  1  0.66287200  0.56361267  0.22205700  1.0
  Ni  Ni482  1  0.66287200  0.89694600  0.22205700  1.0
  Ni  Ni483  1  0.99620533  0.23027933  0.22205700  1.0
  Ni  Ni484  1  0.99620533  0.56361267  0.22205700  1.0
  Ni  Ni485  1  0.99620533  0.89694600  0.22205700  1.0
  Ni  Ni486  1  0.16275533  0.05117800  0.19344650  1.0
  Ni  Ni487  1  0.16275533  0.38451133  0.19344650  1.0
  Ni  Ni488  1  0.16275533  0.71784467  0.19344650  1.0
  Ni  Ni489  1  0.49608867  0.05117800  0.19344650  1.0
  Ni  Ni490  1  0.49608867  0.38451133  0.19344650  1.0
  Ni  Ni491  1  0.49608867  0.71784467  0.19344650  1.0
  Ni  Ni492  1  0.82942200  0.05117800  0.19344650  1.0
  Ni  Ni493  1  0.82942200  0.38451133  0.19344650  1.0
  Ni  Ni494  1  0.82942200  0.71784467  0.19344650  1.0
  Ni  Ni495  1  0.00379467  0.10305400  0.47205700  1.0
  Ni  Ni496  1  0.00379467  0.43638733  0.47205700  1.0
  Ni  Ni497  1  0.00379467  0.76972067  0.47205700  1.0
  Ni  Ni498  1  0.33712800  0.10305400  0.47205700  1.0
  Ni  Ni499  1  0.33712800  0.43638733  0.47205700  1.0
  Ni  Ni500  1  0.33712800  0.76972067  0.47205700  1.0
  Ni  Ni501  1  0.67046133  0.10305400  0.47205700  1.0
  Ni  Ni502  1  0.67046133  0.43638733  0.47205700  1.0
  Ni  Ni503  1  0.67046133  0.76972067  0.47205700  1.0
  Ni  Ni504  1  0.20860267  0.03429900  0.00822850  1.0
  Ni  Ni505  1  0.20860267  0.36763233  0.00822850  1.0
  Ni  Ni506  1  0.20860267  0.70096567  0.00822850  1.0
  Ni  Ni507  1  0.54193600  0.03429900  0.00822850  1.0
  Ni  Ni508  1  0.54193600  0.36763233  0.00822850  1.0
  Ni  Ni509  1  0.54193600  0.70096567  0.00822850  1.0
  Ni  Ni510  1  0.87526933  0.03429900  0.00822850  1.0
  Ni  Ni511  1  0.87526933  0.36763233  0.00822850  1.0
  Ni  Ni512  1  0.87526933  0.70096567  0.00822850  1.0
  Ni  Ni513  1  0.17057800  0.28215533  0.44344650  1.0
  Ni  Ni514  1  0.17057800  0.61548867  0.44344650  1.0
  Ni  Ni515  1  0.17057800  0.94882200  0.44344650  1.0
  Ni  Ni516  1  0.50391133  0.28215533  0.44344650  1.0
  Ni  Ni517  1  0.50391133  0.61548867  0.44344650  1.0
  Ni  Ni518  1  0.50391133  0.94882200  0.44344650  1.0
  Ni  Ni519  1  0.83724467  0.28215533  0.44344650  1.0
  Ni  Ni520  1  0.83724467  0.61548867  0.44344650  1.0
  Ni  Ni521  1  0.83724467  0.94882200  0.44344650  1.0
  Ni  Ni522  1  0.32942200  0.11548867  0.17432850  1.0
  Ni  Ni523  1  0.32942200  0.44882200  0.17432850  1.0
  Ni  Ni524  1  0.32942200  0.78215533  0.17432850  1.0
  Ni  Ni525  1  0.66275533  0.11548867  0.17432850  1.0
  Ni  Ni526  1  0.66275533  0.44882200  0.17432850  1.0
  Ni  Ni527  1  0.66275533  0.78215533  0.17432850  1.0
  Ni  Ni528  1  0.99608867  0.11548867  0.17432850  1.0
  Ni  Ni529  1  0.99608867  0.44882200  0.17432850  1.0
  Ni  Ni530  1  0.99608867  0.78215533  0.17432850  1.0
  Ni  Ni531  1  0.06361267  0.17046133  0.09705700  1.0
  Ni  Ni532  1  0.06361267  0.50379467  0.09705700  1.0
  Ni  Ni533  1  0.06361267  0.83712800  0.09705700  1.0
  Ni  Ni534  1  0.39694600  0.17046133  0.09705700  1.0
  Ni  Ni535  1  0.39694600  0.50379467  0.09705700  1.0
  Ni  Ni536  1  0.39694600  0.83712800  0.09705700  1.0
  Ni  Ni537  1  0.73027933  0.17046133  0.09705700  1.0
  Ni  Ni538  1  0.73027933  0.50379467  0.09705700  1.0
  Ni  Ni539  1  0.73027933  0.83712800  0.09705700  1.0
  Ni  Ni540  1  0.26972067  0.16287200  0.34705700  1.0
  Ni  Ni541  1  0.26972067  0.49620533  0.34705700  1.0
  Ni  Ni542  1  0.26972067  0.82953867  0.34705700  1.0
  Ni  Ni543  1  0.60305400  0.16287200  0.34705700  1.0
  Ni  Ni544  1  0.60305400  0.49620533  0.34705700  1.0
  Ni  Ni545  1  0.60305400  0.82953867  0.34705700  1.0
  Ni  Ni546  1  0.93638733  0.16287200  0.34705700  1.0
  Ni  Ni547  1  0.93638733  0.49620533  0.34705700  1.0
  Ni  Ni548  1  0.93638733  0.82953867  0.34705700  1.0
  Ni  Ni549  1  0.21784467  0.00391133  0.06844650  1.0
  Ni  Ni550  1  0.21784467  0.33724467  0.06844650  1.0
  Ni  Ni551  1  0.21784467  0.67057800  0.06844650  1.0
  Ni  Ni552  1  0.55117800  0.00391133  0.06844650  1.0
  Ni  Ni553  1  0.55117800  0.33724467  0.06844650  1.0
  Ni  Ni554  1  0.55117800  0.67057800  0.06844650  1.0
  Ni  Ni555  1  0.88451133  0.00391133  0.06844650  1.0
  Ni  Ni556  1  0.88451133  0.33724467  0.06844650  1.0
  Ni  Ni557  1  0.88451133  0.67057800  0.06844650  1.0
  Ni  Ni558  1  0.31506200  0.10638300  0.43838400  1.0
  Ni  Ni559  1  0.31506200  0.43971633  0.43838400  1.0
  Ni  Ni560  1  0.31506200  0.77304967  0.43838400  1.0
  Ni  Ni561  1  0.64839533  0.10638300  0.43838400  1.0
  Ni  Ni562  1  0.64839533  0.43971633  0.43838400  1.0
  Ni  Ni563  1  0.64839533  0.77304967  0.43838400  1.0
  Ni  Ni564  1  0.98172867  0.10638300  0.43838400  1.0
  Ni  Ni565  1  0.98172867  0.43971633  0.43838400  1.0
  Ni  Ni566  1  0.98172867  0.77304967  0.43838400  1.0
  Ni  Ni567  1  0.13236767  0.04193600  0.13322850  1.0
  Ni  Ni568  1  0.13236767  0.37526933  0.13322850  1.0
  Ni  Ni569  1  0.13236767  0.70860267  0.13322850  1.0
  Ni  Ni570  1  0.46570100  0.04193600  0.13322850  1.0
  Ni  Ni571  1  0.46570100  0.37526933  0.13322850  1.0
  Ni  Ni572  1  0.46570100  0.70860267  0.13322850  1.0
  Ni  Ni573  1  0.79903433  0.04193600  0.13322850  1.0
  Ni  Ni574  1  0.79903433  0.37526933  0.13322850  1.0
  Ni  Ni575  1  0.79903433  0.70860267  0.13322850  1.0
  Ni  Ni576  1  0.16287200  0.26972067  0.14571800  1.0
  Ni  Ni577  1  0.16287200  0.60305400  0.14571800  1.0
  Ni  Ni578  1  0.16287200  0.93638733  0.14571800  1.0
  Ni  Ni579  1  0.49620533  0.26972067  0.14571800  1.0
  Ni  Ni580  1  0.49620533  0.60305400  0.14571800  1.0
  Ni  Ni581  1  0.49620533  0.93638733  0.14571800  1.0
  Ni  Ni582  1  0.82953867  0.26972067  0.14571800  1.0
  Ni  Ni583  1  0.82953867  0.60305400  0.14571800  1.0
  Ni  Ni584  1  0.82953867  0.93638733  0.14571800  1.0
  Ni  Ni585  1  0.01827133  0.22695033  0.18838400  1.0
  Ni  Ni586  1  0.01827133  0.56028367  0.18838400  1.0
  Ni  Ni587  1  0.01827133  0.89361700  0.18838400  1.0
  Ni  Ni588  1  0.35160467  0.22695033  0.18838400  1.0
  Ni  Ni589  1  0.35160467  0.56028367  0.18838400  1.0
  Ni  Ni590  1  0.35160467  0.89361700  0.18838400  1.0
  Ni  Ni591  1  0.68493800  0.22695033  0.18838400  1.0
  Ni  Ni592  1  0.68493800  0.56028367  0.18838400  1.0
  Ni  Ni593  1  0.68493800  0.89361700  0.18838400  1.0
  Ni  Ni594  1  0.29903433  0.12473067  0.23454650  1.0
  Ni  Ni595  1  0.29903433  0.45806400  0.23454650  1.0
  Ni  Ni596  1  0.29903433  0.79139733  0.23454650  1.0
  Ni  Ni597  1  0.63236767  0.12473067  0.23454650  1.0
  Ni  Ni598  1  0.63236767  0.45806400  0.23454650  1.0
  Ni  Ni599  1  0.63236767  0.79139733  0.23454650  1.0
  Ni  Ni600  1  0.96570100  0.12473067  0.23454650  1.0
  Ni  Ni601  1  0.96570100  0.45806400  0.23454650  1.0
  Ni  Ni602  1  0.96570100  0.79139733  0.23454650  1.0
  Ni  Ni603  1  0.23027933  0.32953867  0.27071800  1.0
  Ni  Ni604  1  0.23027933  0.66287200  0.27071800  1.0
  Ni  Ni605  1  0.23027933  0.99620533  0.27071800  1.0
  Ni  Ni606  1  0.56361267  0.32953867  0.27071800  1.0
  Ni  Ni607  1  0.56361267  0.66287200  0.27071800  1.0
  Ni  Ni608  1  0.56361267  0.99620533  0.27071800  1.0
  Ni  Ni609  1  0.89694600  0.32953867  0.27071800  1.0
  Ni  Ni610  1  0.89694600  0.66287200  0.27071800  1.0
  Ni  Ni611  1  0.89694600  0.99620533  0.27071800  1.0
  Ni  Ni612  1  0.20096567  0.29139733  0.38322850  1.0
  Ni  Ni613  1  0.20096567  0.62473067  0.38322850  1.0
  Ni  Ni614  1  0.20096567  0.95806400  0.38322850  1.0
  Ni  Ni615  1  0.53429900  0.29139733  0.38322850  1.0
  Ni  Ni616  1  0.53429900  0.62473067  0.38322850  1.0
  Ni  Ni617  1  0.53429900  0.95806400  0.38322850  1.0
  Ni  Ni618  1  0.86763233  0.29139733  0.38322850  1.0
  Ni  Ni619  1  0.86763233  0.62473067  0.38322850  1.0
  Ni  Ni620  1  0.86763233  0.95806400  0.38322850  1.0
  Ni  Ni621  1  0.11548867  0.32942200  0.31844650  1.0
  Ni  Ni622  1  0.11548867  0.66275533  0.31844650  1.0
  Ni  Ni623  1  0.11548867  0.99608867  0.31844650  1.0
  Ni  Ni624  1  0.44882200  0.32942200  0.31844650  1.0
  Ni  Ni625  1  0.44882200  0.66275533  0.31844650  1.0
  Ni  Ni626  1  0.44882200  0.99608867  0.31844650  1.0
  Ni  Ni627  1  0.78215533  0.32942200  0.31844650  1.0
  Ni  Ni628  1  0.78215533  0.66275533  0.31844650  1.0
  Ni  Ni629  1  0.78215533  0.99608867  0.31844650  1.0
  Ni  Ni630  1  0.27304967  0.18493800  0.31338400  1.0
  Ni  Ni631  1  0.27304967  0.51827133  0.31338400  1.0
  Ni  Ni632  1  0.27304967  0.85160467  0.31338400  1.0
  Ni  Ni633  1  0.60638300  0.18493800  0.31338400  1.0
  Ni  Ni634  1  0.60638300  0.51827133  0.31338400  1.0
  Ni  Ni635  1  0.60638300  0.85160467  0.31338400  1.0
  Ni  Ni636  1  0.93971633  0.18493800  0.31338400  1.0
  Ni  Ni637  1  0.93971633  0.51827133  0.31338400  1.0
  Ni  Ni638  1  0.93971633  0.85160467  0.31338400  1.0
  Ni  Ni639  1  0.10638300  0.31506200  0.05439100  1.0
  Ni  Ni640  1  0.10638300  0.64839533  0.05439100  1.0
  Ni  Ni641  1  0.10638300  0.98172867  0.05439100  1.0
  Ni  Ni642  1  0.43971633  0.31506200  0.05439100  1.0
  Ni  Ni643  1  0.43971633  0.64839533  0.05439100  1.0
  Ni  Ni644  1  0.43971633  0.98172867  0.05439100  1.0
  Ni  Ni645  1  0.77304967  0.31506200  0.05439100  1.0
  Ni  Ni646  1  0.77304967  0.64839533  0.05439100  1.0
  Ni  Ni647  1  0.77304967  0.98172867  0.05439100  1.0
  Ni  Ni648  1  0.22695033  0.01827133  0.30439100  1.0
  Ni  Ni649  1  0.22695033  0.35160467  0.30439100  1.0
  Ni  Ni650  1  0.22695033  0.68493800  0.30439100  1.0
  Ni  Ni651  1  0.56028367  0.01827133  0.30439100  1.0
  Ni  Ni652  1  0.56028367  0.35160467  0.30439100  1.0
  Ni  Ni653  1  0.56028367  0.68493800  0.30439100  1.0
  Ni  Ni654  1  0.89361700  0.01827133  0.30439100  1.0
  Ni  Ni655  1  0.89361700  0.35160467  0.30439100  1.0
  Ni  Ni656  1  0.89361700  0.68493800  0.30439100  1.0
  Ni  Ni657  1  0.12473067  0.29903433  0.25822850  1.0
  Ni  Ni658  1  0.12473067  0.63236767  0.25822850  1.0
  Ni  Ni659  1  0.12473067  0.96570100  0.25822850  1.0
  Ni  Ni660  1  0.45806400  0.29903433  0.25822850  1.0
  Ni  Ni661  1  0.45806400  0.63236767  0.25822850  1.0
  Ni  Ni662  1  0.45806400  0.96570100  0.25822850  1.0
  Ni  Ni663  1  0.79139733  0.29903433  0.25822850  1.0
  Ni  Ni664  1  0.79139733  0.63236767  0.25822850  1.0
  Ni  Ni665  1  0.79139733  0.96570100  0.25822850  1.0
  Ni  Ni666  1  0.18493800  0.27304967  0.17939100  1.0
  Ni  Ni667  1  0.18493800  0.60638300  0.17939100  1.0
  Ni  Ni668  1  0.18493800  0.93971633  0.17939100  1.0
  Ni  Ni669  1  0.51827133  0.27304967  0.17939100  1.0
  Ni  Ni670  1  0.51827133  0.60638300  0.17939100  1.0
  Ni  Ni671  1  0.51827133  0.93971633  0.17939100  1.0
  Ni  Ni672  1  0.85160467  0.27304967  0.17939100  1.0
  Ni  Ni673  1  0.85160467  0.60638300  0.17939100  1.0
  Ni  Ni674  1  0.85160467  0.93971633  0.17939100  1.0
  Ni  Ni675  1  0.06028367  0.14839533  0.06338400  1.0
  Ni  Ni676  1  0.06028367  0.48172867  0.06338400  1.0
  Ni  Ni677  1  0.06028367  0.81506200  0.06338400  1.0
  Ni  Ni678  1  0.39361700  0.14839533  0.06338400  1.0
  Ni  Ni679  1  0.39361700  0.48172867  0.06338400  1.0
  Ni  Ni680  1  0.39361700  0.81506200  0.06338400  1.0
  Ni  Ni681  1  0.72695033  0.14839533  0.06338400  1.0
  Ni  Ni682  1  0.72695033  0.48172867  0.06338400  1.0
  Ni  Ni683  1  0.72695033  0.81506200  0.06338400  1.0
  Ni  Ni684  1  0.10305400  0.00379467  0.02071800  1.0
  Ni  Ni685  1  0.10305400  0.33712800  0.02071800  1.0
  Ni  Ni686  1  0.10305400  0.67046133  0.02071800  1.0
  Ni  Ni687  1  0.43638733  0.00379467  0.02071800  1.0
  Ni  Ni688  1  0.43638733  0.33712800  0.02071800  1.0
  Ni  Ni689  1  0.43638733  0.67046133  0.02071800  1.0
  Ni  Ni690  1  0.76972067  0.00379467  0.02071800  1.0
  Ni  Ni691  1  0.76972067  0.33712800  0.02071800  1.0
  Ni  Ni692  1  0.76972067  0.67046133  0.02071800  1.0
  Ni  Ni693  1  0.14839533  0.06028367  0.42939100  1.0
  Ni  Ni694  1  0.14839533  0.39361700  0.42939100  1.0
  Ni  Ni695  1  0.14839533  0.72695033  0.42939100  1.0
  Ni  Ni696  1  0.48172867  0.06028367  0.42939100  1.0
  Ni  Ni697  1  0.48172867  0.39361700  0.42939100  1.0
  Ni  Ni698  1  0.48172867  0.72695033  0.42939100  1.0
  Ni  Ni699  1  0.81506200  0.06028367  0.42939100  1.0
  Ni  Ni700  1  0.81506200  0.39361700  0.42939100  1.0
  Ni  Ni701  1  0.81506200  0.72695033  0.42939100  1.0
  Ni  Ni702  1  0.29139733  0.20096567  0.10954650  1.0
  Ni  Ni703  1  0.29139733  0.53429900  0.10954650  1.0
  Ni  Ni704  1  0.29139733  0.86763233  0.10954650  1.0
  Ni  Ni705  1  0.62473067  0.20096567  0.10954650  1.0
  Ni  Ni706  1  0.62473067  0.53429900  0.10954650  1.0
  Ni  Ni707  1  0.62473067  0.86763233  0.10954650  1.0
  Ni  Ni708  1  0.95806400  0.20096567  0.10954650  1.0
  Ni  Ni709  1  0.95806400  0.53429900  0.10954650  1.0
  Ni  Ni710  1  0.95806400  0.86763233  0.10954650  1.0
  Ni  Ni711  1  0.28215533  0.17057800  0.04932850  1.0
  Ni  Ni712  1  0.28215533  0.50391133  0.04932850  1.0
  Ni  Ni713  1  0.28215533  0.83724467  0.04932850  1.0
  Ni  Ni714  1  0.61548867  0.17057800  0.04932850  1.0
  Ni  Ni715  1  0.61548867  0.50391133  0.04932850  1.0
  Ni  Ni716  1  0.61548867  0.83724467  0.04932850  1.0
  Ni  Ni717  1  0.94882200  0.17057800  0.04932850  1.0
  Ni  Ni718  1  0.94882200  0.50391133  0.04932850  1.0
  Ni  Ni719  1  0.94882200  0.83724467  0.04932850  1.0
