# generated using pymatgen
data_Y3Ni2
_symmetry_space_group_name_H-M   'P 1'
_cell_length_a   110.07229800
_cell_length_b   29.99955532
_cell_length_c   49.49674100
_cell_angle_alpha   135.00000000
_cell_angle_beta   90.00000000
_cell_angle_gamma   90.00000000
_symmetry_Int_Tables_number   1
_chemical_formula_structural   Y3Ni2
_chemical_formula_sum   'Y1296 Ni864'
_cell_volume   115572.48664598
_cell_formula_units_Z   432
loop_
 _symmetry_equiv_pos_site_id
 _symmetry_equiv_pos_as_xyz
  1  'x, y, z'
loop_
 _atom_site_type_symbol
 _atom_site_label
 _atom_site_symmetry_multiplicity
 _atom_site_fract_x
 _atom_site_fract_y
 _atom_site_fract_z
 _atom_site_occupancy
  Y  Y0  1  0.19643800  0.00370467  0.02000614  1.0
  Y  Y1  1  0.19643800  0.33703800  0.02000614  1.0
  Y  Y2  1  0.19643800  0.67037133  0.02000614  1.0
  Y  Y3  1  0.52977133  0.00370467  0.02000614  1.0
  Y  Y4  1  0.52977133  0.33703800  0.02000614  1.0
  Y  Y5  1  0.52977133  0.67037133  0.02000614  1.0
  Y  Y6  1  0.86310467  0.00370467  0.02000614  1.0
  Y  Y7  1  0.86310467  0.33703800  0.02000614  1.0
  Y  Y8  1  0.86310467  0.67037133  0.02000614  1.0
  Y  Y9  1  0.07851667  0.10266533  0.04769400  1.0
  Y  Y10  1  0.07851667  0.43599867  0.04769400  1.0
  Y  Y11  1  0.07851667  0.76933200  0.04769400  1.0
  Y  Y12  1  0.41185000  0.10266533  0.04769400  1.0
  Y  Y13  1  0.41185000  0.43599867  0.04769400  1.0
  Y  Y14  1  0.41185000  0.76933200  0.04769400  1.0
  Y  Y15  1  0.74518333  0.10266533  0.04769400  1.0
  Y  Y16  1  0.74518333  0.43599867  0.04769400  1.0
  Y  Y17  1  0.74518333  0.76933200  0.04769400  1.0
  Y  Y18  1  0.22712900  0.11190600  0.06581800  1.0
  Y  Y19  1  0.22712900  0.44523933  0.06581800  1.0
  Y  Y20  1  0.22712900  0.77857267  0.06581800  1.0
  Y  Y21  1  0.56046233  0.11190600  0.06581800  1.0
  Y  Y22  1  0.56046233  0.44523933  0.06581800  1.0
  Y  Y23  1  0.56046233  0.77857267  0.06581800  1.0
  Y  Y24  1  0.89379567  0.11190600  0.06581800  1.0
  Y  Y25  1  0.89379567  0.44523933  0.06581800  1.0
  Y  Y26  1  0.89379567  0.77857267  0.06581800  1.0
  Y  Y27  1  0.08333333  0.27278600  0.13789314  1.0
  Y  Y28  1  0.08333333  0.60611933  0.13789314  1.0
  Y  Y29  1  0.08333333  0.93945267  0.13789314  1.0
  Y  Y30  1  0.41666667  0.27278600  0.13789314  1.0
  Y  Y31  1  0.41666667  0.60611933  0.13789314  1.0
  Y  Y32  1  0.41666667  0.93945267  0.13789314  1.0
  Y  Y33  1  0.75000000  0.27278600  0.13789314  1.0
  Y  Y34  1  0.75000000  0.60611933  0.13789314  1.0
  Y  Y35  1  0.75000000  0.93945267  0.13789314  1.0
  Y  Y36  1  0.25000000  0.17824933  0.13789314  1.0
  Y  Y37  1  0.25000000  0.51158267  0.13789314  1.0
  Y  Y38  1  0.25000000  0.84491600  0.13789314  1.0
  Y  Y39  1  0.58333333  0.17824933  0.13789314  1.0
  Y  Y40  1  0.58333333  0.51158267  0.13789314  1.0
  Y  Y41  1  0.58333333  0.84491600  0.13789314  1.0
  Y  Y42  1  0.91666667  0.17824933  0.13789314  1.0
  Y  Y43  1  0.91666667  0.51158267  0.13789314  1.0
  Y  Y44  1  0.91666667  0.84491600  0.13789314  1.0
  Y  Y45  1  0.19753900  0.17171233  0.11021671  1.0
  Y  Y46  1  0.19753900  0.50504567  0.11021671  1.0
  Y  Y47  1  0.19753900  0.83837900  0.11021671  1.0
  Y  Y48  1  0.53087233  0.17171233  0.11021671  1.0
  Y  Y49  1  0.53087233  0.50504567  0.11021671  1.0
  Y  Y50  1  0.53087233  0.83837900  0.11021671  1.0
  Y  Y51  1  0.86420567  0.17171233  0.11021671  1.0
  Y  Y52  1  0.86420567  0.50504567  0.11021671  1.0
  Y  Y53  1  0.86420567  0.83837900  0.11021671  1.0
  Y  Y54  1  0.14379567  0.21991867  0.11275571  1.0
  Y  Y55  1  0.14379567  0.55325200  0.11275571  1.0
  Y  Y56  1  0.14379567  0.88658533  0.11275571  1.0
  Y  Y57  1  0.47712900  0.21991867  0.11275571  1.0
  Y  Y58  1  0.47712900  0.55325200  0.11275571  1.0
  Y  Y59  1  0.47712900  0.88658533  0.11275571  1.0
  Y  Y60  1  0.81046233  0.21991867  0.11275571  1.0
  Y  Y61  1  0.81046233  0.55325200  0.11275571  1.0
  Y  Y62  1  0.81046233  0.88658533  0.11275571  1.0
  Y  Y63  1  0.16666667  0.10611933  0.08599543  1.0
  Y  Y64  1  0.16666667  0.43945267  0.08599543  1.0
  Y  Y65  1  0.16666667  0.77278600  0.08599543  1.0
  Y  Y66  1  0.50000000  0.10611933  0.08599543  1.0
  Y  Y67  1  0.50000000  0.43945267  0.08599543  1.0
  Y  Y68  1  0.50000000  0.77278600  0.08599543  1.0
  Y  Y69  1  0.83333333  0.10611933  0.08599543  1.0
  Y  Y70  1  0.83333333  0.43945267  0.08599543  1.0
  Y  Y71  1  0.83333333  0.77278600  0.08599543  1.0
  Y  Y72  1  0.27977133  0.11210767  0.11609843  1.0
  Y  Y73  1  0.27977133  0.44544100  0.11609843  1.0
  Y  Y74  1  0.27977133  0.77877433  0.11609843  1.0
  Y  Y75  1  0.61310467  0.11210767  0.11609843  1.0
  Y  Y76  1  0.61310467  0.44544100  0.11609843  1.0
  Y  Y77  1  0.61310467  0.77877433  0.11609843  1.0
  Y  Y78  1  0.94643800  0.11210767  0.11609843  1.0
  Y  Y79  1  0.94643800  0.44544100  0.11609843  1.0
  Y  Y80  1  0.94643800  0.77877433  0.11609843  1.0
  Y  Y81  1  0.02287100  0.27857267  0.02017343  1.0
  Y  Y82  1  0.02287100  0.61190600  0.02017343  1.0
  Y  Y83  1  0.02287100  0.94523933  0.02017343  1.0
  Y  Y84  1  0.35620433  0.27857267  0.02017343  1.0
  Y  Y85  1  0.35620433  0.61190600  0.02017343  1.0
  Y  Y86  1  0.35620433  0.94523933  0.02017343  1.0
  Y  Y87  1  0.68953767  0.27857267  0.02017343  1.0
  Y  Y88  1  0.68953767  0.61190600  0.02017343  1.0
  Y  Y89  1  0.68953767  0.94523933  0.02017343  1.0
  Y  Y90  1  0.13689533  0.05455900  0.02000614  1.0
  Y  Y91  1  0.13689533  0.38789233  0.02000614  1.0
  Y  Y92  1  0.13689533  0.72122567  0.02000614  1.0
  Y  Y93  1  0.47022867  0.05455900  0.02000614  1.0
  Y  Y94  1  0.47022867  0.38789233  0.02000614  1.0
  Y  Y95  1  0.47022867  0.72122567  0.02000614  1.0
  Y  Y96  1  0.80356200  0.05455900  0.02000614  1.0
  Y  Y97  1  0.80356200  0.38789233  0.02000614  1.0
  Y  Y98  1  0.80356200  0.72122567  0.02000614  1.0
  Y  Y99  1  0.05806767  0.04769867  0.11454971  1.0
  Y  Y100  1  0.05806767  0.38103200  0.11454971  1.0
  Y  Y101  1  0.05806767  0.71436533  0.11454971  1.0
  Y  Y102  1  0.39140100  0.04769867  0.11454971  1.0
  Y  Y103  1  0.39140100  0.38103200  0.11454971  1.0
  Y  Y104  1  0.39140100  0.71436533  0.11454971  1.0
  Y  Y105  1  0.72473433  0.04769867  0.11454971  1.0
  Y  Y106  1  0.72473433  0.38103200  0.11454971  1.0
  Y  Y107  1  0.72473433  0.71436533  0.11454971  1.0
  Y  Y108  1  0.22022867  0.16296200  0.01683071  1.0
  Y  Y109  1  0.22022867  0.49629533  0.01683071  1.0
  Y  Y110  1  0.22022867  0.82962867  0.01683071  1.0
  Y  Y111  1  0.55356200  0.16296200  0.01683071  1.0
  Y  Y112  1  0.55356200  0.49629533  0.01683071  1.0
  Y  Y113  1  0.55356200  0.82962867  0.01683071  1.0
  Y  Y114  1  0.88689533  0.16296200  0.01683071  1.0
  Y  Y115  1  0.88689533  0.49629533  0.01683071  1.0
  Y  Y116  1  0.88689533  0.82962867  0.01683071  1.0
  Y  Y117  1  0.10620433  0.05325200  0.06581800  1.0
  Y  Y118  1  0.10620433  0.38658533  0.06581800  1.0
  Y  Y119  1  0.10620433  0.71991867  0.06581800  1.0
  Y  Y120  1  0.43953767  0.05325200  0.06581800  1.0
  Y  Y121  1  0.43953767  0.38658533  0.06581800  1.0
  Y  Y122  1  0.43953767  0.71991867  0.06581800  1.0
  Y  Y123  1  0.77287100  0.05325200  0.06581800  1.0
  Y  Y124  1  0.77287100  0.38658533  0.06581800  1.0
  Y  Y125  1  0.77287100  0.71991867  0.06581800  1.0
  Y  Y126  1  0.21912767  0.32828767  0.10589186  1.0
  Y  Y127  1  0.21912767  0.66162100  0.10589186  1.0
  Y  Y128  1  0.21912767  0.99495433  0.10589186  1.0
  Y  Y129  1  0.55246100  0.32828767  0.10589186  1.0
  Y  Y130  1  0.55246100  0.66162100  0.10589186  1.0
  Y  Y131  1  0.55246100  0.99495433  0.10589186  1.0
  Y  Y132  1  0.88579433  0.32828767  0.10589186  1.0
  Y  Y133  1  0.88579433  0.66162100  0.10589186  1.0
  Y  Y134  1  0.88579433  0.99495433  0.10589186  1.0
  Y  Y135  1  0.25481667  0.02020333  0.04769400  1.0
  Y  Y136  1  0.25481667  0.35353667  0.04769400  1.0
  Y  Y137  1  0.25481667  0.68687000  0.04769400  1.0
  Y  Y138  1  0.58815000  0.02020333  0.04769400  1.0
  Y  Y139  1  0.58815000  0.35353667  0.04769400  1.0
  Y  Y140  1  0.58815000  0.68687000  0.04769400  1.0
  Y  Y141  1  0.92148333  0.02020333  0.04769400  1.0
  Y  Y142  1  0.92148333  0.35353667  0.04769400  1.0
  Y  Y143  1  0.92148333  0.68687000  0.04769400  1.0
  Y  Y144  1  0.05356200  0.17037133  0.11609843  1.0
  Y  Y145  1  0.05356200  0.50370467  0.11609843  1.0
  Y  Y146  1  0.05356200  0.83703800  0.11609843  1.0
  Y  Y147  1  0.38689533  0.17037133  0.11609843  1.0
  Y  Y148  1  0.38689533  0.50370467  0.11609843  1.0
  Y  Y149  1  0.38689533  0.83703800  0.11609843  1.0
  Y  Y150  1  0.72022867  0.17037133  0.11609843  1.0
  Y  Y151  1  0.72022867  0.50370467  0.11609843  1.0
  Y  Y152  1  0.72022867  0.83703800  0.11609843  1.0
  Y  Y153  1  0.10859900  0.10216667  0.01837943  1.0
  Y  Y154  1  0.10859900  0.43550000  0.01837943  1.0
  Y  Y155  1  0.10859900  0.76883333  0.01837943  1.0
  Y  Y156  1  0.44193233  0.10216667  0.01837943  1.0
  Y  Y157  1  0.44193233  0.43550000  0.01837943  1.0
  Y  Y158  1  0.44193233  0.76883333  0.01837943  1.0
  Y  Y159  1  0.77526567  0.10216667  0.01837943  1.0
  Y  Y160  1  0.77526567  0.43550000  0.01837943  1.0
  Y  Y161  1  0.77526567  0.76883333  0.01837943  1.0
  Y  Y162  1  0.31046233  0.11341467  0.02017343  1.0
  Y  Y163  1  0.31046233  0.44674800  0.02017343  1.0
  Y  Y164  1  0.31046233  0.78008133  0.02017343  1.0
  Y  Y165  1  0.64379567  0.11341467  0.02017343  1.0
  Y  Y166  1  0.64379567  0.44674800  0.02017343  1.0
  Y  Y167  1  0.64379567  0.78008133  0.02017343  1.0
  Y  Y168  1  0.97712900  0.11341467  0.02017343  1.0
  Y  Y169  1  0.97712900  0.44674800  0.02017343  1.0
  Y  Y170  1  0.97712900  0.78008133  0.02017343  1.0
  Y  Y171  1  0.08333333  0.15508400  0.13789314  1.0
  Y  Y172  1  0.08333333  0.48841733  0.13789314  1.0
  Y  Y173  1  0.08333333  0.82175067  0.13789314  1.0
  Y  Y174  1  0.41666667  0.15508400  0.13789314  1.0
  Y  Y175  1  0.41666667  0.48841733  0.13789314  1.0
  Y  Y176  1  0.41666667  0.82175067  0.13789314  1.0
  Y  Y177  1  0.75000000  0.15508400  0.13789314  1.0
  Y  Y178  1  0.75000000  0.48841733  0.13789314  1.0
  Y  Y179  1  0.75000000  0.82175067  0.13789314  1.0
  Y  Y180  1  0.02526567  0.11896800  0.07366514  1.0
  Y  Y181  1  0.02526567  0.45230133  0.07366514  1.0
  Y  Y182  1  0.02526567  0.78563467  0.07366514  1.0
  Y  Y183  1  0.35859900  0.11896800  0.07366514  1.0
  Y  Y184  1  0.35859900  0.45230133  0.07366514  1.0
  Y  Y185  1  0.35859900  0.78563467  0.07366514  1.0
  Y  Y186  1  0.69193233  0.11896800  0.07366514  1.0
  Y  Y187  1  0.69193233  0.45230133  0.07366514  1.0
  Y  Y188  1  0.69193233  0.78563467  0.07366514  1.0
  Y  Y189  1  0.30246100  0.23629067  0.02271243  1.0
  Y  Y190  1  0.30246100  0.56962400  0.02271243  1.0
  Y  Y191  1  0.30246100  0.90295733  0.02271243  1.0
  Y  Y192  1  0.63579433  0.23629067  0.02271243  1.0
  Y  Y193  1  0.63579433  0.56962400  0.02271243  1.0
  Y  Y194  1  0.63579433  0.90295733  0.02271243  1.0
  Y  Y195  1  0.96912767  0.23629067  0.02271243  1.0
  Y  Y196  1  0.96912767  0.56962400  0.02271243  1.0
  Y  Y197  1  0.96912767  0.90295733  0.02271243  1.0
  Y  Y198  1  0.02977133  0.32962867  0.11292300  1.0
  Y  Y199  1  0.02977133  0.66296200  0.11292300  1.0
  Y  Y200  1  0.02977133  0.99629533  0.11292300  1.0
  Y  Y201  1  0.36310467  0.32962867  0.11292300  1.0
  Y  Y202  1  0.36310467  0.66296200  0.11292300  1.0
  Y  Y203  1  0.36310467  0.99629533  0.11292300  1.0
  Y  Y204  1  0.69643800  0.32962867  0.11292300  1.0
  Y  Y205  1  0.69643800  0.66296200  0.11292300  1.0
  Y  Y206  1  0.69643800  0.99629533  0.11292300  1.0
  Y  Y207  1  0.32851667  0.18687000  0.10255229  1.0
  Y  Y208  1  0.32851667  0.52020333  0.10255229  1.0
  Y  Y209  1  0.32851667  0.85353667  0.10255229  1.0
  Y  Y210  1  0.66185000  0.18687000  0.10255229  1.0
  Y  Y211  1  0.66185000  0.52020333  0.10255229  1.0
  Y  Y212  1  0.66185000  0.85353667  0.10255229  1.0
  Y  Y213  1  0.99518333  0.18687000  0.10255229  1.0
  Y  Y214  1  0.99518333  0.52020333  0.10255229  1.0
  Y  Y215  1  0.99518333  0.85353667  0.10255229  1.0
  Y  Y216  1  0.00000000  0.01158267  0.00496400  1.0
  Y  Y217  1  0.00000000  0.34491600  0.00496400  1.0
  Y  Y218  1  0.00000000  0.67824933  0.00496400  1.0
  Y  Y219  1  0.33333333  0.01158267  0.00496400  1.0
  Y  Y220  1  0.33333333  0.34491600  0.00496400  1.0
  Y  Y221  1  0.33333333  0.67824933  0.00496400  1.0
  Y  Y222  1  0.66666667  0.01158267  0.00496400  1.0
  Y  Y223  1  0.66666667  0.34491600  0.00496400  1.0
  Y  Y224  1  0.66666667  0.67824933  0.00496400  1.0
  Y  Y225  1  0.11420567  0.26370933  0.10589186  1.0
  Y  Y226  1  0.11420567  0.59704267  0.10589186  1.0
  Y  Y227  1  0.11420567  0.93037600  0.10589186  1.0
  Y  Y228  1  0.44753900  0.26370933  0.10589186  1.0
  Y  Y229  1  0.44753900  0.59704267  0.10589186  1.0
  Y  Y230  1  0.44753900  0.93037600  0.10589186  1.0
  Y  Y231  1  0.78087233  0.26370933  0.10589186  1.0
  Y  Y232  1  0.78087233  0.59704267  0.10589186  1.0
  Y  Y233  1  0.78087233  0.93037600  0.10589186  1.0
  Y  Y234  1  0.14140100  0.26883333  0.05926400  1.0
  Y  Y235  1  0.14140100  0.60216667  0.05926400  1.0
  Y  Y236  1  0.14140100  0.93550000  0.05926400  1.0
  Y  Y237  1  0.47473433  0.26883333  0.05926400  1.0
  Y  Y238  1  0.47473433  0.60216667  0.05926400  1.0
  Y  Y239  1  0.47473433  0.93550000  0.05926400  1.0
  Y  Y240  1  0.80806767  0.26883333  0.05926400  1.0
  Y  Y241  1  0.80806767  0.60216667  0.05926400  1.0
  Y  Y242  1  0.80806767  0.93550000  0.05926400  1.0
  Y  Y243  1  0.06046233  0.22142733  0.06711114  1.0
  Y  Y244  1  0.06046233  0.55476067  0.06711114  1.0
  Y  Y245  1  0.06046233  0.88809400  0.06711114  1.0
  Y  Y246  1  0.39379567  0.22142733  0.06711114  1.0
  Y  Y247  1  0.39379567  0.55476067  0.06711114  1.0
  Y  Y248  1  0.39379567  0.88809400  0.06711114  1.0
  Y  Y249  1  0.72712900  0.22142733  0.06711114  1.0
  Y  Y250  1  0.72712900  0.55476067  0.06711114  1.0
  Y  Y251  1  0.72712900  0.88809400  0.06711114  1.0
  Y  Y252  1  0.00000000  0.22721400  0.04693371  1.0
  Y  Y253  1  0.00000000  0.56054733  0.04693371  1.0
  Y  Y254  1  0.00000000  0.89388067  0.04693371  1.0
  Y  Y255  1  0.33333333  0.22721400  0.04693371  1.0
  Y  Y256  1  0.33333333  0.56054733  0.04693371  1.0
  Y  Y257  1  0.33333333  0.89388067  0.04693371  1.0
  Y  Y258  1  0.66666667  0.22721400  0.04693371  1.0
  Y  Y259  1  0.66666667  0.56054733  0.04693371  1.0
  Y  Y260  1  0.66666667  0.89388067  0.04693371  1.0
  Y  Y261  1  0.24518333  0.23066800  0.08523514  1.0
  Y  Y262  1  0.24518333  0.56400133  0.08523514  1.0
  Y  Y263  1  0.24518333  0.89733467  0.08523514  1.0
  Y  Y264  1  0.57851667  0.23066800  0.08523514  1.0
  Y  Y265  1  0.57851667  0.56400133  0.08523514  1.0
  Y  Y266  1  0.57851667  0.89733467  0.08523514  1.0
  Y  Y267  1  0.91185000  0.23066800  0.08523514  1.0
  Y  Y268  1  0.91185000  0.56400133  0.08523514  1.0
  Y  Y269  1  0.91185000  0.89733467  0.08523514  1.0
  Y  Y270  1  0.18953767  0.05476067  0.11275571  1.0
  Y  Y271  1  0.18953767  0.38809400  0.11275571  1.0
  Y  Y272  1  0.18953767  0.72142733  0.11275571  1.0
  Y  Y273  1  0.52287100  0.05476067  0.11275571  1.0
  Y  Y274  1  0.52287100  0.38809400  0.11275571  1.0
  Y  Y275  1  0.52287100  0.72142733  0.11275571  1.0
  Y  Y276  1  0.85620433  0.05476067  0.11275571  1.0
  Y  Y277  1  0.85620433  0.38809400  0.11275571  1.0
  Y  Y278  1  0.85620433  0.72142733  0.11275571  1.0
  Y  Y279  1  0.25000000  0.06054733  0.13789314  1.0
  Y  Y280  1  0.25000000  0.39388067  0.13789314  1.0
  Y  Y281  1  0.25000000  0.72721400  0.13789314  1.0
  Y  Y282  1  0.58333333  0.06054733  0.13789314  1.0
  Y  Y283  1  0.58333333  0.39388067  0.13789314  1.0
  Y  Y284  1  0.58333333  0.72721400  0.13789314  1.0
  Y  Y285  1  0.91666667  0.06054733  0.13789314  1.0
  Y  Y286  1  0.91666667  0.39388067  0.13789314  1.0
  Y  Y287  1  0.91666667  0.72721400  0.13789314  1.0
  Y  Y288  1  0.16666667  0.32175067  0.12796514  1.0
  Y  Y289  1  0.16666667  0.65508400  0.12796514  1.0
  Y  Y290  1  0.16666667  0.98841733  0.12796514  1.0
  Y  Y291  1  0.50000000  0.32175067  0.12796514  1.0
  Y  Y292  1  0.50000000  0.65508400  0.12796514  1.0
  Y  Y293  1  0.50000000  0.98841733  0.12796514  1.0
  Y  Y294  1  0.83333333  0.32175067  0.12796514  1.0
  Y  Y295  1  0.83333333  0.65508400  0.12796514  1.0
  Y  Y296  1  0.83333333  0.98841733  0.12796514  1.0
  Y  Y297  1  0.08815000  0.31313000  0.08523514  1.0
  Y  Y298  1  0.08815000  0.64646333  0.08523514  1.0
  Y  Y299  1  0.08815000  0.97979667  0.08523514  1.0
  Y  Y300  1  0.42148333  0.31313000  0.08523514  1.0
  Y  Y301  1  0.42148333  0.64646333  0.08523514  1.0
  Y  Y302  1  0.42148333  0.97979667  0.08523514  1.0
  Y  Y303  1  0.75481667  0.31313000  0.08523514  1.0
  Y  Y304  1  0.75481667  0.64646333  0.08523514  1.0
  Y  Y305  1  0.75481667  0.97979667  0.08523514  1.0
  Y  Y306  1  0.22473433  0.28563467  0.01837943  1.0
  Y  Y307  1  0.22473433  0.61896800  0.01837943  1.0
  Y  Y308  1  0.22473433  0.95230133  0.01837943  1.0
  Y  Y309  1  0.55806767  0.28563467  0.01837943  1.0
  Y  Y310  1  0.55806767  0.61896800  0.01837943  1.0
  Y  Y311  1  0.55806767  0.95230133  0.01837943  1.0
  Y  Y312  1  0.89140100  0.28563467  0.01837943  1.0
  Y  Y313  1  0.89140100  0.61896800  0.01837943  1.0
  Y  Y314  1  0.89140100  0.95230133  0.01837943  1.0
  Y  Y315  1  0.27287100  0.28008133  0.06711114  1.0
  Y  Y316  1  0.27287100  0.61341467  0.06711114  1.0
  Y  Y317  1  0.27287100  0.94674800  0.06711114  1.0
  Y  Y318  1  0.60620433  0.28008133  0.06711114  1.0
  Y  Y319  1  0.60620433  0.61341467  0.06711114  1.0
  Y  Y320  1  0.60620433  0.94674800  0.06711114  1.0
  Y  Y321  1  0.93953767  0.28008133  0.06711114  1.0
  Y  Y322  1  0.93953767  0.61341467  0.06711114  1.0
  Y  Y323  1  0.93953767  0.94674800  0.06711114  1.0
  Y  Y324  1  0.00481667  0.06400133  0.10255229  1.0
  Y  Y325  1  0.00481667  0.39733467  0.10255229  1.0
  Y  Y326  1  0.00481667  0.73066800  0.10255229  1.0
  Y  Y327  1  0.33815000  0.06400133  0.10255229  1.0
  Y  Y328  1  0.33815000  0.39733467  0.10255229  1.0
  Y  Y329  1  0.33815000  0.73066800  0.10255229  1.0
  Y  Y330  1  0.67148333  0.06400133  0.10255229  1.0
  Y  Y331  1  0.67148333  0.39733467  0.10255229  1.0
  Y  Y332  1  0.67148333  0.73066800  0.10255229  1.0
  Y  Y333  1  0.13579433  0.09704267  0.11021671  1.0
  Y  Y334  1  0.13579433  0.43037600  0.11021671  1.0
  Y  Y335  1  0.13579433  0.76370933  0.11021671  1.0
  Y  Y336  1  0.46912767  0.09704267  0.11021671  1.0
  Y  Y337  1  0.46912767  0.43037600  0.11021671  1.0
  Y  Y338  1  0.46912767  0.76370933  0.11021671  1.0
  Y  Y339  1  0.80246100  0.09704267  0.11021671  1.0
  Y  Y340  1  0.80246100  0.43037600  0.11021671  1.0
  Y  Y341  1  0.80246100  0.76370933  0.11021671  1.0
  Y  Y342  1  0.17148333  0.26933200  0.03037686  1.0
  Y  Y343  1  0.17148333  0.60266533  0.03037686  1.0
  Y  Y344  1  0.17148333  0.93599867  0.03037686  1.0
  Y  Y345  1  0.50481667  0.26933200  0.03037686  1.0
  Y  Y346  1  0.50481667  0.60266533  0.03037686  1.0
  Y  Y347  1  0.50481667  0.93599867  0.03037686  1.0
  Y  Y348  1  0.83815000  0.26933200  0.03037686  1.0
  Y  Y349  1  0.83815000  0.60266533  0.03037686  1.0
  Y  Y350  1  0.83815000  0.93599867  0.03037686  1.0
  Y  Y351  1  0.16185000  0.14646333  0.03037686  1.0
  Y  Y352  1  0.16185000  0.47979667  0.03037686  1.0
  Y  Y353  1  0.16185000  0.81313000  0.03037686  1.0
  Y  Y354  1  0.49518333  0.14646333  0.03037686  1.0
  Y  Y355  1  0.49518333  0.47979667  0.03037686  1.0
  Y  Y356  1  0.49518333  0.81313000  0.03037686  1.0
  Y  Y357  1  0.82851667  0.14646333  0.03037686  1.0
  Y  Y358  1  0.82851667  0.47979667  0.03037686  1.0
  Y  Y359  1  0.82851667  0.81313000  0.03037686  1.0
  Y  Y360  1  0.30806767  0.06450000  0.07366514  1.0
  Y  Y361  1  0.30806767  0.39783333  0.07366514  1.0
  Y  Y362  1  0.30806767  0.73116667  0.07366514  1.0
  Y  Y363  1  0.64140100  0.06450000  0.07366514  1.0
  Y  Y364  1  0.64140100  0.39783333  0.07366514  1.0
  Y  Y365  1  0.64140100  0.73116667  0.07366514  1.0
  Y  Y366  1  0.97473433  0.06450000  0.07366514  1.0
  Y  Y367  1  0.97473433  0.39783333  0.07366514  1.0
  Y  Y368  1  0.97473433  0.73116667  0.07366514  1.0
  Y  Y369  1  0.30356200  0.27877433  0.11292300  1.0
  Y  Y370  1  0.30356200  0.61210767  0.11292300  1.0
  Y  Y371  1  0.30356200  0.94544100  0.11292300  1.0
  Y  Y372  1  0.63689533  0.27877433  0.11292300  1.0
  Y  Y373  1  0.63689533  0.61210767  0.11292300  1.0
  Y  Y374  1  0.63689533  0.94544100  0.11292300  1.0
  Y  Y375  1  0.97022867  0.27877433  0.11292300  1.0
  Y  Y376  1  0.97022867  0.61210767  0.11292300  1.0
  Y  Y377  1  0.97022867  0.94544100  0.11292300  1.0
  Y  Y378  1  0.11310467  0.22122567  0.01683071  1.0
  Y  Y379  1  0.11310467  0.55455900  0.01683071  1.0
  Y  Y380  1  0.11310467  0.88789233  0.01683071  1.0
  Y  Y381  1  0.44643800  0.22122567  0.01683071  1.0
  Y  Y382  1  0.44643800  0.55455900  0.01683071  1.0
  Y  Y383  1  0.44643800  0.88789233  0.01683071  1.0
  Y  Y384  1  0.77977133  0.22122567  0.01683071  1.0
  Y  Y385  1  0.77977133  0.55455900  0.01683071  1.0
  Y  Y386  1  0.77977133  0.88789233  0.01683071  1.0
  Y  Y387  1  0.28087233  0.06962400  0.02703729  1.0
  Y  Y388  1  0.28087233  0.40295733  0.02703729  1.0
  Y  Y389  1  0.28087233  0.73629067  0.02703729  1.0
  Y  Y390  1  0.61420567  0.06962400  0.02703729  1.0
  Y  Y391  1  0.61420567  0.40295733  0.02703729  1.0
  Y  Y392  1  0.61420567  0.73629067  0.02703729  1.0
  Y  Y393  1  0.94753900  0.06962400  0.02703729  1.0
  Y  Y394  1  0.94753900  0.40295733  0.02703729  1.0
  Y  Y395  1  0.94753900  0.73629067  0.02703729  1.0
  Y  Y396  1  0.03087233  0.16162100  0.02271243  1.0
  Y  Y397  1  0.03087233  0.49495433  0.02271243  1.0
  Y  Y398  1  0.03087233  0.82828767  0.02271243  1.0
  Y  Y399  1  0.36420567  0.16162100  0.02271243  1.0
  Y  Y400  1  0.36420567  0.49495433  0.02271243  1.0
  Y  Y401  1  0.36420567  0.82828767  0.02271243  1.0
  Y  Y402  1  0.69753900  0.16162100  0.02271243  1.0
  Y  Y403  1  0.69753900  0.49495433  0.02271243  1.0
  Y  Y404  1  0.69753900  0.82828767  0.02271243  1.0
  Y  Y405  1  0.05246100  0.00504567  0.02703729  1.0
  Y  Y406  1  0.05246100  0.33837900  0.02703729  1.0
  Y  Y407  1  0.05246100  0.67171233  0.02703729  1.0
  Y  Y408  1  0.38579433  0.00504567  0.02703729  1.0
  Y  Y409  1  0.38579433  0.33837900  0.02703729  1.0
  Y  Y410  1  0.38579433  0.67171233  0.02703729  1.0
  Y  Y411  1  0.71912767  0.00504567  0.02703729  1.0
  Y  Y412  1  0.71912767  0.33837900  0.02703729  1.0
  Y  Y413  1  0.71912767  0.67171233  0.02703729  1.0
  Y  Y414  1  0.19193233  0.21436533  0.05926400  1.0
  Y  Y415  1  0.19193233  0.54769867  0.05926400  1.0
  Y  Y416  1  0.19193233  0.88103200  0.05926400  1.0
  Y  Y417  1  0.52526567  0.21436533  0.05926400  1.0
  Y  Y418  1  0.52526567  0.54769867  0.05926400  1.0
  Y  Y419  1  0.52526567  0.88103200  0.05926400  1.0
  Y  Y420  1  0.85859900  0.21436533  0.05926400  1.0
  Y  Y421  1  0.85859900  0.54769867  0.05926400  1.0
  Y  Y422  1  0.85859900  0.88103200  0.05926400  1.0
  Y  Y423  1  0.27526567  0.23116667  0.11454971  1.0
  Y  Y424  1  0.27526567  0.56450000  0.11454971  1.0
  Y  Y425  1  0.27526567  0.89783333  0.11454971  1.0
  Y  Y426  1  0.60859900  0.23116667  0.11454971  1.0
  Y  Y427  1  0.60859900  0.56450000  0.11454971  1.0
  Y  Y428  1  0.60859900  0.89783333  0.11454971  1.0
  Y  Y429  1  0.94193233  0.23116667  0.11454971  1.0
  Y  Y430  1  0.94193233  0.56450000  0.11454971  1.0
  Y  Y431  1  0.94193233  0.89783333  0.11454971  1.0
  Ni  Ni432  1  0.04803933  0.11548867  0.04285486  1.0
  Ni  Ni433  1  0.04803933  0.44882200  0.04285486  1.0
  Ni  Ni434  1  0.04803933  0.78215533  0.04285486  1.0
  Ni  Ni435  1  0.38137267  0.11548867  0.04285486  1.0
  Ni  Ni436  1  0.38137267  0.44882200  0.04285486  1.0
  Ni  Ni437  1  0.38137267  0.78215533  0.04285486  1.0
  Ni  Ni438  1  0.71470600  0.11548867  0.04285486  1.0
  Ni  Ni439  1  0.71470600  0.44882200  0.04285486  1.0
  Ni  Ni440  1  0.71470600  0.78215533  0.04285486  1.0
  Ni  Ni441  1  0.00789400  0.12473067  0.03379243  1.0
  Ni  Ni442  1  0.00789400  0.45806400  0.03379243  1.0
  Ni  Ni443  1  0.00789400  0.79139733  0.03379243  1.0
  Ni  Ni444  1  0.34122733  0.12473067  0.03379243  1.0
  Ni  Ni445  1  0.34122733  0.45806400  0.03379243  1.0
  Ni  Ni446  1  0.34122733  0.79139733  0.03379243  1.0
  Ni  Ni447  1  0.67456067  0.12473067  0.03379243  1.0
  Ni  Ni448  1  0.67456067  0.45806400  0.03379243  1.0
  Ni  Ni449  1  0.67456067  0.79139733  0.03379243  1.0
  Ni  Ni450  1  0.09122733  0.20096567  0.06319157  1.0
  Ni  Ni451  1  0.09122733  0.53429900  0.06319157  1.0
  Ni  Ni452  1  0.09122733  0.86763233  0.06319157  1.0
  Ni  Ni453  1  0.42456067  0.20096567  0.06319157  1.0
  Ni  Ni454  1  0.42456067  0.53429900  0.06319157  1.0
  Ni  Ni455  1  0.42456067  0.86763233  0.06319157  1.0
  Ni  Ni456  1  0.75789400  0.20096567  0.06319157  1.0
  Ni  Ni457  1  0.75789400  0.53429900  0.06319157  1.0
  Ni  Ni458  1  0.75789400  0.86763233  0.06319157  1.0
  Ni  Ni459  1  0.13137267  0.17057800  0.04620743  1.0
  Ni  Ni460  1  0.13137267  0.50391133  0.04620743  1.0
  Ni  Ni461  1  0.13137267  0.83724467  0.04620743  1.0
  Ni  Ni462  1  0.46470600  0.17057800  0.04620743  1.0
  Ni  Ni463  1  0.46470600  0.50391133  0.04620743  1.0
  Ni  Ni464  1  0.46470600  0.83724467  0.04620743  1.0
  Ni  Ni465  1  0.79803933  0.17057800  0.04620743  1.0
  Ni  Ni466  1  0.79803933  0.50391133  0.04620743  1.0
  Ni  Ni467  1  0.79803933  0.83724467  0.04620743  1.0
  Ni  Ni468  1  0.06711300  0.26972067  0.03757571  1.0
  Ni  Ni469  1  0.06711300  0.60305400  0.03757571  1.0
  Ni  Ni470  1  0.06711300  0.93638733  0.03757571  1.0
  Ni  Ni471  1  0.40044633  0.26972067  0.03757571  1.0
  Ni  Ni472  1  0.40044633  0.60305400  0.03757571  1.0
  Ni  Ni473  1  0.40044633  0.93638733  0.03757571  1.0
  Ni  Ni474  1  0.73377967  0.26972067  0.03757571  1.0
  Ni  Ni475  1  0.73377967  0.60305400  0.03757571  1.0
  Ni  Ni476  1  0.73377967  0.93638733  0.03757571  1.0
  Ni  Ni477  1  0.18288700  0.10305400  0.04082829  1.0
  Ni  Ni478  1  0.18288700  0.43638733  0.04082829  1.0
  Ni  Ni479  1  0.18288700  0.76972067  0.04082829  1.0
  Ni  Ni480  1  0.51622033  0.10305400  0.04082829  1.0
  Ni  Ni481  1  0.51622033  0.43638733  0.04082829  1.0
  Ni  Ni482  1  0.51622033  0.76972067  0.04082829  1.0
  Ni  Ni483  1  0.84955367  0.10305400  0.04082829  1.0
  Ni  Ni484  1  0.84955367  0.43638733  0.04082829  1.0
  Ni  Ni485  1  0.84955367  0.76972067  0.04082829  1.0
  Ni  Ni486  1  0.20196067  0.28215533  0.04620743  1.0
  Ni  Ni487  1  0.20196067  0.61548867  0.04620743  1.0
  Ni  Ni488  1  0.20196067  0.94882200  0.04620743  1.0
  Ni  Ni489  1  0.53529400  0.28215533  0.04620743  1.0
  Ni  Ni490  1  0.53529400  0.61548867  0.04620743  1.0
  Ni  Ni491  1  0.53529400  0.94882200  0.04620743  1.0
  Ni  Ni492  1  0.86862733  0.28215533  0.04620743  1.0
  Ni  Ni493  1  0.86862733  0.61548867  0.04620743  1.0
  Ni  Ni494  1  0.86862733  0.94882200  0.04620743  1.0
  Ni  Ni495  1  0.01622033  0.23027933  0.09210086  1.0
  Ni  Ni496  1  0.01622033  0.56361267  0.09210086  1.0
  Ni  Ni497  1  0.01622033  0.89694600  0.09210086  1.0
  Ni  Ni498  1  0.34955367  0.23027933  0.09210086  1.0
  Ni  Ni499  1  0.34955367  0.56361267  0.09210086  1.0
  Ni  Ni500  1  0.34955367  0.89694600  0.09210086  1.0
  Ni  Ni501  1  0.68288700  0.23027933  0.09210086  1.0
  Ni  Ni502  1  0.68288700  0.56361267  0.09210086  1.0
  Ni  Ni503  1  0.68288700  0.89694600  0.09210086  1.0
  Ni  Ni504  1  0.32543933  0.29903433  0.03379243  1.0
  Ni  Ni505  1  0.32543933  0.63236767  0.03379243  1.0
  Ni  Ni506  1  0.32543933  0.96570100  0.03379243  1.0
  Ni  Ni507  1  0.65877267  0.29903433  0.03379243  1.0
  Ni  Ni508  1  0.65877267  0.63236767  0.03379243  1.0
  Ni  Ni509  1  0.65877267  0.96570100  0.03379243  1.0
  Ni  Ni510  1  0.99210600  0.29903433  0.03379243  1.0
  Ni  Ni511  1  0.99210600  0.63236767  0.03379243  1.0
  Ni  Ni512  1  0.99210600  0.96570100  0.03379243  1.0
  Ni  Ni513  1  0.03529400  0.05117800  0.08672171  1.0
  Ni  Ni514  1  0.03529400  0.38451133  0.08672171  1.0
  Ni  Ni515  1  0.03529400  0.71784467  0.08672171  1.0
  Ni  Ni516  1  0.36862733  0.05117800  0.08672171  1.0
  Ni  Ni517  1  0.36862733  0.38451133  0.08672171  1.0
  Ni  Ni518  1  0.36862733  0.71784467  0.08672171  1.0
  Ni  Ni519  1  0.70196067  0.05117800  0.08672171  1.0
  Ni  Ni520  1  0.70196067  0.38451133  0.08672171  1.0
  Ni  Ni521  1  0.70196067  0.71784467  0.08672171  1.0
  Ni  Ni522  1  0.21470600  0.21784467  0.09007429  1.0
  Ni  Ni523  1  0.21470600  0.55117800  0.09007429  1.0
  Ni  Ni524  1  0.21470600  0.88451133  0.09007429  1.0
  Ni  Ni525  1  0.54803933  0.21784467  0.09007429  1.0
  Ni  Ni526  1  0.54803933  0.55117800  0.09007429  1.0
  Ni  Ni527  1  0.54803933  0.88451133  0.09007429  1.0
  Ni  Ni528  1  0.88137267  0.21784467  0.09007429  1.0
  Ni  Ni529  1  0.88137267  0.55117800  0.09007429  1.0
  Ni  Ni530  1  0.88137267  0.88451133  0.09007429  1.0
  Ni  Ni531  1  0.26622033  0.16287200  0.03757571  1.0
  Ni  Ni532  1  0.26622033  0.49620533  0.03757571  1.0
  Ni  Ni533  1  0.26622033  0.82953867  0.03757571  1.0
  Ni  Ni534  1  0.59955367  0.16287200  0.03757571  1.0
  Ni  Ni535  1  0.59955367  0.49620533  0.03757571  1.0
  Ni  Ni536  1  0.59955367  0.82953867  0.03757571  1.0
  Ni  Ni537  1  0.93288700  0.16287200  0.03757571  1.0
  Ni  Ni538  1  0.93288700  0.49620533  0.03757571  1.0
  Ni  Ni539  1  0.93288700  0.82953867  0.03757571  1.0
  Ni  Ni540  1  0.09955367  0.17046133  0.09535343  1.0
  Ni  Ni541  1  0.09955367  0.50379467  0.09535343  1.0
  Ni  Ni542  1  0.09955367  0.83712800  0.09535343  1.0
  Ni  Ni543  1  0.43288700  0.17046133  0.09535343  1.0
  Ni  Ni544  1  0.43288700  0.50379467  0.09535343  1.0
  Ni  Ni545  1  0.43288700  0.83712800  0.09535343  1.0
  Ni  Ni546  1  0.76622033  0.17046133  0.09535343  1.0
  Ni  Ni547  1  0.76622033  0.50379467  0.09535343  1.0
  Ni  Ni548  1  0.76622033  0.83712800  0.09535343  1.0
  Ni  Ni549  1  0.28529400  0.32942200  0.04285486  1.0
  Ni  Ni550  1  0.28529400  0.66275533  0.04285486  1.0
  Ni  Ni551  1  0.28529400  0.99608867  0.04285486  1.0
  Ni  Ni552  1  0.61862733  0.32942200  0.04285486  1.0
  Ni  Ni553  1  0.61862733  0.66275533  0.04285486  1.0
  Ni  Ni554  1  0.61862733  0.99608867  0.04285486  1.0
  Ni  Ni555  1  0.95196067  0.32942200  0.04285486  1.0
  Ni  Ni556  1  0.95196067  0.66275533  0.04285486  1.0
  Ni  Ni557  1  0.95196067  0.99608867  0.04285486  1.0
  Ni  Ni558  1  0.03866900  0.22695033  0.10013100  1.0
  Ni  Ni559  1  0.03866900  0.56028367  0.10013100  1.0
  Ni  Ni560  1  0.03866900  0.89361700  0.10013100  1.0
  Ni  Ni561  1  0.37200233  0.22695033  0.10013100  1.0
  Ni  Ni562  1  0.37200233  0.56028367  0.10013100  1.0
  Ni  Ni563  1  0.37200233  0.89361700  0.10013100  1.0
  Ni  Ni564  1  0.70533567  0.22695033  0.10013100  1.0
  Ni  Ni565  1  0.70533567  0.56028367  0.10013100  1.0
  Ni  Ni566  1  0.70533567  0.89361700  0.10013100  1.0
  Ni  Ni567  1  0.24210600  0.29139733  0.06319157  1.0
  Ni  Ni568  1  0.24210600  0.62473067  0.06319157  1.0
  Ni  Ni569  1  0.24210600  0.95806400  0.06319157  1.0
  Ni  Ni570  1  0.57543933  0.29139733  0.06319157  1.0
  Ni  Ni571  1  0.57543933  0.62473067  0.06319157  1.0
  Ni  Ni572  1  0.57543933  0.95806400  0.06319157  1.0
  Ni  Ni573  1  0.90877267  0.29139733  0.06319157  1.0
  Ni  Ni574  1  0.90877267  0.62473067  0.06319157  1.0
  Ni  Ni575  1  0.90877267  0.95806400  0.06319157  1.0
  Ni  Ni576  1  0.23377967  0.06361267  0.09535343  1.0
  Ni  Ni577  1  0.23377967  0.39694600  0.09535343  1.0
  Ni  Ni578  1  0.23377967  0.73027933  0.09535343  1.0
  Ni  Ni579  1  0.56711300  0.06361267  0.09535343  1.0
  Ni  Ni580  1  0.56711300  0.39694600  0.09535343  1.0
  Ni  Ni581  1  0.56711300  0.73027933  0.09535343  1.0
  Ni  Ni582  1  0.90044633  0.06361267  0.09535343  1.0
  Ni  Ni583  1  0.90044633  0.39694600  0.09535343  1.0
  Ni  Ni584  1  0.90044633  0.73027933  0.09535343  1.0
  Ni  Ni585  1  0.20533567  0.10638300  0.03279814  1.0
  Ni  Ni586  1  0.20533567  0.43971633  0.03279814  1.0
  Ni  Ni587  1  0.20533567  0.77304967  0.03279814  1.0
  Ni  Ni588  1  0.53866900  0.10638300  0.03279814  1.0
  Ni  Ni589  1  0.53866900  0.43971633  0.03279814  1.0
  Ni  Ni590  1  0.53866900  0.77304967  0.03279814  1.0
  Ni  Ni591  1  0.87200233  0.10638300  0.03279814  1.0
  Ni  Ni592  1  0.87200233  0.43971633  0.03279814  1.0
  Ni  Ni593  1  0.87200233  0.77304967  0.03279814  1.0
  Ni  Ni594  1  0.17456067  0.20860267  0.09913671  1.0
  Ni  Ni595  1  0.17456067  0.54193600  0.09913671  1.0
  Ni  Ni596  1  0.17456067  0.87526933  0.09913671  1.0
  Ni  Ni597  1  0.50789400  0.20860267  0.09913671  1.0
  Ni  Ni598  1  0.50789400  0.54193600  0.09913671  1.0
  Ni  Ni599  1  0.50789400  0.87526933  0.09913671  1.0
  Ni  Ni600  1  0.84122733  0.20860267  0.09913671  1.0
  Ni  Ni601  1  0.84122733  0.54193600  0.09913671  1.0
  Ni  Ni602  1  0.84122733  0.87526933  0.09913671  1.0
  Ni  Ni603  1  0.15044633  0.00379467  0.04082829  1.0
  Ni  Ni604  1  0.15044633  0.33712800  0.04082829  1.0
  Ni  Ni605  1  0.15044633  0.67046133  0.04082829  1.0
  Ni  Ni606  1  0.48377967  0.00379467  0.04082829  1.0
  Ni  Ni607  1  0.48377967  0.33712800  0.04082829  1.0
  Ni  Ni608  1  0.48377967  0.67046133  0.04082829  1.0
  Ni  Ni609  1  0.81711300  0.00379467  0.04082829  1.0
  Ni  Ni610  1  0.81711300  0.33712800  0.04082829  1.0
  Ni  Ni611  1  0.81711300  0.67046133  0.04082829  1.0
  Ni  Ni612  1  0.07543933  0.04193600  0.06973757  1.0
  Ni  Ni613  1  0.07543933  0.37526933  0.06973757  1.0
  Ni  Ni614  1  0.07543933  0.70860267  0.06973757  1.0
  Ni  Ni615  1  0.40877267  0.04193600  0.06973757  1.0
  Ni  Ni616  1  0.40877267  0.37526933  0.06973757  1.0
  Ni  Ni617  1  0.40877267  0.70860267  0.06973757  1.0
  Ni  Ni618  1  0.74210600  0.04193600  0.06973757  1.0
  Ni  Ni619  1  0.74210600  0.37526933  0.06973757  1.0
  Ni  Ni620  1  0.74210600  0.70860267  0.06973757  1.0
  Ni  Ni621  1  0.11862733  0.00391133  0.09007429  1.0
  Ni  Ni622  1  0.11862733  0.33724467  0.09007429  1.0
  Ni  Ni623  1  0.11862733  0.67057800  0.09007429  1.0
  Ni  Ni624  1  0.45196067  0.00391133  0.09007429  1.0
  Ni  Ni625  1  0.45196067  0.33724467  0.09007429  1.0
  Ni  Ni626  1  0.45196067  0.67057800  0.09007429  1.0
  Ni  Ni627  1  0.78529400  0.00391133  0.09007429  1.0
  Ni  Ni628  1  0.78529400  0.33724467  0.09007429  1.0
  Ni  Ni629  1  0.78529400  0.67057800  0.09007429  1.0
  Ni  Ni630  1  0.12200233  0.14839533  0.08446986  1.0
  Ni  Ni631  1  0.12200233  0.48172867  0.08446986  1.0
  Ni  Ni632  1  0.12200233  0.81506200  0.08446986  1.0
  Ni  Ni633  1  0.45533567  0.14839533  0.08446986  1.0
  Ni  Ni634  1  0.45533567  0.48172867  0.08446986  1.0
  Ni  Ni635  1  0.45533567  0.81506200  0.08446986  1.0
  Ni  Ni636  1  0.78866900  0.14839533  0.08446986  1.0
  Ni  Ni637  1  0.78866900  0.48172867  0.08446986  1.0
  Ni  Ni638  1  0.78866900  0.81506200  0.08446986  1.0
  Ni  Ni639  1  0.29466433  0.01827133  0.10013100  1.0
  Ni  Ni640  1  0.29466433  0.35160467  0.10013100  1.0
  Ni  Ni641  1  0.29466433  0.68493800  0.10013100  1.0
  Ni  Ni642  1  0.62799767  0.01827133  0.10013100  1.0
  Ni  Ni643  1  0.62799767  0.35160467  0.10013100  1.0
  Ni  Ni644  1  0.62799767  0.68493800  0.10013100  1.0
  Ni  Ni645  1  0.96133100  0.01827133  0.10013100  1.0
  Ni  Ni646  1  0.96133100  0.35160467  0.10013100  1.0
  Ni  Ni647  1  0.96133100  0.68493800  0.10013100  1.0
  Ni  Ni648  1  0.12799767  0.31506200  0.03279814  1.0
  Ni  Ni649  1  0.12799767  0.64839533  0.03279814  1.0
  Ni  Ni650  1  0.12799767  0.98172867  0.03279814  1.0
  Ni  Ni651  1  0.46133100  0.31506200  0.03279814  1.0
  Ni  Ni652  1  0.46133100  0.64839533  0.03279814  1.0
  Ni  Ni653  1  0.46133100  0.98172867  0.03279814  1.0
  Ni  Ni654  1  0.79466433  0.31506200  0.03279814  1.0
  Ni  Ni655  1  0.79466433  0.64839533  0.03279814  1.0
  Ni  Ni656  1  0.79466433  0.98172867  0.03279814  1.0
  Ni  Ni657  1  0.15877267  0.03429900  0.09913671  1.0
  Ni  Ni658  1  0.15877267  0.36763233  0.09913671  1.0
  Ni  Ni659  1  0.15877267  0.70096567  0.09913671  1.0
  Ni  Ni660  1  0.49210600  0.03429900  0.09913671  1.0
  Ni  Ni661  1  0.49210600  0.36763233  0.09913671  1.0
  Ni  Ni662  1  0.49210600  0.70096567  0.09913671  1.0
  Ni  Ni663  1  0.82543933  0.03429900  0.09913671  1.0
  Ni  Ni664  1  0.82543933  0.36763233  0.09913671  1.0
  Ni  Ni665  1  0.82543933  0.70096567  0.09913671  1.0
  Ni  Ni666  1  0.21133100  0.06028367  0.08446986  1.0
  Ni  Ni667  1  0.21133100  0.39361700  0.08446986  1.0
  Ni  Ni668  1  0.21133100  0.72695033  0.08446986  1.0
  Ni  Ni669  1  0.54466433  0.06028367  0.08446986  1.0
  Ni  Ni670  1  0.54466433  0.39361700  0.08446986  1.0
  Ni  Ni671  1  0.54466433  0.72695033  0.08446986  1.0
  Ni  Ni672  1  0.87799767  0.06028367  0.08446986  1.0
  Ni  Ni673  1  0.87799767  0.39361700  0.08446986  1.0
  Ni  Ni674  1  0.87799767  0.72695033  0.08446986  1.0
  Ni  Ni675  1  0.28866900  0.18493800  0.04845929  1.0
  Ni  Ni676  1  0.28866900  0.51827133  0.04845929  1.0
  Ni  Ni677  1  0.28866900  0.85160467  0.04845929  1.0
  Ni  Ni678  1  0.62200233  0.18493800  0.04845929  1.0
  Ni  Ni679  1  0.62200233  0.51827133  0.04845929  1.0
  Ni  Ni680  1  0.62200233  0.85160467  0.04845929  1.0
  Ni  Ni681  1  0.95533567  0.18493800  0.04845929  1.0
  Ni  Ni682  1  0.95533567  0.51827133  0.04845929  1.0
  Ni  Ni683  1  0.95533567  0.85160467  0.04845929  1.0
  Ni  Ni684  1  0.31711300  0.32953867  0.09210086  1.0
  Ni  Ni685  1  0.31711300  0.66287200  0.09210086  1.0
  Ni  Ni686  1  0.31711300  0.99620533  0.09210086  1.0
  Ni  Ni687  1  0.65044633  0.32953867  0.09210086  1.0
  Ni  Ni688  1  0.65044633  0.66287200  0.09210086  1.0
  Ni  Ni689  1  0.65044633  0.99620533  0.09210086  1.0
  Ni  Ni690  1  0.98377967  0.32953867  0.09210086  1.0
  Ni  Ni691  1  0.98377967  0.66287200  0.09210086  1.0
  Ni  Ni692  1  0.98377967  0.99620533  0.09210086  1.0
  Ni  Ni693  1  0.04466433  0.27304967  0.04845929  1.0
  Ni  Ni694  1  0.04466433  0.60638300  0.04845929  1.0
  Ni  Ni695  1  0.04466433  0.93971633  0.04845929  1.0
  Ni  Ni696  1  0.37799767  0.27304967  0.04845929  1.0
  Ni  Ni697  1  0.37799767  0.60638300  0.04845929  1.0
  Ni  Ni698  1  0.37799767  0.93971633  0.04845929  1.0
  Ni  Ni699  1  0.71133100  0.27304967  0.04845929  1.0
  Ni  Ni700  1  0.71133100  0.60638300  0.04845929  1.0
  Ni  Ni701  1  0.71133100  0.93971633  0.04845929  1.0
  Ni  Ni702  1  0.25789400  0.13236767  0.06973757  1.0
  Ni  Ni703  1  0.25789400  0.46570100  0.06973757  1.0
  Ni  Ni704  1  0.25789400  0.79903433  0.06973757  1.0
  Ni  Ni705  1  0.59122733  0.13236767  0.06973757  1.0
  Ni  Ni706  1  0.59122733  0.46570100  0.06973757  1.0
  Ni  Ni707  1  0.59122733  0.79903433  0.06973757  1.0
  Ni  Ni708  1  0.92456067  0.13236767  0.06973757  1.0
  Ni  Ni709  1  0.92456067  0.46570100  0.06973757  1.0
  Ni  Ni710  1  0.92456067  0.79903433  0.06973757  1.0
  Ni  Ni711  1  0.29803933  0.16275533  0.08672171  1.0
  Ni  Ni712  1  0.29803933  0.49608867  0.08672171  1.0
  Ni  Ni713  1  0.29803933  0.82942200  0.08672171  1.0
  Ni  Ni714  1  0.63137267  0.16275533  0.08672171  1.0
  Ni  Ni715  1  0.63137267  0.49608867  0.08672171  1.0
  Ni  Ni716  1  0.63137267  0.82942200  0.08672171  1.0
  Ni  Ni717  1  0.96470600  0.16275533  0.08672171  1.0
  Ni  Ni718  1  0.96470600  0.49608867  0.08672171  1.0
  Ni  Ni719  1  0.96470600  0.82942200  0.08672171  1.0
  Y  Y720  1  0.19643800  0.00370467  0.16286329  1.0
  Y  Y721  1  0.19643800  0.33703800  0.16286329  1.0
  Y  Y722  1  0.19643800  0.67037133  0.16286329  1.0
  Y  Y723  1  0.52977133  0.00370467  0.16286329  1.0
  Y  Y724  1  0.52977133  0.33703800  0.16286329  1.0
  Y  Y725  1  0.52977133  0.67037133  0.16286329  1.0
  Y  Y726  1  0.86310467  0.00370467  0.16286329  1.0
  Y  Y727  1  0.86310467  0.33703800  0.16286329  1.0
  Y  Y728  1  0.86310467  0.67037133  0.16286329  1.0
  Y  Y729  1  0.07851667  0.10266533  0.19055114  1.0
  Y  Y730  1  0.07851667  0.43599867  0.19055114  1.0
  Y  Y731  1  0.07851667  0.76933200  0.19055114  1.0
  Y  Y732  1  0.41185000  0.10266533  0.19055114  1.0
  Y  Y733  1  0.41185000  0.43599867  0.19055114  1.0
  Y  Y734  1  0.41185000  0.76933200  0.19055114  1.0
  Y  Y735  1  0.74518333  0.10266533  0.19055114  1.0
  Y  Y736  1  0.74518333  0.43599867  0.19055114  1.0
  Y  Y737  1  0.74518333  0.76933200  0.19055114  1.0
  Y  Y738  1  0.22712900  0.11190600  0.20867514  1.0
  Y  Y739  1  0.22712900  0.44523933  0.20867514  1.0
  Y  Y740  1  0.22712900  0.77857267  0.20867514  1.0
  Y  Y741  1  0.56046233  0.11190600  0.20867514  1.0
  Y  Y742  1  0.56046233  0.44523933  0.20867514  1.0
  Y  Y743  1  0.56046233  0.77857267  0.20867514  1.0
  Y  Y744  1  0.89379567  0.11190600  0.20867514  1.0
  Y  Y745  1  0.89379567  0.44523933  0.20867514  1.0
  Y  Y746  1  0.89379567  0.77857267  0.20867514  1.0
  Y  Y747  1  0.08333333  0.27278600  0.28075029  1.0
  Y  Y748  1  0.08333333  0.60611933  0.28075029  1.0
  Y  Y749  1  0.08333333  0.93945267  0.28075029  1.0
  Y  Y750  1  0.41666667  0.27278600  0.28075029  1.0
  Y  Y751  1  0.41666667  0.60611933  0.28075029  1.0
  Y  Y752  1  0.41666667  0.93945267  0.28075029  1.0
  Y  Y753  1  0.75000000  0.27278600  0.28075029  1.0
  Y  Y754  1  0.75000000  0.60611933  0.28075029  1.0
  Y  Y755  1  0.75000000  0.93945267  0.28075029  1.0
  Y  Y756  1  0.25000000  0.17824933  0.28075029  1.0
  Y  Y757  1  0.25000000  0.51158267  0.28075029  1.0
  Y  Y758  1  0.25000000  0.84491600  0.28075029  1.0
  Y  Y759  1  0.58333333  0.17824933  0.28075029  1.0
  Y  Y760  1  0.58333333  0.51158267  0.28075029  1.0
  Y  Y761  1  0.58333333  0.84491600  0.28075029  1.0
  Y  Y762  1  0.91666667  0.17824933  0.28075029  1.0
  Y  Y763  1  0.91666667  0.51158267  0.28075029  1.0
  Y  Y764  1  0.91666667  0.84491600  0.28075029  1.0
  Y  Y765  1  0.19753900  0.17171233  0.25307386  1.0
  Y  Y766  1  0.19753900  0.50504567  0.25307386  1.0
  Y  Y767  1  0.19753900  0.83837900  0.25307386  1.0
  Y  Y768  1  0.53087233  0.17171233  0.25307386  1.0
  Y  Y769  1  0.53087233  0.50504567  0.25307386  1.0
  Y  Y770  1  0.53087233  0.83837900  0.25307386  1.0
  Y  Y771  1  0.86420567  0.17171233  0.25307386  1.0
  Y  Y772  1  0.86420567  0.50504567  0.25307386  1.0
  Y  Y773  1  0.86420567  0.83837900  0.25307386  1.0
  Y  Y774  1  0.14379567  0.21991867  0.25561286  1.0
  Y  Y775  1  0.14379567  0.55325200  0.25561286  1.0
  Y  Y776  1  0.14379567  0.88658533  0.25561286  1.0
  Y  Y777  1  0.47712900  0.21991867  0.25561286  1.0
  Y  Y778  1  0.47712900  0.55325200  0.25561286  1.0
  Y  Y779  1  0.47712900  0.88658533  0.25561286  1.0
  Y  Y780  1  0.81046233  0.21991867  0.25561286  1.0
  Y  Y781  1  0.81046233  0.55325200  0.25561286  1.0
  Y  Y782  1  0.81046233  0.88658533  0.25561286  1.0
  Y  Y783  1  0.16666667  0.10611933  0.22885257  1.0
  Y  Y784  1  0.16666667  0.43945267  0.22885257  1.0
  Y  Y785  1  0.16666667  0.77278600  0.22885257  1.0
  Y  Y786  1  0.50000000  0.10611933  0.22885257  1.0
  Y  Y787  1  0.50000000  0.43945267  0.22885257  1.0
  Y  Y788  1  0.50000000  0.77278600  0.22885257  1.0
  Y  Y789  1  0.83333333  0.10611933  0.22885257  1.0
  Y  Y790  1  0.83333333  0.43945267  0.22885257  1.0
  Y  Y791  1  0.83333333  0.77278600  0.22885257  1.0
  Y  Y792  1  0.27977133  0.11210767  0.25895557  1.0
  Y  Y793  1  0.27977133  0.44544100  0.25895557  1.0
  Y  Y794  1  0.27977133  0.77877433  0.25895557  1.0
  Y  Y795  1  0.61310467  0.11210767  0.25895557  1.0
  Y  Y796  1  0.61310467  0.44544100  0.25895557  1.0
  Y  Y797  1  0.61310467  0.77877433  0.25895557  1.0
  Y  Y798  1  0.94643800  0.11210767  0.25895557  1.0
  Y  Y799  1  0.94643800  0.44544100  0.25895557  1.0
  Y  Y800  1  0.94643800  0.77877433  0.25895557  1.0
  Y  Y801  1  0.02287100  0.27857267  0.16303057  1.0
  Y  Y802  1  0.02287100  0.61190600  0.16303057  1.0
  Y  Y803  1  0.02287100  0.94523933  0.16303057  1.0
  Y  Y804  1  0.35620433  0.27857267  0.16303057  1.0
  Y  Y805  1  0.35620433  0.61190600  0.16303057  1.0
  Y  Y806  1  0.35620433  0.94523933  0.16303057  1.0
  Y  Y807  1  0.68953767  0.27857267  0.16303057  1.0
  Y  Y808  1  0.68953767  0.61190600  0.16303057  1.0
  Y  Y809  1  0.68953767  0.94523933  0.16303057  1.0
  Y  Y810  1  0.13689533  0.05455900  0.16286329  1.0
  Y  Y811  1  0.13689533  0.38789233  0.16286329  1.0
  Y  Y812  1  0.13689533  0.72122567  0.16286329  1.0
  Y  Y813  1  0.47022867  0.05455900  0.16286329  1.0
  Y  Y814  1  0.47022867  0.38789233  0.16286329  1.0
  Y  Y815  1  0.47022867  0.72122567  0.16286329  1.0
  Y  Y816  1  0.80356200  0.05455900  0.16286329  1.0
  Y  Y817  1  0.80356200  0.38789233  0.16286329  1.0
  Y  Y818  1  0.80356200  0.72122567  0.16286329  1.0
  Y  Y819  1  0.05806767  0.04769867  0.25740686  1.0
  Y  Y820  1  0.05806767  0.38103200  0.25740686  1.0
  Y  Y821  1  0.05806767  0.71436533  0.25740686  1.0
  Y  Y822  1  0.39140100  0.04769867  0.25740686  1.0
  Y  Y823  1  0.39140100  0.38103200  0.25740686  1.0
  Y  Y824  1  0.39140100  0.71436533  0.25740686  1.0
  Y  Y825  1  0.72473433  0.04769867  0.25740686  1.0
  Y  Y826  1  0.72473433  0.38103200  0.25740686  1.0
  Y  Y827  1  0.72473433  0.71436533  0.25740686  1.0
  Y  Y828  1  0.22022867  0.16296200  0.15968786  1.0
  Y  Y829  1  0.22022867  0.49629533  0.15968786  1.0
  Y  Y830  1  0.22022867  0.82962867  0.15968786  1.0
  Y  Y831  1  0.55356200  0.16296200  0.15968786  1.0
  Y  Y832  1  0.55356200  0.49629533  0.15968786  1.0
  Y  Y833  1  0.55356200  0.82962867  0.15968786  1.0
  Y  Y834  1  0.88689533  0.16296200  0.15968786  1.0
  Y  Y835  1  0.88689533  0.49629533  0.15968786  1.0
  Y  Y836  1  0.88689533  0.82962867  0.15968786  1.0
  Y  Y837  1  0.10620433  0.05325200  0.20867514  1.0
  Y  Y838  1  0.10620433  0.38658533  0.20867514  1.0
  Y  Y839  1  0.10620433  0.71991867  0.20867514  1.0
  Y  Y840  1  0.43953767  0.05325200  0.20867514  1.0
  Y  Y841  1  0.43953767  0.38658533  0.20867514  1.0
  Y  Y842  1  0.43953767  0.71991867  0.20867514  1.0
  Y  Y843  1  0.77287100  0.05325200  0.20867514  1.0
  Y  Y844  1  0.77287100  0.38658533  0.20867514  1.0
  Y  Y845  1  0.77287100  0.71991867  0.20867514  1.0
  Y  Y846  1  0.21912767  0.32828767  0.24874900  1.0
  Y  Y847  1  0.21912767  0.66162100  0.24874900  1.0
  Y  Y848  1  0.21912767  0.99495433  0.24874900  1.0
  Y  Y849  1  0.55246100  0.32828767  0.24874900  1.0
  Y  Y850  1  0.55246100  0.66162100  0.24874900  1.0
  Y  Y851  1  0.55246100  0.99495433  0.24874900  1.0
  Y  Y852  1  0.88579433  0.32828767  0.24874900  1.0
  Y  Y853  1  0.88579433  0.66162100  0.24874900  1.0
  Y  Y854  1  0.88579433  0.99495433  0.24874900  1.0
  Y  Y855  1  0.25481667  0.02020333  0.19055114  1.0
  Y  Y856  1  0.25481667  0.35353667  0.19055114  1.0
  Y  Y857  1  0.25481667  0.68687000  0.19055114  1.0
  Y  Y858  1  0.58815000  0.02020333  0.19055114  1.0
  Y  Y859  1  0.58815000  0.35353667  0.19055114  1.0
  Y  Y860  1  0.58815000  0.68687000  0.19055114  1.0
  Y  Y861  1  0.92148333  0.02020333  0.19055114  1.0
  Y  Y862  1  0.92148333  0.35353667  0.19055114  1.0
  Y  Y863  1  0.92148333  0.68687000  0.19055114  1.0
  Y  Y864  1  0.05356200  0.17037133  0.25895557  1.0
  Y  Y865  1  0.05356200  0.50370467  0.25895557  1.0
  Y  Y866  1  0.05356200  0.83703800  0.25895557  1.0
  Y  Y867  1  0.38689533  0.17037133  0.25895557  1.0
  Y  Y868  1  0.38689533  0.50370467  0.25895557  1.0
  Y  Y869  1  0.38689533  0.83703800  0.25895557  1.0
  Y  Y870  1  0.72022867  0.17037133  0.25895557  1.0
  Y  Y871  1  0.72022867  0.50370467  0.25895557  1.0
  Y  Y872  1  0.72022867  0.83703800  0.25895557  1.0
  Y  Y873  1  0.10859900  0.10216667  0.16123657  1.0
  Y  Y874  1  0.10859900  0.43550000  0.16123657  1.0
  Y  Y875  1  0.10859900  0.76883333  0.16123657  1.0
  Y  Y876  1  0.44193233  0.10216667  0.16123657  1.0
  Y  Y877  1  0.44193233  0.43550000  0.16123657  1.0
  Y  Y878  1  0.44193233  0.76883333  0.16123657  1.0
  Y  Y879  1  0.77526567  0.10216667  0.16123657  1.0
  Y  Y880  1  0.77526567  0.43550000  0.16123657  1.0
  Y  Y881  1  0.77526567  0.76883333  0.16123657  1.0
  Y  Y882  1  0.31046233  0.11341467  0.16303057  1.0
  Y  Y883  1  0.31046233  0.44674800  0.16303057  1.0
  Y  Y884  1  0.31046233  0.78008133  0.16303057  1.0
  Y  Y885  1  0.64379567  0.11341467  0.16303057  1.0
  Y  Y886  1  0.64379567  0.44674800  0.16303057  1.0
  Y  Y887  1  0.64379567  0.78008133  0.16303057  1.0
  Y  Y888  1  0.97712900  0.11341467  0.16303057  1.0
  Y  Y889  1  0.97712900  0.44674800  0.16303057  1.0
  Y  Y890  1  0.97712900  0.78008133  0.16303057  1.0
  Y  Y891  1  0.08333333  0.15508400  0.28075029  1.0
  Y  Y892  1  0.08333333  0.48841733  0.28075029  1.0
  Y  Y893  1  0.08333333  0.82175067  0.28075029  1.0
  Y  Y894  1  0.41666667  0.15508400  0.28075029  1.0
  Y  Y895  1  0.41666667  0.48841733  0.28075029  1.0
  Y  Y896  1  0.41666667  0.82175067  0.28075029  1.0
  Y  Y897  1  0.75000000  0.15508400  0.28075029  1.0
  Y  Y898  1  0.75000000  0.48841733  0.28075029  1.0
  Y  Y899  1  0.75000000  0.82175067  0.28075029  1.0
  Y  Y900  1  0.02526567  0.11896800  0.21652229  1.0
  Y  Y901  1  0.02526567  0.45230133  0.21652229  1.0
  Y  Y902  1  0.02526567  0.78563467  0.21652229  1.0
  Y  Y903  1  0.35859900  0.11896800  0.21652229  1.0
  Y  Y904  1  0.35859900  0.45230133  0.21652229  1.0
  Y  Y905  1  0.35859900  0.78563467  0.21652229  1.0
  Y  Y906  1  0.69193233  0.11896800  0.21652229  1.0
  Y  Y907  1  0.69193233  0.45230133  0.21652229  1.0
  Y  Y908  1  0.69193233  0.78563467  0.21652229  1.0
  Y  Y909  1  0.30246100  0.23629067  0.16556957  1.0
  Y  Y910  1  0.30246100  0.56962400  0.16556957  1.0
  Y  Y911  1  0.30246100  0.90295733  0.16556957  1.0
  Y  Y912  1  0.63579433  0.23629067  0.16556957  1.0
  Y  Y913  1  0.63579433  0.56962400  0.16556957  1.0
  Y  Y914  1  0.63579433  0.90295733  0.16556957  1.0
  Y  Y915  1  0.96912767  0.23629067  0.16556957  1.0
  Y  Y916  1  0.96912767  0.56962400  0.16556957  1.0
  Y  Y917  1  0.96912767  0.90295733  0.16556957  1.0
  Y  Y918  1  0.02977133  0.32962867  0.25578014  1.0
  Y  Y919  1  0.02977133  0.66296200  0.25578014  1.0
  Y  Y920  1  0.02977133  0.99629533  0.25578014  1.0
  Y  Y921  1  0.36310467  0.32962867  0.25578014  1.0
  Y  Y922  1  0.36310467  0.66296200  0.25578014  1.0
  Y  Y923  1  0.36310467  0.99629533  0.25578014  1.0
  Y  Y924  1  0.69643800  0.32962867  0.25578014  1.0
  Y  Y925  1  0.69643800  0.66296200  0.25578014  1.0
  Y  Y926  1  0.69643800  0.99629533  0.25578014  1.0
  Y  Y927  1  0.32851667  0.18687000  0.24540943  1.0
  Y  Y928  1  0.32851667  0.52020333  0.24540943  1.0
  Y  Y929  1  0.32851667  0.85353667  0.24540943  1.0
  Y  Y930  1  0.66185000  0.18687000  0.24540943  1.0
  Y  Y931  1  0.66185000  0.52020333  0.24540943  1.0
  Y  Y932  1  0.66185000  0.85353667  0.24540943  1.0
  Y  Y933  1  0.99518333  0.18687000  0.24540943  1.0
  Y  Y934  1  0.99518333  0.52020333  0.24540943  1.0
  Y  Y935  1  0.99518333  0.85353667  0.24540943  1.0
  Y  Y936  1  0.00000000  0.01158267  0.14782114  1.0
  Y  Y937  1  0.00000000  0.34491600  0.14782114  1.0
  Y  Y938  1  0.00000000  0.67824933  0.14782114  1.0
  Y  Y939  1  0.33333333  0.01158267  0.14782114  1.0
  Y  Y940  1  0.33333333  0.34491600  0.14782114  1.0
  Y  Y941  1  0.33333333  0.67824933  0.14782114  1.0
  Y  Y942  1  0.66666667  0.01158267  0.14782114  1.0
  Y  Y943  1  0.66666667  0.34491600  0.14782114  1.0
  Y  Y944  1  0.66666667  0.67824933  0.14782114  1.0
  Y  Y945  1  0.11420567  0.26370933  0.24874900  1.0
  Y  Y946  1  0.11420567  0.59704267  0.24874900  1.0
  Y  Y947  1  0.11420567  0.93037600  0.24874900  1.0
  Y  Y948  1  0.44753900  0.26370933  0.24874900  1.0
  Y  Y949  1  0.44753900  0.59704267  0.24874900  1.0
  Y  Y950  1  0.44753900  0.93037600  0.24874900  1.0
  Y  Y951  1  0.78087233  0.26370933  0.24874900  1.0
  Y  Y952  1  0.78087233  0.59704267  0.24874900  1.0
  Y  Y953  1  0.78087233  0.93037600  0.24874900  1.0
  Y  Y954  1  0.14140100  0.26883333  0.20212114  1.0
  Y  Y955  1  0.14140100  0.60216667  0.20212114  1.0
  Y  Y956  1  0.14140100  0.93550000  0.20212114  1.0
  Y  Y957  1  0.47473433  0.26883333  0.20212114  1.0
  Y  Y958  1  0.47473433  0.60216667  0.20212114  1.0
  Y  Y959  1  0.47473433  0.93550000  0.20212114  1.0
  Y  Y960  1  0.80806767  0.26883333  0.20212114  1.0
  Y  Y961  1  0.80806767  0.60216667  0.20212114  1.0
  Y  Y962  1  0.80806767  0.93550000  0.20212114  1.0
  Y  Y963  1  0.06046233  0.22142733  0.20996829  1.0
  Y  Y964  1  0.06046233  0.55476067  0.20996829  1.0
  Y  Y965  1  0.06046233  0.88809400  0.20996829  1.0
  Y  Y966  1  0.39379567  0.22142733  0.20996829  1.0
  Y  Y967  1  0.39379567  0.55476067  0.20996829  1.0
  Y  Y968  1  0.39379567  0.88809400  0.20996829  1.0
  Y  Y969  1  0.72712900  0.22142733  0.20996829  1.0
  Y  Y970  1  0.72712900  0.55476067  0.20996829  1.0
  Y  Y971  1  0.72712900  0.88809400  0.20996829  1.0
  Y  Y972  1  0.00000000  0.22721400  0.18979086  1.0
  Y  Y973  1  0.00000000  0.56054733  0.18979086  1.0
  Y  Y974  1  0.00000000  0.89388067  0.18979086  1.0
  Y  Y975  1  0.33333333  0.22721400  0.18979086  1.0
  Y  Y976  1  0.33333333  0.56054733  0.18979086  1.0
  Y  Y977  1  0.33333333  0.89388067  0.18979086  1.0
  Y  Y978  1  0.66666667  0.22721400  0.18979086  1.0
  Y  Y979  1  0.66666667  0.56054733  0.18979086  1.0
  Y  Y980  1  0.66666667  0.89388067  0.18979086  1.0
  Y  Y981  1  0.24518333  0.23066800  0.22809229  1.0
  Y  Y982  1  0.24518333  0.56400133  0.22809229  1.0
  Y  Y983  1  0.24518333  0.89733467  0.22809229  1.0
  Y  Y984  1  0.57851667  0.23066800  0.22809229  1.0
  Y  Y985  1  0.57851667  0.56400133  0.22809229  1.0
  Y  Y986  1  0.57851667  0.89733467  0.22809229  1.0
  Y  Y987  1  0.91185000  0.23066800  0.22809229  1.0
  Y  Y988  1  0.91185000  0.56400133  0.22809229  1.0
  Y  Y989  1  0.91185000  0.89733467  0.22809229  1.0
  Y  Y990  1  0.18953767  0.05476067  0.25561286  1.0
  Y  Y991  1  0.18953767  0.38809400  0.25561286  1.0
  Y  Y992  1  0.18953767  0.72142733  0.25561286  1.0
  Y  Y993  1  0.52287100  0.05476067  0.25561286  1.0
  Y  Y994  1  0.52287100  0.38809400  0.25561286  1.0
  Y  Y995  1  0.52287100  0.72142733  0.25561286  1.0
  Y  Y996  1  0.85620433  0.05476067  0.25561286  1.0
  Y  Y997  1  0.85620433  0.38809400  0.25561286  1.0
  Y  Y998  1  0.85620433  0.72142733  0.25561286  1.0
  Y  Y999  1  0.25000000  0.06054733  0.28075029  1.0
  Y  Y1000  1  0.25000000  0.39388067  0.28075029  1.0
  Y  Y1001  1  0.25000000  0.72721400  0.28075029  1.0
  Y  Y1002  1  0.58333333  0.06054733  0.28075029  1.0
  Y  Y1003  1  0.58333333  0.39388067  0.28075029  1.0
  Y  Y1004  1  0.58333333  0.72721400  0.28075029  1.0
  Y  Y1005  1  0.91666667  0.06054733  0.28075029  1.0
  Y  Y1006  1  0.91666667  0.39388067  0.28075029  1.0
  Y  Y1007  1  0.91666667  0.72721400  0.28075029  1.0
  Y  Y1008  1  0.16666667  0.32175067  0.27082229  1.0
  Y  Y1009  1  0.16666667  0.65508400  0.27082229  1.0
  Y  Y1010  1  0.16666667  0.98841733  0.27082229  1.0
  Y  Y1011  1  0.50000000  0.32175067  0.27082229  1.0
  Y  Y1012  1  0.50000000  0.65508400  0.27082229  1.0
  Y  Y1013  1  0.50000000  0.98841733  0.27082229  1.0
  Y  Y1014  1  0.83333333  0.32175067  0.27082229  1.0
  Y  Y1015  1  0.83333333  0.65508400  0.27082229  1.0
  Y  Y1016  1  0.83333333  0.98841733  0.27082229  1.0
  Y  Y1017  1  0.08815000  0.31313000  0.22809229  1.0
  Y  Y1018  1  0.08815000  0.64646333  0.22809229  1.0
  Y  Y1019  1  0.08815000  0.97979667  0.22809229  1.0
  Y  Y1020  1  0.42148333  0.31313000  0.22809229  1.0
  Y  Y1021  1  0.42148333  0.64646333  0.22809229  1.0
  Y  Y1022  1  0.42148333  0.97979667  0.22809229  1.0
  Y  Y1023  1  0.75481667  0.31313000  0.22809229  1.0
  Y  Y1024  1  0.75481667  0.64646333  0.22809229  1.0
  Y  Y1025  1  0.75481667  0.97979667  0.22809229  1.0
  Y  Y1026  1  0.22473433  0.28563467  0.16123657  1.0
  Y  Y1027  1  0.22473433  0.61896800  0.16123657  1.0
  Y  Y1028  1  0.22473433  0.95230133  0.16123657  1.0
  Y  Y1029  1  0.55806767  0.28563467  0.16123657  1.0
  Y  Y1030  1  0.55806767  0.61896800  0.16123657  1.0
  Y  Y1031  1  0.55806767  0.95230133  0.16123657  1.0
  Y  Y1032  1  0.89140100  0.28563467  0.16123657  1.0
  Y  Y1033  1  0.89140100  0.61896800  0.16123657  1.0
  Y  Y1034  1  0.89140100  0.95230133  0.16123657  1.0
  Y  Y1035  1  0.27287100  0.28008133  0.20996829  1.0
  Y  Y1036  1  0.27287100  0.61341467  0.20996829  1.0
  Y  Y1037  1  0.27287100  0.94674800  0.20996829  1.0
  Y  Y1038  1  0.60620433  0.28008133  0.20996829  1.0
  Y  Y1039  1  0.60620433  0.61341467  0.20996829  1.0
  Y  Y1040  1  0.60620433  0.94674800  0.20996829  1.0
  Y  Y1041  1  0.93953767  0.28008133  0.20996829  1.0
  Y  Y1042  1  0.93953767  0.61341467  0.20996829  1.0
  Y  Y1043  1  0.93953767  0.94674800  0.20996829  1.0
  Y  Y1044  1  0.00481667  0.06400133  0.24540943  1.0
  Y  Y1045  1  0.00481667  0.39733467  0.24540943  1.0
  Y  Y1046  1  0.00481667  0.73066800  0.24540943  1.0
  Y  Y1047  1  0.33815000  0.06400133  0.24540943  1.0
  Y  Y1048  1  0.33815000  0.39733467  0.24540943  1.0
  Y  Y1049  1  0.33815000  0.73066800  0.24540943  1.0
  Y  Y1050  1  0.67148333  0.06400133  0.24540943  1.0
  Y  Y1051  1  0.67148333  0.39733467  0.24540943  1.0
  Y  Y1052  1  0.67148333  0.73066800  0.24540943  1.0
  Y  Y1053  1  0.13579433  0.09704267  0.25307386  1.0
  Y  Y1054  1  0.13579433  0.43037600  0.25307386  1.0
  Y  Y1055  1  0.13579433  0.76370933  0.25307386  1.0
  Y  Y1056  1  0.46912767  0.09704267  0.25307386  1.0
  Y  Y1057  1  0.46912767  0.43037600  0.25307386  1.0
  Y  Y1058  1  0.46912767  0.76370933  0.25307386  1.0
  Y  Y1059  1  0.80246100  0.09704267  0.25307386  1.0
  Y  Y1060  1  0.80246100  0.43037600  0.25307386  1.0
  Y  Y1061  1  0.80246100  0.76370933  0.25307386  1.0
  Y  Y1062  1  0.17148333  0.26933200  0.17323400  1.0
  Y  Y1063  1  0.17148333  0.60266533  0.17323400  1.0
  Y  Y1064  1  0.17148333  0.93599867  0.17323400  1.0
  Y  Y1065  1  0.50481667  0.26933200  0.17323400  1.0
  Y  Y1066  1  0.50481667  0.60266533  0.17323400  1.0
  Y  Y1067  1  0.50481667  0.93599867  0.17323400  1.0
  Y  Y1068  1  0.83815000  0.26933200  0.17323400  1.0
  Y  Y1069  1  0.83815000  0.60266533  0.17323400  1.0
  Y  Y1070  1  0.83815000  0.93599867  0.17323400  1.0
  Y  Y1071  1  0.16185000  0.14646333  0.17323400  1.0
  Y  Y1072  1  0.16185000  0.47979667  0.17323400  1.0
  Y  Y1073  1  0.16185000  0.81313000  0.17323400  1.0
  Y  Y1074  1  0.49518333  0.14646333  0.17323400  1.0
  Y  Y1075  1  0.49518333  0.47979667  0.17323400  1.0
  Y  Y1076  1  0.49518333  0.81313000  0.17323400  1.0
  Y  Y1077  1  0.82851667  0.14646333  0.17323400  1.0
  Y  Y1078  1  0.82851667  0.47979667  0.17323400  1.0
  Y  Y1079  1  0.82851667  0.81313000  0.17323400  1.0
  Y  Y1080  1  0.30806767  0.06450000  0.21652229  1.0
  Y  Y1081  1  0.30806767  0.39783333  0.21652229  1.0
  Y  Y1082  1  0.30806767  0.73116667  0.21652229  1.0
  Y  Y1083  1  0.64140100  0.06450000  0.21652229  1.0
  Y  Y1084  1  0.64140100  0.39783333  0.21652229  1.0
  Y  Y1085  1  0.64140100  0.73116667  0.21652229  1.0
  Y  Y1086  1  0.97473433  0.06450000  0.21652229  1.0
  Y  Y1087  1  0.97473433  0.39783333  0.21652229  1.0
  Y  Y1088  1  0.97473433  0.73116667  0.21652229  1.0
  Y  Y1089  1  0.30356200  0.27877433  0.25578014  1.0
  Y  Y1090  1  0.30356200  0.61210767  0.25578014  1.0
  Y  Y1091  1  0.30356200  0.94544100  0.25578014  1.0
  Y  Y1092  1  0.63689533  0.27877433  0.25578014  1.0
  Y  Y1093  1  0.63689533  0.61210767  0.25578014  1.0
  Y  Y1094  1  0.63689533  0.94544100  0.25578014  1.0
  Y  Y1095  1  0.97022867  0.27877433  0.25578014  1.0
  Y  Y1096  1  0.97022867  0.61210767  0.25578014  1.0
  Y  Y1097  1  0.97022867  0.94544100  0.25578014  1.0
  Y  Y1098  1  0.11310467  0.22122567  0.15968786  1.0
  Y  Y1099  1  0.11310467  0.55455900  0.15968786  1.0
  Y  Y1100  1  0.11310467  0.88789233  0.15968786  1.0
  Y  Y1101  1  0.44643800  0.22122567  0.15968786  1.0
  Y  Y1102  1  0.44643800  0.55455900  0.15968786  1.0
  Y  Y1103  1  0.44643800  0.88789233  0.15968786  1.0
  Y  Y1104  1  0.77977133  0.22122567  0.15968786  1.0
  Y  Y1105  1  0.77977133  0.55455900  0.15968786  1.0
  Y  Y1106  1  0.77977133  0.88789233  0.15968786  1.0
  Y  Y1107  1  0.28087233  0.06962400  0.16989443  1.0
  Y  Y1108  1  0.28087233  0.40295733  0.16989443  1.0
  Y  Y1109  1  0.28087233  0.73629067  0.16989443  1.0
  Y  Y1110  1  0.61420567  0.06962400  0.16989443  1.0
  Y  Y1111  1  0.61420567  0.40295733  0.16989443  1.0
  Y  Y1112  1  0.61420567  0.73629067  0.16989443  1.0
  Y  Y1113  1  0.94753900  0.06962400  0.16989443  1.0
  Y  Y1114  1  0.94753900  0.40295733  0.16989443  1.0
  Y  Y1115  1  0.94753900  0.73629067  0.16989443  1.0
  Y  Y1116  1  0.03087233  0.16162100  0.16556957  1.0
  Y  Y1117  1  0.03087233  0.49495433  0.16556957  1.0
  Y  Y1118  1  0.03087233  0.82828767  0.16556957  1.0
  Y  Y1119  1  0.36420567  0.16162100  0.16556957  1.0
  Y  Y1120  1  0.36420567  0.49495433  0.16556957  1.0
  Y  Y1121  1  0.36420567  0.82828767  0.16556957  1.0
  Y  Y1122  1  0.69753900  0.16162100  0.16556957  1.0
  Y  Y1123  1  0.69753900  0.49495433  0.16556957  1.0
  Y  Y1124  1  0.69753900  0.82828767  0.16556957  1.0
  Y  Y1125  1  0.05246100  0.00504567  0.16989443  1.0
  Y  Y1126  1  0.05246100  0.33837900  0.16989443  1.0
  Y  Y1127  1  0.05246100  0.67171233  0.16989443  1.0
  Y  Y1128  1  0.38579433  0.00504567  0.16989443  1.0
  Y  Y1129  1  0.38579433  0.33837900  0.16989443  1.0
  Y  Y1130  1  0.38579433  0.67171233  0.16989443  1.0
  Y  Y1131  1  0.71912767  0.00504567  0.16989443  1.0
  Y  Y1132  1  0.71912767  0.33837900  0.16989443  1.0
  Y  Y1133  1  0.71912767  0.67171233  0.16989443  1.0
  Y  Y1134  1  0.19193233  0.21436533  0.20212114  1.0
  Y  Y1135  1  0.19193233  0.54769867  0.20212114  1.0
  Y  Y1136  1  0.19193233  0.88103200  0.20212114  1.0
  Y  Y1137  1  0.52526567  0.21436533  0.20212114  1.0
  Y  Y1138  1  0.52526567  0.54769867  0.20212114  1.0
  Y  Y1139  1  0.52526567  0.88103200  0.20212114  1.0
  Y  Y1140  1  0.85859900  0.21436533  0.20212114  1.0
  Y  Y1141  1  0.85859900  0.54769867  0.20212114  1.0
  Y  Y1142  1  0.85859900  0.88103200  0.20212114  1.0
  Y  Y1143  1  0.27526567  0.23116667  0.25740686  1.0
  Y  Y1144  1  0.27526567  0.56450000  0.25740686  1.0
  Y  Y1145  1  0.27526567  0.89783333  0.25740686  1.0
  Y  Y1146  1  0.60859900  0.23116667  0.25740686  1.0
  Y  Y1147  1  0.60859900  0.56450000  0.25740686  1.0
  Y  Y1148  1  0.60859900  0.89783333  0.25740686  1.0
  Y  Y1149  1  0.94193233  0.23116667  0.25740686  1.0
  Y  Y1150  1  0.94193233  0.56450000  0.25740686  1.0
  Y  Y1151  1  0.94193233  0.89783333  0.25740686  1.0
  Ni  Ni1152  1  0.04803933  0.11548867  0.18571200  1.0
  Ni  Ni1153  1  0.04803933  0.44882200  0.18571200  1.0
  Ni  Ni1154  1  0.04803933  0.78215533  0.18571200  1.0
  Ni  Ni1155  1  0.38137267  0.11548867  0.18571200  1.0
  Ni  Ni1156  1  0.38137267  0.44882200  0.18571200  1.0
  Ni  Ni1157  1  0.38137267  0.78215533  0.18571200  1.0
  Ni  Ni1158  1  0.71470600  0.11548867  0.18571200  1.0
  Ni  Ni1159  1  0.71470600  0.44882200  0.18571200  1.0
  Ni  Ni1160  1  0.71470600  0.78215533  0.18571200  1.0
  Ni  Ni1161  1  0.00789400  0.12473067  0.17664957  1.0
  Ni  Ni1162  1  0.00789400  0.45806400  0.17664957  1.0
  Ni  Ni1163  1  0.00789400  0.79139733  0.17664957  1.0
  Ni  Ni1164  1  0.34122733  0.12473067  0.17664957  1.0
  Ni  Ni1165  1  0.34122733  0.45806400  0.17664957  1.0
  Ni  Ni1166  1  0.34122733  0.79139733  0.17664957  1.0
  Ni  Ni1167  1  0.67456067  0.12473067  0.17664957  1.0
  Ni  Ni1168  1  0.67456067  0.45806400  0.17664957  1.0
  Ni  Ni1169  1  0.67456067  0.79139733  0.17664957  1.0
  Ni  Ni1170  1  0.09122733  0.20096567  0.20604871  1.0
  Ni  Ni1171  1  0.09122733  0.53429900  0.20604871  1.0
  Ni  Ni1172  1  0.09122733  0.86763233  0.20604871  1.0
  Ni  Ni1173  1  0.42456067  0.20096567  0.20604871  1.0
  Ni  Ni1174  1  0.42456067  0.53429900  0.20604871  1.0
  Ni  Ni1175  1  0.42456067  0.86763233  0.20604871  1.0
  Ni  Ni1176  1  0.75789400  0.20096567  0.20604871  1.0
  Ni  Ni1177  1  0.75789400  0.53429900  0.20604871  1.0
  Ni  Ni1178  1  0.75789400  0.86763233  0.20604871  1.0
  Ni  Ni1179  1  0.13137267  0.17057800  0.18906457  1.0
  Ni  Ni1180  1  0.13137267  0.50391133  0.18906457  1.0
  Ni  Ni1181  1  0.13137267  0.83724467  0.18906457  1.0
  Ni  Ni1182  1  0.46470600  0.17057800  0.18906457  1.0
  Ni  Ni1183  1  0.46470600  0.50391133  0.18906457  1.0
  Ni  Ni1184  1  0.46470600  0.83724467  0.18906457  1.0
  Ni  Ni1185  1  0.79803933  0.17057800  0.18906457  1.0
  Ni  Ni1186  1  0.79803933  0.50391133  0.18906457  1.0
  Ni  Ni1187  1  0.79803933  0.83724467  0.18906457  1.0
  Ni  Ni1188  1  0.06711300  0.26972067  0.18043286  1.0
  Ni  Ni1189  1  0.06711300  0.60305400  0.18043286  1.0
  Ni  Ni1190  1  0.06711300  0.93638733  0.18043286  1.0
  Ni  Ni1191  1  0.40044633  0.26972067  0.18043286  1.0
  Ni  Ni1192  1  0.40044633  0.60305400  0.18043286  1.0
  Ni  Ni1193  1  0.40044633  0.93638733  0.18043286  1.0
  Ni  Ni1194  1  0.73377967  0.26972067  0.18043286  1.0
  Ni  Ni1195  1  0.73377967  0.60305400  0.18043286  1.0
  Ni  Ni1196  1  0.73377967  0.93638733  0.18043286  1.0
  Ni  Ni1197  1  0.18288700  0.10305400  0.18368543  1.0
  Ni  Ni1198  1  0.18288700  0.43638733  0.18368543  1.0
  Ni  Ni1199  1  0.18288700  0.76972067  0.18368543  1.0
  Ni  Ni1200  1  0.51622033  0.10305400  0.18368543  1.0
  Ni  Ni1201  1  0.51622033  0.43638733  0.18368543  1.0
  Ni  Ni1202  1  0.51622033  0.76972067  0.18368543  1.0
  Ni  Ni1203  1  0.84955367  0.10305400  0.18368543  1.0
  Ni  Ni1204  1  0.84955367  0.43638733  0.18368543  1.0
  Ni  Ni1205  1  0.84955367  0.76972067  0.18368543  1.0
  Ni  Ni1206  1  0.20196067  0.28215533  0.18906457  1.0
  Ni  Ni1207  1  0.20196067  0.61548867  0.18906457  1.0
  Ni  Ni1208  1  0.20196067  0.94882200  0.18906457  1.0
  Ni  Ni1209  1  0.53529400  0.28215533  0.18906457  1.0
  Ni  Ni1210  1  0.53529400  0.61548867  0.18906457  1.0
  Ni  Ni1211  1  0.53529400  0.94882200  0.18906457  1.0
  Ni  Ni1212  1  0.86862733  0.28215533  0.18906457  1.0
  Ni  Ni1213  1  0.86862733  0.61548867  0.18906457  1.0
  Ni  Ni1214  1  0.86862733  0.94882200  0.18906457  1.0
  Ni  Ni1215  1  0.01622033  0.23027933  0.23495800  1.0
  Ni  Ni1216  1  0.01622033  0.56361267  0.23495800  1.0
  Ni  Ni1217  1  0.01622033  0.89694600  0.23495800  1.0
  Ni  Ni1218  1  0.34955367  0.23027933  0.23495800  1.0
  Ni  Ni1219  1  0.34955367  0.56361267  0.23495800  1.0
  Ni  Ni1220  1  0.34955367  0.89694600  0.23495800  1.0
  Ni  Ni1221  1  0.68288700  0.23027933  0.23495800  1.0
  Ni  Ni1222  1  0.68288700  0.56361267  0.23495800  1.0
  Ni  Ni1223  1  0.68288700  0.89694600  0.23495800  1.0
  Ni  Ni1224  1  0.32543933  0.29903433  0.17664957  1.0
  Ni  Ni1225  1  0.32543933  0.63236767  0.17664957  1.0
  Ni  Ni1226  1  0.32543933  0.96570100  0.17664957  1.0
  Ni  Ni1227  1  0.65877267  0.29903433  0.17664957  1.0
  Ni  Ni1228  1  0.65877267  0.63236767  0.17664957  1.0
  Ni  Ni1229  1  0.65877267  0.96570100  0.17664957  1.0
  Ni  Ni1230  1  0.99210600  0.29903433  0.17664957  1.0
  Ni  Ni1231  1  0.99210600  0.63236767  0.17664957  1.0
  Ni  Ni1232  1  0.99210600  0.96570100  0.17664957  1.0
  Ni  Ni1233  1  0.03529400  0.05117800  0.22957886  1.0
  Ni  Ni1234  1  0.03529400  0.38451133  0.22957886  1.0
  Ni  Ni1235  1  0.03529400  0.71784467  0.22957886  1.0
  Ni  Ni1236  1  0.36862733  0.05117800  0.22957886  1.0
  Ni  Ni1237  1  0.36862733  0.38451133  0.22957886  1.0
  Ni  Ni1238  1  0.36862733  0.71784467  0.22957886  1.0
  Ni  Ni1239  1  0.70196067  0.05117800  0.22957886  1.0
  Ni  Ni1240  1  0.70196067  0.38451133  0.22957886  1.0
  Ni  Ni1241  1  0.70196067  0.71784467  0.22957886  1.0
  Ni  Ni1242  1  0.21470600  0.21784467  0.23293143  1.0
  Ni  Ni1243  1  0.21470600  0.55117800  0.23293143  1.0
  Ni  Ni1244  1  0.21470600  0.88451133  0.23293143  1.0
  Ni  Ni1245  1  0.54803933  0.21784467  0.23293143  1.0
  Ni  Ni1246  1  0.54803933  0.55117800  0.23293143  1.0
  Ni  Ni1247  1  0.54803933  0.88451133  0.23293143  1.0
  Ni  Ni1248  1  0.88137267  0.21784467  0.23293143  1.0
  Ni  Ni1249  1  0.88137267  0.55117800  0.23293143  1.0
  Ni  Ni1250  1  0.88137267  0.88451133  0.23293143  1.0
  Ni  Ni1251  1  0.26622033  0.16287200  0.18043286  1.0
  Ni  Ni1252  1  0.26622033  0.49620533  0.18043286  1.0
  Ni  Ni1253  1  0.26622033  0.82953867  0.18043286  1.0
  Ni  Ni1254  1  0.59955367  0.16287200  0.18043286  1.0
  Ni  Ni1255  1  0.59955367  0.49620533  0.18043286  1.0
  Ni  Ni1256  1  0.59955367  0.82953867  0.18043286  1.0
  Ni  Ni1257  1  0.93288700  0.16287200  0.18043286  1.0
  Ni  Ni1258  1  0.93288700  0.49620533  0.18043286  1.0
  Ni  Ni1259  1  0.93288700  0.82953867  0.18043286  1.0
  Ni  Ni1260  1  0.09955367  0.17046133  0.23821057  1.0
  Ni  Ni1261  1  0.09955367  0.50379467  0.23821057  1.0
  Ni  Ni1262  1  0.09955367  0.83712800  0.23821057  1.0
  Ni  Ni1263  1  0.43288700  0.17046133  0.23821057  1.0
  Ni  Ni1264  1  0.43288700  0.50379467  0.23821057  1.0
  Ni  Ni1265  1  0.43288700  0.83712800  0.23821057  1.0
  Ni  Ni1266  1  0.76622033  0.17046133  0.23821057  1.0
  Ni  Ni1267  1  0.76622033  0.50379467  0.23821057  1.0
  Ni  Ni1268  1  0.76622033  0.83712800  0.23821057  1.0
  Ni  Ni1269  1  0.28529400  0.32942200  0.18571200  1.0
  Ni  Ni1270  1  0.28529400  0.66275533  0.18571200  1.0
  Ni  Ni1271  1  0.28529400  0.99608867  0.18571200  1.0
  Ni  Ni1272  1  0.61862733  0.32942200  0.18571200  1.0
  Ni  Ni1273  1  0.61862733  0.66275533  0.18571200  1.0
  Ni  Ni1274  1  0.61862733  0.99608867  0.18571200  1.0
  Ni  Ni1275  1  0.95196067  0.32942200  0.18571200  1.0
  Ni  Ni1276  1  0.95196067  0.66275533  0.18571200  1.0
  Ni  Ni1277  1  0.95196067  0.99608867  0.18571200  1.0
  Ni  Ni1278  1  0.03866900  0.22695033  0.24298814  1.0
  Ni  Ni1279  1  0.03866900  0.56028367  0.24298814  1.0
  Ni  Ni1280  1  0.03866900  0.89361700  0.24298814  1.0
  Ni  Ni1281  1  0.37200233  0.22695033  0.24298814  1.0
  Ni  Ni1282  1  0.37200233  0.56028367  0.24298814  1.0
  Ni  Ni1283  1  0.37200233  0.89361700  0.24298814  1.0
  Ni  Ni1284  1  0.70533567  0.22695033  0.24298814  1.0
  Ni  Ni1285  1  0.70533567  0.56028367  0.24298814  1.0
  Ni  Ni1286  1  0.70533567  0.89361700  0.24298814  1.0
  Ni  Ni1287  1  0.24210600  0.29139733  0.20604871  1.0
  Ni  Ni1288  1  0.24210600  0.62473067  0.20604871  1.0
  Ni  Ni1289  1  0.24210600  0.95806400  0.20604871  1.0
  Ni  Ni1290  1  0.57543933  0.29139733  0.20604871  1.0
  Ni  Ni1291  1  0.57543933  0.62473067  0.20604871  1.0
  Ni  Ni1292  1  0.57543933  0.95806400  0.20604871  1.0
  Ni  Ni1293  1  0.90877267  0.29139733  0.20604871  1.0
  Ni  Ni1294  1  0.90877267  0.62473067  0.20604871  1.0
  Ni  Ni1295  1  0.90877267  0.95806400  0.20604871  1.0
  Ni  Ni1296  1  0.23377967  0.06361267  0.23821057  1.0
  Ni  Ni1297  1  0.23377967  0.39694600  0.23821057  1.0
  Ni  Ni1298  1  0.23377967  0.73027933  0.23821057  1.0
  Ni  Ni1299  1  0.56711300  0.06361267  0.23821057  1.0
  Ni  Ni1300  1  0.56711300  0.39694600  0.23821057  1.0
  Ni  Ni1301  1  0.56711300  0.73027933  0.23821057  1.0
  Ni  Ni1302  1  0.90044633  0.06361267  0.23821057  1.0
  Ni  Ni1303  1  0.90044633  0.39694600  0.23821057  1.0
  Ni  Ni1304  1  0.90044633  0.73027933  0.23821057  1.0
  Ni  Ni1305  1  0.20533567  0.10638300  0.17565529  1.0
  Ni  Ni1306  1  0.20533567  0.43971633  0.17565529  1.0
  Ni  Ni1307  1  0.20533567  0.77304967  0.17565529  1.0
  Ni  Ni1308  1  0.53866900  0.10638300  0.17565529  1.0
  Ni  Ni1309  1  0.53866900  0.43971633  0.17565529  1.0
  Ni  Ni1310  1  0.53866900  0.77304967  0.17565529  1.0
  Ni  Ni1311  1  0.87200233  0.10638300  0.17565529  1.0
  Ni  Ni1312  1  0.87200233  0.43971633  0.17565529  1.0
  Ni  Ni1313  1  0.87200233  0.77304967  0.17565529  1.0
  Ni  Ni1314  1  0.17456067  0.20860267  0.24199386  1.0
  Ni  Ni1315  1  0.17456067  0.54193600  0.24199386  1.0
  Ni  Ni1316  1  0.17456067  0.87526933  0.24199386  1.0
  Ni  Ni1317  1  0.50789400  0.20860267  0.24199386  1.0
  Ni  Ni1318  1  0.50789400  0.54193600  0.24199386  1.0
  Ni  Ni1319  1  0.50789400  0.87526933  0.24199386  1.0
  Ni  Ni1320  1  0.84122733  0.20860267  0.24199386  1.0
  Ni  Ni1321  1  0.84122733  0.54193600  0.24199386  1.0
  Ni  Ni1322  1  0.84122733  0.87526933  0.24199386  1.0
  Ni  Ni1323  1  0.15044633  0.00379467  0.18368543  1.0
  Ni  Ni1324  1  0.15044633  0.33712800  0.18368543  1.0
  Ni  Ni1325  1  0.15044633  0.67046133  0.18368543  1.0
  Ni  Ni1326  1  0.48377967  0.00379467  0.18368543  1.0
  Ni  Ni1327  1  0.48377967  0.33712800  0.18368543  1.0
  Ni  Ni1328  1  0.48377967  0.67046133  0.18368543  1.0
  Ni  Ni1329  1  0.81711300  0.00379467  0.18368543  1.0
  Ni  Ni1330  1  0.81711300  0.33712800  0.18368543  1.0
  Ni  Ni1331  1  0.81711300  0.67046133  0.18368543  1.0
  Ni  Ni1332  1  0.07543933  0.04193600  0.21259471  1.0
  Ni  Ni1333  1  0.07543933  0.37526933  0.21259471  1.0
  Ni  Ni1334  1  0.07543933  0.70860267  0.21259471  1.0
  Ni  Ni1335  1  0.40877267  0.04193600  0.21259471  1.0
  Ni  Ni1336  1  0.40877267  0.37526933  0.21259471  1.0
  Ni  Ni1337  1  0.40877267  0.70860267  0.21259471  1.0
  Ni  Ni1338  1  0.74210600  0.04193600  0.21259471  1.0
  Ni  Ni1339  1  0.74210600  0.37526933  0.21259471  1.0
  Ni  Ni1340  1  0.74210600  0.70860267  0.21259471  1.0
  Ni  Ni1341  1  0.11862733  0.00391133  0.23293143  1.0
  Ni  Ni1342  1  0.11862733  0.33724467  0.23293143  1.0
  Ni  Ni1343  1  0.11862733  0.67057800  0.23293143  1.0
  Ni  Ni1344  1  0.45196067  0.00391133  0.23293143  1.0
  Ni  Ni1345  1  0.45196067  0.33724467  0.23293143  1.0
  Ni  Ni1346  1  0.45196067  0.67057800  0.23293143  1.0
  Ni  Ni1347  1  0.78529400  0.00391133  0.23293143  1.0
  Ni  Ni1348  1  0.78529400  0.33724467  0.23293143  1.0
  Ni  Ni1349  1  0.78529400  0.67057800  0.23293143  1.0
  Ni  Ni1350  1  0.12200233  0.14839533  0.22732700  1.0
  Ni  Ni1351  1  0.12200233  0.48172867  0.22732700  1.0
  Ni  Ni1352  1  0.12200233  0.81506200  0.22732700  1.0
  Ni  Ni1353  1  0.45533567  0.14839533  0.22732700  1.0
  Ni  Ni1354  1  0.45533567  0.48172867  0.22732700  1.0
  Ni  Ni1355  1  0.45533567  0.81506200  0.22732700  1.0
  Ni  Ni1356  1  0.78866900  0.14839533  0.22732700  1.0
  Ni  Ni1357  1  0.78866900  0.48172867  0.22732700  1.0
  Ni  Ni1358  1  0.78866900  0.81506200  0.22732700  1.0
  Ni  Ni1359  1  0.29466433  0.01827133  0.24298814  1.0
  Ni  Ni1360  1  0.29466433  0.35160467  0.24298814  1.0
  Ni  Ni1361  1  0.29466433  0.68493800  0.24298814  1.0
  Ni  Ni1362  1  0.62799767  0.01827133  0.24298814  1.0
  Ni  Ni1363  1  0.62799767  0.35160467  0.24298814  1.0
  Ni  Ni1364  1  0.62799767  0.68493800  0.24298814  1.0
  Ni  Ni1365  1  0.96133100  0.01827133  0.24298814  1.0
  Ni  Ni1366  1  0.96133100  0.35160467  0.24298814  1.0
  Ni  Ni1367  1  0.96133100  0.68493800  0.24298814  1.0
  Ni  Ni1368  1  0.12799767  0.31506200  0.17565529  1.0
  Ni  Ni1369  1  0.12799767  0.64839533  0.17565529  1.0
  Ni  Ni1370  1  0.12799767  0.98172867  0.17565529  1.0
  Ni  Ni1371  1  0.46133100  0.31506200  0.17565529  1.0
  Ni  Ni1372  1  0.46133100  0.64839533  0.17565529  1.0
  Ni  Ni1373  1  0.46133100  0.98172867  0.17565529  1.0
  Ni  Ni1374  1  0.79466433  0.31506200  0.17565529  1.0
  Ni  Ni1375  1  0.79466433  0.64839533  0.17565529  1.0
  Ni  Ni1376  1  0.79466433  0.98172867  0.17565529  1.0
  Ni  Ni1377  1  0.15877267  0.03429900  0.24199386  1.0
  Ni  Ni1378  1  0.15877267  0.36763233  0.24199386  1.0
  Ni  Ni1379  1  0.15877267  0.70096567  0.24199386  1.0
  Ni  Ni1380  1  0.49210600  0.03429900  0.24199386  1.0
  Ni  Ni1381  1  0.49210600  0.36763233  0.24199386  1.0
  Ni  Ni1382  1  0.49210600  0.70096567  0.24199386  1.0
  Ni  Ni1383  1  0.82543933  0.03429900  0.24199386  1.0
  Ni  Ni1384  1  0.82543933  0.36763233  0.24199386  1.0
  Ni  Ni1385  1  0.82543933  0.70096567  0.24199386  1.0
  Ni  Ni1386  1  0.21133100  0.06028367  0.22732700  1.0
  Ni  Ni1387  1  0.21133100  0.39361700  0.22732700  1.0
  Ni  Ni1388  1  0.21133100  0.72695033  0.22732700  1.0
  Ni  Ni1389  1  0.54466433  0.06028367  0.22732700  1.0
  Ni  Ni1390  1  0.54466433  0.39361700  0.22732700  1.0
  Ni  Ni1391  1  0.54466433  0.72695033  0.22732700  1.0
  Ni  Ni1392  1  0.87799767  0.06028367  0.22732700  1.0
  Ni  Ni1393  1  0.87799767  0.39361700  0.22732700  1.0
  Ni  Ni1394  1  0.87799767  0.72695033  0.22732700  1.0
  Ni  Ni1395  1  0.28866900  0.18493800  0.19131643  1.0
  Ni  Ni1396  1  0.28866900  0.51827133  0.19131643  1.0
  Ni  Ni1397  1  0.28866900  0.85160467  0.19131643  1.0
  Ni  Ni1398  1  0.62200233  0.18493800  0.19131643  1.0
  Ni  Ni1399  1  0.62200233  0.51827133  0.19131643  1.0
  Ni  Ni1400  1  0.62200233  0.85160467  0.19131643  1.0
  Ni  Ni1401  1  0.95533567  0.18493800  0.19131643  1.0
  Ni  Ni1402  1  0.95533567  0.51827133  0.19131643  1.0
  Ni  Ni1403  1  0.95533567  0.85160467  0.19131643  1.0
  Ni  Ni1404  1  0.31711300  0.32953867  0.23495800  1.0
  Ni  Ni1405  1  0.31711300  0.66287200  0.23495800  1.0
  Ni  Ni1406  1  0.31711300  0.99620533  0.23495800  1.0
  Ni  Ni1407  1  0.65044633  0.32953867  0.23495800  1.0
  Ni  Ni1408  1  0.65044633  0.66287200  0.23495800  1.0
  Ni  Ni1409  1  0.65044633  0.99620533  0.23495800  1.0
  Ni  Ni1410  1  0.98377967  0.32953867  0.23495800  1.0
  Ni  Ni1411  1  0.98377967  0.66287200  0.23495800  1.0
  Ni  Ni1412  1  0.98377967  0.99620533  0.23495800  1.0
  Ni  Ni1413  1  0.04466433  0.27304967  0.19131643  1.0
  Ni  Ni1414  1  0.04466433  0.60638300  0.19131643  1.0
  Ni  Ni1415  1  0.04466433  0.93971633  0.19131643  1.0
  Ni  Ni1416  1  0.37799767  0.27304967  0.19131643  1.0
  Ni  Ni1417  1  0.37799767  0.60638300  0.19131643  1.0
  Ni  Ni1418  1  0.37799767  0.93971633  0.19131643  1.0
  Ni  Ni1419  1  0.71133100  0.27304967  0.19131643  1.0
  Ni  Ni1420  1  0.71133100  0.60638300  0.19131643  1.0
  Ni  Ni1421  1  0.71133100  0.93971633  0.19131643  1.0
  Ni  Ni1422  1  0.25789400  0.13236767  0.21259471  1.0
  Ni  Ni1423  1  0.25789400  0.46570100  0.21259471  1.0
  Ni  Ni1424  1  0.25789400  0.79903433  0.21259471  1.0
  Ni  Ni1425  1  0.59122733  0.13236767  0.21259471  1.0
  Ni  Ni1426  1  0.59122733  0.46570100  0.21259471  1.0
  Ni  Ni1427  1  0.59122733  0.79903433  0.21259471  1.0
  Ni  Ni1428  1  0.92456067  0.13236767  0.21259471  1.0
  Ni  Ni1429  1  0.92456067  0.46570100  0.21259471  1.0
  Ni  Ni1430  1  0.92456067  0.79903433  0.21259471  1.0
  Ni  Ni1431  1  0.29803933  0.16275533  0.22957886  1.0
  Ni  Ni1432  1  0.29803933  0.49608867  0.22957886  1.0
  Ni  Ni1433  1  0.29803933  0.82942200  0.22957886  1.0
  Ni  Ni1434  1  0.63137267  0.16275533  0.22957886  1.0
  Ni  Ni1435  1  0.63137267  0.49608867  0.22957886  1.0
  Ni  Ni1436  1  0.63137267  0.82942200  0.22957886  1.0
  Ni  Ni1437  1  0.96470600  0.16275533  0.22957886  1.0
  Ni  Ni1438  1  0.96470600  0.49608867  0.22957886  1.0
  Ni  Ni1439  1  0.96470600  0.82942200  0.22957886  1.0
  Y  Y1440  1  0.19643800  0.00370467  0.30572043  1.0
  Y  Y1441  1  0.19643800  0.33703800  0.30572043  1.0
  Y  Y1442  1  0.19643800  0.67037133  0.30572043  1.0
  Y  Y1443  1  0.52977133  0.00370467  0.30572043  1.0
  Y  Y1444  1  0.52977133  0.33703800  0.30572043  1.0
  Y  Y1445  1  0.52977133  0.67037133  0.30572043  1.0
  Y  Y1446  1  0.86310467  0.00370467  0.30572043  1.0
  Y  Y1447  1  0.86310467  0.33703800  0.30572043  1.0
  Y  Y1448  1  0.86310467  0.67037133  0.30572043  1.0
  Y  Y1449  1  0.07851667  0.10266533  0.33340829  1.0
  Y  Y1450  1  0.07851667  0.43599867  0.33340829  1.0
  Y  Y1451  1  0.07851667  0.76933200  0.33340829  1.0
  Y  Y1452  1  0.41185000  0.10266533  0.33340829  1.0
  Y  Y1453  1  0.41185000  0.43599867  0.33340829  1.0
  Y  Y1454  1  0.41185000  0.76933200  0.33340829  1.0
  Y  Y1455  1  0.74518333  0.10266533  0.33340829  1.0
  Y  Y1456  1  0.74518333  0.43599867  0.33340829  1.0
  Y  Y1457  1  0.74518333  0.76933200  0.33340829  1.0
  Y  Y1458  1  0.22712900  0.11190600  0.35153229  1.0
  Y  Y1459  1  0.22712900  0.44523933  0.35153229  1.0
  Y  Y1460  1  0.22712900  0.77857267  0.35153229  1.0
  Y  Y1461  1  0.56046233  0.11190600  0.35153229  1.0
  Y  Y1462  1  0.56046233  0.44523933  0.35153229  1.0
  Y  Y1463  1  0.56046233  0.77857267  0.35153229  1.0
  Y  Y1464  1  0.89379567  0.11190600  0.35153229  1.0
  Y  Y1465  1  0.89379567  0.44523933  0.35153229  1.0
  Y  Y1466  1  0.89379567  0.77857267  0.35153229  1.0
  Y  Y1467  1  0.08333333  0.27278600  0.42360743  1.0
  Y  Y1468  1  0.08333333  0.60611933  0.42360743  1.0
  Y  Y1469  1  0.08333333  0.93945267  0.42360743  1.0
  Y  Y1470  1  0.41666667  0.27278600  0.42360743  1.0
  Y  Y1471  1  0.41666667  0.60611933  0.42360743  1.0
  Y  Y1472  1  0.41666667  0.93945267  0.42360743  1.0
  Y  Y1473  1  0.75000000  0.27278600  0.42360743  1.0
  Y  Y1474  1  0.75000000  0.60611933  0.42360743  1.0
  Y  Y1475  1  0.75000000  0.93945267  0.42360743  1.0
  Y  Y1476  1  0.25000000  0.17824933  0.42360743  1.0
  Y  Y1477  1  0.25000000  0.51158267  0.42360743  1.0
  Y  Y1478  1  0.25000000  0.84491600  0.42360743  1.0
  Y  Y1479  1  0.58333333  0.17824933  0.42360743  1.0
  Y  Y1480  1  0.58333333  0.51158267  0.42360743  1.0
  Y  Y1481  1  0.58333333  0.84491600  0.42360743  1.0
  Y  Y1482  1  0.91666667  0.17824933  0.42360743  1.0
  Y  Y1483  1  0.91666667  0.51158267  0.42360743  1.0
  Y  Y1484  1  0.91666667  0.84491600  0.42360743  1.0
  Y  Y1485  1  0.19753900  0.17171233  0.39593100  1.0
  Y  Y1486  1  0.19753900  0.50504567  0.39593100  1.0
  Y  Y1487  1  0.19753900  0.83837900  0.39593100  1.0
  Y  Y1488  1  0.53087233  0.17171233  0.39593100  1.0
  Y  Y1489  1  0.53087233  0.50504567  0.39593100  1.0
  Y  Y1490  1  0.53087233  0.83837900  0.39593100  1.0
  Y  Y1491  1  0.86420567  0.17171233  0.39593100  1.0
  Y  Y1492  1  0.86420567  0.50504567  0.39593100  1.0
  Y  Y1493  1  0.86420567  0.83837900  0.39593100  1.0
  Y  Y1494  1  0.14379567  0.21991867  0.39847000  1.0
  Y  Y1495  1  0.14379567  0.55325200  0.39847000  1.0
  Y  Y1496  1  0.14379567  0.88658533  0.39847000  1.0
  Y  Y1497  1  0.47712900  0.21991867  0.39847000  1.0
  Y  Y1498  1  0.47712900  0.55325200  0.39847000  1.0
  Y  Y1499  1  0.47712900  0.88658533  0.39847000  1.0
  Y  Y1500  1  0.81046233  0.21991867  0.39847000  1.0
  Y  Y1501  1  0.81046233  0.55325200  0.39847000  1.0
  Y  Y1502  1  0.81046233  0.88658533  0.39847000  1.0
  Y  Y1503  1  0.16666667  0.10611933  0.37170971  1.0
  Y  Y1504  1  0.16666667  0.43945267  0.37170971  1.0
  Y  Y1505  1  0.16666667  0.77278600  0.37170971  1.0
  Y  Y1506  1  0.50000000  0.10611933  0.37170971  1.0
  Y  Y1507  1  0.50000000  0.43945267  0.37170971  1.0
  Y  Y1508  1  0.50000000  0.77278600  0.37170971  1.0
  Y  Y1509  1  0.83333333  0.10611933  0.37170971  1.0
  Y  Y1510  1  0.83333333  0.43945267  0.37170971  1.0
  Y  Y1511  1  0.83333333  0.77278600  0.37170971  1.0
  Y  Y1512  1  0.27977133  0.11210767  0.40181271  1.0
  Y  Y1513  1  0.27977133  0.44544100  0.40181271  1.0
  Y  Y1514  1  0.27977133  0.77877433  0.40181271  1.0
  Y  Y1515  1  0.61310467  0.11210767  0.40181271  1.0
  Y  Y1516  1  0.61310467  0.44544100  0.40181271  1.0
  Y  Y1517  1  0.61310467  0.77877433  0.40181271  1.0
  Y  Y1518  1  0.94643800  0.11210767  0.40181271  1.0
  Y  Y1519  1  0.94643800  0.44544100  0.40181271  1.0
  Y  Y1520  1  0.94643800  0.77877433  0.40181271  1.0
  Y  Y1521  1  0.02287100  0.27857267  0.30588771  1.0
  Y  Y1522  1  0.02287100  0.61190600  0.30588771  1.0
  Y  Y1523  1  0.02287100  0.94523933  0.30588771  1.0
  Y  Y1524  1  0.35620433  0.27857267  0.30588771  1.0
  Y  Y1525  1  0.35620433  0.61190600  0.30588771  1.0
  Y  Y1526  1  0.35620433  0.94523933  0.30588771  1.0
  Y  Y1527  1  0.68953767  0.27857267  0.30588771  1.0
  Y  Y1528  1  0.68953767  0.61190600  0.30588771  1.0
  Y  Y1529  1  0.68953767  0.94523933  0.30588771  1.0
  Y  Y1530  1  0.13689533  0.05455900  0.30572043  1.0
  Y  Y1531  1  0.13689533  0.38789233  0.30572043  1.0
  Y  Y1532  1  0.13689533  0.72122567  0.30572043  1.0
  Y  Y1533  1  0.47022867  0.05455900  0.30572043  1.0
  Y  Y1534  1  0.47022867  0.38789233  0.30572043  1.0
  Y  Y1535  1  0.47022867  0.72122567  0.30572043  1.0
  Y  Y1536  1  0.80356200  0.05455900  0.30572043  1.0
  Y  Y1537  1  0.80356200  0.38789233  0.30572043  1.0
  Y  Y1538  1  0.80356200  0.72122567  0.30572043  1.0
  Y  Y1539  1  0.05806767  0.04769867  0.40026400  1.0
  Y  Y1540  1  0.05806767  0.38103200  0.40026400  1.0
  Y  Y1541  1  0.05806767  0.71436533  0.40026400  1.0
  Y  Y1542  1  0.39140100  0.04769867  0.40026400  1.0
  Y  Y1543  1  0.39140100  0.38103200  0.40026400  1.0
  Y  Y1544  1  0.39140100  0.71436533  0.40026400  1.0
  Y  Y1545  1  0.72473433  0.04769867  0.40026400  1.0
  Y  Y1546  1  0.72473433  0.38103200  0.40026400  1.0
  Y  Y1547  1  0.72473433  0.71436533  0.40026400  1.0
  Y  Y1548  1  0.22022867  0.16296200  0.30254500  1.0
  Y  Y1549  1  0.22022867  0.49629533  0.30254500  1.0
  Y  Y1550  1  0.22022867  0.82962867  0.30254500  1.0
  Y  Y1551  1  0.55356200  0.16296200  0.30254500  1.0
  Y  Y1552  1  0.55356200  0.49629533  0.30254500  1.0
  Y  Y1553  1  0.55356200  0.82962867  0.30254500  1.0
  Y  Y1554  1  0.88689533  0.16296200  0.30254500  1.0
  Y  Y1555  1  0.88689533  0.49629533  0.30254500  1.0
  Y  Y1556  1  0.88689533  0.82962867  0.30254500  1.0
  Y  Y1557  1  0.10620433  0.05325200  0.35153229  1.0
  Y  Y1558  1  0.10620433  0.38658533  0.35153229  1.0
  Y  Y1559  1  0.10620433  0.71991867  0.35153229  1.0
  Y  Y1560  1  0.43953767  0.05325200  0.35153229  1.0
  Y  Y1561  1  0.43953767  0.38658533  0.35153229  1.0
  Y  Y1562  1  0.43953767  0.71991867  0.35153229  1.0
  Y  Y1563  1  0.77287100  0.05325200  0.35153229  1.0
  Y  Y1564  1  0.77287100  0.38658533  0.35153229  1.0
  Y  Y1565  1  0.77287100  0.71991867  0.35153229  1.0
  Y  Y1566  1  0.21912767  0.32828767  0.39160614  1.0
  Y  Y1567  1  0.21912767  0.66162100  0.39160614  1.0
  Y  Y1568  1  0.21912767  0.99495433  0.39160614  1.0
  Y  Y1569  1  0.55246100  0.32828767  0.39160614  1.0
  Y  Y1570  1  0.55246100  0.66162100  0.39160614  1.0
  Y  Y1571  1  0.55246100  0.99495433  0.39160614  1.0
  Y  Y1572  1  0.88579433  0.32828767  0.39160614  1.0
  Y  Y1573  1  0.88579433  0.66162100  0.39160614  1.0
  Y  Y1574  1  0.88579433  0.99495433  0.39160614  1.0
  Y  Y1575  1  0.25481667  0.02020333  0.33340829  1.0
  Y  Y1576  1  0.25481667  0.35353667  0.33340829  1.0
  Y  Y1577  1  0.25481667  0.68687000  0.33340829  1.0
  Y  Y1578  1  0.58815000  0.02020333  0.33340829  1.0
  Y  Y1579  1  0.58815000  0.35353667  0.33340829  1.0
  Y  Y1580  1  0.58815000  0.68687000  0.33340829  1.0
  Y  Y1581  1  0.92148333  0.02020333  0.33340829  1.0
  Y  Y1582  1  0.92148333  0.35353667  0.33340829  1.0
  Y  Y1583  1  0.92148333  0.68687000  0.33340829  1.0
  Y  Y1584  1  0.05356200  0.17037133  0.40181271  1.0
  Y  Y1585  1  0.05356200  0.50370467  0.40181271  1.0
  Y  Y1586  1  0.05356200  0.83703800  0.40181271  1.0
  Y  Y1587  1  0.38689533  0.17037133  0.40181271  1.0
  Y  Y1588  1  0.38689533  0.50370467  0.40181271  1.0
  Y  Y1589  1  0.38689533  0.83703800  0.40181271  1.0
  Y  Y1590  1  0.72022867  0.17037133  0.40181271  1.0
  Y  Y1591  1  0.72022867  0.50370467  0.40181271  1.0
  Y  Y1592  1  0.72022867  0.83703800  0.40181271  1.0
  Y  Y1593  1  0.10859900  0.10216667  0.30409371  1.0
  Y  Y1594  1  0.10859900  0.43550000  0.30409371  1.0
  Y  Y1595  1  0.10859900  0.76883333  0.30409371  1.0
  Y  Y1596  1  0.44193233  0.10216667  0.30409371  1.0
  Y  Y1597  1  0.44193233  0.43550000  0.30409371  1.0
  Y  Y1598  1  0.44193233  0.76883333  0.30409371  1.0
  Y  Y1599  1  0.77526567  0.10216667  0.30409371  1.0
  Y  Y1600  1  0.77526567  0.43550000  0.30409371  1.0
  Y  Y1601  1  0.77526567  0.76883333  0.30409371  1.0
  Y  Y1602  1  0.31046233  0.11341467  0.30588771  1.0
  Y  Y1603  1  0.31046233  0.44674800  0.30588771  1.0
  Y  Y1604  1  0.31046233  0.78008133  0.30588771  1.0
  Y  Y1605  1  0.64379567  0.11341467  0.30588771  1.0
  Y  Y1606  1  0.64379567  0.44674800  0.30588771  1.0
  Y  Y1607  1  0.64379567  0.78008133  0.30588771  1.0
  Y  Y1608  1  0.97712900  0.11341467  0.30588771  1.0
  Y  Y1609  1  0.97712900  0.44674800  0.30588771  1.0
  Y  Y1610  1  0.97712900  0.78008133  0.30588771  1.0
  Y  Y1611  1  0.08333333  0.15508400  0.42360743  1.0
  Y  Y1612  1  0.08333333  0.48841733  0.42360743  1.0
  Y  Y1613  1  0.08333333  0.82175067  0.42360743  1.0
  Y  Y1614  1  0.41666667  0.15508400  0.42360743  1.0
  Y  Y1615  1  0.41666667  0.48841733  0.42360743  1.0
  Y  Y1616  1  0.41666667  0.82175067  0.42360743  1.0
  Y  Y1617  1  0.75000000  0.15508400  0.42360743  1.0
  Y  Y1618  1  0.75000000  0.48841733  0.42360743  1.0
  Y  Y1619  1  0.75000000  0.82175067  0.42360743  1.0
  Y  Y1620  1  0.02526567  0.11896800  0.35937943  1.0
  Y  Y1621  1  0.02526567  0.45230133  0.35937943  1.0
  Y  Y1622  1  0.02526567  0.78563467  0.35937943  1.0
  Y  Y1623  1  0.35859900  0.11896800  0.35937943  1.0
  Y  Y1624  1  0.35859900  0.45230133  0.35937943  1.0
  Y  Y1625  1  0.35859900  0.78563467  0.35937943  1.0
  Y  Y1626  1  0.69193233  0.11896800  0.35937943  1.0
  Y  Y1627  1  0.69193233  0.45230133  0.35937943  1.0
  Y  Y1628  1  0.69193233  0.78563467  0.35937943  1.0
  Y  Y1629  1  0.30246100  0.23629067  0.30842671  1.0
  Y  Y1630  1  0.30246100  0.56962400  0.30842671  1.0
  Y  Y1631  1  0.30246100  0.90295733  0.30842671  1.0
  Y  Y1632  1  0.63579433  0.23629067  0.30842671  1.0
  Y  Y1633  1  0.63579433  0.56962400  0.30842671  1.0
  Y  Y1634  1  0.63579433  0.90295733  0.30842671  1.0
  Y  Y1635  1  0.96912767  0.23629067  0.30842671  1.0
  Y  Y1636  1  0.96912767  0.56962400  0.30842671  1.0
  Y  Y1637  1  0.96912767  0.90295733  0.30842671  1.0
  Y  Y1638  1  0.02977133  0.32962867  0.39863729  1.0
  Y  Y1639  1  0.02977133  0.66296200  0.39863729  1.0
  Y  Y1640  1  0.02977133  0.99629533  0.39863729  1.0
  Y  Y1641  1  0.36310467  0.32962867  0.39863729  1.0
  Y  Y1642  1  0.36310467  0.66296200  0.39863729  1.0
  Y  Y1643  1  0.36310467  0.99629533  0.39863729  1.0
  Y  Y1644  1  0.69643800  0.32962867  0.39863729  1.0
  Y  Y1645  1  0.69643800  0.66296200  0.39863729  1.0
  Y  Y1646  1  0.69643800  0.99629533  0.39863729  1.0
  Y  Y1647  1  0.32851667  0.18687000  0.38826657  1.0
  Y  Y1648  1  0.32851667  0.52020333  0.38826657  1.0
  Y  Y1649  1  0.32851667  0.85353667  0.38826657  1.0
  Y  Y1650  1  0.66185000  0.18687000  0.38826657  1.0
  Y  Y1651  1  0.66185000  0.52020333  0.38826657  1.0
  Y  Y1652  1  0.66185000  0.85353667  0.38826657  1.0
  Y  Y1653  1  0.99518333  0.18687000  0.38826657  1.0
  Y  Y1654  1  0.99518333  0.52020333  0.38826657  1.0
  Y  Y1655  1  0.99518333  0.85353667  0.38826657  1.0
  Y  Y1656  1  0.00000000  0.01158267  0.29067829  1.0
  Y  Y1657  1  0.00000000  0.34491600  0.29067829  1.0
  Y  Y1658  1  0.00000000  0.67824933  0.29067829  1.0
  Y  Y1659  1  0.33333333  0.01158267  0.29067829  1.0
  Y  Y1660  1  0.33333333  0.34491600  0.29067829  1.0
  Y  Y1661  1  0.33333333  0.67824933  0.29067829  1.0
  Y  Y1662  1  0.66666667  0.01158267  0.29067829  1.0
  Y  Y1663  1  0.66666667  0.34491600  0.29067829  1.0
  Y  Y1664  1  0.66666667  0.67824933  0.29067829  1.0
  Y  Y1665  1  0.11420567  0.26370933  0.39160614  1.0
  Y  Y1666  1  0.11420567  0.59704267  0.39160614  1.0
  Y  Y1667  1  0.11420567  0.93037600  0.39160614  1.0
  Y  Y1668  1  0.44753900  0.26370933  0.39160614  1.0
  Y  Y1669  1  0.44753900  0.59704267  0.39160614  1.0
  Y  Y1670  1  0.44753900  0.93037600  0.39160614  1.0
  Y  Y1671  1  0.78087233  0.26370933  0.39160614  1.0
  Y  Y1672  1  0.78087233  0.59704267  0.39160614  1.0
  Y  Y1673  1  0.78087233  0.93037600  0.39160614  1.0
  Y  Y1674  1  0.14140100  0.26883333  0.34497829  1.0
  Y  Y1675  1  0.14140100  0.60216667  0.34497829  1.0
  Y  Y1676  1  0.14140100  0.93550000  0.34497829  1.0
  Y  Y1677  1  0.47473433  0.26883333  0.34497829  1.0
  Y  Y1678  1  0.47473433  0.60216667  0.34497829  1.0
  Y  Y1679  1  0.47473433  0.93550000  0.34497829  1.0
  Y  Y1680  1  0.80806767  0.26883333  0.34497829  1.0
  Y  Y1681  1  0.80806767  0.60216667  0.34497829  1.0
  Y  Y1682  1  0.80806767  0.93550000  0.34497829  1.0
  Y  Y1683  1  0.06046233  0.22142733  0.35282543  1.0
  Y  Y1684  1  0.06046233  0.55476067  0.35282543  1.0
  Y  Y1685  1  0.06046233  0.88809400  0.35282543  1.0
  Y  Y1686  1  0.39379567  0.22142733  0.35282543  1.0
  Y  Y1687  1  0.39379567  0.55476067  0.35282543  1.0
  Y  Y1688  1  0.39379567  0.88809400  0.35282543  1.0
  Y  Y1689  1  0.72712900  0.22142733  0.35282543  1.0
  Y  Y1690  1  0.72712900  0.55476067  0.35282543  1.0
  Y  Y1691  1  0.72712900  0.88809400  0.35282543  1.0
  Y  Y1692  1  0.00000000  0.22721400  0.33264800  1.0
  Y  Y1693  1  0.00000000  0.56054733  0.33264800  1.0
  Y  Y1694  1  0.00000000  0.89388067  0.33264800  1.0
  Y  Y1695  1  0.33333333  0.22721400  0.33264800  1.0
  Y  Y1696  1  0.33333333  0.56054733  0.33264800  1.0
  Y  Y1697  1  0.33333333  0.89388067  0.33264800  1.0
  Y  Y1698  1  0.66666667  0.22721400  0.33264800  1.0
  Y  Y1699  1  0.66666667  0.56054733  0.33264800  1.0
  Y  Y1700  1  0.66666667  0.89388067  0.33264800  1.0
  Y  Y1701  1  0.24518333  0.23066800  0.37094943  1.0
  Y  Y1702  1  0.24518333  0.56400133  0.37094943  1.0
  Y  Y1703  1  0.24518333  0.89733467  0.37094943  1.0
  Y  Y1704  1  0.57851667  0.23066800  0.37094943  1.0
  Y  Y1705  1  0.57851667  0.56400133  0.37094943  1.0
  Y  Y1706  1  0.57851667  0.89733467  0.37094943  1.0
  Y  Y1707  1  0.91185000  0.23066800  0.37094943  1.0
  Y  Y1708  1  0.91185000  0.56400133  0.37094943  1.0
  Y  Y1709  1  0.91185000  0.89733467  0.37094943  1.0
  Y  Y1710  1  0.18953767  0.05476067  0.39847000  1.0
  Y  Y1711  1  0.18953767  0.38809400  0.39847000  1.0
  Y  Y1712  1  0.18953767  0.72142733  0.39847000  1.0
  Y  Y1713  1  0.52287100  0.05476067  0.39847000  1.0
  Y  Y1714  1  0.52287100  0.38809400  0.39847000  1.0
  Y  Y1715  1  0.52287100  0.72142733  0.39847000  1.0
  Y  Y1716  1  0.85620433  0.05476067  0.39847000  1.0
  Y  Y1717  1  0.85620433  0.38809400  0.39847000  1.0
  Y  Y1718  1  0.85620433  0.72142733  0.39847000  1.0
  Y  Y1719  1  0.25000000  0.06054733  0.42360743  1.0
  Y  Y1720  1  0.25000000  0.39388067  0.42360743  1.0
  Y  Y1721  1  0.25000000  0.72721400  0.42360743  1.0
  Y  Y1722  1  0.58333333  0.06054733  0.42360743  1.0
  Y  Y1723  1  0.58333333  0.39388067  0.42360743  1.0
  Y  Y1724  1  0.58333333  0.72721400  0.42360743  1.0
  Y  Y1725  1  0.91666667  0.06054733  0.42360743  1.0
  Y  Y1726  1  0.91666667  0.39388067  0.42360743  1.0
  Y  Y1727  1  0.91666667  0.72721400  0.42360743  1.0
  Y  Y1728  1  0.16666667  0.32175067  0.41367943  1.0
  Y  Y1729  1  0.16666667  0.65508400  0.41367943  1.0
  Y  Y1730  1  0.16666667  0.98841733  0.41367943  1.0
  Y  Y1731  1  0.50000000  0.32175067  0.41367943  1.0
  Y  Y1732  1  0.50000000  0.65508400  0.41367943  1.0
  Y  Y1733  1  0.50000000  0.98841733  0.41367943  1.0
  Y  Y1734  1  0.83333333  0.32175067  0.41367943  1.0
  Y  Y1735  1  0.83333333  0.65508400  0.41367943  1.0
  Y  Y1736  1  0.83333333  0.98841733  0.41367943  1.0
  Y  Y1737  1  0.08815000  0.31313000  0.37094943  1.0
  Y  Y1738  1  0.08815000  0.64646333  0.37094943  1.0
  Y  Y1739  1  0.08815000  0.97979667  0.37094943  1.0
  Y  Y1740  1  0.42148333  0.31313000  0.37094943  1.0
  Y  Y1741  1  0.42148333  0.64646333  0.37094943  1.0
  Y  Y1742  1  0.42148333  0.97979667  0.37094943  1.0
  Y  Y1743  1  0.75481667  0.31313000  0.37094943  1.0
  Y  Y1744  1  0.75481667  0.64646333  0.37094943  1.0
  Y  Y1745  1  0.75481667  0.97979667  0.37094943  1.0
  Y  Y1746  1  0.22473433  0.28563467  0.30409371  1.0
  Y  Y1747  1  0.22473433  0.61896800  0.30409371  1.0
  Y  Y1748  1  0.22473433  0.95230133  0.30409371  1.0
  Y  Y1749  1  0.55806767  0.28563467  0.30409371  1.0
  Y  Y1750  1  0.55806767  0.61896800  0.30409371  1.0
  Y  Y1751  1  0.55806767  0.95230133  0.30409371  1.0
  Y  Y1752  1  0.89140100  0.28563467  0.30409371  1.0
  Y  Y1753  1  0.89140100  0.61896800  0.30409371  1.0
  Y  Y1754  1  0.89140100  0.95230133  0.30409371  1.0
  Y  Y1755  1  0.27287100  0.28008133  0.35282543  1.0
  Y  Y1756  1  0.27287100  0.61341467  0.35282543  1.0
  Y  Y1757  1  0.27287100  0.94674800  0.35282543  1.0
  Y  Y1758  1  0.60620433  0.28008133  0.35282543  1.0
  Y  Y1759  1  0.60620433  0.61341467  0.35282543  1.0
  Y  Y1760  1  0.60620433  0.94674800  0.35282543  1.0
  Y  Y1761  1  0.93953767  0.28008133  0.35282543  1.0
  Y  Y1762  1  0.93953767  0.61341467  0.35282543  1.0
  Y  Y1763  1  0.93953767  0.94674800  0.35282543  1.0
  Y  Y1764  1  0.00481667  0.06400133  0.38826657  1.0
  Y  Y1765  1  0.00481667  0.39733467  0.38826657  1.0
  Y  Y1766  1  0.00481667  0.73066800  0.38826657  1.0
  Y  Y1767  1  0.33815000  0.06400133  0.38826657  1.0
  Y  Y1768  1  0.33815000  0.39733467  0.38826657  1.0
  Y  Y1769  1  0.33815000  0.73066800  0.38826657  1.0
  Y  Y1770  1  0.67148333  0.06400133  0.38826657  1.0
  Y  Y1771  1  0.67148333  0.39733467  0.38826657  1.0
  Y  Y1772  1  0.67148333  0.73066800  0.38826657  1.0
  Y  Y1773  1  0.13579433  0.09704267  0.39593100  1.0
  Y  Y1774  1  0.13579433  0.43037600  0.39593100  1.0
  Y  Y1775  1  0.13579433  0.76370933  0.39593100  1.0
  Y  Y1776  1  0.46912767  0.09704267  0.39593100  1.0
  Y  Y1777  1  0.46912767  0.43037600  0.39593100  1.0
  Y  Y1778  1  0.46912767  0.76370933  0.39593100  1.0
  Y  Y1779  1  0.80246100  0.09704267  0.39593100  1.0
  Y  Y1780  1  0.80246100  0.43037600  0.39593100  1.0
  Y  Y1781  1  0.80246100  0.76370933  0.39593100  1.0
  Y  Y1782  1  0.17148333  0.26933200  0.31609114  1.0
  Y  Y1783  1  0.17148333  0.60266533  0.31609114  1.0
  Y  Y1784  1  0.17148333  0.93599867  0.31609114  1.0
  Y  Y1785  1  0.50481667  0.26933200  0.31609114  1.0
  Y  Y1786  1  0.50481667  0.60266533  0.31609114  1.0
  Y  Y1787  1  0.50481667  0.93599867  0.31609114  1.0
  Y  Y1788  1  0.83815000  0.26933200  0.31609114  1.0
  Y  Y1789  1  0.83815000  0.60266533  0.31609114  1.0
  Y  Y1790  1  0.83815000  0.93599867  0.31609114  1.0
  Y  Y1791  1  0.16185000  0.14646333  0.31609114  1.0
  Y  Y1792  1  0.16185000  0.47979667  0.31609114  1.0
  Y  Y1793  1  0.16185000  0.81313000  0.31609114  1.0
  Y  Y1794  1  0.49518333  0.14646333  0.31609114  1.0
  Y  Y1795  1  0.49518333  0.47979667  0.31609114  1.0
  Y  Y1796  1  0.49518333  0.81313000  0.31609114  1.0
  Y  Y1797  1  0.82851667  0.14646333  0.31609114  1.0
  Y  Y1798  1  0.82851667  0.47979667  0.31609114  1.0
  Y  Y1799  1  0.82851667  0.81313000  0.31609114  1.0
  Y  Y1800  1  0.30806767  0.06450000  0.35937943  1.0
  Y  Y1801  1  0.30806767  0.39783333  0.35937943  1.0
  Y  Y1802  1  0.30806767  0.73116667  0.35937943  1.0
  Y  Y1803  1  0.64140100  0.06450000  0.35937943  1.0
  Y  Y1804  1  0.64140100  0.39783333  0.35937943  1.0
  Y  Y1805  1  0.64140100  0.73116667  0.35937943  1.0
  Y  Y1806  1  0.97473433  0.06450000  0.35937943  1.0
  Y  Y1807  1  0.97473433  0.39783333  0.35937943  1.0
  Y  Y1808  1  0.97473433  0.73116667  0.35937943  1.0
  Y  Y1809  1  0.30356200  0.27877433  0.39863729  1.0
  Y  Y1810  1  0.30356200  0.61210767  0.39863729  1.0
  Y  Y1811  1  0.30356200  0.94544100  0.39863729  1.0
  Y  Y1812  1  0.63689533  0.27877433  0.39863729  1.0
  Y  Y1813  1  0.63689533  0.61210767  0.39863729  1.0
  Y  Y1814  1  0.63689533  0.94544100  0.39863729  1.0
  Y  Y1815  1  0.97022867  0.27877433  0.39863729  1.0
  Y  Y1816  1  0.97022867  0.61210767  0.39863729  1.0
  Y  Y1817  1  0.97022867  0.94544100  0.39863729  1.0
  Y  Y1818  1  0.11310467  0.22122567  0.30254500  1.0
  Y  Y1819  1  0.11310467  0.55455900  0.30254500  1.0
  Y  Y1820  1  0.11310467  0.88789233  0.30254500  1.0
  Y  Y1821  1  0.44643800  0.22122567  0.30254500  1.0
  Y  Y1822  1  0.44643800  0.55455900  0.30254500  1.0
  Y  Y1823  1  0.44643800  0.88789233  0.30254500  1.0
  Y  Y1824  1  0.77977133  0.22122567  0.30254500  1.0
  Y  Y1825  1  0.77977133  0.55455900  0.30254500  1.0
  Y  Y1826  1  0.77977133  0.88789233  0.30254500  1.0
  Y  Y1827  1  0.28087233  0.06962400  0.31275157  1.0
  Y  Y1828  1  0.28087233  0.40295733  0.31275157  1.0
  Y  Y1829  1  0.28087233  0.73629067  0.31275157  1.0
  Y  Y1830  1  0.61420567  0.06962400  0.31275157  1.0
  Y  Y1831  1  0.61420567  0.40295733  0.31275157  1.0
  Y  Y1832  1  0.61420567  0.73629067  0.31275157  1.0
  Y  Y1833  1  0.94753900  0.06962400  0.31275157  1.0
  Y  Y1834  1  0.94753900  0.40295733  0.31275157  1.0
  Y  Y1835  1  0.94753900  0.73629067  0.31275157  1.0
  Y  Y1836  1  0.03087233  0.16162100  0.30842671  1.0
  Y  Y1837  1  0.03087233  0.49495433  0.30842671  1.0
  Y  Y1838  1  0.03087233  0.82828767  0.30842671  1.0
  Y  Y1839  1  0.36420567  0.16162100  0.30842671  1.0
  Y  Y1840  1  0.36420567  0.49495433  0.30842671  1.0
  Y  Y1841  1  0.36420567  0.82828767  0.30842671  1.0
  Y  Y1842  1  0.69753900  0.16162100  0.30842671  1.0
  Y  Y1843  1  0.69753900  0.49495433  0.30842671  1.0
  Y  Y1844  1  0.69753900  0.82828767  0.30842671  1.0
  Y  Y1845  1  0.05246100  0.00504567  0.31275157  1.0
  Y  Y1846  1  0.05246100  0.33837900  0.31275157  1.0
  Y  Y1847  1  0.05246100  0.67171233  0.31275157  1.0
  Y  Y1848  1  0.38579433  0.00504567  0.31275157  1.0
  Y  Y1849  1  0.38579433  0.33837900  0.31275157  1.0
  Y  Y1850  1  0.38579433  0.67171233  0.31275157  1.0
  Y  Y1851  1  0.71912767  0.00504567  0.31275157  1.0
  Y  Y1852  1  0.71912767  0.33837900  0.31275157  1.0
  Y  Y1853  1  0.71912767  0.67171233  0.31275157  1.0
  Y  Y1854  1  0.19193233  0.21436533  0.34497829  1.0
  Y  Y1855  1  0.19193233  0.54769867  0.34497829  1.0
  Y  Y1856  1  0.19193233  0.88103200  0.34497829  1.0
  Y  Y1857  1  0.52526567  0.21436533  0.34497829  1.0
  Y  Y1858  1  0.52526567  0.54769867  0.34497829  1.0
  Y  Y1859  1  0.52526567  0.88103200  0.34497829  1.0
  Y  Y1860  1  0.85859900  0.21436533  0.34497829  1.0
  Y  Y1861  1  0.85859900  0.54769867  0.34497829  1.0
  Y  Y1862  1  0.85859900  0.88103200  0.34497829  1.0
  Y  Y1863  1  0.27526567  0.23116667  0.40026400  1.0
  Y  Y1864  1  0.27526567  0.56450000  0.40026400  1.0
  Y  Y1865  1  0.27526567  0.89783333  0.40026400  1.0
  Y  Y1866  1  0.60859900  0.23116667  0.40026400  1.0
  Y  Y1867  1  0.60859900  0.56450000  0.40026400  1.0
  Y  Y1868  1  0.60859900  0.89783333  0.40026400  1.0
  Y  Y1869  1  0.94193233  0.23116667  0.40026400  1.0
  Y  Y1870  1  0.94193233  0.56450000  0.40026400  1.0
  Y  Y1871  1  0.94193233  0.89783333  0.40026400  1.0
  Ni  Ni1872  1  0.04803933  0.11548867  0.32856914  1.0
  Ni  Ni1873  1  0.04803933  0.44882200  0.32856914  1.0
  Ni  Ni1874  1  0.04803933  0.78215533  0.32856914  1.0
  Ni  Ni1875  1  0.38137267  0.11548867  0.32856914  1.0
  Ni  Ni1876  1  0.38137267  0.44882200  0.32856914  1.0
  Ni  Ni1877  1  0.38137267  0.78215533  0.32856914  1.0
  Ni  Ni1878  1  0.71470600  0.11548867  0.32856914  1.0
  Ni  Ni1879  1  0.71470600  0.44882200  0.32856914  1.0
  Ni  Ni1880  1  0.71470600  0.78215533  0.32856914  1.0
  Ni  Ni1881  1  0.00789400  0.12473067  0.31950671  1.0
  Ni  Ni1882  1  0.00789400  0.45806400  0.31950671  1.0
  Ni  Ni1883  1  0.00789400  0.79139733  0.31950671  1.0
  Ni  Ni1884  1  0.34122733  0.12473067  0.31950671  1.0
  Ni  Ni1885  1  0.34122733  0.45806400  0.31950671  1.0
  Ni  Ni1886  1  0.34122733  0.79139733  0.31950671  1.0
  Ni  Ni1887  1  0.67456067  0.12473067  0.31950671  1.0
  Ni  Ni1888  1  0.67456067  0.45806400  0.31950671  1.0
  Ni  Ni1889  1  0.67456067  0.79139733  0.31950671  1.0
  Ni  Ni1890  1  0.09122733  0.20096567  0.34890586  1.0
  Ni  Ni1891  1  0.09122733  0.53429900  0.34890586  1.0
  Ni  Ni1892  1  0.09122733  0.86763233  0.34890586  1.0
  Ni  Ni1893  1  0.42456067  0.20096567  0.34890586  1.0
  Ni  Ni1894  1  0.42456067  0.53429900  0.34890586  1.0
  Ni  Ni1895  1  0.42456067  0.86763233  0.34890586  1.0
  Ni  Ni1896  1  0.75789400  0.20096567  0.34890586  1.0
  Ni  Ni1897  1  0.75789400  0.53429900  0.34890586  1.0
  Ni  Ni1898  1  0.75789400  0.86763233  0.34890586  1.0
  Ni  Ni1899  1  0.13137267  0.17057800  0.33192171  1.0
  Ni  Ni1900  1  0.13137267  0.50391133  0.33192171  1.0
  Ni  Ni1901  1  0.13137267  0.83724467  0.33192171  1.0
  Ni  Ni1902  1  0.46470600  0.17057800  0.33192171  1.0
  Ni  Ni1903  1  0.46470600  0.50391133  0.33192171  1.0
  Ni  Ni1904  1  0.46470600  0.83724467  0.33192171  1.0
  Ni  Ni1905  1  0.79803933  0.17057800  0.33192171  1.0
  Ni  Ni1906  1  0.79803933  0.50391133  0.33192171  1.0
  Ni  Ni1907  1  0.79803933  0.83724467  0.33192171  1.0
  Ni  Ni1908  1  0.06711300  0.26972067  0.32329000  1.0
  Ni  Ni1909  1  0.06711300  0.60305400  0.32329000  1.0
  Ni  Ni1910  1  0.06711300  0.93638733  0.32329000  1.0
  Ni  Ni1911  1  0.40044633  0.26972067  0.32329000  1.0
  Ni  Ni1912  1  0.40044633  0.60305400  0.32329000  1.0
  Ni  Ni1913  1  0.40044633  0.93638733  0.32329000  1.0
  Ni  Ni1914  1  0.73377967  0.26972067  0.32329000  1.0
  Ni  Ni1915  1  0.73377967  0.60305400  0.32329000  1.0
  Ni  Ni1916  1  0.73377967  0.93638733  0.32329000  1.0
  Ni  Ni1917  1  0.18288700  0.10305400  0.32654257  1.0
  Ni  Ni1918  1  0.18288700  0.43638733  0.32654257  1.0
  Ni  Ni1919  1  0.18288700  0.76972067  0.32654257  1.0
  Ni  Ni1920  1  0.51622033  0.10305400  0.32654257  1.0
  Ni  Ni1921  1  0.51622033  0.43638733  0.32654257  1.0
  Ni  Ni1922  1  0.51622033  0.76972067  0.32654257  1.0
  Ni  Ni1923  1  0.84955367  0.10305400  0.32654257  1.0
  Ni  Ni1924  1  0.84955367  0.43638733  0.32654257  1.0
  Ni  Ni1925  1  0.84955367  0.76972067  0.32654257  1.0
  Ni  Ni1926  1  0.20196067  0.28215533  0.33192171  1.0
  Ni  Ni1927  1  0.20196067  0.61548867  0.33192171  1.0
  Ni  Ni1928  1  0.20196067  0.94882200  0.33192171  1.0
  Ni  Ni1929  1  0.53529400  0.28215533  0.33192171  1.0
  Ni  Ni1930  1  0.53529400  0.61548867  0.33192171  1.0
  Ni  Ni1931  1  0.53529400  0.94882200  0.33192171  1.0
  Ni  Ni1932  1  0.86862733  0.28215533  0.33192171  1.0
  Ni  Ni1933  1  0.86862733  0.61548867  0.33192171  1.0
  Ni  Ni1934  1  0.86862733  0.94882200  0.33192171  1.0
  Ni  Ni1935  1  0.01622033  0.23027933  0.37781514  1.0
  Ni  Ni1936  1  0.01622033  0.56361267  0.37781514  1.0
  Ni  Ni1937  1  0.01622033  0.89694600  0.37781514  1.0
  Ni  Ni1938  1  0.34955367  0.23027933  0.37781514  1.0
  Ni  Ni1939  1  0.34955367  0.56361267  0.37781514  1.0
  Ni  Ni1940  1  0.34955367  0.89694600  0.37781514  1.0
  Ni  Ni1941  1  0.68288700  0.23027933  0.37781514  1.0
  Ni  Ni1942  1  0.68288700  0.56361267  0.37781514  1.0
  Ni  Ni1943  1  0.68288700  0.89694600  0.37781514  1.0
  Ni  Ni1944  1  0.32543933  0.29903433  0.31950671  1.0
  Ni  Ni1945  1  0.32543933  0.63236767  0.31950671  1.0
  Ni  Ni1946  1  0.32543933  0.96570100  0.31950671  1.0
  Ni  Ni1947  1  0.65877267  0.29903433  0.31950671  1.0
  Ni  Ni1948  1  0.65877267  0.63236767  0.31950671  1.0
  Ni  Ni1949  1  0.65877267  0.96570100  0.31950671  1.0
  Ni  Ni1950  1  0.99210600  0.29903433  0.31950671  1.0
  Ni  Ni1951  1  0.99210600  0.63236767  0.31950671  1.0
  Ni  Ni1952  1  0.99210600  0.96570100  0.31950671  1.0
  Ni  Ni1953  1  0.03529400  0.05117800  0.37243600  1.0
  Ni  Ni1954  1  0.03529400  0.38451133  0.37243600  1.0
  Ni  Ni1955  1  0.03529400  0.71784467  0.37243600  1.0
  Ni  Ni1956  1  0.36862733  0.05117800  0.37243600  1.0
  Ni  Ni1957  1  0.36862733  0.38451133  0.37243600  1.0
  Ni  Ni1958  1  0.36862733  0.71784467  0.37243600  1.0
  Ni  Ni1959  1  0.70196067  0.05117800  0.37243600  1.0
  Ni  Ni1960  1  0.70196067  0.38451133  0.37243600  1.0
  Ni  Ni1961  1  0.70196067  0.71784467  0.37243600  1.0
  Ni  Ni1962  1  0.21470600  0.21784467  0.37578857  1.0
  Ni  Ni1963  1  0.21470600  0.55117800  0.37578857  1.0
  Ni  Ni1964  1  0.21470600  0.88451133  0.37578857  1.0
  Ni  Ni1965  1  0.54803933  0.21784467  0.37578857  1.0
  Ni  Ni1966  1  0.54803933  0.55117800  0.37578857  1.0
  Ni  Ni1967  1  0.54803933  0.88451133  0.37578857  1.0
  Ni  Ni1968  1  0.88137267  0.21784467  0.37578857  1.0
  Ni  Ni1969  1  0.88137267  0.55117800  0.37578857  1.0
  Ni  Ni1970  1  0.88137267  0.88451133  0.37578857  1.0
  Ni  Ni1971  1  0.26622033  0.16287200  0.32329000  1.0
  Ni  Ni1972  1  0.26622033  0.49620533  0.32329000  1.0
  Ni  Ni1973  1  0.26622033  0.82953867  0.32329000  1.0
  Ni  Ni1974  1  0.59955367  0.16287200  0.32329000  1.0
  Ni  Ni1975  1  0.59955367  0.49620533  0.32329000  1.0
  Ni  Ni1976  1  0.59955367  0.82953867  0.32329000  1.0
  Ni  Ni1977  1  0.93288700  0.16287200  0.32329000  1.0
  Ni  Ni1978  1  0.93288700  0.49620533  0.32329000  1.0
  Ni  Ni1979  1  0.93288700  0.82953867  0.32329000  1.0
  Ni  Ni1980  1  0.09955367  0.17046133  0.38106771  1.0
  Ni  Ni1981  1  0.09955367  0.50379467  0.38106771  1.0
  Ni  Ni1982  1  0.09955367  0.83712800  0.38106771  1.0
  Ni  Ni1983  1  0.43288700  0.17046133  0.38106771  1.0
  Ni  Ni1984  1  0.43288700  0.50379467  0.38106771  1.0
  Ni  Ni1985  1  0.43288700  0.83712800  0.38106771  1.0
  Ni  Ni1986  1  0.76622033  0.17046133  0.38106771  1.0
  Ni  Ni1987  1  0.76622033  0.50379467  0.38106771  1.0
  Ni  Ni1988  1  0.76622033  0.83712800  0.38106771  1.0
  Ni  Ni1989  1  0.28529400  0.32942200  0.32856914  1.0
  Ni  Ni1990  1  0.28529400  0.66275533  0.32856914  1.0
  Ni  Ni1991  1  0.28529400  0.99608867  0.32856914  1.0
  Ni  Ni1992  1  0.61862733  0.32942200  0.32856914  1.0
  Ni  Ni1993  1  0.61862733  0.66275533  0.32856914  1.0
  Ni  Ni1994  1  0.61862733  0.99608867  0.32856914  1.0
  Ni  Ni1995  1  0.95196067  0.32942200  0.32856914  1.0
  Ni  Ni1996  1  0.95196067  0.66275533  0.32856914  1.0
  Ni  Ni1997  1  0.95196067  0.99608867  0.32856914  1.0
  Ni  Ni1998  1  0.03866900  0.22695033  0.38584529  1.0
  Ni  Ni1999  1  0.03866900  0.56028367  0.38584529  1.0
  Ni  Ni2000  1  0.03866900  0.89361700  0.38584529  1.0
  Ni  Ni2001  1  0.37200233  0.22695033  0.38584529  1.0
  Ni  Ni2002  1  0.37200233  0.56028367  0.38584529  1.0
  Ni  Ni2003  1  0.37200233  0.89361700  0.38584529  1.0
  Ni  Ni2004  1  0.70533567  0.22695033  0.38584529  1.0
  Ni  Ni2005  1  0.70533567  0.56028367  0.38584529  1.0
  Ni  Ni2006  1  0.70533567  0.89361700  0.38584529  1.0
  Ni  Ni2007  1  0.24210600  0.29139733  0.34890586  1.0
  Ni  Ni2008  1  0.24210600  0.62473067  0.34890586  1.0
  Ni  Ni2009  1  0.24210600  0.95806400  0.34890586  1.0
  Ni  Ni2010  1  0.57543933  0.29139733  0.34890586  1.0
  Ni  Ni2011  1  0.57543933  0.62473067  0.34890586  1.0
  Ni  Ni2012  1  0.57543933  0.95806400  0.34890586  1.0
  Ni  Ni2013  1  0.90877267  0.29139733  0.34890586  1.0
  Ni  Ni2014  1  0.90877267  0.62473067  0.34890586  1.0
  Ni  Ni2015  1  0.90877267  0.95806400  0.34890586  1.0
  Ni  Ni2016  1  0.23377967  0.06361267  0.38106771  1.0
  Ni  Ni2017  1  0.23377967  0.39694600  0.38106771  1.0
  Ni  Ni2018  1  0.23377967  0.73027933  0.38106771  1.0
  Ni  Ni2019  1  0.56711300  0.06361267  0.38106771  1.0
  Ni  Ni2020  1  0.56711300  0.39694600  0.38106771  1.0
  Ni  Ni2021  1  0.56711300  0.73027933  0.38106771  1.0
  Ni  Ni2022  1  0.90044633  0.06361267  0.38106771  1.0
  Ni  Ni2023  1  0.90044633  0.39694600  0.38106771  1.0
  Ni  Ni2024  1  0.90044633  0.73027933  0.38106771  1.0
  Ni  Ni2025  1  0.20533567  0.10638300  0.31851243  1.0
  Ni  Ni2026  1  0.20533567  0.43971633  0.31851243  1.0
  Ni  Ni2027  1  0.20533567  0.77304967  0.31851243  1.0
  Ni  Ni2028  1  0.53866900  0.10638300  0.31851243  1.0
  Ni  Ni2029  1  0.53866900  0.43971633  0.31851243  1.0
  Ni  Ni2030  1  0.53866900  0.77304967  0.31851243  1.0
  Ni  Ni2031  1  0.87200233  0.10638300  0.31851243  1.0
  Ni  Ni2032  1  0.87200233  0.43971633  0.31851243  1.0
  Ni  Ni2033  1  0.87200233  0.77304967  0.31851243  1.0
  Ni  Ni2034  1  0.17456067  0.20860267  0.38485100  1.0
  Ni  Ni2035  1  0.17456067  0.54193600  0.38485100  1.0
  Ni  Ni2036  1  0.17456067  0.87526933  0.38485100  1.0
  Ni  Ni2037  1  0.50789400  0.20860267  0.38485100  1.0
  Ni  Ni2038  1  0.50789400  0.54193600  0.38485100  1.0
  Ni  Ni2039  1  0.50789400  0.87526933  0.38485100  1.0
  Ni  Ni2040  1  0.84122733  0.20860267  0.38485100  1.0
  Ni  Ni2041  1  0.84122733  0.54193600  0.38485100  1.0
  Ni  Ni2042  1  0.84122733  0.87526933  0.38485100  1.0
  Ni  Ni2043  1  0.15044633  0.00379467  0.32654257  1.0
  Ni  Ni2044  1  0.15044633  0.33712800  0.32654257  1.0
  Ni  Ni2045  1  0.15044633  0.67046133  0.32654257  1.0
  Ni  Ni2046  1  0.48377967  0.00379467  0.32654257  1.0
  Ni  Ni2047  1  0.48377967  0.33712800  0.32654257  1.0
  Ni  Ni2048  1  0.48377967  0.67046133  0.32654257  1.0
  Ni  Ni2049  1  0.81711300  0.00379467  0.32654257  1.0
  Ni  Ni2050  1  0.81711300  0.33712800  0.32654257  1.0
  Ni  Ni2051  1  0.81711300  0.67046133  0.32654257  1.0
  Ni  Ni2052  1  0.07543933  0.04193600  0.35545186  1.0
  Ni  Ni2053  1  0.07543933  0.37526933  0.35545186  1.0
  Ni  Ni2054  1  0.07543933  0.70860267  0.35545186  1.0
  Ni  Ni2055  1  0.40877267  0.04193600  0.35545186  1.0
  Ni  Ni2056  1  0.40877267  0.37526933  0.35545186  1.0
  Ni  Ni2057  1  0.40877267  0.70860267  0.35545186  1.0
  Ni  Ni2058  1  0.74210600  0.04193600  0.35545186  1.0
  Ni  Ni2059  1  0.74210600  0.37526933  0.35545186  1.0
  Ni  Ni2060  1  0.74210600  0.70860267  0.35545186  1.0
  Ni  Ni2061  1  0.11862733  0.00391133  0.37578857  1.0
  Ni  Ni2062  1  0.11862733  0.33724467  0.37578857  1.0
  Ni  Ni2063  1  0.11862733  0.67057800  0.37578857  1.0
  Ni  Ni2064  1  0.45196067  0.00391133  0.37578857  1.0
  Ni  Ni2065  1  0.45196067  0.33724467  0.37578857  1.0
  Ni  Ni2066  1  0.45196067  0.67057800  0.37578857  1.0
  Ni  Ni2067  1  0.78529400  0.00391133  0.37578857  1.0
  Ni  Ni2068  1  0.78529400  0.33724467  0.37578857  1.0
  Ni  Ni2069  1  0.78529400  0.67057800  0.37578857  1.0
  Ni  Ni2070  1  0.12200233  0.14839533  0.37018414  1.0
  Ni  Ni2071  1  0.12200233  0.48172867  0.37018414  1.0
  Ni  Ni2072  1  0.12200233  0.81506200  0.37018414  1.0
  Ni  Ni2073  1  0.45533567  0.14839533  0.37018414  1.0
  Ni  Ni2074  1  0.45533567  0.48172867  0.37018414  1.0
  Ni  Ni2075  1  0.45533567  0.81506200  0.37018414  1.0
  Ni  Ni2076  1  0.78866900  0.14839533  0.37018414  1.0
  Ni  Ni2077  1  0.78866900  0.48172867  0.37018414  1.0
  Ni  Ni2078  1  0.78866900  0.81506200  0.37018414  1.0
  Ni  Ni2079  1  0.29466433  0.01827133  0.38584529  1.0
  Ni  Ni2080  1  0.29466433  0.35160467  0.38584529  1.0
  Ni  Ni2081  1  0.29466433  0.68493800  0.38584529  1.0
  Ni  Ni2082  1  0.62799767  0.01827133  0.38584529  1.0
  Ni  Ni2083  1  0.62799767  0.35160467  0.38584529  1.0
  Ni  Ni2084  1  0.62799767  0.68493800  0.38584529  1.0
  Ni  Ni2085  1  0.96133100  0.01827133  0.38584529  1.0
  Ni  Ni2086  1  0.96133100  0.35160467  0.38584529  1.0
  Ni  Ni2087  1  0.96133100  0.68493800  0.38584529  1.0
  Ni  Ni2088  1  0.12799767  0.31506200  0.31851243  1.0
  Ni  Ni2089  1  0.12799767  0.64839533  0.31851243  1.0
  Ni  Ni2090  1  0.12799767  0.98172867  0.31851243  1.0
  Ni  Ni2091  1  0.46133100  0.31506200  0.31851243  1.0
  Ni  Ni2092  1  0.46133100  0.64839533  0.31851243  1.0
  Ni  Ni2093  1  0.46133100  0.98172867  0.31851243  1.0
  Ni  Ni2094  1  0.79466433  0.31506200  0.31851243  1.0
  Ni  Ni2095  1  0.79466433  0.64839533  0.31851243  1.0
  Ni  Ni2096  1  0.79466433  0.98172867  0.31851243  1.0
  Ni  Ni2097  1  0.15877267  0.03429900  0.38485100  1.0
  Ni  Ni2098  1  0.15877267  0.36763233  0.38485100  1.0
  Ni  Ni2099  1  0.15877267  0.70096567  0.38485100  1.0
  Ni  Ni2100  1  0.49210600  0.03429900  0.38485100  1.0
  Ni  Ni2101  1  0.49210600  0.36763233  0.38485100  1.0
  Ni  Ni2102  1  0.49210600  0.70096567  0.38485100  1.0
  Ni  Ni2103  1  0.82543933  0.03429900  0.38485100  1.0
  Ni  Ni2104  1  0.82543933  0.36763233  0.38485100  1.0
  Ni  Ni2105  1  0.82543933  0.70096567  0.38485100  1.0
  Ni  Ni2106  1  0.21133100  0.06028367  0.37018414  1.0
  Ni  Ni2107  1  0.21133100  0.39361700  0.37018414  1.0
  Ni  Ni2108  1  0.21133100  0.72695033  0.37018414  1.0
  Ni  Ni2109  1  0.54466433  0.06028367  0.37018414  1.0
  Ni  Ni2110  1  0.54466433  0.39361700  0.37018414  1.0
  Ni  Ni2111  1  0.54466433  0.72695033  0.37018414  1.0
  Ni  Ni2112  1  0.87799767  0.06028367  0.37018414  1.0
  Ni  Ni2113  1  0.87799767  0.39361700  0.37018414  1.0
  Ni  Ni2114  1  0.87799767  0.72695033  0.37018414  1.0
  Ni  Ni2115  1  0.28866900  0.18493800  0.33417357  1.0
  Ni  Ni2116  1  0.28866900  0.51827133  0.33417357  1.0
  Ni  Ni2117  1  0.28866900  0.85160467  0.33417357  1.0
  Ni  Ni2118  1  0.62200233  0.18493800  0.33417357  1.0
  Ni  Ni2119  1  0.62200233  0.51827133  0.33417357  1.0
  Ni  Ni2120  1  0.62200233  0.85160467  0.33417357  1.0
  Ni  Ni2121  1  0.95533567  0.18493800  0.33417357  1.0
  Ni  Ni2122  1  0.95533567  0.51827133  0.33417357  1.0
  Ni  Ni2123  1  0.95533567  0.85160467  0.33417357  1.0
  Ni  Ni2124  1  0.31711300  0.32953867  0.37781514  1.0
  Ni  Ni2125  1  0.31711300  0.66287200  0.37781514  1.0
  Ni  Ni2126  1  0.31711300  0.99620533  0.37781514  1.0
  Ni  Ni2127  1  0.65044633  0.32953867  0.37781514  1.0
  Ni  Ni2128  1  0.65044633  0.66287200  0.37781514  1.0
  Ni  Ni2129  1  0.65044633  0.99620533  0.37781514  1.0
  Ni  Ni2130  1  0.98377967  0.32953867  0.37781514  1.0
  Ni  Ni2131  1  0.98377967  0.66287200  0.37781514  1.0
  Ni  Ni2132  1  0.98377967  0.99620533  0.37781514  1.0
  Ni  Ni2133  1  0.04466433  0.27304967  0.33417357  1.0
  Ni  Ni2134  1  0.04466433  0.60638300  0.33417357  1.0
  Ni  Ni2135  1  0.04466433  0.93971633  0.33417357  1.0
  Ni  Ni2136  1  0.37799767  0.27304967  0.33417357  1.0
  Ni  Ni2137  1  0.37799767  0.60638300  0.33417357  1.0
  Ni  Ni2138  1  0.37799767  0.93971633  0.33417357  1.0
  Ni  Ni2139  1  0.71133100  0.27304967  0.33417357  1.0
  Ni  Ni2140  1  0.71133100  0.60638300  0.33417357  1.0
  Ni  Ni2141  1  0.71133100  0.93971633  0.33417357  1.0
  Ni  Ni2142  1  0.25789400  0.13236767  0.35545186  1.0
  Ni  Ni2143  1  0.25789400  0.46570100  0.35545186  1.0
  Ni  Ni2144  1  0.25789400  0.79903433  0.35545186  1.0
  Ni  Ni2145  1  0.59122733  0.13236767  0.35545186  1.0
  Ni  Ni2146  1  0.59122733  0.46570100  0.35545186  1.0
  Ni  Ni2147  1  0.59122733  0.79903433  0.35545186  1.0
  Ni  Ni2148  1  0.92456067  0.13236767  0.35545186  1.0
  Ni  Ni2149  1  0.92456067  0.46570100  0.35545186  1.0
  Ni  Ni2150  1  0.92456067  0.79903433  0.35545186  1.0
  Ni  Ni2151  1  0.29803933  0.16275533  0.37243600  1.0
  Ni  Ni2152  1  0.29803933  0.49608867  0.37243600  1.0
  Ni  Ni2153  1  0.29803933  0.82942200  0.37243600  1.0
  Ni  Ni2154  1  0.63137267  0.16275533  0.37243600  1.0
  Ni  Ni2155  1  0.63137267  0.49608867  0.37243600  1.0
  Ni  Ni2156  1  0.63137267  0.82942200  0.37243600  1.0
  Ni  Ni2157  1  0.96470600  0.16275533  0.37243600  1.0
  Ni  Ni2158  1  0.96470600  0.49608867  0.37243600  1.0
  Ni  Ni2159  1  0.96470600  0.82942200  0.37243600  1.0
