# generated using pymatgen
data_Y3Ni
_symmetry_space_group_name_H-M   'P 1'
_cell_length_a   45.41476323
_cell_length_b   34.81787957
_cell_length_c   44.56717300
_cell_angle_alpha   123.26930431
_cell_angle_beta   114.87076002
_cell_angle_gamma   76.66078583
_symmetry_Int_Tables_number   1
_chemical_formula_structural   Y3Ni
_chemical_formula_sum   'Y648 Ni216'
_cell_volume   53456.99848670
_cell_formula_units_Z   216
loop_
 _symmetry_equiv_pos_site_id
 _symmetry_equiv_pos_as_xyz
  1  'x, y, z'
loop_
 _atom_site_type_symbol
 _atom_site_label
 _atom_site_symmetry_multiplicity
 _atom_site_fract_x
 _atom_site_fract_y
 _atom_site_fract_z
 _atom_site_occupancy
  Y  Y0  1  0.11326867  0.02247233  0.10405471  1.0
  Y  Y1  1  0.11326867  0.35580567  0.10405471  1.0
  Y  Y2  1  0.11326867  0.68913900  0.10405471  1.0
  Y  Y3  1  0.44660200  0.02247233  0.10405471  1.0
  Y  Y4  1  0.44660200  0.35580567  0.10405471  1.0
  Y  Y5  1  0.44660200  0.68913900  0.10405471  1.0
  Y  Y6  1  0.77993533  0.02247233  0.10405471  1.0
  Y  Y7  1  0.77993533  0.35580567  0.10405471  1.0
  Y  Y8  1  0.77993533  0.68913900  0.10405471  1.0
  Y  Y9  1  0.27993533  0.02247233  0.03262614  1.0
  Y  Y10  1  0.27993533  0.35580567  0.03262614  1.0
  Y  Y11  1  0.27993533  0.68913900  0.03262614  1.0
  Y  Y12  1  0.61326867  0.02247233  0.03262614  1.0
  Y  Y13  1  0.61326867  0.35580567  0.03262614  1.0
  Y  Y14  1  0.61326867  0.68913900  0.03262614  1.0
  Y  Y15  1  0.94660200  0.02247233  0.03262614  1.0
  Y  Y16  1  0.94660200  0.35580567  0.03262614  1.0
  Y  Y17  1  0.94660200  0.68913900  0.03262614  1.0
  Y  Y18  1  0.02993533  0.14419433  0.10017557  1.0
  Y  Y19  1  0.02993533  0.47752767  0.10017557  1.0
  Y  Y20  1  0.02993533  0.81086100  0.10017557  1.0
  Y  Y21  1  0.36326867  0.14419433  0.10017557  1.0
  Y  Y22  1  0.36326867  0.47752767  0.10017557  1.0
  Y  Y23  1  0.36326867  0.81086100  0.10017557  1.0
  Y  Y24  1  0.69660200  0.14419433  0.10017557  1.0
  Y  Y25  1  0.69660200  0.47752767  0.10017557  1.0
  Y  Y26  1  0.69660200  0.81086100  0.10017557  1.0
  Y  Y27  1  0.19660200  0.14419433  0.02874700  1.0
  Y  Y28  1  0.19660200  0.47752767  0.02874700  1.0
  Y  Y29  1  0.19660200  0.81086100  0.02874700  1.0
  Y  Y30  1  0.52993533  0.14419433  0.02874700  1.0
  Y  Y31  1  0.52993533  0.47752767  0.02874700  1.0
  Y  Y32  1  0.52993533  0.81086100  0.02874700  1.0
  Y  Y33  1  0.86326867  0.14419433  0.02874700  1.0
  Y  Y34  1  0.86326867  0.47752767  0.02874700  1.0
  Y  Y35  1  0.86326867  0.81086100  0.02874700  1.0
  Y  Y36  1  0.05339800  0.18913900  0.05806443  1.0
  Y  Y37  1  0.05339800  0.52247233  0.05806443  1.0
  Y  Y38  1  0.05339800  0.85580567  0.05806443  1.0
  Y  Y39  1  0.38673133  0.18913900  0.05806443  1.0
  Y  Y40  1  0.38673133  0.52247233  0.05806443  1.0
  Y  Y41  1  0.38673133  0.85580567  0.05806443  1.0
  Y  Y42  1  0.72006467  0.18913900  0.05806443  1.0
  Y  Y43  1  0.72006467  0.52247233  0.05806443  1.0
  Y  Y44  1  0.72006467  0.85580567  0.05806443  1.0
  Y  Y45  1  0.22006467  0.18913900  0.12949300  1.0
  Y  Y46  1  0.22006467  0.52247233  0.12949300  1.0
  Y  Y47  1  0.22006467  0.85580567  0.12949300  1.0
  Y  Y48  1  0.55339800  0.18913900  0.12949300  1.0
  Y  Y49  1  0.55339800  0.52247233  0.12949300  1.0
  Y  Y50  1  0.55339800  0.85580567  0.12949300  1.0
  Y  Y51  1  0.88673133  0.18913900  0.12949300  1.0
  Y  Y52  1  0.88673133  0.52247233  0.12949300  1.0
  Y  Y53  1  0.88673133  0.85580567  0.12949300  1.0
  Y  Y54  1  0.13673133  0.31086100  0.02341957  1.0
  Y  Y55  1  0.13673133  0.64419433  0.02341957  1.0
  Y  Y56  1  0.13673133  0.97752767  0.02341957  1.0
  Y  Y57  1  0.47006467  0.31086100  0.02341957  1.0
  Y  Y58  1  0.47006467  0.64419433  0.02341957  1.0
  Y  Y59  1  0.47006467  0.97752767  0.02341957  1.0
  Y  Y60  1  0.80339800  0.31086100  0.02341957  1.0
  Y  Y61  1  0.80339800  0.64419433  0.02341957  1.0
  Y  Y62  1  0.80339800  0.97752767  0.02341957  1.0
  Y  Y63  1  0.30339800  0.31086100  0.09484814  1.0
  Y  Y64  1  0.30339800  0.64419433  0.09484814  1.0
  Y  Y65  1  0.30339800  0.97752767  0.09484814  1.0
  Y  Y66  1  0.63673133  0.31086100  0.09484814  1.0
  Y  Y67  1  0.63673133  0.64419433  0.09484814  1.0
  Y  Y68  1  0.63673133  0.97752767  0.09484814  1.0
  Y  Y69  1  0.97006467  0.31086100  0.09484814  1.0
  Y  Y70  1  0.97006467  0.64419433  0.09484814  1.0
  Y  Y71  1  0.97006467  0.97752767  0.09484814  1.0
  Y  Y72  1  0.05339800  0.31086100  0.11023100  1.0
  Y  Y73  1  0.05339800  0.64419433  0.11023100  1.0
  Y  Y74  1  0.05339800  0.97752767  0.11023100  1.0
  Y  Y75  1  0.38673133  0.31086100  0.11023100  1.0
  Y  Y76  1  0.38673133  0.64419433  0.11023100  1.0
  Y  Y77  1  0.38673133  0.97752767  0.11023100  1.0
  Y  Y78  1  0.72006467  0.31086100  0.11023100  1.0
  Y  Y79  1  0.72006467  0.64419433  0.11023100  1.0
  Y  Y80  1  0.72006467  0.97752767  0.11023100  1.0
  Y  Y81  1  0.22006467  0.31086100  0.03880243  1.0
  Y  Y82  1  0.22006467  0.64419433  0.03880243  1.0
  Y  Y83  1  0.22006467  0.97752767  0.03880243  1.0
  Y  Y84  1  0.55339800  0.31086100  0.03880243  1.0
  Y  Y85  1  0.55339800  0.64419433  0.03880243  1.0
  Y  Y86  1  0.55339800  0.97752767  0.03880243  1.0
  Y  Y87  1  0.88673133  0.31086100  0.03880243  1.0
  Y  Y88  1  0.88673133  0.64419433  0.03880243  1.0
  Y  Y89  1  0.88673133  0.97752767  0.03880243  1.0
  Y  Y90  1  0.13673133  0.18913900  0.11411014  1.0
  Y  Y91  1  0.13673133  0.52247233  0.11411014  1.0
  Y  Y92  1  0.13673133  0.85580567  0.11411014  1.0
  Y  Y93  1  0.47006467  0.18913900  0.11411014  1.0
  Y  Y94  1  0.47006467  0.52247233  0.11411014  1.0
  Y  Y95  1  0.47006467  0.85580567  0.11411014  1.0
  Y  Y96  1  0.80339800  0.18913900  0.11411014  1.0
  Y  Y97  1  0.80339800  0.52247233  0.11411014  1.0
  Y  Y98  1  0.80339800  0.85580567  0.11411014  1.0
  Y  Y99  1  0.30339800  0.18913900  0.04268157  1.0
  Y  Y100  1  0.30339800  0.52247233  0.04268157  1.0
  Y  Y101  1  0.30339800  0.85580567  0.04268157  1.0
  Y  Y102  1  0.63673133  0.18913900  0.04268157  1.0
  Y  Y103  1  0.63673133  0.52247233  0.04268157  1.0
  Y  Y104  1  0.63673133  0.85580567  0.04268157  1.0
  Y  Y105  1  0.97006467  0.18913900  0.04268157  1.0
  Y  Y106  1  0.97006467  0.52247233  0.04268157  1.0
  Y  Y107  1  0.97006467  0.85580567  0.04268157  1.0
  Y  Y108  1  0.11326867  0.14419433  0.01336414  1.0
  Y  Y109  1  0.11326867  0.47752767  0.01336414  1.0
  Y  Y110  1  0.11326867  0.81086100  0.01336414  1.0
  Y  Y111  1  0.44660200  0.14419433  0.01336414  1.0
  Y  Y112  1  0.44660200  0.47752767  0.01336414  1.0
  Y  Y113  1  0.44660200  0.81086100  0.01336414  1.0
  Y  Y114  1  0.77993533  0.14419433  0.01336414  1.0
  Y  Y115  1  0.77993533  0.47752767  0.01336414  1.0
  Y  Y116  1  0.77993533  0.81086100  0.01336414  1.0
  Y  Y117  1  0.27993533  0.14419433  0.08479271  1.0
  Y  Y118  1  0.27993533  0.47752767  0.08479271  1.0
  Y  Y119  1  0.27993533  0.81086100  0.08479271  1.0
  Y  Y120  1  0.61326867  0.14419433  0.08479271  1.0
  Y  Y121  1  0.61326867  0.47752767  0.08479271  1.0
  Y  Y122  1  0.61326867  0.81086100  0.08479271  1.0
  Y  Y123  1  0.94660200  0.14419433  0.08479271  1.0
  Y  Y124  1  0.94660200  0.47752767  0.08479271  1.0
  Y  Y125  1  0.94660200  0.81086100  0.08479271  1.0
  Y  Y126  1  0.02993533  0.02247233  0.04800900  1.0
  Y  Y127  1  0.02993533  0.35580567  0.04800900  1.0
  Y  Y128  1  0.02993533  0.68913900  0.04800900  1.0
  Y  Y129  1  0.36326867  0.02247233  0.04800900  1.0
  Y  Y130  1  0.36326867  0.35580567  0.04800900  1.0
  Y  Y131  1  0.36326867  0.68913900  0.04800900  1.0
  Y  Y132  1  0.69660200  0.02247233  0.04800900  1.0
  Y  Y133  1  0.69660200  0.35580567  0.04800900  1.0
  Y  Y134  1  0.69660200  0.68913900  0.04800900  1.0
  Y  Y135  1  0.19660200  0.02247233  0.11943757  1.0
  Y  Y136  1  0.19660200  0.35580567  0.11943757  1.0
  Y  Y137  1  0.19660200  0.68913900  0.11943757  1.0
  Y  Y138  1  0.52993533  0.02247233  0.11943757  1.0
  Y  Y139  1  0.52993533  0.35580567  0.11943757  1.0
  Y  Y140  1  0.52993533  0.68913900  0.11943757  1.0
  Y  Y141  1  0.86326867  0.02247233  0.11943757  1.0
  Y  Y142  1  0.86326867  0.35580567  0.11943757  1.0
  Y  Y143  1  0.86326867  0.68913900  0.11943757  1.0
  Y  Y144  1  0.08926100  0.08333333  0.05310429  1.0
  Y  Y145  1  0.08926100  0.41666667  0.05310429  1.0
  Y  Y146  1  0.08926100  0.75000000  0.05310429  1.0
  Y  Y147  1  0.42259433  0.08333333  0.05310429  1.0
  Y  Y148  1  0.42259433  0.41666667  0.05310429  1.0
  Y  Y149  1  0.42259433  0.75000000  0.05310429  1.0
  Y  Y150  1  0.75592767  0.08333333  0.05310429  1.0
  Y  Y151  1  0.75592767  0.41666667  0.05310429  1.0
  Y  Y152  1  0.75592767  0.75000000  0.05310429  1.0
  Y  Y153  1  0.25592767  0.08333333  0.12453286  1.0
  Y  Y154  1  0.25592767  0.41666667  0.12453286  1.0
  Y  Y155  1  0.25592767  0.75000000  0.12453286  1.0
  Y  Y156  1  0.58926100  0.08333333  0.12453286  1.0
  Y  Y157  1  0.58926100  0.41666667  0.12453286  1.0
  Y  Y158  1  0.58926100  0.75000000  0.12453286  1.0
  Y  Y159  1  0.92259433  0.08333333  0.12453286  1.0
  Y  Y160  1  0.92259433  0.41666667  0.12453286  1.0
  Y  Y161  1  0.92259433  0.75000000  0.12453286  1.0
  Y  Y162  1  0.00592767  0.08333333  0.13054800  1.0
  Y  Y163  1  0.00592767  0.41666667  0.13054800  1.0
  Y  Y164  1  0.00592767  0.75000000  0.13054800  1.0
  Y  Y165  1  0.33926100  0.08333333  0.13054800  1.0
  Y  Y166  1  0.33926100  0.41666667  0.13054800  1.0
  Y  Y167  1  0.33926100  0.75000000  0.13054800  1.0
  Y  Y168  1  0.67259433  0.08333333  0.13054800  1.0
  Y  Y169  1  0.67259433  0.41666667  0.13054800  1.0
  Y  Y170  1  0.67259433  0.75000000  0.13054800  1.0
  Y  Y171  1  0.17259433  0.08333333  0.05911943  1.0
  Y  Y172  1  0.17259433  0.41666667  0.05911943  1.0
  Y  Y173  1  0.17259433  0.75000000  0.05911943  1.0
  Y  Y174  1  0.50592767  0.08333333  0.05911943  1.0
  Y  Y175  1  0.50592767  0.41666667  0.05911943  1.0
  Y  Y176  1  0.50592767  0.75000000  0.05911943  1.0
  Y  Y177  1  0.83926100  0.08333333  0.05911943  1.0
  Y  Y178  1  0.83926100  0.41666667  0.05911943  1.0
  Y  Y179  1  0.83926100  0.75000000  0.05911943  1.0
  Y  Y180  1  0.07740567  0.25000000  0.01832429  1.0
  Y  Y181  1  0.07740567  0.58333333  0.01832429  1.0
  Y  Y182  1  0.07740567  0.91666667  0.01832429  1.0
  Y  Y183  1  0.41073900  0.25000000  0.01832429  1.0
  Y  Y184  1  0.41073900  0.58333333  0.01832429  1.0
  Y  Y185  1  0.41073900  0.91666667  0.01832429  1.0
  Y  Y186  1  0.74407233  0.25000000  0.01832429  1.0
  Y  Y187  1  0.74407233  0.58333333  0.01832429  1.0
  Y  Y188  1  0.74407233  0.91666667  0.01832429  1.0
  Y  Y189  1  0.24407233  0.25000000  0.08975286  1.0
  Y  Y190  1  0.24407233  0.58333333  0.08975286  1.0
  Y  Y191  1  0.24407233  0.91666667  0.08975286  1.0
  Y  Y192  1  0.57740567  0.25000000  0.08975286  1.0
  Y  Y193  1  0.57740567  0.58333333  0.08975286  1.0
  Y  Y194  1  0.57740567  0.91666667  0.08975286  1.0
  Y  Y195  1  0.91073900  0.25000000  0.08975286  1.0
  Y  Y196  1  0.91073900  0.58333333  0.08975286  1.0
  Y  Y197  1  0.91073900  0.91666667  0.08975286  1.0
  Y  Y198  1  0.16073900  0.25000000  0.08373771  1.0
  Y  Y199  1  0.16073900  0.58333333  0.08373771  1.0
  Y  Y200  1  0.16073900  0.91666667  0.08373771  1.0
  Y  Y201  1  0.49407233  0.25000000  0.08373771  1.0
  Y  Y202  1  0.49407233  0.58333333  0.08373771  1.0
  Y  Y203  1  0.49407233  0.91666667  0.08373771  1.0
  Y  Y204  1  0.82740567  0.25000000  0.08373771  1.0
  Y  Y205  1  0.82740567  0.58333333  0.08373771  1.0
  Y  Y206  1  0.82740567  0.91666667  0.08373771  1.0
  Y  Y207  1  0.32740567  0.25000000  0.01230914  1.0
  Y  Y208  1  0.32740567  0.58333333  0.01230914  1.0
  Y  Y209  1  0.32740567  0.91666667  0.01230914  1.0
  Y  Y210  1  0.66073900  0.25000000  0.01230914  1.0
  Y  Y211  1  0.66073900  0.58333333  0.01230914  1.0
  Y  Y212  1  0.66073900  0.91666667  0.01230914  1.0
  Y  Y213  1  0.99407233  0.25000000  0.01230914  1.0
  Y  Y214  1  0.99407233  0.58333333  0.01230914  1.0
  Y  Y215  1  0.99407233  0.91666667  0.01230914  1.0
  Ni  Ni216  1  0.14826667  0.08333333  0.10740000  1.0
  Ni  Ni217  1  0.14826667  0.41666667  0.10740000  1.0
  Ni  Ni218  1  0.14826667  0.75000000  0.10740000  1.0
  Ni  Ni219  1  0.48160000  0.08333333  0.10740000  1.0
  Ni  Ni220  1  0.48160000  0.41666667  0.10740000  1.0
  Ni  Ni221  1  0.48160000  0.75000000  0.10740000  1.0
  Ni  Ni222  1  0.81493333  0.08333333  0.10740000  1.0
  Ni  Ni223  1  0.81493333  0.41666667  0.10740000  1.0
  Ni  Ni224  1  0.81493333  0.75000000  0.10740000  1.0
  Ni  Ni225  1  0.31493333  0.08333333  0.03597143  1.0
  Ni  Ni226  1  0.31493333  0.41666667  0.03597143  1.0
  Ni  Ni227  1  0.31493333  0.75000000  0.03597143  1.0
  Ni  Ni228  1  0.64826667  0.08333333  0.03597143  1.0
  Ni  Ni229  1  0.64826667  0.41666667  0.03597143  1.0
  Ni  Ni230  1  0.64826667  0.75000000  0.03597143  1.0
  Ni  Ni231  1  0.98160000  0.08333333  0.03597143  1.0
  Ni  Ni232  1  0.98160000  0.41666667  0.03597143  1.0
  Ni  Ni233  1  0.98160000  0.75000000  0.03597143  1.0
  Ni  Ni234  1  0.06493333  0.08333333  0.12682857  1.0
  Ni  Ni235  1  0.06493333  0.41666667  0.12682857  1.0
  Ni  Ni236  1  0.06493333  0.75000000  0.12682857  1.0
  Ni  Ni237  1  0.39826667  0.08333333  0.12682857  1.0
  Ni  Ni238  1  0.39826667  0.41666667  0.12682857  1.0
  Ni  Ni239  1  0.39826667  0.75000000  0.12682857  1.0
  Ni  Ni240  1  0.73160000  0.08333333  0.12682857  1.0
  Ni  Ni241  1  0.73160000  0.41666667  0.12682857  1.0
  Ni  Ni242  1  0.73160000  0.75000000  0.12682857  1.0
  Ni  Ni243  1  0.23160000  0.08333333  0.05540000  1.0
  Ni  Ni244  1  0.23160000  0.41666667  0.05540000  1.0
  Ni  Ni245  1  0.23160000  0.75000000  0.05540000  1.0
  Ni  Ni246  1  0.56493333  0.08333333  0.05540000  1.0
  Ni  Ni247  1  0.56493333  0.41666667  0.05540000  1.0
  Ni  Ni248  1  0.56493333  0.75000000  0.05540000  1.0
  Ni  Ni249  1  0.89826667  0.08333333  0.05540000  1.0
  Ni  Ni250  1  0.89826667  0.41666667  0.05540000  1.0
  Ni  Ni251  1  0.89826667  0.75000000  0.05540000  1.0
  Ni  Ni252  1  0.01840000  0.25000000  0.10688571  1.0
  Ni  Ni253  1  0.01840000  0.58333333  0.10688571  1.0
  Ni  Ni254  1  0.01840000  0.91666667  0.10688571  1.0
  Ni  Ni255  1  0.35173333  0.25000000  0.10688571  1.0
  Ni  Ni256  1  0.35173333  0.58333333  0.10688571  1.0
  Ni  Ni257  1  0.35173333  0.91666667  0.10688571  1.0
  Ni  Ni258  1  0.68506667  0.25000000  0.10688571  1.0
  Ni  Ni259  1  0.68506667  0.58333333  0.10688571  1.0
  Ni  Ni260  1  0.68506667  0.91666667  0.10688571  1.0
  Ni  Ni261  1  0.18506667  0.25000000  0.03545714  1.0
  Ni  Ni262  1  0.18506667  0.58333333  0.03545714  1.0
  Ni  Ni263  1  0.18506667  0.91666667  0.03545714  1.0
  Ni  Ni264  1  0.51840000  0.25000000  0.03545714  1.0
  Ni  Ni265  1  0.51840000  0.58333333  0.03545714  1.0
  Ni  Ni266  1  0.51840000  0.91666667  0.03545714  1.0
  Ni  Ni267  1  0.85173333  0.25000000  0.03545714  1.0
  Ni  Ni268  1  0.85173333  0.58333333  0.03545714  1.0
  Ni  Ni269  1  0.85173333  0.91666667  0.03545714  1.0
  Ni  Ni270  1  0.10173333  0.25000000  0.08745714  1.0
  Ni  Ni271  1  0.10173333  0.58333333  0.08745714  1.0
  Ni  Ni272  1  0.10173333  0.91666667  0.08745714  1.0
  Ni  Ni273  1  0.43506667  0.25000000  0.08745714  1.0
  Ni  Ni274  1  0.43506667  0.58333333  0.08745714  1.0
  Ni  Ni275  1  0.43506667  0.91666667  0.08745714  1.0
  Ni  Ni276  1  0.76840000  0.25000000  0.08745714  1.0
  Ni  Ni277  1  0.76840000  0.58333333  0.08745714  1.0
  Ni  Ni278  1  0.76840000  0.91666667  0.08745714  1.0
  Ni  Ni279  1  0.26840000  0.25000000  0.01602857  1.0
  Ni  Ni280  1  0.26840000  0.58333333  0.01602857  1.0
  Ni  Ni281  1  0.26840000  0.91666667  0.01602857  1.0
  Ni  Ni282  1  0.60173333  0.25000000  0.01602857  1.0
  Ni  Ni283  1  0.60173333  0.58333333  0.01602857  1.0
  Ni  Ni284  1  0.60173333  0.91666667  0.01602857  1.0
  Ni  Ni285  1  0.93506667  0.25000000  0.01602857  1.0
  Ni  Ni286  1  0.93506667  0.58333333  0.01602857  1.0
  Ni  Ni287  1  0.93506667  0.91666667  0.01602857  1.0
  Y  Y288  1  0.11326867  0.02247233  0.24691186  1.0
  Y  Y289  1  0.11326867  0.35580567  0.24691186  1.0
  Y  Y290  1  0.11326867  0.68913900  0.24691186  1.0
  Y  Y291  1  0.44660200  0.02247233  0.24691186  1.0
  Y  Y292  1  0.44660200  0.35580567  0.24691186  1.0
  Y  Y293  1  0.44660200  0.68913900  0.24691186  1.0
  Y  Y294  1  0.77993533  0.02247233  0.24691186  1.0
  Y  Y295  1  0.77993533  0.35580567  0.24691186  1.0
  Y  Y296  1  0.77993533  0.68913900  0.24691186  1.0
  Y  Y297  1  0.27993533  0.02247233  0.17548329  1.0
  Y  Y298  1  0.27993533  0.35580567  0.17548329  1.0
  Y  Y299  1  0.27993533  0.68913900  0.17548329  1.0
  Y  Y300  1  0.61326867  0.02247233  0.17548329  1.0
  Y  Y301  1  0.61326867  0.35580567  0.17548329  1.0
  Y  Y302  1  0.61326867  0.68913900  0.17548329  1.0
  Y  Y303  1  0.94660200  0.02247233  0.17548329  1.0
  Y  Y304  1  0.94660200  0.35580567  0.17548329  1.0
  Y  Y305  1  0.94660200  0.68913900  0.17548329  1.0
  Y  Y306  1  0.02993533  0.14419433  0.24303271  1.0
  Y  Y307  1  0.02993533  0.47752767  0.24303271  1.0
  Y  Y308  1  0.02993533  0.81086100  0.24303271  1.0
  Y  Y309  1  0.36326867  0.14419433  0.24303271  1.0
  Y  Y310  1  0.36326867  0.47752767  0.24303271  1.0
  Y  Y311  1  0.36326867  0.81086100  0.24303271  1.0
  Y  Y312  1  0.69660200  0.14419433  0.24303271  1.0
  Y  Y313  1  0.69660200  0.47752767  0.24303271  1.0
  Y  Y314  1  0.69660200  0.81086100  0.24303271  1.0
  Y  Y315  1  0.19660200  0.14419433  0.17160414  1.0
  Y  Y316  1  0.19660200  0.47752767  0.17160414  1.0
  Y  Y317  1  0.19660200  0.81086100  0.17160414  1.0
  Y  Y318  1  0.52993533  0.14419433  0.17160414  1.0
  Y  Y319  1  0.52993533  0.47752767  0.17160414  1.0
  Y  Y320  1  0.52993533  0.81086100  0.17160414  1.0
  Y  Y321  1  0.86326867  0.14419433  0.17160414  1.0
  Y  Y322  1  0.86326867  0.47752767  0.17160414  1.0
  Y  Y323  1  0.86326867  0.81086100  0.17160414  1.0
  Y  Y324  1  0.05339800  0.18913900  0.20092157  1.0
  Y  Y325  1  0.05339800  0.52247233  0.20092157  1.0
  Y  Y326  1  0.05339800  0.85580567  0.20092157  1.0
  Y  Y327  1  0.38673133  0.18913900  0.20092157  1.0
  Y  Y328  1  0.38673133  0.52247233  0.20092157  1.0
  Y  Y329  1  0.38673133  0.85580567  0.20092157  1.0
  Y  Y330  1  0.72006467  0.18913900  0.20092157  1.0
  Y  Y331  1  0.72006467  0.52247233  0.20092157  1.0
  Y  Y332  1  0.72006467  0.85580567  0.20092157  1.0
  Y  Y333  1  0.22006467  0.18913900  0.27235014  1.0
  Y  Y334  1  0.22006467  0.52247233  0.27235014  1.0
  Y  Y335  1  0.22006467  0.85580567  0.27235014  1.0
  Y  Y336  1  0.55339800  0.18913900  0.27235014  1.0
  Y  Y337  1  0.55339800  0.52247233  0.27235014  1.0
  Y  Y338  1  0.55339800  0.85580567  0.27235014  1.0
  Y  Y339  1  0.88673133  0.18913900  0.27235014  1.0
  Y  Y340  1  0.88673133  0.52247233  0.27235014  1.0
  Y  Y341  1  0.88673133  0.85580567  0.27235014  1.0
  Y  Y342  1  0.13673133  0.31086100  0.16627671  1.0
  Y  Y343  1  0.13673133  0.64419433  0.16627671  1.0
  Y  Y344  1  0.13673133  0.97752767  0.16627671  1.0
  Y  Y345  1  0.47006467  0.31086100  0.16627671  1.0
  Y  Y346  1  0.47006467  0.64419433  0.16627671  1.0
  Y  Y347  1  0.47006467  0.97752767  0.16627671  1.0
  Y  Y348  1  0.80339800  0.31086100  0.16627671  1.0
  Y  Y349  1  0.80339800  0.64419433  0.16627671  1.0
  Y  Y350  1  0.80339800  0.97752767  0.16627671  1.0
  Y  Y351  1  0.30339800  0.31086100  0.23770529  1.0
  Y  Y352  1  0.30339800  0.64419433  0.23770529  1.0
  Y  Y353  1  0.30339800  0.97752767  0.23770529  1.0
  Y  Y354  1  0.63673133  0.31086100  0.23770529  1.0
  Y  Y355  1  0.63673133  0.64419433  0.23770529  1.0
  Y  Y356  1  0.63673133  0.97752767  0.23770529  1.0
  Y  Y357  1  0.97006467  0.31086100  0.23770529  1.0
  Y  Y358  1  0.97006467  0.64419433  0.23770529  1.0
  Y  Y359  1  0.97006467  0.97752767  0.23770529  1.0
  Y  Y360  1  0.05339800  0.31086100  0.25308814  1.0
  Y  Y361  1  0.05339800  0.64419433  0.25308814  1.0
  Y  Y362  1  0.05339800  0.97752767  0.25308814  1.0
  Y  Y363  1  0.38673133  0.31086100  0.25308814  1.0
  Y  Y364  1  0.38673133  0.64419433  0.25308814  1.0
  Y  Y365  1  0.38673133  0.97752767  0.25308814  1.0
  Y  Y366  1  0.72006467  0.31086100  0.25308814  1.0
  Y  Y367  1  0.72006467  0.64419433  0.25308814  1.0
  Y  Y368  1  0.72006467  0.97752767  0.25308814  1.0
  Y  Y369  1  0.22006467  0.31086100  0.18165957  1.0
  Y  Y370  1  0.22006467  0.64419433  0.18165957  1.0
  Y  Y371  1  0.22006467  0.97752767  0.18165957  1.0
  Y  Y372  1  0.55339800  0.31086100  0.18165957  1.0
  Y  Y373  1  0.55339800  0.64419433  0.18165957  1.0
  Y  Y374  1  0.55339800  0.97752767  0.18165957  1.0
  Y  Y375  1  0.88673133  0.31086100  0.18165957  1.0
  Y  Y376  1  0.88673133  0.64419433  0.18165957  1.0
  Y  Y377  1  0.88673133  0.97752767  0.18165957  1.0
  Y  Y378  1  0.13673133  0.18913900  0.25696729  1.0
  Y  Y379  1  0.13673133  0.52247233  0.25696729  1.0
  Y  Y380  1  0.13673133  0.85580567  0.25696729  1.0
  Y  Y381  1  0.47006467  0.18913900  0.25696729  1.0
  Y  Y382  1  0.47006467  0.52247233  0.25696729  1.0
  Y  Y383  1  0.47006467  0.85580567  0.25696729  1.0
  Y  Y384  1  0.80339800  0.18913900  0.25696729  1.0
  Y  Y385  1  0.80339800  0.52247233  0.25696729  1.0
  Y  Y386  1  0.80339800  0.85580567  0.25696729  1.0
  Y  Y387  1  0.30339800  0.18913900  0.18553871  1.0
  Y  Y388  1  0.30339800  0.52247233  0.18553871  1.0
  Y  Y389  1  0.30339800  0.85580567  0.18553871  1.0
  Y  Y390  1  0.63673133  0.18913900  0.18553871  1.0
  Y  Y391  1  0.63673133  0.52247233  0.18553871  1.0
  Y  Y392  1  0.63673133  0.85580567  0.18553871  1.0
  Y  Y393  1  0.97006467  0.18913900  0.18553871  1.0
  Y  Y394  1  0.97006467  0.52247233  0.18553871  1.0
  Y  Y395  1  0.97006467  0.85580567  0.18553871  1.0
  Y  Y396  1  0.11326867  0.14419433  0.15622129  1.0
  Y  Y397  1  0.11326867  0.47752767  0.15622129  1.0
  Y  Y398  1  0.11326867  0.81086100  0.15622129  1.0
  Y  Y399  1  0.44660200  0.14419433  0.15622129  1.0
  Y  Y400  1  0.44660200  0.47752767  0.15622129  1.0
  Y  Y401  1  0.44660200  0.81086100  0.15622129  1.0
  Y  Y402  1  0.77993533  0.14419433  0.15622129  1.0
  Y  Y403  1  0.77993533  0.47752767  0.15622129  1.0
  Y  Y404  1  0.77993533  0.81086100  0.15622129  1.0
  Y  Y405  1  0.27993533  0.14419433  0.22764986  1.0
  Y  Y406  1  0.27993533  0.47752767  0.22764986  1.0
  Y  Y407  1  0.27993533  0.81086100  0.22764986  1.0
  Y  Y408  1  0.61326867  0.14419433  0.22764986  1.0
  Y  Y409  1  0.61326867  0.47752767  0.22764986  1.0
  Y  Y410  1  0.61326867  0.81086100  0.22764986  1.0
  Y  Y411  1  0.94660200  0.14419433  0.22764986  1.0
  Y  Y412  1  0.94660200  0.47752767  0.22764986  1.0
  Y  Y413  1  0.94660200  0.81086100  0.22764986  1.0
  Y  Y414  1  0.02993533  0.02247233  0.19086614  1.0
  Y  Y415  1  0.02993533  0.35580567  0.19086614  1.0
  Y  Y416  1  0.02993533  0.68913900  0.19086614  1.0
  Y  Y417  1  0.36326867  0.02247233  0.19086614  1.0
  Y  Y418  1  0.36326867  0.35580567  0.19086614  1.0
  Y  Y419  1  0.36326867  0.68913900  0.19086614  1.0
  Y  Y420  1  0.69660200  0.02247233  0.19086614  1.0
  Y  Y421  1  0.69660200  0.35580567  0.19086614  1.0
  Y  Y422  1  0.69660200  0.68913900  0.19086614  1.0
  Y  Y423  1  0.19660200  0.02247233  0.26229471  1.0
  Y  Y424  1  0.19660200  0.35580567  0.26229471  1.0
  Y  Y425  1  0.19660200  0.68913900  0.26229471  1.0
  Y  Y426  1  0.52993533  0.02247233  0.26229471  1.0
  Y  Y427  1  0.52993533  0.35580567  0.26229471  1.0
  Y  Y428  1  0.52993533  0.68913900  0.26229471  1.0
  Y  Y429  1  0.86326867  0.02247233  0.26229471  1.0
  Y  Y430  1  0.86326867  0.35580567  0.26229471  1.0
  Y  Y431  1  0.86326867  0.68913900  0.26229471  1.0
  Y  Y432  1  0.08926100  0.08333333  0.19596143  1.0
  Y  Y433  1  0.08926100  0.41666667  0.19596143  1.0
  Y  Y434  1  0.08926100  0.75000000  0.19596143  1.0
  Y  Y435  1  0.42259433  0.08333333  0.19596143  1.0
  Y  Y436  1  0.42259433  0.41666667  0.19596143  1.0
  Y  Y437  1  0.42259433  0.75000000  0.19596143  1.0
  Y  Y438  1  0.75592767  0.08333333  0.19596143  1.0
  Y  Y439  1  0.75592767  0.41666667  0.19596143  1.0
  Y  Y440  1  0.75592767  0.75000000  0.19596143  1.0
  Y  Y441  1  0.25592767  0.08333333  0.26739000  1.0
  Y  Y442  1  0.25592767  0.41666667  0.26739000  1.0
  Y  Y443  1  0.25592767  0.75000000  0.26739000  1.0
  Y  Y444  1  0.58926100  0.08333333  0.26739000  1.0
  Y  Y445  1  0.58926100  0.41666667  0.26739000  1.0
  Y  Y446  1  0.58926100  0.75000000  0.26739000  1.0
  Y  Y447  1  0.92259433  0.08333333  0.26739000  1.0
  Y  Y448  1  0.92259433  0.41666667  0.26739000  1.0
  Y  Y449  1  0.92259433  0.75000000  0.26739000  1.0
  Y  Y450  1  0.00592767  0.08333333  0.27340514  1.0
  Y  Y451  1  0.00592767  0.41666667  0.27340514  1.0
  Y  Y452  1  0.00592767  0.75000000  0.27340514  1.0
  Y  Y453  1  0.33926100  0.08333333  0.27340514  1.0
  Y  Y454  1  0.33926100  0.41666667  0.27340514  1.0
  Y  Y455  1  0.33926100  0.75000000  0.27340514  1.0
  Y  Y456  1  0.67259433  0.08333333  0.27340514  1.0
  Y  Y457  1  0.67259433  0.41666667  0.27340514  1.0
  Y  Y458  1  0.67259433  0.75000000  0.27340514  1.0
  Y  Y459  1  0.17259433  0.08333333  0.20197657  1.0
  Y  Y460  1  0.17259433  0.41666667  0.20197657  1.0
  Y  Y461  1  0.17259433  0.75000000  0.20197657  1.0
  Y  Y462  1  0.50592767  0.08333333  0.20197657  1.0
  Y  Y463  1  0.50592767  0.41666667  0.20197657  1.0
  Y  Y464  1  0.50592767  0.75000000  0.20197657  1.0
  Y  Y465  1  0.83926100  0.08333333  0.20197657  1.0
  Y  Y466  1  0.83926100  0.41666667  0.20197657  1.0
  Y  Y467  1  0.83926100  0.75000000  0.20197657  1.0
  Y  Y468  1  0.07740567  0.25000000  0.16118143  1.0
  Y  Y469  1  0.07740567  0.58333333  0.16118143  1.0
  Y  Y470  1  0.07740567  0.91666667  0.16118143  1.0
  Y  Y471  1  0.41073900  0.25000000  0.16118143  1.0
  Y  Y472  1  0.41073900  0.58333333  0.16118143  1.0
  Y  Y473  1  0.41073900  0.91666667  0.16118143  1.0
  Y  Y474  1  0.74407233  0.25000000  0.16118143  1.0
  Y  Y475  1  0.74407233  0.58333333  0.16118143  1.0
  Y  Y476  1  0.74407233  0.91666667  0.16118143  1.0
  Y  Y477  1  0.24407233  0.25000000  0.23261000  1.0
  Y  Y478  1  0.24407233  0.58333333  0.23261000  1.0
  Y  Y479  1  0.24407233  0.91666667  0.23261000  1.0
  Y  Y480  1  0.57740567  0.25000000  0.23261000  1.0
  Y  Y481  1  0.57740567  0.58333333  0.23261000  1.0
  Y  Y482  1  0.57740567  0.91666667  0.23261000  1.0
  Y  Y483  1  0.91073900  0.25000000  0.23261000  1.0
  Y  Y484  1  0.91073900  0.58333333  0.23261000  1.0
  Y  Y485  1  0.91073900  0.91666667  0.23261000  1.0
  Y  Y486  1  0.16073900  0.25000000  0.22659486  1.0
  Y  Y487  1  0.16073900  0.58333333  0.22659486  1.0
  Y  Y488  1  0.16073900  0.91666667  0.22659486  1.0
  Y  Y489  1  0.49407233  0.25000000  0.22659486  1.0
  Y  Y490  1  0.49407233  0.58333333  0.22659486  1.0
  Y  Y491  1  0.49407233  0.91666667  0.22659486  1.0
  Y  Y492  1  0.82740567  0.25000000  0.22659486  1.0
  Y  Y493  1  0.82740567  0.58333333  0.22659486  1.0
  Y  Y494  1  0.82740567  0.91666667  0.22659486  1.0
  Y  Y495  1  0.32740567  0.25000000  0.15516629  1.0
  Y  Y496  1  0.32740567  0.58333333  0.15516629  1.0
  Y  Y497  1  0.32740567  0.91666667  0.15516629  1.0
  Y  Y498  1  0.66073900  0.25000000  0.15516629  1.0
  Y  Y499  1  0.66073900  0.58333333  0.15516629  1.0
  Y  Y500  1  0.66073900  0.91666667  0.15516629  1.0
  Y  Y501  1  0.99407233  0.25000000  0.15516629  1.0
  Y  Y502  1  0.99407233  0.58333333  0.15516629  1.0
  Y  Y503  1  0.99407233  0.91666667  0.15516629  1.0
  Ni  Ni504  1  0.14826667  0.08333333  0.25025714  1.0
  Ni  Ni505  1  0.14826667  0.41666667  0.25025714  1.0
  Ni  Ni506  1  0.14826667  0.75000000  0.25025714  1.0
  Ni  Ni507  1  0.48160000  0.08333333  0.25025714  1.0
  Ni  Ni508  1  0.48160000  0.41666667  0.25025714  1.0
  Ni  Ni509  1  0.48160000  0.75000000  0.25025714  1.0
  Ni  Ni510  1  0.81493333  0.08333333  0.25025714  1.0
  Ni  Ni511  1  0.81493333  0.41666667  0.25025714  1.0
  Ni  Ni512  1  0.81493333  0.75000000  0.25025714  1.0
  Ni  Ni513  1  0.31493333  0.08333333  0.17882857  1.0
  Ni  Ni514  1  0.31493333  0.41666667  0.17882857  1.0
  Ni  Ni515  1  0.31493333  0.75000000  0.17882857  1.0
  Ni  Ni516  1  0.64826667  0.08333333  0.17882857  1.0
  Ni  Ni517  1  0.64826667  0.41666667  0.17882857  1.0
  Ni  Ni518  1  0.64826667  0.75000000  0.17882857  1.0
  Ni  Ni519  1  0.98160000  0.08333333  0.17882857  1.0
  Ni  Ni520  1  0.98160000  0.41666667  0.17882857  1.0
  Ni  Ni521  1  0.98160000  0.75000000  0.17882857  1.0
  Ni  Ni522  1  0.06493333  0.08333333  0.26968571  1.0
  Ni  Ni523  1  0.06493333  0.41666667  0.26968571  1.0
  Ni  Ni524  1  0.06493333  0.75000000  0.26968571  1.0
  Ni  Ni525  1  0.39826667  0.08333333  0.26968571  1.0
  Ni  Ni526  1  0.39826667  0.41666667  0.26968571  1.0
  Ni  Ni527  1  0.39826667  0.75000000  0.26968571  1.0
  Ni  Ni528  1  0.73160000  0.08333333  0.26968571  1.0
  Ni  Ni529  1  0.73160000  0.41666667  0.26968571  1.0
  Ni  Ni530  1  0.73160000  0.75000000  0.26968571  1.0
  Ni  Ni531  1  0.23160000  0.08333333  0.19825714  1.0
  Ni  Ni532  1  0.23160000  0.41666667  0.19825714  1.0
  Ni  Ni533  1  0.23160000  0.75000000  0.19825714  1.0
  Ni  Ni534  1  0.56493333  0.08333333  0.19825714  1.0
  Ni  Ni535  1  0.56493333  0.41666667  0.19825714  1.0
  Ni  Ni536  1  0.56493333  0.75000000  0.19825714  1.0
  Ni  Ni537  1  0.89826667  0.08333333  0.19825714  1.0
  Ni  Ni538  1  0.89826667  0.41666667  0.19825714  1.0
  Ni  Ni539  1  0.89826667  0.75000000  0.19825714  1.0
  Ni  Ni540  1  0.01840000  0.25000000  0.24974286  1.0
  Ni  Ni541  1  0.01840000  0.58333333  0.24974286  1.0
  Ni  Ni542  1  0.01840000  0.91666667  0.24974286  1.0
  Ni  Ni543  1  0.35173333  0.25000000  0.24974286  1.0
  Ni  Ni544  1  0.35173333  0.58333333  0.24974286  1.0
  Ni  Ni545  1  0.35173333  0.91666667  0.24974286  1.0
  Ni  Ni546  1  0.68506667  0.25000000  0.24974286  1.0
  Ni  Ni547  1  0.68506667  0.58333333  0.24974286  1.0
  Ni  Ni548  1  0.68506667  0.91666667  0.24974286  1.0
  Ni  Ni549  1  0.18506667  0.25000000  0.17831429  1.0
  Ni  Ni550  1  0.18506667  0.58333333  0.17831429  1.0
  Ni  Ni551  1  0.18506667  0.91666667  0.17831429  1.0
  Ni  Ni552  1  0.51840000  0.25000000  0.17831429  1.0
  Ni  Ni553  1  0.51840000  0.58333333  0.17831429  1.0
  Ni  Ni554  1  0.51840000  0.91666667  0.17831429  1.0
  Ni  Ni555  1  0.85173333  0.25000000  0.17831429  1.0
  Ni  Ni556  1  0.85173333  0.58333333  0.17831429  1.0
  Ni  Ni557  1  0.85173333  0.91666667  0.17831429  1.0
  Ni  Ni558  1  0.10173333  0.25000000  0.23031429  1.0
  Ni  Ni559  1  0.10173333  0.58333333  0.23031429  1.0
  Ni  Ni560  1  0.10173333  0.91666667  0.23031429  1.0
  Ni  Ni561  1  0.43506667  0.25000000  0.23031429  1.0
  Ni  Ni562  1  0.43506667  0.58333333  0.23031429  1.0
  Ni  Ni563  1  0.43506667  0.91666667  0.23031429  1.0
  Ni  Ni564  1  0.76840000  0.25000000  0.23031429  1.0
  Ni  Ni565  1  0.76840000  0.58333333  0.23031429  1.0
  Ni  Ni566  1  0.76840000  0.91666667  0.23031429  1.0
  Ni  Ni567  1  0.26840000  0.25000000  0.15888571  1.0
  Ni  Ni568  1  0.26840000  0.58333333  0.15888571  1.0
  Ni  Ni569  1  0.26840000  0.91666667  0.15888571  1.0
  Ni  Ni570  1  0.60173333  0.25000000  0.15888571  1.0
  Ni  Ni571  1  0.60173333  0.58333333  0.15888571  1.0
  Ni  Ni572  1  0.60173333  0.91666667  0.15888571  1.0
  Ni  Ni573  1  0.93506667  0.25000000  0.15888571  1.0
  Ni  Ni574  1  0.93506667  0.58333333  0.15888571  1.0
  Ni  Ni575  1  0.93506667  0.91666667  0.15888571  1.0
  Y  Y576  1  0.11326867  0.02247233  0.38976900  1.0
  Y  Y577  1  0.11326867  0.35580567  0.38976900  1.0
  Y  Y578  1  0.11326867  0.68913900  0.38976900  1.0
  Y  Y579  1  0.44660200  0.02247233  0.38976900  1.0
  Y  Y580  1  0.44660200  0.35580567  0.38976900  1.0
  Y  Y581  1  0.44660200  0.68913900  0.38976900  1.0
  Y  Y582  1  0.77993533  0.02247233  0.38976900  1.0
  Y  Y583  1  0.77993533  0.35580567  0.38976900  1.0
  Y  Y584  1  0.77993533  0.68913900  0.38976900  1.0
  Y  Y585  1  0.27993533  0.02247233  0.31834043  1.0
  Y  Y586  1  0.27993533  0.35580567  0.31834043  1.0
  Y  Y587  1  0.27993533  0.68913900  0.31834043  1.0
  Y  Y588  1  0.61326867  0.02247233  0.31834043  1.0
  Y  Y589  1  0.61326867  0.35580567  0.31834043  1.0
  Y  Y590  1  0.61326867  0.68913900  0.31834043  1.0
  Y  Y591  1  0.94660200  0.02247233  0.31834043  1.0
  Y  Y592  1  0.94660200  0.35580567  0.31834043  1.0
  Y  Y593  1  0.94660200  0.68913900  0.31834043  1.0
  Y  Y594  1  0.02993533  0.14419433  0.38588986  1.0
  Y  Y595  1  0.02993533  0.47752767  0.38588986  1.0
  Y  Y596  1  0.02993533  0.81086100  0.38588986  1.0
  Y  Y597  1  0.36326867  0.14419433  0.38588986  1.0
  Y  Y598  1  0.36326867  0.47752767  0.38588986  1.0
  Y  Y599  1  0.36326867  0.81086100  0.38588986  1.0
  Y  Y600  1  0.69660200  0.14419433  0.38588986  1.0
  Y  Y601  1  0.69660200  0.47752767  0.38588986  1.0
  Y  Y602  1  0.69660200  0.81086100  0.38588986  1.0
  Y  Y603  1  0.19660200  0.14419433  0.31446129  1.0
  Y  Y604  1  0.19660200  0.47752767  0.31446129  1.0
  Y  Y605  1  0.19660200  0.81086100  0.31446129  1.0
  Y  Y606  1  0.52993533  0.14419433  0.31446129  1.0
  Y  Y607  1  0.52993533  0.47752767  0.31446129  1.0
  Y  Y608  1  0.52993533  0.81086100  0.31446129  1.0
  Y  Y609  1  0.86326867  0.14419433  0.31446129  1.0
  Y  Y610  1  0.86326867  0.47752767  0.31446129  1.0
  Y  Y611  1  0.86326867  0.81086100  0.31446129  1.0
  Y  Y612  1  0.05339800  0.18913900  0.34377871  1.0
  Y  Y613  1  0.05339800  0.52247233  0.34377871  1.0
  Y  Y614  1  0.05339800  0.85580567  0.34377871  1.0
  Y  Y615  1  0.38673133  0.18913900  0.34377871  1.0
  Y  Y616  1  0.38673133  0.52247233  0.34377871  1.0
  Y  Y617  1  0.38673133  0.85580567  0.34377871  1.0
  Y  Y618  1  0.72006467  0.18913900  0.34377871  1.0
  Y  Y619  1  0.72006467  0.52247233  0.34377871  1.0
  Y  Y620  1  0.72006467  0.85580567  0.34377871  1.0
  Y  Y621  1  0.22006467  0.18913900  0.41520729  1.0
  Y  Y622  1  0.22006467  0.52247233  0.41520729  1.0
  Y  Y623  1  0.22006467  0.85580567  0.41520729  1.0
  Y  Y624  1  0.55339800  0.18913900  0.41520729  1.0
  Y  Y625  1  0.55339800  0.52247233  0.41520729  1.0
  Y  Y626  1  0.55339800  0.85580567  0.41520729  1.0
  Y  Y627  1  0.88673133  0.18913900  0.41520729  1.0
  Y  Y628  1  0.88673133  0.52247233  0.41520729  1.0
  Y  Y629  1  0.88673133  0.85580567  0.41520729  1.0
  Y  Y630  1  0.13673133  0.31086100  0.30913386  1.0
  Y  Y631  1  0.13673133  0.64419433  0.30913386  1.0
  Y  Y632  1  0.13673133  0.97752767  0.30913386  1.0
  Y  Y633  1  0.47006467  0.31086100  0.30913386  1.0
  Y  Y634  1  0.47006467  0.64419433  0.30913386  1.0
  Y  Y635  1  0.47006467  0.97752767  0.30913386  1.0
  Y  Y636  1  0.80339800  0.31086100  0.30913386  1.0
  Y  Y637  1  0.80339800  0.64419433  0.30913386  1.0
  Y  Y638  1  0.80339800  0.97752767  0.30913386  1.0
  Y  Y639  1  0.30339800  0.31086100  0.38056243  1.0
  Y  Y640  1  0.30339800  0.64419433  0.38056243  1.0
  Y  Y641  1  0.30339800  0.97752767  0.38056243  1.0
  Y  Y642  1  0.63673133  0.31086100  0.38056243  1.0
  Y  Y643  1  0.63673133  0.64419433  0.38056243  1.0
  Y  Y644  1  0.63673133  0.97752767  0.38056243  1.0
  Y  Y645  1  0.97006467  0.31086100  0.38056243  1.0
  Y  Y646  1  0.97006467  0.64419433  0.38056243  1.0
  Y  Y647  1  0.97006467  0.97752767  0.38056243  1.0
  Y  Y648  1  0.05339800  0.31086100  0.39594529  1.0
  Y  Y649  1  0.05339800  0.64419433  0.39594529  1.0
  Y  Y650  1  0.05339800  0.97752767  0.39594529  1.0
  Y  Y651  1  0.38673133  0.31086100  0.39594529  1.0
  Y  Y652  1  0.38673133  0.64419433  0.39594529  1.0
  Y  Y653  1  0.38673133  0.97752767  0.39594529  1.0
  Y  Y654  1  0.72006467  0.31086100  0.39594529  1.0
  Y  Y655  1  0.72006467  0.64419433  0.39594529  1.0
  Y  Y656  1  0.72006467  0.97752767  0.39594529  1.0
  Y  Y657  1  0.22006467  0.31086100  0.32451671  1.0
  Y  Y658  1  0.22006467  0.64419433  0.32451671  1.0
  Y  Y659  1  0.22006467  0.97752767  0.32451671  1.0
  Y  Y660  1  0.55339800  0.31086100  0.32451671  1.0
  Y  Y661  1  0.55339800  0.64419433  0.32451671  1.0
  Y  Y662  1  0.55339800  0.97752767  0.32451671  1.0
  Y  Y663  1  0.88673133  0.31086100  0.32451671  1.0
  Y  Y664  1  0.88673133  0.64419433  0.32451671  1.0
  Y  Y665  1  0.88673133  0.97752767  0.32451671  1.0
  Y  Y666  1  0.13673133  0.18913900  0.39982443  1.0
  Y  Y667  1  0.13673133  0.52247233  0.39982443  1.0
  Y  Y668  1  0.13673133  0.85580567  0.39982443  1.0
  Y  Y669  1  0.47006467  0.18913900  0.39982443  1.0
  Y  Y670  1  0.47006467  0.52247233  0.39982443  1.0
  Y  Y671  1  0.47006467  0.85580567  0.39982443  1.0
  Y  Y672  1  0.80339800  0.18913900  0.39982443  1.0
  Y  Y673  1  0.80339800  0.52247233  0.39982443  1.0
  Y  Y674  1  0.80339800  0.85580567  0.39982443  1.0
  Y  Y675  1  0.30339800  0.18913900  0.32839586  1.0
  Y  Y676  1  0.30339800  0.52247233  0.32839586  1.0
  Y  Y677  1  0.30339800  0.85580567  0.32839586  1.0
  Y  Y678  1  0.63673133  0.18913900  0.32839586  1.0
  Y  Y679  1  0.63673133  0.52247233  0.32839586  1.0
  Y  Y680  1  0.63673133  0.85580567  0.32839586  1.0
  Y  Y681  1  0.97006467  0.18913900  0.32839586  1.0
  Y  Y682  1  0.97006467  0.52247233  0.32839586  1.0
  Y  Y683  1  0.97006467  0.85580567  0.32839586  1.0
  Y  Y684  1  0.11326867  0.14419433  0.29907843  1.0
  Y  Y685  1  0.11326867  0.47752767  0.29907843  1.0
  Y  Y686  1  0.11326867  0.81086100  0.29907843  1.0
  Y  Y687  1  0.44660200  0.14419433  0.29907843  1.0
  Y  Y688  1  0.44660200  0.47752767  0.29907843  1.0
  Y  Y689  1  0.44660200  0.81086100  0.29907843  1.0
  Y  Y690  1  0.77993533  0.14419433  0.29907843  1.0
  Y  Y691  1  0.77993533  0.47752767  0.29907843  1.0
  Y  Y692  1  0.77993533  0.81086100  0.29907843  1.0
  Y  Y693  1  0.27993533  0.14419433  0.37050700  1.0
  Y  Y694  1  0.27993533  0.47752767  0.37050700  1.0
  Y  Y695  1  0.27993533  0.81086100  0.37050700  1.0
  Y  Y696  1  0.61326867  0.14419433  0.37050700  1.0
  Y  Y697  1  0.61326867  0.47752767  0.37050700  1.0
  Y  Y698  1  0.61326867  0.81086100  0.37050700  1.0
  Y  Y699  1  0.94660200  0.14419433  0.37050700  1.0
  Y  Y700  1  0.94660200  0.47752767  0.37050700  1.0
  Y  Y701  1  0.94660200  0.81086100  0.37050700  1.0
  Y  Y702  1  0.02993533  0.02247233  0.33372329  1.0
  Y  Y703  1  0.02993533  0.35580567  0.33372329  1.0
  Y  Y704  1  0.02993533  0.68913900  0.33372329  1.0
  Y  Y705  1  0.36326867  0.02247233  0.33372329  1.0
  Y  Y706  1  0.36326867  0.35580567  0.33372329  1.0
  Y  Y707  1  0.36326867  0.68913900  0.33372329  1.0
  Y  Y708  1  0.69660200  0.02247233  0.33372329  1.0
  Y  Y709  1  0.69660200  0.35580567  0.33372329  1.0
  Y  Y710  1  0.69660200  0.68913900  0.33372329  1.0
  Y  Y711  1  0.19660200  0.02247233  0.40515186  1.0
  Y  Y712  1  0.19660200  0.35580567  0.40515186  1.0
  Y  Y713  1  0.19660200  0.68913900  0.40515186  1.0
  Y  Y714  1  0.52993533  0.02247233  0.40515186  1.0
  Y  Y715  1  0.52993533  0.35580567  0.40515186  1.0
  Y  Y716  1  0.52993533  0.68913900  0.40515186  1.0
  Y  Y717  1  0.86326867  0.02247233  0.40515186  1.0
  Y  Y718  1  0.86326867  0.35580567  0.40515186  1.0
  Y  Y719  1  0.86326867  0.68913900  0.40515186  1.0
  Y  Y720  1  0.08926100  0.08333333  0.33881857  1.0
  Y  Y721  1  0.08926100  0.41666667  0.33881857  1.0
  Y  Y722  1  0.08926100  0.75000000  0.33881857  1.0
  Y  Y723  1  0.42259433  0.08333333  0.33881857  1.0
  Y  Y724  1  0.42259433  0.41666667  0.33881857  1.0
  Y  Y725  1  0.42259433  0.75000000  0.33881857  1.0
  Y  Y726  1  0.75592767  0.08333333  0.33881857  1.0
  Y  Y727  1  0.75592767  0.41666667  0.33881857  1.0
  Y  Y728  1  0.75592767  0.75000000  0.33881857  1.0
  Y  Y729  1  0.25592767  0.08333333  0.41024714  1.0
  Y  Y730  1  0.25592767  0.41666667  0.41024714  1.0
  Y  Y731  1  0.25592767  0.75000000  0.41024714  1.0
  Y  Y732  1  0.58926100  0.08333333  0.41024714  1.0
  Y  Y733  1  0.58926100  0.41666667  0.41024714  1.0
  Y  Y734  1  0.58926100  0.75000000  0.41024714  1.0
  Y  Y735  1  0.92259433  0.08333333  0.41024714  1.0
  Y  Y736  1  0.92259433  0.41666667  0.41024714  1.0
  Y  Y737  1  0.92259433  0.75000000  0.41024714  1.0
  Y  Y738  1  0.00592767  0.08333333  0.41626229  1.0
  Y  Y739  1  0.00592767  0.41666667  0.41626229  1.0
  Y  Y740  1  0.00592767  0.75000000  0.41626229  1.0
  Y  Y741  1  0.33926100  0.08333333  0.41626229  1.0
  Y  Y742  1  0.33926100  0.41666667  0.41626229  1.0
  Y  Y743  1  0.33926100  0.75000000  0.41626229  1.0
  Y  Y744  1  0.67259433  0.08333333  0.41626229  1.0
  Y  Y745  1  0.67259433  0.41666667  0.41626229  1.0
  Y  Y746  1  0.67259433  0.75000000  0.41626229  1.0
  Y  Y747  1  0.17259433  0.08333333  0.34483371  1.0
  Y  Y748  1  0.17259433  0.41666667  0.34483371  1.0
  Y  Y749  1  0.17259433  0.75000000  0.34483371  1.0
  Y  Y750  1  0.50592767  0.08333333  0.34483371  1.0
  Y  Y751  1  0.50592767  0.41666667  0.34483371  1.0
  Y  Y752  1  0.50592767  0.75000000  0.34483371  1.0
  Y  Y753  1  0.83926100  0.08333333  0.34483371  1.0
  Y  Y754  1  0.83926100  0.41666667  0.34483371  1.0
  Y  Y755  1  0.83926100  0.75000000  0.34483371  1.0
  Y  Y756  1  0.07740567  0.25000000  0.30403857  1.0
  Y  Y757  1  0.07740567  0.58333333  0.30403857  1.0
  Y  Y758  1  0.07740567  0.91666667  0.30403857  1.0
  Y  Y759  1  0.41073900  0.25000000  0.30403857  1.0
  Y  Y760  1  0.41073900  0.58333333  0.30403857  1.0
  Y  Y761  1  0.41073900  0.91666667  0.30403857  1.0
  Y  Y762  1  0.74407233  0.25000000  0.30403857  1.0
  Y  Y763  1  0.74407233  0.58333333  0.30403857  1.0
  Y  Y764  1  0.74407233  0.91666667  0.30403857  1.0
  Y  Y765  1  0.24407233  0.25000000  0.37546714  1.0
  Y  Y766  1  0.24407233  0.58333333  0.37546714  1.0
  Y  Y767  1  0.24407233  0.91666667  0.37546714  1.0
  Y  Y768  1  0.57740567  0.25000000  0.37546714  1.0
  Y  Y769  1  0.57740567  0.58333333  0.37546714  1.0
  Y  Y770  1  0.57740567  0.91666667  0.37546714  1.0
  Y  Y771  1  0.91073900  0.25000000  0.37546714  1.0
  Y  Y772  1  0.91073900  0.58333333  0.37546714  1.0
  Y  Y773  1  0.91073900  0.91666667  0.37546714  1.0
  Y  Y774  1  0.16073900  0.25000000  0.36945200  1.0
  Y  Y775  1  0.16073900  0.58333333  0.36945200  1.0
  Y  Y776  1  0.16073900  0.91666667  0.36945200  1.0
  Y  Y777  1  0.49407233  0.25000000  0.36945200  1.0
  Y  Y778  1  0.49407233  0.58333333  0.36945200  1.0
  Y  Y779  1  0.49407233  0.91666667  0.36945200  1.0
  Y  Y780  1  0.82740567  0.25000000  0.36945200  1.0
  Y  Y781  1  0.82740567  0.58333333  0.36945200  1.0
  Y  Y782  1  0.82740567  0.91666667  0.36945200  1.0
  Y  Y783  1  0.32740567  0.25000000  0.29802343  1.0
  Y  Y784  1  0.32740567  0.58333333  0.29802343  1.0
  Y  Y785  1  0.32740567  0.91666667  0.29802343  1.0
  Y  Y786  1  0.66073900  0.25000000  0.29802343  1.0
  Y  Y787  1  0.66073900  0.58333333  0.29802343  1.0
  Y  Y788  1  0.66073900  0.91666667  0.29802343  1.0
  Y  Y789  1  0.99407233  0.25000000  0.29802343  1.0
  Y  Y790  1  0.99407233  0.58333333  0.29802343  1.0
  Y  Y791  1  0.99407233  0.91666667  0.29802343  1.0
  Ni  Ni792  1  0.14826667  0.08333333  0.39311429  1.0
  Ni  Ni793  1  0.14826667  0.41666667  0.39311429  1.0
  Ni  Ni794  1  0.14826667  0.75000000  0.39311429  1.0
  Ni  Ni795  1  0.48160000  0.08333333  0.39311429  1.0
  Ni  Ni796  1  0.48160000  0.41666667  0.39311429  1.0
  Ni  Ni797  1  0.48160000  0.75000000  0.39311429  1.0
  Ni  Ni798  1  0.81493333  0.08333333  0.39311429  1.0
  Ni  Ni799  1  0.81493333  0.41666667  0.39311429  1.0
  Ni  Ni800  1  0.81493333  0.75000000  0.39311429  1.0
  Ni  Ni801  1  0.31493333  0.08333333  0.32168571  1.0
  Ni  Ni802  1  0.31493333  0.41666667  0.32168571  1.0
  Ni  Ni803  1  0.31493333  0.75000000  0.32168571  1.0
  Ni  Ni804  1  0.64826667  0.08333333  0.32168571  1.0
  Ni  Ni805  1  0.64826667  0.41666667  0.32168571  1.0
  Ni  Ni806  1  0.64826667  0.75000000  0.32168571  1.0
  Ni  Ni807  1  0.98160000  0.08333333  0.32168571  1.0
  Ni  Ni808  1  0.98160000  0.41666667  0.32168571  1.0
  Ni  Ni809  1  0.98160000  0.75000000  0.32168571  1.0
  Ni  Ni810  1  0.06493333  0.08333333  0.41254286  1.0
  Ni  Ni811  1  0.06493333  0.41666667  0.41254286  1.0
  Ni  Ni812  1  0.06493333  0.75000000  0.41254286  1.0
  Ni  Ni813  1  0.39826667  0.08333333  0.41254286  1.0
  Ni  Ni814  1  0.39826667  0.41666667  0.41254286  1.0
  Ni  Ni815  1  0.39826667  0.75000000  0.41254286  1.0
  Ni  Ni816  1  0.73160000  0.08333333  0.41254286  1.0
  Ni  Ni817  1  0.73160000  0.41666667  0.41254286  1.0
  Ni  Ni818  1  0.73160000  0.75000000  0.41254286  1.0
  Ni  Ni819  1  0.23160000  0.08333333  0.34111429  1.0
  Ni  Ni820  1  0.23160000  0.41666667  0.34111429  1.0
  Ni  Ni821  1  0.23160000  0.75000000  0.34111429  1.0
  Ni  Ni822  1  0.56493333  0.08333333  0.34111429  1.0
  Ni  Ni823  1  0.56493333  0.41666667  0.34111429  1.0
  Ni  Ni824  1  0.56493333  0.75000000  0.34111429  1.0
  Ni  Ni825  1  0.89826667  0.08333333  0.34111429  1.0
  Ni  Ni826  1  0.89826667  0.41666667  0.34111429  1.0
  Ni  Ni827  1  0.89826667  0.75000000  0.34111429  1.0
  Ni  Ni828  1  0.01840000  0.25000000  0.39260000  1.0
  Ni  Ni829  1  0.01840000  0.58333333  0.39260000  1.0
  Ni  Ni830  1  0.01840000  0.91666667  0.39260000  1.0
  Ni  Ni831  1  0.35173333  0.25000000  0.39260000  1.0
  Ni  Ni832  1  0.35173333  0.58333333  0.39260000  1.0
  Ni  Ni833  1  0.35173333  0.91666667  0.39260000  1.0
  Ni  Ni834  1  0.68506667  0.25000000  0.39260000  1.0
  Ni  Ni835  1  0.68506667  0.58333333  0.39260000  1.0
  Ni  Ni836  1  0.68506667  0.91666667  0.39260000  1.0
  Ni  Ni837  1  0.18506667  0.25000000  0.32117143  1.0
  Ni  Ni838  1  0.18506667  0.58333333  0.32117143  1.0
  Ni  Ni839  1  0.18506667  0.91666667  0.32117143  1.0
  Ni  Ni840  1  0.51840000  0.25000000  0.32117143  1.0
  Ni  Ni841  1  0.51840000  0.58333333  0.32117143  1.0
  Ni  Ni842  1  0.51840000  0.91666667  0.32117143  1.0
  Ni  Ni843  1  0.85173333  0.25000000  0.32117143  1.0
  Ni  Ni844  1  0.85173333  0.58333333  0.32117143  1.0
  Ni  Ni845  1  0.85173333  0.91666667  0.32117143  1.0
  Ni  Ni846  1  0.10173333  0.25000000  0.37317143  1.0
  Ni  Ni847  1  0.10173333  0.58333333  0.37317143  1.0
  Ni  Ni848  1  0.10173333  0.91666667  0.37317143  1.0
  Ni  Ni849  1  0.43506667  0.25000000  0.37317143  1.0
  Ni  Ni850  1  0.43506667  0.58333333  0.37317143  1.0
  Ni  Ni851  1  0.43506667  0.91666667  0.37317143  1.0
  Ni  Ni852  1  0.76840000  0.25000000  0.37317143  1.0
  Ni  Ni853  1  0.76840000  0.58333333  0.37317143  1.0
  Ni  Ni854  1  0.76840000  0.91666667  0.37317143  1.0
  Ni  Ni855  1  0.26840000  0.25000000  0.30174286  1.0
  Ni  Ni856  1  0.26840000  0.58333333  0.30174286  1.0
  Ni  Ni857  1  0.26840000  0.91666667  0.30174286  1.0
  Ni  Ni858  1  0.60173333  0.25000000  0.30174286  1.0
  Ni  Ni859  1  0.60173333  0.58333333  0.30174286  1.0
  Ni  Ni860  1  0.60173333  0.91666667  0.30174286  1.0
  Ni  Ni861  1  0.93506667  0.25000000  0.30174286  1.0
  Ni  Ni862  1  0.93506667  0.58333333  0.30174286  1.0
  Ni  Ni863  1  0.93506667  0.91666667  0.30174286  1.0
