# generated using pymatgen
data_YNi3
_symmetry_space_group_name_H-M   'P 1'
_cell_length_a   29.83839799
_cell_length_b   33.35354086
_cell_length_c   29.39448075
_cell_angle_alpha   81.27675020
_cell_angle_beta   85.11769333
_cell_angle_gamma   76.99592451
_symmetry_Int_Tables_number   1
_chemical_formula_structural   YNi3
_chemical_formula_sum   'Y216 Ni648'
_cell_volume   28134.40053334
_cell_formula_units_Z   216
loop_
 _symmetry_equiv_pos_site_id
 _symmetry_equiv_pos_as_xyz
  1  'x, y, z'
loop_
 _atom_site_type_symbol
 _atom_site_label
 _atom_site_symmetry_multiplicity
 _atom_site_fract_x
 _atom_site_fract_y
 _atom_site_fract_z
 _atom_site_occupancy
  Ni  Ni0  1  0.16773756  0.06563735  0.01422178  1.0
  Ni  Ni1  1  0.16773756  0.39897069  0.01422178  1.0
  Ni  Ni2  1  0.16773756  0.73230402  0.01422178  1.0
  Ni  Ni3  1  0.50107089  0.06563735  0.01422178  1.0
  Ni  Ni4  1  0.50107089  0.39897069  0.01422178  1.0
  Ni  Ni5  1  0.50107089  0.73230402  0.01422178  1.0
  Ni  Ni6  1  0.83440422  0.06563735  0.01422178  1.0
  Ni  Ni7  1  0.83440422  0.39897069  0.01422178  1.0
  Ni  Ni8  1  0.83440422  0.73230402  0.01422178  1.0
  Ni  Ni9  1  0.27884867  0.26934106  0.06977733  1.0
  Ni  Ni10  1  0.27884867  0.60267439  0.06977733  1.0
  Ni  Ni11  1  0.27884867  0.93600772  0.06977733  1.0
  Ni  Ni12  1  0.61218200  0.26934106  0.06977733  1.0
  Ni  Ni13  1  0.61218200  0.60267439  0.06977733  1.0
  Ni  Ni14  1  0.61218200  0.93600772  0.06977733  1.0
  Ni  Ni15  1  0.94551533  0.26934106  0.06977733  1.0
  Ni  Ni16  1  0.94551533  0.60267439  0.06977733  1.0
  Ni  Ni17  1  0.94551533  0.93600772  0.06977733  1.0
  Ni  Ni18  1  0.11231233  0.10258750  0.06964700  1.0
  Ni  Ni19  1  0.11231233  0.43592083  0.06964700  1.0
  Ni  Ni20  1  0.11231233  0.76925417  0.06964700  1.0
  Ni  Ni21  1  0.44564567  0.10258750  0.06964700  1.0
  Ni  Ni22  1  0.44564567  0.43592083  0.06964700  1.0
  Ni  Ni23  1  0.44564567  0.76925417  0.06964700  1.0
  Ni  Ni24  1  0.77897900  0.10258750  0.06964700  1.0
  Ni  Ni25  1  0.77897900  0.43592083  0.06964700  1.0
  Ni  Ni26  1  0.77897900  0.76925417  0.06964700  1.0
  Ni  Ni27  1  0.00120122  0.23221713  0.01409144  1.0
  Ni  Ni28  1  0.00120122  0.56555046  0.01409144  1.0
  Ni  Ni29  1  0.00120122  0.89888380  0.01409144  1.0
  Ni  Ni30  1  0.33453456  0.23221713  0.01409144  1.0
  Ni  Ni31  1  0.33453456  0.56555046  0.01409144  1.0
  Ni  Ni32  1  0.33453456  0.89888380  0.01409144  1.0
  Ni  Ni33  1  0.66786789  0.23221713  0.01409144  1.0
  Ni  Ni34  1  0.66786789  0.56555046  0.01409144  1.0
  Ni  Ni35  1  0.66786789  0.89888380  0.01409144  1.0
  Ni  Ni36  1  0.04656167  0.07107611  0.10661417  1.0
  Ni  Ni37  1  0.04656167  0.40440944  0.10661417  1.0
  Ni  Ni38  1  0.04656167  0.73774278  0.10661417  1.0
  Ni  Ni39  1  0.37989500  0.07107611  0.10661417  1.0
  Ni  Ni40  1  0.37989500  0.40440944  0.10661417  1.0
  Ni  Ni41  1  0.37989500  0.73774278  0.10661417  1.0
  Ni  Ni42  1  0.71322833  0.07107611  0.10661417  1.0
  Ni  Ni43  1  0.71322833  0.40440944  0.10661417  1.0
  Ni  Ni44  1  0.71322833  0.73774278  0.10661417  1.0
  Ni  Ni45  1  0.26878389  0.20070574  0.05105861  1.0
  Ni  Ni46  1  0.26878389  0.53403907  0.05105861  1.0
  Ni  Ni47  1  0.26878389  0.86737241  0.05105861  1.0
  Ni  Ni48  1  0.60211722  0.20070574  0.05105861  1.0
  Ni  Ni49  1  0.60211722  0.53403907  0.05105861  1.0
  Ni  Ni50  1  0.60211722  0.86737241  0.05105861  1.0
  Ni  Ni51  1  0.93545056  0.20070574  0.05105861  1.0
  Ni  Ni52  1  0.93545056  0.53403907  0.05105861  1.0
  Ni  Ni53  1  0.93545056  0.86737241  0.05105861  1.0
  Ni  Ni54  1  0.31414433  0.06740767  0.06005250  1.0
  Ni  Ni55  1  0.31414433  0.40074100  0.06005250  1.0
  Ni  Ni56  1  0.31414433  0.73407433  0.06005250  1.0
  Ni  Ni57  1  0.64747767  0.06740767  0.06005250  1.0
  Ni  Ni58  1  0.64747767  0.40074100  0.06005250  1.0
  Ni  Ni59  1  0.64747767  0.73407433  0.06005250  1.0
  Ni  Ni60  1  0.98081100  0.06740767  0.06005250  1.0
  Ni  Ni61  1  0.98081100  0.40074100  0.06005250  1.0
  Ni  Ni62  1  0.98081100  0.73407433  0.06005250  1.0
  Ni  Ni63  1  0.20303322  0.19703730  0.00449694  1.0
  Ni  Ni64  1  0.20303322  0.53037063  0.00449694  1.0
  Ni  Ni65  1  0.20303322  0.86370396  0.00449694  1.0
  Ni  Ni66  1  0.53636656  0.19703730  0.00449694  1.0
  Ni  Ni67  1  0.53636656  0.53037063  0.00449694  1.0
  Ni  Ni68  1  0.53636656  0.86370396  0.00449694  1.0
  Ni  Ni69  1  0.86969989  0.19703730  0.00449694  1.0
  Ni  Ni70  1  0.86969989  0.53037063  0.00449694  1.0
  Ni  Ni71  1  0.86969989  0.86370396  0.00449694  1.0
  Ni  Ni72  1  0.03649689  0.00244080  0.08789544  1.0
  Ni  Ni73  1  0.03649689  0.33577413  0.08789544  1.0
  Ni  Ni74  1  0.03649689  0.66910746  0.08789544  1.0
  Ni  Ni75  1  0.36983022  0.00244080  0.08789544  1.0
  Ni  Ni76  1  0.36983022  0.33577413  0.08789544  1.0
  Ni  Ni77  1  0.36983022  0.66910746  0.08789544  1.0
  Ni  Ni78  1  0.70316356  0.00244080  0.08789544  1.0
  Ni  Ni79  1  0.70316356  0.33577413  0.08789544  1.0
  Ni  Ni80  1  0.70316356  0.66910746  0.08789544  1.0
  Ni  Ni81  1  0.25871911  0.13207043  0.03233989  1.0
  Ni  Ni82  1  0.25871911  0.46540376  0.03233989  1.0
  Ni  Ni83  1  0.25871911  0.79873709  0.03233989  1.0
  Ni  Ni84  1  0.59205244  0.13207043  0.03233989  1.0
  Ni  Ni85  1  0.59205244  0.46540376  0.03233989  1.0
  Ni  Ni86  1  0.59205244  0.79873709  0.03233989  1.0
  Ni  Ni87  1  0.92538578  0.13207043  0.03233989  1.0
  Ni  Ni88  1  0.92538578  0.46540376  0.03233989  1.0
  Ni  Ni89  1  0.92538578  0.79873709  0.03233989  1.0
  Ni  Ni90  1  0.28725222  0.00313807  0.08808561  1.0
  Ni  Ni91  1  0.28725222  0.33647141  0.08808561  1.0
  Ni  Ni92  1  0.28725222  0.66980474  0.08808561  1.0
  Ni  Ni93  1  0.62058556  0.00313807  0.08808561  1.0
  Ni  Ni94  1  0.62058556  0.33647141  0.08808561  1.0
  Ni  Ni95  1  0.62058556  0.66980474  0.08808561  1.0
  Ni  Ni96  1  0.95391889  0.00313807  0.08808561  1.0
  Ni  Ni97  1  0.95391889  0.33647141  0.08808561  1.0
  Ni  Ni98  1  0.95391889  0.66980474  0.08808561  1.0
  Ni  Ni99  1  0.17614111  0.13276770  0.03253006  1.0
  Ni  Ni100  1  0.17614111  0.46610104  0.03253006  1.0
  Ni  Ni101  1  0.17614111  0.79943437  0.03253006  1.0
  Ni  Ni102  1  0.50947444  0.13276770  0.03253006  1.0
  Ni  Ni103  1  0.50947444  0.46610104  0.03253006  1.0
  Ni  Ni104  1  0.50947444  0.79943437  0.03253006  1.0
  Ni  Ni105  1  0.84280778  0.13276770  0.03253006  1.0
  Ni  Ni106  1  0.84280778  0.46610104  0.03253006  1.0
  Ni  Ni107  1  0.84280778  0.79943437  0.03253006  1.0
  Ni  Ni108  1  0.22342344  0.00067048  0.04206472  1.0
  Ni  Ni109  1  0.22342344  0.33400381  0.04206472  1.0
  Ni  Ni110  1  0.22342344  0.66733715  0.04206472  1.0
  Ni  Ni111  1  0.55675678  0.00067048  0.04206472  1.0
  Ni  Ni112  1  0.55675678  0.33400381  0.04206472  1.0
  Ni  Ni113  1  0.55675678  0.66733715  0.04206472  1.0
  Ni  Ni114  1  0.89009011  0.00067048  0.04206472  1.0
  Ni  Ni115  1  0.89009011  0.33400381  0.04206472  1.0
  Ni  Ni116  1  0.89009011  0.66733715  0.04206472  1.0
  Ni  Ni117  1  0.00120122  0.20437419  0.09762028  1.0
  Ni  Ni118  1  0.00120122  0.53770752  0.09762028  1.0
  Ni  Ni119  1  0.00120122  0.87104085  0.09762028  1.0
  Ni  Ni120  1  0.33453456  0.20437419  0.09762028  1.0
  Ni  Ni121  1  0.33453456  0.53770752  0.09762028  1.0
  Ni  Ni122  1  0.33453456  0.87104085  0.09762028  1.0
  Ni  Ni123  1  0.66786789  0.20437419  0.09762028  1.0
  Ni  Ni124  1  0.66786789  0.53770752  0.09762028  1.0
  Ni  Ni125  1  0.66786789  0.87104085  0.09762028  1.0
  Ni  Ni126  1  0.25031556  0.06494007  0.01403161  1.0
  Ni  Ni127  1  0.25031556  0.39827341  0.01403161  1.0
  Ni  Ni128  1  0.25031556  0.73160674  0.01403161  1.0
  Ni  Ni129  1  0.58364889  0.06494007  0.01403161  1.0
  Ni  Ni130  1  0.58364889  0.39827341  0.01403161  1.0
  Ni  Ni131  1  0.58364889  0.73160674  0.01403161  1.0
  Ni  Ni132  1  0.91698222  0.06494007  0.01403161  1.0
  Ni  Ni133  1  0.91698222  0.39827341  0.01403161  1.0
  Ni  Ni134  1  0.91698222  0.73160674  0.01403161  1.0
  Ni  Ni135  1  0.02809333  0.26864378  0.06958717  1.0
  Ni  Ni136  1  0.02809333  0.60197711  0.06958717  1.0
  Ni  Ni137  1  0.02809333  0.93531044  0.06958717  1.0
  Ni  Ni138  1  0.36142667  0.26864378  0.06958717  1.0
  Ni  Ni139  1  0.36142667  0.60197711  0.06958717  1.0
  Ni  Ni140  1  0.36142667  0.93531044  0.06958717  1.0
  Ni  Ni141  1  0.69476000  0.26864378  0.06958717  1.0
  Ni  Ni142  1  0.69476000  0.60197711  0.06958717  1.0
  Ni  Ni143  1  0.69476000  0.93531044  0.06958717  1.0
  Ni  Ni144  1  0.09192211  0.29882398  0.03247022  1.0
  Ni  Ni145  1  0.09192211  0.63215731  0.03247022  1.0
  Ni  Ni146  1  0.09192211  0.96549065  0.03247022  1.0
  Ni  Ni147  1  0.42525544  0.29882398  0.03247022  1.0
  Ni  Ni148  1  0.42525544  0.63215731  0.03247022  1.0
  Ni  Ni149  1  0.42525544  0.96549065  0.03247022  1.0
  Ni  Ni150  1  0.75858878  0.29882398  0.03247022  1.0
  Ni  Ni151  1  0.75858878  0.63215731  0.03247022  1.0
  Ni  Ni152  1  0.75858878  0.96549065  0.03247022  1.0
  Ni  Ni153  1  0.20303322  0.16919435  0.08802578  1.0
  Ni  Ni154  1  0.20303322  0.50252769  0.08802578  1.0
  Ni  Ni155  1  0.20303322  0.83586102  0.08802578  1.0
  Ni  Ni156  1  0.53636656  0.16919435  0.08802578  1.0
  Ni  Ni157  1  0.53636656  0.50252769  0.08802578  1.0
  Ni  Ni158  1  0.53636656  0.83586102  0.08802578  1.0
  Ni  Ni159  1  0.86969989  0.16919435  0.08802578  1.0
  Ni  Ni160  1  0.86969989  0.50252769  0.08802578  1.0
  Ni  Ni161  1  0.86969989  0.83586102  0.08802578  1.0
  Ni  Ni162  1  0.05662644  0.13971143  0.12533289  1.0
  Ni  Ni163  1  0.05662644  0.47304476  0.12533289  1.0
  Ni  Ni164  1  0.05662644  0.80637809  0.12533289  1.0
  Ni  Ni165  1  0.38995978  0.13971143  0.12533289  1.0
  Ni  Ni166  1  0.38995978  0.47304476  0.12533289  1.0
  Ni  Ni167  1  0.38995978  0.80637809  0.12533289  1.0
  Ni  Ni168  1  0.72329311  0.13971143  0.12533289  1.0
  Ni  Ni169  1  0.72329311  0.47304476  0.12533289  1.0
  Ni  Ni170  1  0.72329311  0.80637809  0.12533289  1.0
  Ni  Ni171  1  0.16773756  0.01008180  0.18088844  1.0
  Ni  Ni172  1  0.16773756  0.34341513  0.18088844  1.0
  Ni  Ni173  1  0.16773756  0.67674846  0.18088844  1.0
  Ni  Ni174  1  0.50107089  0.01008180  0.18088844  1.0
  Ni  Ni175  1  0.50107089  0.34341513  0.18088844  1.0
  Ni  Ni176  1  0.50107089  0.67674846  0.18088844  1.0
  Ni  Ni177  1  0.83440422  0.01008180  0.18088844  1.0
  Ni  Ni178  1  0.83440422  0.34341513  0.18088844  1.0
  Ni  Ni179  1  0.83440422  0.67674846  0.18088844  1.0
  Ni  Ni180  1  0.00120122  0.17666157  0.18075811  1.0
  Ni  Ni181  1  0.00120122  0.50999491  0.18075811  1.0
  Ni  Ni182  1  0.00120122  0.84332824  0.18075811  1.0
  Ni  Ni183  1  0.33453456  0.17666157  0.18075811  1.0
  Ni  Ni184  1  0.33453456  0.50999491  0.18075811  1.0
  Ni  Ni185  1  0.33453456  0.84332824  0.18075811  1.0
  Ni  Ni186  1  0.66786789  0.17666157  0.18075811  1.0
  Ni  Ni187  1  0.66786789  0.50999491  0.18075811  1.0
  Ni  Ni188  1  0.66786789  0.84332824  0.18075811  1.0
  Ni  Ni189  1  0.22342344  0.30629120  0.12520256  1.0
  Ni  Ni190  1  0.22342344  0.63962454  0.12520256  1.0
  Ni  Ni191  1  0.22342344  0.97295787  0.12520256  1.0
  Ni  Ni192  1  0.55675678  0.30629120  0.12520256  1.0
  Ni  Ni193  1  0.55675678  0.63962454  0.12520256  1.0
  Ni  Ni194  1  0.55675678  0.97295787  0.12520256  1.0
  Ni  Ni195  1  0.89009011  0.30629120  0.12520256  1.0
  Ni  Ni196  1  0.89009011  0.63962454  0.12520256  1.0
  Ni  Ni197  1  0.89009011  0.97295787  0.12520256  1.0
  Ni  Ni198  1  0.26878389  0.14515019  0.21772528  1.0
  Ni  Ni199  1  0.26878389  0.47848352  0.21772528  1.0
  Ni  Ni200  1  0.26878389  0.81181685  0.21772528  1.0
  Ni  Ni201  1  0.60211722  0.14515019  0.21772528  1.0
  Ni  Ni202  1  0.60211722  0.47848352  0.21772528  1.0
  Ni  Ni203  1  0.60211722  0.81181685  0.21772528  1.0
  Ni  Ni204  1  0.93545056  0.14515019  0.21772528  1.0
  Ni  Ni205  1  0.93545056  0.47848352  0.21772528  1.0
  Ni  Ni206  1  0.93545056  0.81181685  0.21772528  1.0
  Ni  Ni207  1  0.15767278  0.27477981  0.16216972  1.0
  Ni  Ni208  1  0.15767278  0.60811315  0.16216972  1.0
  Ni  Ni209  1  0.15767278  0.94144648  0.16216972  1.0
  Ni  Ni210  1  0.49100611  0.27477981  0.16216972  1.0
  Ni  Ni211  1  0.49100611  0.60811315  0.16216972  1.0
  Ni  Ni212  1  0.49100611  0.94144648  0.16216972  1.0
  Ni  Ni213  1  0.82433944  0.27477981  0.16216972  1.0
  Ni  Ni214  1  0.82433944  0.60811315  0.16216972  1.0
  Ni  Ni215  1  0.82433944  0.94144648  0.16216972  1.0
  Ni  Ni216  1  0.20303322  0.14148174  0.17116361  1.0
  Ni  Ni217  1  0.20303322  0.47481507  0.17116361  1.0
  Ni  Ni218  1  0.20303322  0.80814841  0.17116361  1.0
  Ni  Ni219  1  0.53636656  0.14148174  0.17116361  1.0
  Ni  Ni220  1  0.53636656  0.47481507  0.17116361  1.0
  Ni  Ni221  1  0.53636656  0.80814841  0.17116361  1.0
  Ni  Ni222  1  0.86969989  0.14148174  0.17116361  1.0
  Ni  Ni223  1  0.86969989  0.47481507  0.17116361  1.0
  Ni  Ni224  1  0.86969989  0.80814841  0.17116361  1.0
  Ni  Ni225  1  0.09192211  0.27111137  0.11560806  1.0
  Ni  Ni226  1  0.09192211  0.60444470  0.11560806  1.0
  Ni  Ni227  1  0.09192211  0.93777804  0.11560806  1.0
  Ni  Ni228  1  0.42525544  0.27111137  0.11560806  1.0
  Ni  Ni229  1  0.42525544  0.60444470  0.11560806  1.0
  Ni  Ni230  1  0.42525544  0.93777804  0.11560806  1.0
  Ni  Ni231  1  0.75858878  0.27111137  0.11560806  1.0
  Ni  Ni232  1  0.75858878  0.60444470  0.11560806  1.0
  Ni  Ni233  1  0.75858878  0.93777804  0.11560806  1.0
  Ni  Ni234  1  0.25871911  0.07651487  0.19900656  1.0
  Ni  Ni235  1  0.25871911  0.40984820  0.19900656  1.0
  Ni  Ni236  1  0.25871911  0.74318154  0.19900656  1.0
  Ni  Ni237  1  0.59205244  0.07651487  0.19900656  1.0
  Ni  Ni238  1  0.59205244  0.40984820  0.19900656  1.0
  Ni  Ni239  1  0.59205244  0.74318154  0.19900656  1.0
  Ni  Ni240  1  0.92538578  0.07651487  0.19900656  1.0
  Ni  Ni241  1  0.92538578  0.40984820  0.19900656  1.0
  Ni  Ni242  1  0.92538578  0.74318154  0.19900656  1.0
  Ni  Ni243  1  0.14760800  0.20614450  0.14345100  1.0
  Ni  Ni244  1  0.14760800  0.53947783  0.14345100  1.0
  Ni  Ni245  1  0.14760800  0.87281117  0.14345100  1.0
  Ni  Ni246  1  0.48094133  0.20614450  0.14345100  1.0
  Ni  Ni247  1  0.48094133  0.53947783  0.14345100  1.0
  Ni  Ni248  1  0.48094133  0.87281117  0.14345100  1.0
  Ni  Ni249  1  0.81427467  0.20614450  0.14345100  1.0
  Ni  Ni250  1  0.81427467  0.53947783  0.14345100  1.0
  Ni  Ni251  1  0.81427467  0.87281117  0.14345100  1.0
  Ni  Ni252  1  0.17614111  0.07721215  0.19919672  1.0
  Ni  Ni253  1  0.17614111  0.41054548  0.19919672  1.0
  Ni  Ni254  1  0.17614111  0.74387881  0.19919672  1.0
  Ni  Ni255  1  0.50947444  0.07721215  0.19919672  1.0
  Ni  Ni256  1  0.50947444  0.41054548  0.19919672  1.0
  Ni  Ni257  1  0.50947444  0.74387881  0.19919672  1.0
  Ni  Ni258  1  0.84280778  0.07721215  0.19919672  1.0
  Ni  Ni259  1  0.84280778  0.41054548  0.19919672  1.0
  Ni  Ni260  1  0.84280778  0.74387881  0.19919672  1.0
  Ni  Ni261  1  0.06503000  0.20684178  0.14364117  1.0
  Ni  Ni262  1  0.06503000  0.54017511  0.14364117  1.0
  Ni  Ni263  1  0.06503000  0.87350844  0.14364117  1.0
  Ni  Ni264  1  0.39836333  0.20684178  0.14364117  1.0
  Ni  Ni265  1  0.39836333  0.54017511  0.14364117  1.0
  Ni  Ni266  1  0.39836333  0.87350844  0.14364117  1.0
  Ni  Ni267  1  0.73169667  0.20684178  0.14364117  1.0
  Ni  Ni268  1  0.73169667  0.54017511  0.14364117  1.0
  Ni  Ni269  1  0.73169667  0.87350844  0.14364117  1.0
  Ni  Ni270  1  0.11231233  0.07474456  0.15317583  1.0
  Ni  Ni271  1  0.11231233  0.40807789  0.15317583  1.0
  Ni  Ni272  1  0.11231233  0.74141122  0.15317583  1.0
  Ni  Ni273  1  0.44564567  0.07474456  0.15317583  1.0
  Ni  Ni274  1  0.44564567  0.40807789  0.15317583  1.0
  Ni  Ni275  1  0.44564567  0.74141122  0.15317583  1.0
  Ni  Ni276  1  0.77897900  0.07474456  0.15317583  1.0
  Ni  Ni277  1  0.77897900  0.40807789  0.15317583  1.0
  Ni  Ni278  1  0.77897900  0.74141122  0.15317583  1.0
  Ni  Ni279  1  0.22342344  0.27844826  0.20873139  1.0
  Ni  Ni280  1  0.22342344  0.61178159  0.20873139  1.0
  Ni  Ni281  1  0.22342344  0.94511493  0.20873139  1.0
  Ni  Ni282  1  0.55675678  0.27844826  0.20873139  1.0
  Ni  Ni283  1  0.55675678  0.61178159  0.20873139  1.0
  Ni  Ni284  1  0.55675678  0.94511493  0.20873139  1.0
  Ni  Ni285  1  0.89009011  0.27844826  0.20873139  1.0
  Ni  Ni286  1  0.89009011  0.61178159  0.20873139  1.0
  Ni  Ni287  1  0.89009011  0.94511493  0.20873139  1.0
  Ni  Ni288  1  0.13920444  0.13901415  0.12514272  1.0
  Ni  Ni289  1  0.13920444  0.47234748  0.12514272  1.0
  Ni  Ni290  1  0.13920444  0.80568081  0.12514272  1.0
  Ni  Ni291  1  0.47253778  0.13901415  0.12514272  1.0
  Ni  Ni292  1  0.47253778  0.47234748  0.12514272  1.0
  Ni  Ni293  1  0.47253778  0.80568081  0.12514272  1.0
  Ni  Ni294  1  0.80587111  0.13901415  0.12514272  1.0
  Ni  Ni295  1  0.80587111  0.47234748  0.12514272  1.0
  Ni  Ni296  1  0.80587111  0.80568081  0.12514272  1.0
  Ni  Ni297  1  0.25031556  0.00938452  0.18069828  1.0
  Ni  Ni298  1  0.25031556  0.34271785  0.18069828  1.0
  Ni  Ni299  1  0.25031556  0.67605119  0.18069828  1.0
  Ni  Ni300  1  0.58364889  0.00938452  0.18069828  1.0
  Ni  Ni301  1  0.58364889  0.34271785  0.18069828  1.0
  Ni  Ni302  1  0.58364889  0.67605119  0.18069828  1.0
  Ni  Ni303  1  0.91698222  0.00938452  0.18069828  1.0
  Ni  Ni304  1  0.91698222  0.34271785  0.18069828  1.0
  Ni  Ni305  1  0.91698222  0.67605119  0.18069828  1.0
  Ni  Ni306  1  0.31414433  0.03956472  0.14358133  1.0
  Ni  Ni307  1  0.31414433  0.37289806  0.14358133  1.0
  Ni  Ni308  1  0.31414433  0.70623139  0.14358133  1.0
  Ni  Ni309  1  0.64747767  0.03956472  0.14358133  1.0
  Ni  Ni310  1  0.64747767  0.37289806  0.14358133  1.0
  Ni  Ni311  1  0.64747767  0.70623139  0.14358133  1.0
  Ni  Ni312  1  0.98081100  0.03956472  0.14358133  1.0
  Ni  Ni313  1  0.98081100  0.37289806  0.14358133  1.0
  Ni  Ni314  1  0.98081100  0.70623139  0.14358133  1.0
  Ni  Ni315  1  0.09192211  0.24326843  0.19913689  1.0
  Ni  Ni316  1  0.09192211  0.57660176  0.19913689  1.0
  Ni  Ni317  1  0.09192211  0.90993509  0.19913689  1.0
  Ni  Ni318  1  0.42525544  0.24326843  0.19913689  1.0
  Ni  Ni319  1  0.42525544  0.57660176  0.19913689  1.0
  Ni  Ni320  1  0.42525544  0.90993509  0.19913689  1.0
  Ni  Ni321  1  0.75858878  0.24326843  0.19913689  1.0
  Ni  Ni322  1  0.75858878  0.57660176  0.19913689  1.0
  Ni  Ni323  1  0.75858878  0.90993509  0.19913689  1.0
  Ni  Ni324  1  0.27884867  0.21378550  0.23644400  1.0
  Ni  Ni325  1  0.27884867  0.54711883  0.23644400  1.0
  Ni  Ni326  1  0.27884867  0.88045217  0.23644400  1.0
  Ni  Ni327  1  0.61218200  0.21378550  0.23644400  1.0
  Ni  Ni328  1  0.61218200  0.54711883  0.23644400  1.0
  Ni  Ni329  1  0.61218200  0.88045217  0.23644400  1.0
  Ni  Ni330  1  0.94551533  0.21378550  0.23644400  1.0
  Ni  Ni331  1  0.94551533  0.54711883  0.23644400  1.0
  Ni  Ni332  1  0.94551533  0.88045217  0.23644400  1.0
  Ni  Ni333  1  0.05662644  0.08415587  0.29199956  1.0
  Ni  Ni334  1  0.05662644  0.41748920  0.29199956  1.0
  Ni  Ni335  1  0.05662644  0.75082254  0.29199956  1.0
  Ni  Ni336  1  0.38995978  0.08415587  0.29199956  1.0
  Ni  Ni337  1  0.38995978  0.41748920  0.29199956  1.0
  Ni  Ni338  1  0.38995978  0.75082254  0.29199956  1.0
  Ni  Ni339  1  0.72329311  0.08415587  0.29199956  1.0
  Ni  Ni340  1  0.72329311  0.41748920  0.29199956  1.0
  Ni  Ni341  1  0.72329311  0.75082254  0.29199956  1.0
  Ni  Ni342  1  0.22342344  0.25073565  0.29186922  1.0
  Ni  Ni343  1  0.22342344  0.58406898  0.29186922  1.0
  Ni  Ni344  1  0.22342344  0.91740231  0.29186922  1.0
  Ni  Ni345  1  0.55675678  0.25073565  0.29186922  1.0
  Ni  Ni346  1  0.55675678  0.58406898  0.29186922  1.0
  Ni  Ni347  1  0.55675678  0.91740231  0.29186922  1.0
  Ni  Ni348  1  0.89009011  0.25073565  0.29186922  1.0
  Ni  Ni349  1  0.89009011  0.58406898  0.29186922  1.0
  Ni  Ni350  1  0.89009011  0.91740231  0.29186922  1.0
  Ni  Ni351  1  0.11231233  0.04703194  0.23631367  1.0
  Ni  Ni352  1  0.11231233  0.38036528  0.23631367  1.0
  Ni  Ni353  1  0.11231233  0.71369861  0.23631367  1.0
  Ni  Ni354  1  0.44564567  0.04703194  0.23631367  1.0
  Ni  Ni355  1  0.44564567  0.38036528  0.23631367  1.0
  Ni  Ni356  1  0.44564567  0.71369861  0.23631367  1.0
  Ni  Ni357  1  0.77897900  0.04703194  0.23631367  1.0
  Ni  Ni358  1  0.77897900  0.38036528  0.23631367  1.0
  Ni  Ni359  1  0.77897900  0.71369861  0.23631367  1.0
  Ni  Ni360  1  0.15767278  0.21922426  0.32883639  1.0
  Ni  Ni361  1  0.15767278  0.55255759  0.32883639  1.0
  Ni  Ni362  1  0.15767278  0.88589093  0.32883639  1.0
  Ni  Ni363  1  0.49100611  0.21922426  0.32883639  1.0
  Ni  Ni364  1  0.49100611  0.55255759  0.32883639  1.0
  Ni  Ni365  1  0.49100611  0.88589093  0.32883639  1.0
  Ni  Ni366  1  0.82433944  0.21922426  0.32883639  1.0
  Ni  Ni367  1  0.82433944  0.55255759  0.32883639  1.0
  Ni  Ni368  1  0.82433944  0.88589093  0.32883639  1.0
  Ni  Ni369  1  0.04656167  0.01552056  0.27328083  1.0
  Ni  Ni370  1  0.04656167  0.34885389  0.27328083  1.0
  Ni  Ni371  1  0.04656167  0.68218722  0.27328083  1.0
  Ni  Ni372  1  0.37989500  0.01552056  0.27328083  1.0
  Ni  Ni373  1  0.37989500  0.34885389  0.27328083  1.0
  Ni  Ni374  1  0.37989500  0.68218722  0.27328083  1.0
  Ni  Ni375  1  0.71322833  0.01552056  0.27328083  1.0
  Ni  Ni376  1  0.71322833  0.34885389  0.27328083  1.0
  Ni  Ni377  1  0.71322833  0.68218722  0.27328083  1.0
  Ni  Ni378  1  0.09192211  0.21555581  0.28227472  1.0
  Ni  Ni379  1  0.09192211  0.54888915  0.28227472  1.0
  Ni  Ni380  1  0.09192211  0.88222248  0.28227472  1.0
  Ni  Ni381  1  0.42525544  0.21555581  0.28227472  1.0
  Ni  Ni382  1  0.42525544  0.54888915  0.28227472  1.0
  Ni  Ni383  1  0.42525544  0.88222248  0.28227472  1.0
  Ni  Ni384  1  0.75858878  0.21555581  0.28227472  1.0
  Ni  Ni385  1  0.75858878  0.54888915  0.28227472  1.0
  Ni  Ni386  1  0.75858878  0.88222248  0.28227472  1.0
  Ni  Ni387  1  0.31414433  0.01185211  0.22671917  1.0
  Ni  Ni388  1  0.31414433  0.34518544  0.22671917  1.0
  Ni  Ni389  1  0.31414433  0.67851878  0.22671917  1.0
  Ni  Ni390  1  0.64747767  0.01185211  0.22671917  1.0
  Ni  Ni391  1  0.64747767  0.34518544  0.22671917  1.0
  Ni  Ni392  1  0.64747767  0.67851878  0.22671917  1.0
  Ni  Ni393  1  0.98081100  0.01185211  0.22671917  1.0
  Ni  Ni394  1  0.98081100  0.34518544  0.22671917  1.0
  Ni  Ni395  1  0.98081100  0.67851878  0.22671917  1.0
  Ni  Ni396  1  0.14760800  0.15058894  0.31011767  1.0
  Ni  Ni397  1  0.14760800  0.48392228  0.31011767  1.0
  Ni  Ni398  1  0.14760800  0.81725561  0.31011767  1.0
  Ni  Ni399  1  0.48094133  0.15058894  0.31011767  1.0
  Ni  Ni400  1  0.48094133  0.48392228  0.31011767  1.0
  Ni  Ni401  1  0.48094133  0.81725561  0.31011767  1.0
  Ni  Ni402  1  0.81427467  0.15058894  0.31011767  1.0
  Ni  Ni403  1  0.81427467  0.48392228  0.31011767  1.0
  Ni  Ni404  1  0.81427467  0.81725561  0.31011767  1.0
  Ni  Ni405  1  0.03649689  0.28021857  0.25456211  1.0
  Ni  Ni406  1  0.03649689  0.61355191  0.25456211  1.0
  Ni  Ni407  1  0.03649689  0.94688524  0.25456211  1.0
  Ni  Ni408  1  0.36983022  0.28021857  0.25456211  1.0
  Ni  Ni409  1  0.36983022  0.61355191  0.25456211  1.0
  Ni  Ni410  1  0.36983022  0.94688524  0.25456211  1.0
  Ni  Ni411  1  0.70316356  0.28021857  0.25456211  1.0
  Ni  Ni412  1  0.70316356  0.61355191  0.25456211  1.0
  Ni  Ni413  1  0.70316356  0.94688524  0.25456211  1.0
  Ni  Ni414  1  0.06503000  0.15128622  0.31030783  1.0
  Ni  Ni415  1  0.06503000  0.48461956  0.31030783  1.0
  Ni  Ni416  1  0.06503000  0.81795289  0.31030783  1.0
  Ni  Ni417  1  0.39836333  0.15128622  0.31030783  1.0
  Ni  Ni418  1  0.39836333  0.48461956  0.31030783  1.0
  Ni  Ni419  1  0.39836333  0.81795289  0.31030783  1.0
  Ni  Ni420  1  0.73169667  0.15128622  0.31030783  1.0
  Ni  Ni421  1  0.73169667  0.48461956  0.31030783  1.0
  Ni  Ni422  1  0.73169667  0.81795289  0.31030783  1.0
  Ni  Ni423  1  0.28725222  0.28091585  0.25475228  1.0
  Ni  Ni424  1  0.28725222  0.61424919  0.25475228  1.0
  Ni  Ni425  1  0.28725222  0.94758252  0.25475228  1.0
  Ni  Ni426  1  0.62058556  0.28091585  0.25475228  1.0
  Ni  Ni427  1  0.62058556  0.61424919  0.25475228  1.0
  Ni  Ni428  1  0.62058556  0.94758252  0.25475228  1.0
  Ni  Ni429  1  0.95391889  0.28091585  0.25475228  1.0
  Ni  Ni430  1  0.95391889  0.61424919  0.25475228  1.0
  Ni  Ni431  1  0.95391889  0.94758252  0.25475228  1.0
  Ni  Ni432  1  0.00120122  0.14881863  0.26428694  1.0
  Ni  Ni433  1  0.00120122  0.48215196  0.26428694  1.0
  Ni  Ni434  1  0.00120122  0.81548530  0.26428694  1.0
  Ni  Ni435  1  0.33453456  0.14881863  0.26428694  1.0
  Ni  Ni436  1  0.33453456  0.48215196  0.26428694  1.0
  Ni  Ni437  1  0.33453456  0.81548530  0.26428694  1.0
  Ni  Ni438  1  0.66786789  0.14881863  0.26428694  1.0
  Ni  Ni439  1  0.66786789  0.48215196  0.26428694  1.0
  Ni  Ni440  1  0.66786789  0.81548530  0.26428694  1.0
  Ni  Ni441  1  0.11231233  0.01918900  0.31984250  1.0
  Ni  Ni442  1  0.11231233  0.35252233  0.31984250  1.0
  Ni  Ni443  1  0.11231233  0.68585567  0.31984250  1.0
  Ni  Ni444  1  0.44564567  0.01918900  0.31984250  1.0
  Ni  Ni445  1  0.44564567  0.35252233  0.31984250  1.0
  Ni  Ni446  1  0.44564567  0.68585567  0.31984250  1.0
  Ni  Ni447  1  0.77897900  0.01918900  0.31984250  1.0
  Ni  Ni448  1  0.77897900  0.35252233  0.31984250  1.0
  Ni  Ni449  1  0.77897900  0.68585567  0.31984250  1.0
  Ni  Ni450  1  0.02809333  0.21308822  0.23625383  1.0
  Ni  Ni451  1  0.02809333  0.54642156  0.23625383  1.0
  Ni  Ni452  1  0.02809333  0.87975489  0.23625383  1.0
  Ni  Ni453  1  0.36142667  0.21308822  0.23625383  1.0
  Ni  Ni454  1  0.36142667  0.54642156  0.23625383  1.0
  Ni  Ni455  1  0.36142667  0.87975489  0.23625383  1.0
  Ni  Ni456  1  0.69476000  0.21308822  0.23625383  1.0
  Ni  Ni457  1  0.69476000  0.54642156  0.23625383  1.0
  Ni  Ni458  1  0.69476000  0.87975489  0.23625383  1.0
  Ni  Ni459  1  0.13920444  0.08345859  0.29180939  1.0
  Ni  Ni460  1  0.13920444  0.41679193  0.29180939  1.0
  Ni  Ni461  1  0.13920444  0.75012526  0.29180939  1.0
  Ni  Ni462  1  0.47253778  0.08345859  0.29180939  1.0
  Ni  Ni463  1  0.47253778  0.41679193  0.29180939  1.0
  Ni  Ni464  1  0.47253778  0.75012526  0.29180939  1.0
  Ni  Ni465  1  0.80587111  0.08345859  0.29180939  1.0
  Ni  Ni466  1  0.80587111  0.41679193  0.29180939  1.0
  Ni  Ni467  1  0.80587111  0.75012526  0.29180939  1.0
  Ni  Ni468  1  0.20303322  0.11363880  0.25469244  1.0
  Ni  Ni469  1  0.20303322  0.44697213  0.25469244  1.0
  Ni  Ni470  1  0.20303322  0.78030546  0.25469244  1.0
  Ni  Ni471  1  0.53636656  0.11363880  0.25469244  1.0
  Ni  Ni472  1  0.53636656  0.44697213  0.25469244  1.0
  Ni  Ni473  1  0.53636656  0.78030546  0.25469244  1.0
  Ni  Ni474  1  0.86969989  0.11363880  0.25469244  1.0
  Ni  Ni475  1  0.86969989  0.44697213  0.25469244  1.0
  Ni  Ni476  1  0.86969989  0.78030546  0.25469244  1.0
  Ni  Ni477  1  0.31414433  0.31734250  0.31024800  1.0
  Ni  Ni478  1  0.31414433  0.65067583  0.31024800  1.0
  Ni  Ni479  1  0.31414433  0.98400917  0.31024800  1.0
  Ni  Ni480  1  0.64747767  0.31734250  0.31024800  1.0
  Ni  Ni481  1  0.64747767  0.65067583  0.31024800  1.0
  Ni  Ni482  1  0.64747767  0.98400917  0.31024800  1.0
  Ni  Ni483  1  0.98081100  0.31734250  0.31024800  1.0
  Ni  Ni484  1  0.98081100  0.65067583  0.31024800  1.0
  Ni  Ni485  1  0.98081100  0.98400917  0.31024800  1.0
  Ni  Ni486  1  0.16773756  0.28785957  0.34755511  1.0
  Ni  Ni487  1  0.16773756  0.62119291  0.34755511  1.0
  Ni  Ni488  1  0.16773756  0.95452624  0.34755511  1.0
  Ni  Ni489  1  0.50107089  0.28785957  0.34755511  1.0
  Ni  Ni490  1  0.50107089  0.62119291  0.34755511  1.0
  Ni  Ni491  1  0.50107089  0.95452624  0.34755511  1.0
  Ni  Ni492  1  0.83440422  0.28785957  0.34755511  1.0
  Ni  Ni493  1  0.83440422  0.62119291  0.34755511  1.0
  Ni  Ni494  1  0.83440422  0.95452624  0.34755511  1.0
  Ni  Ni495  1  0.27884867  0.15822994  0.40311067  1.0
  Ni  Ni496  1  0.27884867  0.49156328  0.40311067  1.0
  Ni  Ni497  1  0.27884867  0.82489661  0.40311067  1.0
  Ni  Ni498  1  0.61218200  0.15822994  0.40311067  1.0
  Ni  Ni499  1  0.61218200  0.49156328  0.40311067  1.0
  Ni  Ni500  1  0.61218200  0.82489661  0.40311067  1.0
  Ni  Ni501  1  0.94551533  0.15822994  0.40311067  1.0
  Ni  Ni502  1  0.94551533  0.49156328  0.40311067  1.0
  Ni  Ni503  1  0.94551533  0.82489661  0.40311067  1.0
  Ni  Ni504  1  0.11231233  0.32480972  0.40298033  1.0
  Ni  Ni505  1  0.11231233  0.65814306  0.40298033  1.0
  Ni  Ni506  1  0.11231233  0.99147639  0.40298033  1.0
  Ni  Ni507  1  0.44564567  0.32480972  0.40298033  1.0
  Ni  Ni508  1  0.44564567  0.65814306  0.40298033  1.0
  Ni  Ni509  1  0.44564567  0.99147639  0.40298033  1.0
  Ni  Ni510  1  0.77897900  0.32480972  0.40298033  1.0
  Ni  Ni511  1  0.77897900  0.65814306  0.40298033  1.0
  Ni  Ni512  1  0.77897900  0.99147639  0.40298033  1.0
  Ni  Ni513  1  0.00120122  0.12110602  0.34742478  1.0
  Ni  Ni514  1  0.00120122  0.45443935  0.34742478  1.0
  Ni  Ni515  1  0.00120122  0.78777269  0.34742478  1.0
  Ni  Ni516  1  0.33453456  0.12110602  0.34742478  1.0
  Ni  Ni517  1  0.33453456  0.45443935  0.34742478  1.0
  Ni  Ni518  1  0.33453456  0.78777269  0.34742478  1.0
  Ni  Ni519  1  0.66786789  0.12110602  0.34742478  1.0
  Ni  Ni520  1  0.66786789  0.45443935  0.34742478  1.0
  Ni  Ni521  1  0.66786789  0.78777269  0.34742478  1.0
  Ni  Ni522  1  0.04656167  0.29329833  0.43994750  1.0
  Ni  Ni523  1  0.04656167  0.62663167  0.43994750  1.0
  Ni  Ni524  1  0.04656167  0.95996500  0.43994750  1.0
  Ni  Ni525  1  0.37989500  0.29329833  0.43994750  1.0
  Ni  Ni526  1  0.37989500  0.62663167  0.43994750  1.0
  Ni  Ni527  1  0.37989500  0.95996500  0.43994750  1.0
  Ni  Ni528  1  0.71322833  0.29329833  0.43994750  1.0
  Ni  Ni529  1  0.71322833  0.62663167  0.43994750  1.0
  Ni  Ni530  1  0.71322833  0.95996500  0.43994750  1.0
  Ni  Ni531  1  0.26878389  0.08959463  0.38439194  1.0
  Ni  Ni532  1  0.26878389  0.42292796  0.38439194  1.0
  Ni  Ni533  1  0.26878389  0.75626130  0.38439194  1.0
  Ni  Ni534  1  0.60211722  0.08959463  0.38439194  1.0
  Ni  Ni535  1  0.60211722  0.42292796  0.38439194  1.0
  Ni  Ni536  1  0.60211722  0.75626130  0.38439194  1.0
  Ni  Ni537  1  0.93545056  0.08959463  0.38439194  1.0
  Ni  Ni538  1  0.93545056  0.42292796  0.38439194  1.0
  Ni  Ni539  1  0.93545056  0.75626130  0.38439194  1.0
  Ni  Ni540  1  0.31414433  0.28962989  0.39338583  1.0
  Ni  Ni541  1  0.31414433  0.62296322  0.39338583  1.0
  Ni  Ni542  1  0.31414433  0.95629656  0.39338583  1.0
  Ni  Ni543  1  0.64747767  0.28962989  0.39338583  1.0
  Ni  Ni544  1  0.64747767  0.62296322  0.39338583  1.0
  Ni  Ni545  1  0.64747767  0.95629656  0.39338583  1.0
  Ni  Ni546  1  0.98081100  0.28962989  0.39338583  1.0
  Ni  Ni547  1  0.98081100  0.62296322  0.39338583  1.0
  Ni  Ni548  1  0.98081100  0.95629656  0.39338583  1.0
  Ni  Ni549  1  0.20303322  0.08592619  0.33783028  1.0
  Ni  Ni550  1  0.20303322  0.41925952  0.33783028  1.0
  Ni  Ni551  1  0.20303322  0.75259285  0.33783028  1.0
  Ni  Ni552  1  0.53636656  0.08592619  0.33783028  1.0
  Ni  Ni553  1  0.53636656  0.41925952  0.33783028  1.0
  Ni  Ni554  1  0.53636656  0.75259285  0.33783028  1.0
  Ni  Ni555  1  0.86969989  0.08592619  0.33783028  1.0
  Ni  Ni556  1  0.86969989  0.41925952  0.33783028  1.0
  Ni  Ni557  1  0.86969989  0.75259285  0.33783028  1.0
  Ni  Ni558  1  0.03649689  0.22466302  0.42122878  1.0
  Ni  Ni559  1  0.03649689  0.55799635  0.42122878  1.0
  Ni  Ni560  1  0.03649689  0.89132969  0.42122878  1.0
  Ni  Ni561  1  0.36983022  0.22466302  0.42122878  1.0
  Ni  Ni562  1  0.36983022  0.55799635  0.42122878  1.0
  Ni  Ni563  1  0.36983022  0.89132969  0.42122878  1.0
  Ni  Ni564  1  0.70316356  0.22466302  0.42122878  1.0
  Ni  Ni565  1  0.70316356  0.55799635  0.42122878  1.0
  Ni  Ni566  1  0.70316356  0.89132969  0.42122878  1.0
  Ni  Ni567  1  0.25871911  0.02095931  0.36567322  1.0
  Ni  Ni568  1  0.25871911  0.35429265  0.36567322  1.0
  Ni  Ni569  1  0.25871911  0.68762598  0.36567322  1.0
  Ni  Ni570  1  0.59205244  0.02095931  0.36567322  1.0
  Ni  Ni571  1  0.59205244  0.35429265  0.36567322  1.0
  Ni  Ni572  1  0.59205244  0.68762598  0.36567322  1.0
  Ni  Ni573  1  0.92538578  0.02095931  0.36567322  1.0
  Ni  Ni574  1  0.92538578  0.35429265  0.36567322  1.0
  Ni  Ni575  1  0.92538578  0.68762598  0.36567322  1.0
  Ni  Ni576  1  0.28725222  0.22536030  0.42141894  1.0
  Ni  Ni577  1  0.28725222  0.55869363  0.42141894  1.0
  Ni  Ni578  1  0.28725222  0.89202696  0.42141894  1.0
  Ni  Ni579  1  0.62058556  0.22536030  0.42141894  1.0
  Ni  Ni580  1  0.62058556  0.55869363  0.42141894  1.0
  Ni  Ni581  1  0.62058556  0.89202696  0.42141894  1.0
  Ni  Ni582  1  0.95391889  0.22536030  0.42141894  1.0
  Ni  Ni583  1  0.95391889  0.55869363  0.42141894  1.0
  Ni  Ni584  1  0.95391889  0.89202696  0.42141894  1.0
  Ni  Ni585  1  0.17614111  0.02165659  0.36586339  1.0
  Ni  Ni586  1  0.17614111  0.35498993  0.36586339  1.0
  Ni  Ni587  1  0.17614111  0.68832326  0.36586339  1.0
  Ni  Ni588  1  0.50947444  0.02165659  0.36586339  1.0
  Ni  Ni589  1  0.50947444  0.35498993  0.36586339  1.0
  Ni  Ni590  1  0.50947444  0.68832326  0.36586339  1.0
  Ni  Ni591  1  0.84280778  0.02165659  0.36586339  1.0
  Ni  Ni592  1  0.84280778  0.35498993  0.36586339  1.0
  Ni  Ni593  1  0.84280778  0.68832326  0.36586339  1.0
  Ni  Ni594  1  0.22342344  0.22289270  0.37539806  1.0
  Ni  Ni595  1  0.22342344  0.55622604  0.37539806  1.0
  Ni  Ni596  1  0.22342344  0.88955937  0.37539806  1.0
  Ni  Ni597  1  0.55675678  0.22289270  0.37539806  1.0
  Ni  Ni598  1  0.55675678  0.55622604  0.37539806  1.0
  Ni  Ni599  1  0.55675678  0.88955937  0.37539806  1.0
  Ni  Ni600  1  0.89009011  0.22289270  0.37539806  1.0
  Ni  Ni601  1  0.89009011  0.55622604  0.37539806  1.0
  Ni  Ni602  1  0.89009011  0.88955937  0.37539806  1.0
  Ni  Ni603  1  0.00120122  0.09326307  0.43095361  1.0
  Ni  Ni604  1  0.00120122  0.42659641  0.43095361  1.0
  Ni  Ni605  1  0.00120122  0.75992974  0.43095361  1.0
  Ni  Ni606  1  0.33453456  0.09326307  0.43095361  1.0
  Ni  Ni607  1  0.33453456  0.42659641  0.43095361  1.0
  Ni  Ni608  1  0.33453456  0.75992974  0.43095361  1.0
  Ni  Ni609  1  0.66786789  0.09326307  0.43095361  1.0
  Ni  Ni610  1  0.66786789  0.42659641  0.43095361  1.0
  Ni  Ni611  1  0.66786789  0.75992974  0.43095361  1.0
  Ni  Ni612  1  0.25031556  0.28716230  0.34736494  1.0
  Ni  Ni613  1  0.25031556  0.62049563  0.34736494  1.0
  Ni  Ni614  1  0.25031556  0.95382896  0.34736494  1.0
  Ni  Ni615  1  0.58364889  0.28716230  0.34736494  1.0
  Ni  Ni616  1  0.58364889  0.62049563  0.34736494  1.0
  Ni  Ni617  1  0.58364889  0.95382896  0.34736494  1.0
  Ni  Ni618  1  0.91698222  0.28716230  0.34736494  1.0
  Ni  Ni619  1  0.91698222  0.62049563  0.34736494  1.0
  Ni  Ni620  1  0.91698222  0.95382896  0.34736494  1.0
  Ni  Ni621  1  0.02809333  0.15753267  0.40292050  1.0
  Ni  Ni622  1  0.02809333  0.49086600  0.40292050  1.0
  Ni  Ni623  1  0.02809333  0.82419933  0.40292050  1.0
  Ni  Ni624  1  0.36142667  0.15753267  0.40292050  1.0
  Ni  Ni625  1  0.36142667  0.49086600  0.40292050  1.0
  Ni  Ni626  1  0.36142667  0.82419933  0.40292050  1.0
  Ni  Ni627  1  0.69476000  0.15753267  0.40292050  1.0
  Ni  Ni628  1  0.69476000  0.49086600  0.40292050  1.0
  Ni  Ni629  1  0.69476000  0.82419933  0.40292050  1.0
  Ni  Ni630  1  0.09192211  0.18771287  0.36580356  1.0
  Ni  Ni631  1  0.09192211  0.52104620  0.36580356  1.0
  Ni  Ni632  1  0.09192211  0.85437954  0.36580356  1.0
  Ni  Ni633  1  0.42525544  0.18771287  0.36580356  1.0
  Ni  Ni634  1  0.42525544  0.52104620  0.36580356  1.0
  Ni  Ni635  1  0.42525544  0.85437954  0.36580356  1.0
  Ni  Ni636  1  0.75858878  0.18771287  0.36580356  1.0
  Ni  Ni637  1  0.75858878  0.52104620  0.36580356  1.0
  Ni  Ni638  1  0.75858878  0.85437954  0.36580356  1.0
  Ni  Ni639  1  0.20303322  0.05808324  0.42135911  1.0
  Ni  Ni640  1  0.20303322  0.39141657  0.42135911  1.0
  Ni  Ni641  1  0.20303322  0.72474991  0.42135911  1.0
  Ni  Ni642  1  0.53636656  0.05808324  0.42135911  1.0
  Ni  Ni643  1  0.53636656  0.39141657  0.42135911  1.0
  Ni  Ni644  1  0.53636656  0.72474991  0.42135911  1.0
  Ni  Ni645  1  0.86969989  0.05808324  0.42135911  1.0
  Ni  Ni646  1  0.86969989  0.39141657  0.42135911  1.0
  Ni  Ni647  1  0.86969989  0.72474991  0.42135911  1.0
  Y  Y648  1  0.02507778  0.14421015  0.03565072  1.0
  Y  Y649  1  0.02507778  0.47754348  0.03565072  1.0
  Y  Y650  1  0.02507778  0.81087681  0.03565072  1.0
  Y  Y651  1  0.35841111  0.14421015  0.03565072  1.0
  Y  Y652  1  0.35841111  0.47754348  0.03565072  1.0
  Y  Y653  1  0.35841111  0.81087681  0.03565072  1.0
  Y  Y654  1  0.69174444  0.14421015  0.03565072  1.0
  Y  Y655  1  0.69174444  0.47754348  0.03565072  1.0
  Y  Y656  1  0.69174444  0.81087681  0.03565072  1.0
  Y  Y657  1  0.13618889  0.01458052  0.09120628  1.0
  Y  Y658  1  0.13618889  0.34791385  0.09120628  1.0
  Y  Y659  1  0.13618889  0.68124719  0.09120628  1.0
  Y  Y660  1  0.46952222  0.01458052  0.09120628  1.0
  Y  Y661  1  0.46952222  0.34791385  0.09120628  1.0
  Y  Y662  1  0.46952222  0.68124719  0.09120628  1.0
  Y  Y663  1  0.80285556  0.01458052  0.09120628  1.0
  Y  Y664  1  0.80285556  0.34791385  0.09120628  1.0
  Y  Y665  1  0.80285556  0.68124719  0.09120628  1.0
  Y  Y666  1  0.17915667  0.25720133  0.06646650  1.0
  Y  Y667  1  0.17915667  0.59053467  0.06646650  1.0
  Y  Y668  1  0.17915667  0.92386800  0.06646650  1.0
  Y  Y669  1  0.51249000  0.25720133  0.06646650  1.0
  Y  Y670  1  0.51249000  0.59053467  0.06646650  1.0
  Y  Y671  1  0.51249000  0.92386800  0.06646650  1.0
  Y  Y672  1  0.84582333  0.25720133  0.06646650  1.0
  Y  Y673  1  0.84582333  0.59053467  0.06646650  1.0
  Y  Y674  1  0.84582333  0.92386800  0.06646650  1.0
  Y  Y675  1  0.06804556  0.05349763  0.01091094  1.0
  Y  Y676  1  0.06804556  0.38683096  0.01091094  1.0
  Y  Y677  1  0.06804556  0.72016430  0.01091094  1.0
  Y  Y678  1  0.40137889  0.05349763  0.01091094  1.0
  Y  Y679  1  0.40137889  0.38683096  0.01091094  1.0
  Y  Y680  1  0.40137889  0.72016430  0.01091094  1.0
  Y  Y681  1  0.73471222  0.05349763  0.01091094  1.0
  Y  Y682  1  0.73471222  0.38683096  0.01091094  1.0
  Y  Y683  1  0.73471222  0.72016430  0.01091094  1.0
  Y  Y684  1  0.10211722  0.20070574  0.05105861  1.0
  Y  Y685  1  0.10211722  0.53403907  0.05105861  1.0
  Y  Y686  1  0.10211722  0.86737241  0.05105861  1.0
  Y  Y687  1  0.43545056  0.20070574  0.05105861  1.0
  Y  Y688  1  0.43545056  0.53403907  0.05105861  1.0
  Y  Y689  1  0.43545056  0.86737241  0.05105861  1.0
  Y  Y690  1  0.76878389  0.20070574  0.05105861  1.0
  Y  Y691  1  0.76878389  0.53403907  0.05105861  1.0
  Y  Y692  1  0.76878389  0.86737241  0.05105861  1.0
  Y  Y693  1  0.21322833  0.07107611  0.10661417  1.0
  Y  Y694  1  0.21322833  0.40440944  0.10661417  1.0
  Y  Y695  1  0.21322833  0.73774278  0.10661417  1.0
  Y  Y696  1  0.54656167  0.07107611  0.10661417  1.0
  Y  Y697  1  0.54656167  0.40440944  0.10661417  1.0
  Y  Y698  1  0.54656167  0.73774278  0.10661417  1.0
  Y  Y699  1  0.87989500  0.07107611  0.10661417  1.0
  Y  Y700  1  0.87989500  0.40440944  0.10661417  1.0
  Y  Y701  1  0.87989500  0.73774278  0.10661417  1.0
  Y  Y702  1  0.24730000  0.21828422  0.14676183  1.0
  Y  Y703  1  0.24730000  0.55161756  0.14676183  1.0
  Y  Y704  1  0.24730000  0.88495089  0.14676183  1.0
  Y  Y705  1  0.58063333  0.21828422  0.14676183  1.0
  Y  Y706  1  0.58063333  0.55161756  0.14676183  1.0
  Y  Y707  1  0.58063333  0.88495089  0.14676183  1.0
  Y  Y708  1  0.91396667  0.21828422  0.14676183  1.0
  Y  Y709  1  0.91396667  0.55161756  0.14676183  1.0
  Y  Y710  1  0.91396667  0.88495089  0.14676183  1.0
  Y  Y711  1  0.02507778  0.08865459  0.20231739  1.0
  Y  Y712  1  0.02507778  0.42198793  0.20231739  1.0
  Y  Y713  1  0.02507778  0.75532126  0.20231739  1.0
  Y  Y714  1  0.35841111  0.08865459  0.20231739  1.0
  Y  Y715  1  0.35841111  0.42198793  0.20231739  1.0
  Y  Y716  1  0.35841111  0.75532126  0.20231739  1.0
  Y  Y717  1  0.69174444  0.08865459  0.20231739  1.0
  Y  Y718  1  0.69174444  0.42198793  0.20231739  1.0
  Y  Y719  1  0.69174444  0.75532126  0.20231739  1.0
  Y  Y720  1  0.06804556  0.33127541  0.17757761  1.0
  Y  Y721  1  0.06804556  0.66460874  0.17757761  1.0
  Y  Y722  1  0.06804556  0.99794207  0.17757761  1.0
  Y  Y723  1  0.40137889  0.33127541  0.17757761  1.0
  Y  Y724  1  0.40137889  0.66460874  0.17757761  1.0
  Y  Y725  1  0.40137889  0.99794207  0.17757761  1.0
  Y  Y726  1  0.73471222  0.33127541  0.17757761  1.0
  Y  Y727  1  0.73471222  0.66460874  0.17757761  1.0
  Y  Y728  1  0.73471222  0.99794207  0.17757761  1.0
  Y  Y729  1  0.29026778  0.12757170  0.12202206  1.0
  Y  Y730  1  0.29026778  0.46090504  0.12202206  1.0
  Y  Y731  1  0.29026778  0.79423837  0.12202206  1.0
  Y  Y732  1  0.62360111  0.12757170  0.12202206  1.0
  Y  Y733  1  0.62360111  0.46090504  0.12202206  1.0
  Y  Y734  1  0.62360111  0.79423837  0.12202206  1.0
  Y  Y735  1  0.95693444  0.12757170  0.12202206  1.0
  Y  Y736  1  0.95693444  0.46090504  0.12202206  1.0
  Y  Y737  1  0.95693444  0.79423837  0.12202206  1.0
  Y  Y738  1  0.32433944  0.27477981  0.16216972  1.0
  Y  Y739  1  0.32433944  0.60811315  0.16216972  1.0
  Y  Y740  1  0.32433944  0.94144648  0.16216972  1.0
  Y  Y741  1  0.65767278  0.27477981  0.16216972  1.0
  Y  Y742  1  0.65767278  0.60811315  0.16216972  1.0
  Y  Y743  1  0.65767278  0.94144648  0.16216972  1.0
  Y  Y744  1  0.99100611  0.27477981  0.16216972  1.0
  Y  Y745  1  0.99100611  0.60811315  0.16216972  1.0
  Y  Y746  1  0.99100611  0.94144648  0.16216972  1.0
  Y  Y747  1  0.10211722  0.14515019  0.21772528  1.0
  Y  Y748  1  0.10211722  0.47848352  0.21772528  1.0
  Y  Y749  1  0.10211722  0.81181685  0.21772528  1.0
  Y  Y750  1  0.43545056  0.14515019  0.21772528  1.0
  Y  Y751  1  0.43545056  0.47848352  0.21772528  1.0
  Y  Y752  1  0.43545056  0.81181685  0.21772528  1.0
  Y  Y753  1  0.76878389  0.14515019  0.21772528  1.0
  Y  Y754  1  0.76878389  0.47848352  0.21772528  1.0
  Y  Y755  1  0.76878389  0.81181685  0.21772528  1.0
  Y  Y756  1  0.13618889  0.29235830  0.25787294  1.0
  Y  Y757  1  0.13618889  0.62569163  0.25787294  1.0
  Y  Y758  1  0.13618889  0.95902496  0.25787294  1.0
  Y  Y759  1  0.46952222  0.29235830  0.25787294  1.0
  Y  Y760  1  0.46952222  0.62569163  0.25787294  1.0
  Y  Y761  1  0.46952222  0.95902496  0.25787294  1.0
  Y  Y762  1  0.80285556  0.29235830  0.25787294  1.0
  Y  Y763  1  0.80285556  0.62569163  0.25787294  1.0
  Y  Y764  1  0.80285556  0.95902496  0.25787294  1.0
  Y  Y765  1  0.24730000  0.16272867  0.31342850  1.0
  Y  Y766  1  0.24730000  0.49606200  0.31342850  1.0
  Y  Y767  1  0.24730000  0.82939533  0.31342850  1.0
  Y  Y768  1  0.58063333  0.16272867  0.31342850  1.0
  Y  Y769  1  0.58063333  0.49606200  0.31342850  1.0
  Y  Y770  1  0.58063333  0.82939533  0.31342850  1.0
  Y  Y771  1  0.91396667  0.16272867  0.31342850  1.0
  Y  Y772  1  0.91396667  0.49606200  0.31342850  1.0
  Y  Y773  1  0.91396667  0.82939533  0.31342850  1.0
  Y  Y774  1  0.29026778  0.07201615  0.28868872  1.0
  Y  Y775  1  0.29026778  0.40534948  0.28868872  1.0
  Y  Y776  1  0.29026778  0.73868281  0.28868872  1.0
  Y  Y777  1  0.62360111  0.07201615  0.28868872  1.0
  Y  Y778  1  0.62360111  0.40534948  0.28868872  1.0
  Y  Y779  1  0.62360111  0.73868281  0.28868872  1.0
  Y  Y780  1  0.95693444  0.07201615  0.28868872  1.0
  Y  Y781  1  0.95693444  0.40534948  0.28868872  1.0
  Y  Y782  1  0.95693444  0.73868281  0.28868872  1.0
  Y  Y783  1  0.17915667  0.20164578  0.23313317  1.0
  Y  Y784  1  0.17915667  0.53497911  0.23313317  1.0
  Y  Y785  1  0.17915667  0.86831244  0.23313317  1.0
  Y  Y786  1  0.51249000  0.20164578  0.23313317  1.0
  Y  Y787  1  0.51249000  0.53497911  0.23313317  1.0
  Y  Y788  1  0.51249000  0.86831244  0.23313317  1.0
  Y  Y789  1  0.84582333  0.20164578  0.23313317  1.0
  Y  Y790  1  0.84582333  0.53497911  0.23313317  1.0
  Y  Y791  1  0.84582333  0.86831244  0.23313317  1.0
  Y  Y792  1  0.21322833  0.01552056  0.27328083  1.0
  Y  Y793  1  0.21322833  0.34885389  0.27328083  1.0
  Y  Y794  1  0.21322833  0.68218722  0.27328083  1.0
  Y  Y795  1  0.54656167  0.01552056  0.27328083  1.0
  Y  Y796  1  0.54656167  0.34885389  0.27328083  1.0
  Y  Y797  1  0.54656167  0.68218722  0.27328083  1.0
  Y  Y798  1  0.87989500  0.01552056  0.27328083  1.0
  Y  Y799  1  0.87989500  0.34885389  0.27328083  1.0
  Y  Y800  1  0.87989500  0.68218722  0.27328083  1.0
  Y  Y801  1  0.32433944  0.21922426  0.32883639  1.0
  Y  Y802  1  0.32433944  0.55255759  0.32883639  1.0
  Y  Y803  1  0.32433944  0.88589093  0.32883639  1.0
  Y  Y804  1  0.65767278  0.21922426  0.32883639  1.0
  Y  Y805  1  0.65767278  0.55255759  0.32883639  1.0
  Y  Y806  1  0.65767278  0.88589093  0.32883639  1.0
  Y  Y807  1  0.99100611  0.21922426  0.32883639  1.0
  Y  Y808  1  0.99100611  0.55255759  0.32883639  1.0
  Y  Y809  1  0.99100611  0.88589093  0.32883639  1.0
  Y  Y810  1  0.02507778  0.03309904  0.36898406  1.0
  Y  Y811  1  0.02507778  0.36643237  0.36898406  1.0
  Y  Y812  1  0.02507778  0.69976570  0.36898406  1.0
  Y  Y813  1  0.35841111  0.03309904  0.36898406  1.0
  Y  Y814  1  0.35841111  0.36643237  0.36898406  1.0
  Y  Y815  1  0.35841111  0.69976570  0.36898406  1.0
  Y  Y816  1  0.69174444  0.03309904  0.36898406  1.0
  Y  Y817  1  0.69174444  0.36643237  0.36898406  1.0
  Y  Y818  1  0.69174444  0.69976570  0.36898406  1.0
  Y  Y819  1  0.13618889  0.23680274  0.42453961  1.0
  Y  Y820  1  0.13618889  0.57013607  0.42453961  1.0
  Y  Y821  1  0.13618889  0.90346941  0.42453961  1.0
  Y  Y822  1  0.46952222  0.23680274  0.42453961  1.0
  Y  Y823  1  0.46952222  0.57013607  0.42453961  1.0
  Y  Y824  1  0.46952222  0.90346941  0.42453961  1.0
  Y  Y825  1  0.80285556  0.23680274  0.42453961  1.0
  Y  Y826  1  0.80285556  0.57013607  0.42453961  1.0
  Y  Y827  1  0.80285556  0.90346941  0.42453961  1.0
  Y  Y828  1  0.17915667  0.14609022  0.39979983  1.0
  Y  Y829  1  0.17915667  0.47942356  0.39979983  1.0
  Y  Y830  1  0.17915667  0.81275689  0.39979983  1.0
  Y  Y831  1  0.51249000  0.14609022  0.39979983  1.0
  Y  Y832  1  0.51249000  0.47942356  0.39979983  1.0
  Y  Y833  1  0.51249000  0.81275689  0.39979983  1.0
  Y  Y834  1  0.84582333  0.14609022  0.39979983  1.0
  Y  Y835  1  0.84582333  0.47942356  0.39979983  1.0
  Y  Y836  1  0.84582333  0.81275689  0.39979983  1.0
  Y  Y837  1  0.06804556  0.27571985  0.34424428  1.0
  Y  Y838  1  0.06804556  0.60905319  0.34424428  1.0
  Y  Y839  1  0.06804556  0.94238652  0.34424428  1.0
  Y  Y840  1  0.40137889  0.27571985  0.34424428  1.0
  Y  Y841  1  0.40137889  0.60905319  0.34424428  1.0
  Y  Y842  1  0.40137889  0.94238652  0.34424428  1.0
  Y  Y843  1  0.73471222  0.27571985  0.34424428  1.0
  Y  Y844  1  0.73471222  0.60905319  0.34424428  1.0
  Y  Y845  1  0.73471222  0.94238652  0.34424428  1.0
  Y  Y846  1  0.10211722  0.08959463  0.38439194  1.0
  Y  Y847  1  0.10211722  0.42292796  0.38439194  1.0
  Y  Y848  1  0.10211722  0.75626130  0.38439194  1.0
  Y  Y849  1  0.43545056  0.08959463  0.38439194  1.0
  Y  Y850  1  0.43545056  0.42292796  0.38439194  1.0
  Y  Y851  1  0.43545056  0.75626130  0.38439194  1.0
  Y  Y852  1  0.76878389  0.08959463  0.38439194  1.0
  Y  Y853  1  0.76878389  0.42292796  0.38439194  1.0
  Y  Y854  1  0.76878389  0.75626130  0.38439194  1.0
  Y  Y855  1  0.21322833  0.29329833  0.43994750  1.0
  Y  Y856  1  0.21322833  0.62663167  0.43994750  1.0
  Y  Y857  1  0.21322833  0.95996500  0.43994750  1.0
  Y  Y858  1  0.54656167  0.29329833  0.43994750  1.0
  Y  Y859  1  0.54656167  0.62663167  0.43994750  1.0
  Y  Y860  1  0.54656167  0.95996500  0.43994750  1.0
  Y  Y861  1  0.87989500  0.29329833  0.43994750  1.0
  Y  Y862  1  0.87989500  0.62663167  0.43994750  1.0
  Y  Y863  1  0.87989500  0.95996500  0.43994750  1.0
