# generated using pymatgen
data_YNi3
_symmetry_space_group_name_H-M   'P 1'
_cell_length_a   25.84958997
_cell_length_b   74.62944679
_cell_length_c   77.54876991
_cell_angle_alpha   22.48589428
_cell_angle_beta   33.51035095
_cell_angle_gamma   29.95684136
_symmetry_Int_Tables_number   1
_chemical_formula_structural   YNi3
_chemical_formula_sum   'Y216 Ni648'
_cell_volume   28134.40053334
_cell_formula_units_Z   216
loop_
 _symmetry_equiv_pos_site_id
 _symmetry_equiv_pos_as_xyz
  1  'x, y, z'
loop_
 _atom_site_type_symbol
 _atom_site_label
 _atom_site_symmetry_multiplicity
 _atom_site_fract_x
 _atom_site_fract_y
 _atom_site_fract_z
 _atom_site_occupancy
  Y  Y0  1  0.04622367  0.02311183  0.00539031  1.0
  Y  Y1  1  0.04622367  0.35644517  0.00539031  1.0
  Y  Y2  1  0.04622367  0.68977850  0.00539031  1.0
  Y  Y3  1  0.37955700  0.02311183  0.00539031  1.0
  Y  Y4  1  0.37955700  0.35644517  0.00539031  1.0
  Y  Y5  1  0.37955700  0.68977850  0.00539031  1.0
  Y  Y6  1  0.71289033  0.02311183  0.00539031  1.0
  Y  Y7  1  0.71289033  0.35644517  0.00539031  1.0
  Y  Y8  1  0.71289033  0.68977850  0.00539031  1.0
  Y  Y9  1  0.04622367  0.18977850  0.06094586  1.0
  Y  Y10  1  0.04622367  0.52311183  0.06094586  1.0
  Y  Y11  1  0.04622367  0.85644517  0.06094586  1.0
  Y  Y12  1  0.37955700  0.18977850  0.06094586  1.0
  Y  Y13  1  0.37955700  0.52311183  0.06094586  1.0
  Y  Y14  1  0.37955700  0.85644517  0.06094586  1.0
  Y  Y15  1  0.71289033  0.18977850  0.06094586  1.0
  Y  Y16  1  0.71289033  0.52311183  0.06094586  1.0
  Y  Y17  1  0.71289033  0.85644517  0.06094586  1.0
  Y  Y18  1  0.28710967  0.14355483  0.04553797  1.0
  Y  Y19  1  0.28710967  0.47688817  0.04553797  1.0
  Y  Y20  1  0.28710967  0.81022150  0.04553797  1.0
  Y  Y21  1  0.62044300  0.14355483  0.04553797  1.0
  Y  Y22  1  0.62044300  0.47688817  0.04553797  1.0
  Y  Y23  1  0.62044300  0.81022150  0.04553797  1.0
  Y  Y24  1  0.95377633  0.14355483  0.04553797  1.0
  Y  Y25  1  0.95377633  0.47688817  0.04553797  1.0
  Y  Y26  1  0.95377633  0.81022150  0.04553797  1.0
  Y  Y27  1  0.28710967  0.31022150  0.10109353  1.0
  Y  Y28  1  0.28710967  0.64355483  0.10109353  1.0
  Y  Y29  1  0.28710967  0.97688817  0.10109353  1.0
  Y  Y30  1  0.62044300  0.31022150  0.10109353  1.0
  Y  Y31  1  0.62044300  0.64355483  0.10109353  1.0
  Y  Y32  1  0.62044300  0.97688817  0.10109353  1.0
  Y  Y33  1  0.95377633  0.31022150  0.10109353  1.0
  Y  Y34  1  0.95377633  0.64355483  0.10109353  1.0
  Y  Y35  1  0.95377633  0.97688817  0.10109353  1.0
  Y  Y36  1  0.00000000  0.00000000  0.10879747  1.0
  Y  Y37  1  0.00000000  0.33333333  0.10879747  1.0
  Y  Y38  1  0.00000000  0.66666667  0.10879747  1.0
  Y  Y39  1  0.33333333  0.00000000  0.10879747  1.0
  Y  Y40  1  0.33333333  0.33333333  0.10879747  1.0
  Y  Y41  1  0.33333333  0.66666667  0.10879747  1.0
  Y  Y42  1  0.66666667  0.00000000  0.10879747  1.0
  Y  Y43  1  0.66666667  0.33333333  0.10879747  1.0
  Y  Y44  1  0.66666667  0.66666667  0.10879747  1.0
  Y  Y45  1  0.00000000  0.16666667  0.05324192  1.0
  Y  Y46  1  0.00000000  0.50000000  0.05324192  1.0
  Y  Y47  1  0.00000000  0.83333333  0.05324192  1.0
  Y  Y48  1  0.33333333  0.16666667  0.05324192  1.0
  Y  Y49  1  0.33333333  0.50000000  0.05324192  1.0
  Y  Y50  1  0.33333333  0.83333333  0.05324192  1.0
  Y  Y51  1  0.66666667  0.16666667  0.05324192  1.0
  Y  Y52  1  0.66666667  0.50000000  0.05324192  1.0
  Y  Y53  1  0.66666667  0.83333333  0.05324192  1.0
  Ni  Ni54  1  0.02698167  0.09701967  0.03002625  1.0
  Ni  Ni55  1  0.02698167  0.43035300  0.03002625  1.0
  Ni  Ni56  1  0.02698167  0.76368633  0.03002625  1.0
  Ni  Ni57  1  0.36031500  0.09701967  0.03002625  1.0
  Ni  Ni58  1  0.36031500  0.43035300  0.03002625  1.0
  Ni  Ni59  1  0.36031500  0.76368633  0.03002625  1.0
  Ni  Ni60  1  0.69364833  0.09701967  0.03002625  1.0
  Ni  Ni61  1  0.69364833  0.43035300  0.03002625  1.0
  Ni  Ni62  1  0.69364833  0.76368633  0.03002625  1.0
  Ni  Ni63  1  0.02698167  0.26368633  0.08558181  1.0
  Ni  Ni64  1  0.02698167  0.59701967  0.08558181  1.0
  Ni  Ni65  1  0.02698167  0.93035300  0.08558181  1.0
  Ni  Ni66  1  0.36031500  0.26368633  0.08558181  1.0
  Ni  Ni67  1  0.36031500  0.59701967  0.08558181  1.0
  Ni  Ni68  1  0.36031500  0.93035300  0.08558181  1.0
  Ni  Ni69  1  0.69364833  0.26368633  0.08558181  1.0
  Ni  Ni70  1  0.69364833  0.59701967  0.08558181  1.0
  Ni  Ni71  1  0.69364833  0.93035300  0.08558181  1.0
  Ni  Ni72  1  0.19403933  0.01349083  0.05786919  1.0
  Ni  Ni73  1  0.19403933  0.34682417  0.05786919  1.0
  Ni  Ni74  1  0.19403933  0.68015750  0.05786919  1.0
  Ni  Ni75  1  0.52737267  0.01349083  0.05786919  1.0
  Ni  Ni76  1  0.52737267  0.34682417  0.05786919  1.0
  Ni  Ni77  1  0.52737267  0.68015750  0.05786919  1.0
  Ni  Ni78  1  0.86070600  0.01349083  0.05786919  1.0
  Ni  Ni79  1  0.86070600  0.34682417  0.05786919  1.0
  Ni  Ni80  1  0.86070600  0.68015750  0.05786919  1.0
  Ni  Ni81  1  0.19403933  0.18015750  0.00231364  1.0
  Ni  Ni82  1  0.19403933  0.51349083  0.00231364  1.0
  Ni  Ni83  1  0.19403933  0.84682417  0.00231364  1.0
  Ni  Ni84  1  0.52737267  0.18015750  0.00231364  1.0
  Ni  Ni85  1  0.52737267  0.51349083  0.00231364  1.0
  Ni  Ni86  1  0.52737267  0.84682417  0.00231364  1.0
  Ni  Ni87  1  0.86070600  0.18015750  0.00231364  1.0
  Ni  Ni88  1  0.86070600  0.51349083  0.00231364  1.0
  Ni  Ni89  1  0.86070600  0.84682417  0.00231364  1.0
  Ni  Ni90  1  0.16666667  0.08333333  0.02546414  1.0
  Ni  Ni91  1  0.16666667  0.41666667  0.02546414  1.0
  Ni  Ni92  1  0.16666667  0.75000000  0.02546414  1.0
  Ni  Ni93  1  0.50000000  0.08333333  0.02546414  1.0
  Ni  Ni94  1  0.50000000  0.41666667  0.02546414  1.0
  Ni  Ni95  1  0.50000000  0.75000000  0.02546414  1.0
  Ni  Ni96  1  0.83333333  0.08333333  0.02546414  1.0
  Ni  Ni97  1  0.83333333  0.41666667  0.02546414  1.0
  Ni  Ni98  1  0.83333333  0.75000000  0.02546414  1.0
  Ni  Ni99  1  0.16666667  0.25000000  0.08101969  1.0
  Ni  Ni100  1  0.16666667  0.58333333  0.08101969  1.0
  Ni  Ni101  1  0.16666667  0.91666667  0.08101969  1.0
  Ni  Ni102  1  0.50000000  0.25000000  0.08101969  1.0
  Ni  Ni103  1  0.50000000  0.58333333  0.08101969  1.0
  Ni  Ni104  1  0.50000000  0.91666667  0.08101969  1.0
  Ni  Ni105  1  0.83333333  0.25000000  0.08101969  1.0
  Ni  Ni106  1  0.83333333  0.58333333  0.08101969  1.0
  Ni  Ni107  1  0.83333333  0.91666667  0.08101969  1.0
  Ni  Ni108  1  0.13929400  0.06964700  0.07658792  1.0
  Ni  Ni109  1  0.13929400  0.40298033  0.07658792  1.0
  Ni  Ni110  1  0.13929400  0.73631367  0.07658792  1.0
  Ni  Ni111  1  0.47262733  0.06964700  0.07658792  1.0
  Ni  Ni112  1  0.47262733  0.40298033  0.07658792  1.0
  Ni  Ni113  1  0.47262733  0.73631367  0.07658792  1.0
  Ni  Ni114  1  0.80596067  0.06964700  0.07658792  1.0
  Ni  Ni115  1  0.80596067  0.40298033  0.07658792  1.0
  Ni  Ni116  1  0.80596067  0.73631367  0.07658792  1.0
  Ni  Ni117  1  0.13929400  0.23631367  0.02103236  1.0
  Ni  Ni118  1  0.13929400  0.56964700  0.02103236  1.0
  Ni  Ni119  1  0.13929400  0.90298033  0.02103236  1.0
  Ni  Ni120  1  0.47262733  0.23631367  0.02103236  1.0
  Ni  Ni121  1  0.47262733  0.56964700  0.02103236  1.0
  Ni  Ni122  1  0.47262733  0.90298033  0.02103236  1.0
  Ni  Ni123  1  0.80596067  0.23631367  0.02103236  1.0
  Ni  Ni124  1  0.80596067  0.56964700  0.02103236  1.0
  Ni  Ni125  1  0.80596067  0.90298033  0.02103236  1.0
  Ni  Ni126  1  0.30635167  0.06964700  0.02090203  1.0
  Ni  Ni127  1  0.30635167  0.40298033  0.02090203  1.0
  Ni  Ni128  1  0.30635167  0.73631367  0.02090203  1.0
  Ni  Ni129  1  0.63968500  0.06964700  0.02090203  1.0
  Ni  Ni130  1  0.63968500  0.40298033  0.02090203  1.0
  Ni  Ni131  1  0.63968500  0.73631367  0.02090203  1.0
  Ni  Ni132  1  0.97301833  0.06964700  0.02090203  1.0
  Ni  Ni133  1  0.97301833  0.40298033  0.02090203  1.0
  Ni  Ni134  1  0.97301833  0.73631367  0.02090203  1.0
  Ni  Ni135  1  0.30635167  0.23631367  0.07645758  1.0
  Ni  Ni136  1  0.30635167  0.56964700  0.07645758  1.0
  Ni  Ni137  1  0.30635167  0.90298033  0.07645758  1.0
  Ni  Ni138  1  0.63968500  0.23631367  0.07645758  1.0
  Ni  Ni139  1  0.63968500  0.56964700  0.07645758  1.0
  Ni  Ni140  1  0.63968500  0.90298033  0.07645758  1.0
  Ni  Ni141  1  0.97301833  0.23631367  0.07645758  1.0
  Ni  Ni142  1  0.97301833  0.56964700  0.07645758  1.0
  Ni  Ni143  1  0.97301833  0.90298033  0.07645758  1.0
  Ni  Ni144  1  0.22225233  0.11112617  0.03472842  1.0
  Ni  Ni145  1  0.22225233  0.44445950  0.03472842  1.0
  Ni  Ni146  1  0.22225233  0.77779283  0.03472842  1.0
  Ni  Ni147  1  0.55558567  0.11112617  0.03472842  1.0
  Ni  Ni148  1  0.55558567  0.44445950  0.03472842  1.0
  Ni  Ni149  1  0.55558567  0.77779283  0.03472842  1.0
  Ni  Ni150  1  0.88891900  0.11112617  0.03472842  1.0
  Ni  Ni151  1  0.88891900  0.44445950  0.03472842  1.0
  Ni  Ni152  1  0.88891900  0.77779283  0.03472842  1.0
  Ni  Ni153  1  0.22225233  0.27779283  0.09028397  1.0
  Ni  Ni154  1  0.22225233  0.61112617  0.09028397  1.0
  Ni  Ni155  1  0.22225233  0.94445950  0.09028397  1.0
  Ni  Ni156  1  0.55558567  0.27779283  0.09028397  1.0
  Ni  Ni157  1  0.55558567  0.61112617  0.09028397  1.0
  Ni  Ni158  1  0.55558567  0.94445950  0.09028397  1.0
  Ni  Ni159  1  0.88891900  0.27779283  0.09028397  1.0
  Ni  Ni160  1  0.88891900  0.61112617  0.09028397  1.0
  Ni  Ni161  1  0.88891900  0.94445950  0.09028397  1.0
  Ni  Ni162  1  0.19403933  0.09701967  0.08545147  1.0
  Ni  Ni163  1  0.19403933  0.43035300  0.08545147  1.0
  Ni  Ni164  1  0.19403933  0.76368633  0.08545147  1.0
  Ni  Ni165  1  0.52737267  0.09701967  0.08545147  1.0
  Ni  Ni166  1  0.52737267  0.43035300  0.08545147  1.0
  Ni  Ni167  1  0.52737267  0.76368633  0.08545147  1.0
  Ni  Ni168  1  0.86070600  0.09701967  0.08545147  1.0
  Ni  Ni169  1  0.86070600  0.43035300  0.08545147  1.0
  Ni  Ni170  1  0.86070600  0.76368633  0.08545147  1.0
  Ni  Ni171  1  0.19403933  0.26368633  0.02989592  1.0
  Ni  Ni172  1  0.19403933  0.59701967  0.02989592  1.0
  Ni  Ni173  1  0.19403933  0.93035300  0.02989592  1.0
  Ni  Ni174  1  0.52737267  0.26368633  0.02989592  1.0
  Ni  Ni175  1  0.52737267  0.59701967  0.02989592  1.0
  Ni  Ni176  1  0.52737267  0.93035300  0.02989592  1.0
  Ni  Ni177  1  0.86070600  0.26368633  0.02989592  1.0
  Ni  Ni178  1  0.86070600  0.59701967  0.02989592  1.0
  Ni  Ni179  1  0.86070600  0.93035300  0.02989592  1.0
  Ni  Ni180  1  0.11108100  0.05554050  0.01619986  1.0
  Ni  Ni181  1  0.11108100  0.38887383  0.01619986  1.0
  Ni  Ni182  1  0.11108100  0.72220717  0.01619986  1.0
  Ni  Ni183  1  0.44441433  0.05554050  0.01619986  1.0
  Ni  Ni184  1  0.44441433  0.38887383  0.01619986  1.0
  Ni  Ni185  1  0.44441433  0.72220717  0.01619986  1.0
  Ni  Ni186  1  0.77774767  0.05554050  0.01619986  1.0
  Ni  Ni187  1  0.77774767  0.38887383  0.01619986  1.0
  Ni  Ni188  1  0.77774767  0.72220717  0.01619986  1.0
  Ni  Ni189  1  0.11108100  0.22220717  0.07175542  1.0
  Ni  Ni190  1  0.11108100  0.55554050  0.07175542  1.0
  Ni  Ni191  1  0.11108100  0.88887383  0.07175542  1.0
  Ni  Ni192  1  0.44441433  0.22220717  0.07175542  1.0
  Ni  Ni193  1  0.44441433  0.55554050  0.07175542  1.0
  Ni  Ni194  1  0.44441433  0.88887383  0.07175542  1.0
  Ni  Ni195  1  0.77774767  0.22220717  0.07175542  1.0
  Ni  Ni196  1  0.77774767  0.55554050  0.07175542  1.0
  Ni  Ni197  1  0.77774767  0.88887383  0.07175542  1.0
  Ni  Ni198  1  0.13929400  0.15317583  0.10417019  1.0
  Ni  Ni199  1  0.13929400  0.48650917  0.10417019  1.0
  Ni  Ni200  1  0.13929400  0.81984250  0.10417019  1.0
  Ni  Ni201  1  0.47262733  0.15317583  0.10417019  1.0
  Ni  Ni202  1  0.47262733  0.48650917  0.10417019  1.0
  Ni  Ni203  1  0.47262733  0.81984250  0.10417019  1.0
  Ni  Ni204  1  0.80596067  0.15317583  0.10417019  1.0
  Ni  Ni205  1  0.80596067  0.48650917  0.10417019  1.0
  Ni  Ni206  1  0.80596067  0.81984250  0.10417019  1.0
  Ni  Ni207  1  0.13929400  0.31984250  0.04861464  1.0
  Ni  Ni208  1  0.13929400  0.65317583  0.04861464  1.0
  Ni  Ni209  1  0.13929400  0.98650917  0.04861464  1.0
  Ni  Ni210  1  0.47262733  0.31984250  0.04861464  1.0
  Ni  Ni211  1  0.47262733  0.65317583  0.04861464  1.0
  Ni  Ni212  1  0.47262733  0.98650917  0.04861464  1.0
  Ni  Ni213  1  0.80596067  0.31984250  0.04861464  1.0
  Ni  Ni214  1  0.80596067  0.65317583  0.04861464  1.0
  Ni  Ni215  1  0.80596067  0.98650917  0.04861464  1.0
  Y  Y216  1  0.04622367  0.02311183  0.11650142  1.0
  Y  Y217  1  0.04622367  0.35644517  0.11650142  1.0
  Y  Y218  1  0.04622367  0.68977850  0.11650142  1.0
  Y  Y219  1  0.37955700  0.02311183  0.11650142  1.0
  Y  Y220  1  0.37955700  0.35644517  0.11650142  1.0
  Y  Y221  1  0.37955700  0.68977850  0.11650142  1.0
  Y  Y222  1  0.71289033  0.02311183  0.11650142  1.0
  Y  Y223  1  0.71289033  0.35644517  0.11650142  1.0
  Y  Y224  1  0.71289033  0.68977850  0.11650142  1.0
  Y  Y225  1  0.04622367  0.18977850  0.17205697  1.0
  Y  Y226  1  0.04622367  0.52311183  0.17205697  1.0
  Y  Y227  1  0.04622367  0.85644517  0.17205697  1.0
  Y  Y228  1  0.37955700  0.18977850  0.17205697  1.0
  Y  Y229  1  0.37955700  0.52311183  0.17205697  1.0
  Y  Y230  1  0.37955700  0.85644517  0.17205697  1.0
  Y  Y231  1  0.71289033  0.18977850  0.17205697  1.0
  Y  Y232  1  0.71289033  0.52311183  0.17205697  1.0
  Y  Y233  1  0.71289033  0.85644517  0.17205697  1.0
  Y  Y234  1  0.28710967  0.14355483  0.15664908  1.0
  Y  Y235  1  0.28710967  0.47688817  0.15664908  1.0
  Y  Y236  1  0.28710967  0.81022150  0.15664908  1.0
  Y  Y237  1  0.62044300  0.14355483  0.15664908  1.0
  Y  Y238  1  0.62044300  0.47688817  0.15664908  1.0
  Y  Y239  1  0.62044300  0.81022150  0.15664908  1.0
  Y  Y240  1  0.95377633  0.14355483  0.15664908  1.0
  Y  Y241  1  0.95377633  0.47688817  0.15664908  1.0
  Y  Y242  1  0.95377633  0.81022150  0.15664908  1.0
  Y  Y243  1  0.28710967  0.31022150  0.21220464  1.0
  Y  Y244  1  0.28710967  0.64355483  0.21220464  1.0
  Y  Y245  1  0.28710967  0.97688817  0.21220464  1.0
  Y  Y246  1  0.62044300  0.31022150  0.21220464  1.0
  Y  Y247  1  0.62044300  0.64355483  0.21220464  1.0
  Y  Y248  1  0.62044300  0.97688817  0.21220464  1.0
  Y  Y249  1  0.95377633  0.31022150  0.21220464  1.0
  Y  Y250  1  0.95377633  0.64355483  0.21220464  1.0
  Y  Y251  1  0.95377633  0.97688817  0.21220464  1.0
  Y  Y252  1  0.00000000  0.00000000  0.21990858  1.0
  Y  Y253  1  0.00000000  0.33333333  0.21990858  1.0
  Y  Y254  1  0.00000000  0.66666667  0.21990858  1.0
  Y  Y255  1  0.33333333  0.00000000  0.21990858  1.0
  Y  Y256  1  0.33333333  0.33333333  0.21990858  1.0
  Y  Y257  1  0.33333333  0.66666667  0.21990858  1.0
  Y  Y258  1  0.66666667  0.00000000  0.21990858  1.0
  Y  Y259  1  0.66666667  0.33333333  0.21990858  1.0
  Y  Y260  1  0.66666667  0.66666667  0.21990858  1.0
  Y  Y261  1  0.00000000  0.16666667  0.16435303  1.0
  Y  Y262  1  0.00000000  0.50000000  0.16435303  1.0
  Y  Y263  1  0.00000000  0.83333333  0.16435303  1.0
  Y  Y264  1  0.33333333  0.16666667  0.16435303  1.0
  Y  Y265  1  0.33333333  0.50000000  0.16435303  1.0
  Y  Y266  1  0.33333333  0.83333333  0.16435303  1.0
  Y  Y267  1  0.66666667  0.16666667  0.16435303  1.0
  Y  Y268  1  0.66666667  0.50000000  0.16435303  1.0
  Y  Y269  1  0.66666667  0.83333333  0.16435303  1.0
  Ni  Ni270  1  0.02698167  0.09701967  0.14113736  1.0
  Ni  Ni271  1  0.02698167  0.43035300  0.14113736  1.0
  Ni  Ni272  1  0.02698167  0.76368633  0.14113736  1.0
  Ni  Ni273  1  0.36031500  0.09701967  0.14113736  1.0
  Ni  Ni274  1  0.36031500  0.43035300  0.14113736  1.0
  Ni  Ni275  1  0.36031500  0.76368633  0.14113736  1.0
  Ni  Ni276  1  0.69364833  0.09701967  0.14113736  1.0
  Ni  Ni277  1  0.69364833  0.43035300  0.14113736  1.0
  Ni  Ni278  1  0.69364833  0.76368633  0.14113736  1.0
  Ni  Ni279  1  0.02698167  0.26368633  0.19669292  1.0
  Ni  Ni280  1  0.02698167  0.59701967  0.19669292  1.0
  Ni  Ni281  1  0.02698167  0.93035300  0.19669292  1.0
  Ni  Ni282  1  0.36031500  0.26368633  0.19669292  1.0
  Ni  Ni283  1  0.36031500  0.59701967  0.19669292  1.0
  Ni  Ni284  1  0.36031500  0.93035300  0.19669292  1.0
  Ni  Ni285  1  0.69364833  0.26368633  0.19669292  1.0
  Ni  Ni286  1  0.69364833  0.59701967  0.19669292  1.0
  Ni  Ni287  1  0.69364833  0.93035300  0.19669292  1.0
  Ni  Ni288  1  0.19403933  0.01349083  0.16898031  1.0
  Ni  Ni289  1  0.19403933  0.34682417  0.16898031  1.0
  Ni  Ni290  1  0.19403933  0.68015750  0.16898031  1.0
  Ni  Ni291  1  0.52737267  0.01349083  0.16898031  1.0
  Ni  Ni292  1  0.52737267  0.34682417  0.16898031  1.0
  Ni  Ni293  1  0.52737267  0.68015750  0.16898031  1.0
  Ni  Ni294  1  0.86070600  0.01349083  0.16898031  1.0
  Ni  Ni295  1  0.86070600  0.34682417  0.16898031  1.0
  Ni  Ni296  1  0.86070600  0.68015750  0.16898031  1.0
  Ni  Ni297  1  0.19403933  0.18015750  0.11342475  1.0
  Ni  Ni298  1  0.19403933  0.51349083  0.11342475  1.0
  Ni  Ni299  1  0.19403933  0.84682417  0.11342475  1.0
  Ni  Ni300  1  0.52737267  0.18015750  0.11342475  1.0
  Ni  Ni301  1  0.52737267  0.51349083  0.11342475  1.0
  Ni  Ni302  1  0.52737267  0.84682417  0.11342475  1.0
  Ni  Ni303  1  0.86070600  0.18015750  0.11342475  1.0
  Ni  Ni304  1  0.86070600  0.51349083  0.11342475  1.0
  Ni  Ni305  1  0.86070600  0.84682417  0.11342475  1.0
  Ni  Ni306  1  0.16666667  0.08333333  0.13657525  1.0
  Ni  Ni307  1  0.16666667  0.41666667  0.13657525  1.0
  Ni  Ni308  1  0.16666667  0.75000000  0.13657525  1.0
  Ni  Ni309  1  0.50000000  0.08333333  0.13657525  1.0
  Ni  Ni310  1  0.50000000  0.41666667  0.13657525  1.0
  Ni  Ni311  1  0.50000000  0.75000000  0.13657525  1.0
  Ni  Ni312  1  0.83333333  0.08333333  0.13657525  1.0
  Ni  Ni313  1  0.83333333  0.41666667  0.13657525  1.0
  Ni  Ni314  1  0.83333333  0.75000000  0.13657525  1.0
  Ni  Ni315  1  0.16666667  0.25000000  0.19213081  1.0
  Ni  Ni316  1  0.16666667  0.58333333  0.19213081  1.0
  Ni  Ni317  1  0.16666667  0.91666667  0.19213081  1.0
  Ni  Ni318  1  0.50000000  0.25000000  0.19213081  1.0
  Ni  Ni319  1  0.50000000  0.58333333  0.19213081  1.0
  Ni  Ni320  1  0.50000000  0.91666667  0.19213081  1.0
  Ni  Ni321  1  0.83333333  0.25000000  0.19213081  1.0
  Ni  Ni322  1  0.83333333  0.58333333  0.19213081  1.0
  Ni  Ni323  1  0.83333333  0.91666667  0.19213081  1.0
  Ni  Ni324  1  0.13929400  0.06964700  0.18769903  1.0
  Ni  Ni325  1  0.13929400  0.40298033  0.18769903  1.0
  Ni  Ni326  1  0.13929400  0.73631367  0.18769903  1.0
  Ni  Ni327  1  0.47262733  0.06964700  0.18769903  1.0
  Ni  Ni328  1  0.47262733  0.40298033  0.18769903  1.0
  Ni  Ni329  1  0.47262733  0.73631367  0.18769903  1.0
  Ni  Ni330  1  0.80596067  0.06964700  0.18769903  1.0
  Ni  Ni331  1  0.80596067  0.40298033  0.18769903  1.0
  Ni  Ni332  1  0.80596067  0.73631367  0.18769903  1.0
  Ni  Ni333  1  0.13929400  0.23631367  0.13214347  1.0
  Ni  Ni334  1  0.13929400  0.56964700  0.13214347  1.0
  Ni  Ni335  1  0.13929400  0.90298033  0.13214347  1.0
  Ni  Ni336  1  0.47262733  0.23631367  0.13214347  1.0
  Ni  Ni337  1  0.47262733  0.56964700  0.13214347  1.0
  Ni  Ni338  1  0.47262733  0.90298033  0.13214347  1.0
  Ni  Ni339  1  0.80596067  0.23631367  0.13214347  1.0
  Ni  Ni340  1  0.80596067  0.56964700  0.13214347  1.0
  Ni  Ni341  1  0.80596067  0.90298033  0.13214347  1.0
  Ni  Ni342  1  0.30635167  0.06964700  0.13201314  1.0
  Ni  Ni343  1  0.30635167  0.40298033  0.13201314  1.0
  Ni  Ni344  1  0.30635167  0.73631367  0.13201314  1.0
  Ni  Ni345  1  0.63968500  0.06964700  0.13201314  1.0
  Ni  Ni346  1  0.63968500  0.40298033  0.13201314  1.0
  Ni  Ni347  1  0.63968500  0.73631367  0.13201314  1.0
  Ni  Ni348  1  0.97301833  0.06964700  0.13201314  1.0
  Ni  Ni349  1  0.97301833  0.40298033  0.13201314  1.0
  Ni  Ni350  1  0.97301833  0.73631367  0.13201314  1.0
  Ni  Ni351  1  0.30635167  0.23631367  0.18756869  1.0
  Ni  Ni352  1  0.30635167  0.56964700  0.18756869  1.0
  Ni  Ni353  1  0.30635167  0.90298033  0.18756869  1.0
  Ni  Ni354  1  0.63968500  0.23631367  0.18756869  1.0
  Ni  Ni355  1  0.63968500  0.56964700  0.18756869  1.0
  Ni  Ni356  1  0.63968500  0.90298033  0.18756869  1.0
  Ni  Ni357  1  0.97301833  0.23631367  0.18756869  1.0
  Ni  Ni358  1  0.97301833  0.56964700  0.18756869  1.0
  Ni  Ni359  1  0.97301833  0.90298033  0.18756869  1.0
  Ni  Ni360  1  0.22225233  0.11112617  0.14583953  1.0
  Ni  Ni361  1  0.22225233  0.44445950  0.14583953  1.0
  Ni  Ni362  1  0.22225233  0.77779283  0.14583953  1.0
  Ni  Ni363  1  0.55558567  0.11112617  0.14583953  1.0
  Ni  Ni364  1  0.55558567  0.44445950  0.14583953  1.0
  Ni  Ni365  1  0.55558567  0.77779283  0.14583953  1.0
  Ni  Ni366  1  0.88891900  0.11112617  0.14583953  1.0
  Ni  Ni367  1  0.88891900  0.44445950  0.14583953  1.0
  Ni  Ni368  1  0.88891900  0.77779283  0.14583953  1.0
  Ni  Ni369  1  0.22225233  0.27779283  0.20139508  1.0
  Ni  Ni370  1  0.22225233  0.61112617  0.20139508  1.0
  Ni  Ni371  1  0.22225233  0.94445950  0.20139508  1.0
  Ni  Ni372  1  0.55558567  0.27779283  0.20139508  1.0
  Ni  Ni373  1  0.55558567  0.61112617  0.20139508  1.0
  Ni  Ni374  1  0.55558567  0.94445950  0.20139508  1.0
  Ni  Ni375  1  0.88891900  0.27779283  0.20139508  1.0
  Ni  Ni376  1  0.88891900  0.61112617  0.20139508  1.0
  Ni  Ni377  1  0.88891900  0.94445950  0.20139508  1.0
  Ni  Ni378  1  0.19403933  0.09701967  0.19656258  1.0
  Ni  Ni379  1  0.19403933  0.43035300  0.19656258  1.0
  Ni  Ni380  1  0.19403933  0.76368633  0.19656258  1.0
  Ni  Ni381  1  0.52737267  0.09701967  0.19656258  1.0
  Ni  Ni382  1  0.52737267  0.43035300  0.19656258  1.0
  Ni  Ni383  1  0.52737267  0.76368633  0.19656258  1.0
  Ni  Ni384  1  0.86070600  0.09701967  0.19656258  1.0
  Ni  Ni385  1  0.86070600  0.43035300  0.19656258  1.0
  Ni  Ni386  1  0.86070600  0.76368633  0.19656258  1.0
  Ni  Ni387  1  0.19403933  0.26368633  0.14100703  1.0
  Ni  Ni388  1  0.19403933  0.59701967  0.14100703  1.0
  Ni  Ni389  1  0.19403933  0.93035300  0.14100703  1.0
  Ni  Ni390  1  0.52737267  0.26368633  0.14100703  1.0
  Ni  Ni391  1  0.52737267  0.59701967  0.14100703  1.0
  Ni  Ni392  1  0.52737267  0.93035300  0.14100703  1.0
  Ni  Ni393  1  0.86070600  0.26368633  0.14100703  1.0
  Ni  Ni394  1  0.86070600  0.59701967  0.14100703  1.0
  Ni  Ni395  1  0.86070600  0.93035300  0.14100703  1.0
  Ni  Ni396  1  0.11108100  0.05554050  0.12731097  1.0
  Ni  Ni397  1  0.11108100  0.38887383  0.12731097  1.0
  Ni  Ni398  1  0.11108100  0.72220717  0.12731097  1.0
  Ni  Ni399  1  0.44441433  0.05554050  0.12731097  1.0
  Ni  Ni400  1  0.44441433  0.38887383  0.12731097  1.0
  Ni  Ni401  1  0.44441433  0.72220717  0.12731097  1.0
  Ni  Ni402  1  0.77774767  0.05554050  0.12731097  1.0
  Ni  Ni403  1  0.77774767  0.38887383  0.12731097  1.0
  Ni  Ni404  1  0.77774767  0.72220717  0.12731097  1.0
  Ni  Ni405  1  0.11108100  0.22220717  0.18286653  1.0
  Ni  Ni406  1  0.11108100  0.55554050  0.18286653  1.0
  Ni  Ni407  1  0.11108100  0.88887383  0.18286653  1.0
  Ni  Ni408  1  0.44441433  0.22220717  0.18286653  1.0
  Ni  Ni409  1  0.44441433  0.55554050  0.18286653  1.0
  Ni  Ni410  1  0.44441433  0.88887383  0.18286653  1.0
  Ni  Ni411  1  0.77774767  0.22220717  0.18286653  1.0
  Ni  Ni412  1  0.77774767  0.55554050  0.18286653  1.0
  Ni  Ni413  1  0.77774767  0.88887383  0.18286653  1.0
  Ni  Ni414  1  0.13929400  0.15317583  0.21528131  1.0
  Ni  Ni415  1  0.13929400  0.48650917  0.21528131  1.0
  Ni  Ni416  1  0.13929400  0.81984250  0.21528131  1.0
  Ni  Ni417  1  0.47262733  0.15317583  0.21528131  1.0
  Ni  Ni418  1  0.47262733  0.48650917  0.21528131  1.0
  Ni  Ni419  1  0.47262733  0.81984250  0.21528131  1.0
  Ni  Ni420  1  0.80596067  0.15317583  0.21528131  1.0
  Ni  Ni421  1  0.80596067  0.48650917  0.21528131  1.0
  Ni  Ni422  1  0.80596067  0.81984250  0.21528131  1.0
  Ni  Ni423  1  0.13929400  0.31984250  0.15972575  1.0
  Ni  Ni424  1  0.13929400  0.65317583  0.15972575  1.0
  Ni  Ni425  1  0.13929400  0.98650917  0.15972575  1.0
  Ni  Ni426  1  0.47262733  0.31984250  0.15972575  1.0
  Ni  Ni427  1  0.47262733  0.65317583  0.15972575  1.0
  Ni  Ni428  1  0.47262733  0.98650917  0.15972575  1.0
  Ni  Ni429  1  0.80596067  0.31984250  0.15972575  1.0
  Ni  Ni430  1  0.80596067  0.65317583  0.15972575  1.0
  Ni  Ni431  1  0.80596067  0.98650917  0.15972575  1.0
  Y  Y432  1  0.04622367  0.02311183  0.22761253  1.0
  Y  Y433  1  0.04622367  0.35644517  0.22761253  1.0
  Y  Y434  1  0.04622367  0.68977850  0.22761253  1.0
  Y  Y435  1  0.37955700  0.02311183  0.22761253  1.0
  Y  Y436  1  0.37955700  0.35644517  0.22761253  1.0
  Y  Y437  1  0.37955700  0.68977850  0.22761253  1.0
  Y  Y438  1  0.71289033  0.02311183  0.22761253  1.0
  Y  Y439  1  0.71289033  0.35644517  0.22761253  1.0
  Y  Y440  1  0.71289033  0.68977850  0.22761253  1.0
  Y  Y441  1  0.04622367  0.18977850  0.28316808  1.0
  Y  Y442  1  0.04622367  0.52311183  0.28316808  1.0
  Y  Y443  1  0.04622367  0.85644517  0.28316808  1.0
  Y  Y444  1  0.37955700  0.18977850  0.28316808  1.0
  Y  Y445  1  0.37955700  0.52311183  0.28316808  1.0
  Y  Y446  1  0.37955700  0.85644517  0.28316808  1.0
  Y  Y447  1  0.71289033  0.18977850  0.28316808  1.0
  Y  Y448  1  0.71289033  0.52311183  0.28316808  1.0
  Y  Y449  1  0.71289033  0.85644517  0.28316808  1.0
  Y  Y450  1  0.28710967  0.14355483  0.26776019  1.0
  Y  Y451  1  0.28710967  0.47688817  0.26776019  1.0
  Y  Y452  1  0.28710967  0.81022150  0.26776019  1.0
  Y  Y453  1  0.62044300  0.14355483  0.26776019  1.0
  Y  Y454  1  0.62044300  0.47688817  0.26776019  1.0
  Y  Y455  1  0.62044300  0.81022150  0.26776019  1.0
  Y  Y456  1  0.95377633  0.14355483  0.26776019  1.0
  Y  Y457  1  0.95377633  0.47688817  0.26776019  1.0
  Y  Y458  1  0.95377633  0.81022150  0.26776019  1.0
  Y  Y459  1  0.28710967  0.31022150  0.32331575  1.0
  Y  Y460  1  0.28710967  0.64355483  0.32331575  1.0
  Y  Y461  1  0.28710967  0.97688817  0.32331575  1.0
  Y  Y462  1  0.62044300  0.31022150  0.32331575  1.0
  Y  Y463  1  0.62044300  0.64355483  0.32331575  1.0
  Y  Y464  1  0.62044300  0.97688817  0.32331575  1.0
  Y  Y465  1  0.95377633  0.31022150  0.32331575  1.0
  Y  Y466  1  0.95377633  0.64355483  0.32331575  1.0
  Y  Y467  1  0.95377633  0.97688817  0.32331575  1.0
  Y  Y468  1  0.00000000  0.00000000  0.33101969  1.0
  Y  Y469  1  0.00000000  0.33333333  0.33101969  1.0
  Y  Y470  1  0.00000000  0.66666667  0.33101969  1.0
  Y  Y471  1  0.33333333  0.00000000  0.33101969  1.0
  Y  Y472  1  0.33333333  0.33333333  0.33101969  1.0
  Y  Y473  1  0.33333333  0.66666667  0.33101969  1.0
  Y  Y474  1  0.66666667  0.00000000  0.33101969  1.0
  Y  Y475  1  0.66666667  0.33333333  0.33101969  1.0
  Y  Y476  1  0.66666667  0.66666667  0.33101969  1.0
  Y  Y477  1  0.00000000  0.16666667  0.27546414  1.0
  Y  Y478  1  0.00000000  0.50000000  0.27546414  1.0
  Y  Y479  1  0.00000000  0.83333333  0.27546414  1.0
  Y  Y480  1  0.33333333  0.16666667  0.27546414  1.0
  Y  Y481  1  0.33333333  0.50000000  0.27546414  1.0
  Y  Y482  1  0.33333333  0.83333333  0.27546414  1.0
  Y  Y483  1  0.66666667  0.16666667  0.27546414  1.0
  Y  Y484  1  0.66666667  0.50000000  0.27546414  1.0
  Y  Y485  1  0.66666667  0.83333333  0.27546414  1.0
  Ni  Ni486  1  0.02698167  0.09701967  0.25224847  1.0
  Ni  Ni487  1  0.02698167  0.43035300  0.25224847  1.0
  Ni  Ni488  1  0.02698167  0.76368633  0.25224847  1.0
  Ni  Ni489  1  0.36031500  0.09701967  0.25224847  1.0
  Ni  Ni490  1  0.36031500  0.43035300  0.25224847  1.0
  Ni  Ni491  1  0.36031500  0.76368633  0.25224847  1.0
  Ni  Ni492  1  0.69364833  0.09701967  0.25224847  1.0
  Ni  Ni493  1  0.69364833  0.43035300  0.25224847  1.0
  Ni  Ni494  1  0.69364833  0.76368633  0.25224847  1.0
  Ni  Ni495  1  0.02698167  0.26368633  0.30780403  1.0
  Ni  Ni496  1  0.02698167  0.59701967  0.30780403  1.0
  Ni  Ni497  1  0.02698167  0.93035300  0.30780403  1.0
  Ni  Ni498  1  0.36031500  0.26368633  0.30780403  1.0
  Ni  Ni499  1  0.36031500  0.59701967  0.30780403  1.0
  Ni  Ni500  1  0.36031500  0.93035300  0.30780403  1.0
  Ni  Ni501  1  0.69364833  0.26368633  0.30780403  1.0
  Ni  Ni502  1  0.69364833  0.59701967  0.30780403  1.0
  Ni  Ni503  1  0.69364833  0.93035300  0.30780403  1.0
  Ni  Ni504  1  0.19403933  0.01349083  0.28009142  1.0
  Ni  Ni505  1  0.19403933  0.34682417  0.28009142  1.0
  Ni  Ni506  1  0.19403933  0.68015750  0.28009142  1.0
  Ni  Ni507  1  0.52737267  0.01349083  0.28009142  1.0
  Ni  Ni508  1  0.52737267  0.34682417  0.28009142  1.0
  Ni  Ni509  1  0.52737267  0.68015750  0.28009142  1.0
  Ni  Ni510  1  0.86070600  0.01349083  0.28009142  1.0
  Ni  Ni511  1  0.86070600  0.34682417  0.28009142  1.0
  Ni  Ni512  1  0.86070600  0.68015750  0.28009142  1.0
  Ni  Ni513  1  0.19403933  0.18015750  0.22453586  1.0
  Ni  Ni514  1  0.19403933  0.51349083  0.22453586  1.0
  Ni  Ni515  1  0.19403933  0.84682417  0.22453586  1.0
  Ni  Ni516  1  0.52737267  0.18015750  0.22453586  1.0
  Ni  Ni517  1  0.52737267  0.51349083  0.22453586  1.0
  Ni  Ni518  1  0.52737267  0.84682417  0.22453586  1.0
  Ni  Ni519  1  0.86070600  0.18015750  0.22453586  1.0
  Ni  Ni520  1  0.86070600  0.51349083  0.22453586  1.0
  Ni  Ni521  1  0.86070600  0.84682417  0.22453586  1.0
  Ni  Ni522  1  0.16666667  0.08333333  0.24768636  1.0
  Ni  Ni523  1  0.16666667  0.41666667  0.24768636  1.0
  Ni  Ni524  1  0.16666667  0.75000000  0.24768636  1.0
  Ni  Ni525  1  0.50000000  0.08333333  0.24768636  1.0
  Ni  Ni526  1  0.50000000  0.41666667  0.24768636  1.0
  Ni  Ni527  1  0.50000000  0.75000000  0.24768636  1.0
  Ni  Ni528  1  0.83333333  0.08333333  0.24768636  1.0
  Ni  Ni529  1  0.83333333  0.41666667  0.24768636  1.0
  Ni  Ni530  1  0.83333333  0.75000000  0.24768636  1.0
  Ni  Ni531  1  0.16666667  0.25000000  0.30324192  1.0
  Ni  Ni532  1  0.16666667  0.58333333  0.30324192  1.0
  Ni  Ni533  1  0.16666667  0.91666667  0.30324192  1.0
  Ni  Ni534  1  0.50000000  0.25000000  0.30324192  1.0
  Ni  Ni535  1  0.50000000  0.58333333  0.30324192  1.0
  Ni  Ni536  1  0.50000000  0.91666667  0.30324192  1.0
  Ni  Ni537  1  0.83333333  0.25000000  0.30324192  1.0
  Ni  Ni538  1  0.83333333  0.58333333  0.30324192  1.0
  Ni  Ni539  1  0.83333333  0.91666667  0.30324192  1.0
  Ni  Ni540  1  0.13929400  0.06964700  0.29881014  1.0
  Ni  Ni541  1  0.13929400  0.40298033  0.29881014  1.0
  Ni  Ni542  1  0.13929400  0.73631367  0.29881014  1.0
  Ni  Ni543  1  0.47262733  0.06964700  0.29881014  1.0
  Ni  Ni544  1  0.47262733  0.40298033  0.29881014  1.0
  Ni  Ni545  1  0.47262733  0.73631367  0.29881014  1.0
  Ni  Ni546  1  0.80596067  0.06964700  0.29881014  1.0
  Ni  Ni547  1  0.80596067  0.40298033  0.29881014  1.0
  Ni  Ni548  1  0.80596067  0.73631367  0.29881014  1.0
  Ni  Ni549  1  0.13929400  0.23631367  0.24325458  1.0
  Ni  Ni550  1  0.13929400  0.56964700  0.24325458  1.0
  Ni  Ni551  1  0.13929400  0.90298033  0.24325458  1.0
  Ni  Ni552  1  0.47262733  0.23631367  0.24325458  1.0
  Ni  Ni553  1  0.47262733  0.56964700  0.24325458  1.0
  Ni  Ni554  1  0.47262733  0.90298033  0.24325458  1.0
  Ni  Ni555  1  0.80596067  0.23631367  0.24325458  1.0
  Ni  Ni556  1  0.80596067  0.56964700  0.24325458  1.0
  Ni  Ni557  1  0.80596067  0.90298033  0.24325458  1.0
  Ni  Ni558  1  0.30635167  0.06964700  0.24312425  1.0
  Ni  Ni559  1  0.30635167  0.40298033  0.24312425  1.0
  Ni  Ni560  1  0.30635167  0.73631367  0.24312425  1.0
  Ni  Ni561  1  0.63968500  0.06964700  0.24312425  1.0
  Ni  Ni562  1  0.63968500  0.40298033  0.24312425  1.0
  Ni  Ni563  1  0.63968500  0.73631367  0.24312425  1.0
  Ni  Ni564  1  0.97301833  0.06964700  0.24312425  1.0
  Ni  Ni565  1  0.97301833  0.40298033  0.24312425  1.0
  Ni  Ni566  1  0.97301833  0.73631367  0.24312425  1.0
  Ni  Ni567  1  0.30635167  0.23631367  0.29867981  1.0
  Ni  Ni568  1  0.30635167  0.56964700  0.29867981  1.0
  Ni  Ni569  1  0.30635167  0.90298033  0.29867981  1.0
  Ni  Ni570  1  0.63968500  0.23631367  0.29867981  1.0
  Ni  Ni571  1  0.63968500  0.56964700  0.29867981  1.0
  Ni  Ni572  1  0.63968500  0.90298033  0.29867981  1.0
  Ni  Ni573  1  0.97301833  0.23631367  0.29867981  1.0
  Ni  Ni574  1  0.97301833  0.56964700  0.29867981  1.0
  Ni  Ni575  1  0.97301833  0.90298033  0.29867981  1.0
  Ni  Ni576  1  0.22225233  0.11112617  0.25695064  1.0
  Ni  Ni577  1  0.22225233  0.44445950  0.25695064  1.0
  Ni  Ni578  1  0.22225233  0.77779283  0.25695064  1.0
  Ni  Ni579  1  0.55558567  0.11112617  0.25695064  1.0
  Ni  Ni580  1  0.55558567  0.44445950  0.25695064  1.0
  Ni  Ni581  1  0.55558567  0.77779283  0.25695064  1.0
  Ni  Ni582  1  0.88891900  0.11112617  0.25695064  1.0
  Ni  Ni583  1  0.88891900  0.44445950  0.25695064  1.0
  Ni  Ni584  1  0.88891900  0.77779283  0.25695064  1.0
  Ni  Ni585  1  0.22225233  0.27779283  0.31250619  1.0
  Ni  Ni586  1  0.22225233  0.61112617  0.31250619  1.0
  Ni  Ni587  1  0.22225233  0.94445950  0.31250619  1.0
  Ni  Ni588  1  0.55558567  0.27779283  0.31250619  1.0
  Ni  Ni589  1  0.55558567  0.61112617  0.31250619  1.0
  Ni  Ni590  1  0.55558567  0.94445950  0.31250619  1.0
  Ni  Ni591  1  0.88891900  0.27779283  0.31250619  1.0
  Ni  Ni592  1  0.88891900  0.61112617  0.31250619  1.0
  Ni  Ni593  1  0.88891900  0.94445950  0.31250619  1.0
  Ni  Ni594  1  0.19403933  0.09701967  0.30767369  1.0
  Ni  Ni595  1  0.19403933  0.43035300  0.30767369  1.0
  Ni  Ni596  1  0.19403933  0.76368633  0.30767369  1.0
  Ni  Ni597  1  0.52737267  0.09701967  0.30767369  1.0
  Ni  Ni598  1  0.52737267  0.43035300  0.30767369  1.0
  Ni  Ni599  1  0.52737267  0.76368633  0.30767369  1.0
  Ni  Ni600  1  0.86070600  0.09701967  0.30767369  1.0
  Ni  Ni601  1  0.86070600  0.43035300  0.30767369  1.0
  Ni  Ni602  1  0.86070600  0.76368633  0.30767369  1.0
  Ni  Ni603  1  0.19403933  0.26368633  0.25211814  1.0
  Ni  Ni604  1  0.19403933  0.59701967  0.25211814  1.0
  Ni  Ni605  1  0.19403933  0.93035300  0.25211814  1.0
  Ni  Ni606  1  0.52737267  0.26368633  0.25211814  1.0
  Ni  Ni607  1  0.52737267  0.59701967  0.25211814  1.0
  Ni  Ni608  1  0.52737267  0.93035300  0.25211814  1.0
  Ni  Ni609  1  0.86070600  0.26368633  0.25211814  1.0
  Ni  Ni610  1  0.86070600  0.59701967  0.25211814  1.0
  Ni  Ni611  1  0.86070600  0.93035300  0.25211814  1.0
  Ni  Ni612  1  0.11108100  0.05554050  0.23842208  1.0
  Ni  Ni613  1  0.11108100  0.38887383  0.23842208  1.0
  Ni  Ni614  1  0.11108100  0.72220717  0.23842208  1.0
  Ni  Ni615  1  0.44441433  0.05554050  0.23842208  1.0
  Ni  Ni616  1  0.44441433  0.38887383  0.23842208  1.0
  Ni  Ni617  1  0.44441433  0.72220717  0.23842208  1.0
  Ni  Ni618  1  0.77774767  0.05554050  0.23842208  1.0
  Ni  Ni619  1  0.77774767  0.38887383  0.23842208  1.0
  Ni  Ni620  1  0.77774767  0.72220717  0.23842208  1.0
  Ni  Ni621  1  0.11108100  0.22220717  0.29397764  1.0
  Ni  Ni622  1  0.11108100  0.55554050  0.29397764  1.0
  Ni  Ni623  1  0.11108100  0.88887383  0.29397764  1.0
  Ni  Ni624  1  0.44441433  0.22220717  0.29397764  1.0
  Ni  Ni625  1  0.44441433  0.55554050  0.29397764  1.0
  Ni  Ni626  1  0.44441433  0.88887383  0.29397764  1.0
  Ni  Ni627  1  0.77774767  0.22220717  0.29397764  1.0
  Ni  Ni628  1  0.77774767  0.55554050  0.29397764  1.0
  Ni  Ni629  1  0.77774767  0.88887383  0.29397764  1.0
  Ni  Ni630  1  0.13929400  0.15317583  0.32639242  1.0
  Ni  Ni631  1  0.13929400  0.48650917  0.32639242  1.0
  Ni  Ni632  1  0.13929400  0.81984250  0.32639242  1.0
  Ni  Ni633  1  0.47262733  0.15317583  0.32639242  1.0
  Ni  Ni634  1  0.47262733  0.48650917  0.32639242  1.0
  Ni  Ni635  1  0.47262733  0.81984250  0.32639242  1.0
  Ni  Ni636  1  0.80596067  0.15317583  0.32639242  1.0
  Ni  Ni637  1  0.80596067  0.48650917  0.32639242  1.0
  Ni  Ni638  1  0.80596067  0.81984250  0.32639242  1.0
  Ni  Ni639  1  0.13929400  0.31984250  0.27083686  1.0
  Ni  Ni640  1  0.13929400  0.65317583  0.27083686  1.0
  Ni  Ni641  1  0.13929400  0.98650917  0.27083686  1.0
  Ni  Ni642  1  0.47262733  0.31984250  0.27083686  1.0
  Ni  Ni643  1  0.47262733  0.65317583  0.27083686  1.0
  Ni  Ni644  1  0.47262733  0.98650917  0.27083686  1.0
  Ni  Ni645  1  0.80596067  0.31984250  0.27083686  1.0
  Ni  Ni646  1  0.80596067  0.65317583  0.27083686  1.0
  Ni  Ni647  1  0.80596067  0.98650917  0.27083686  1.0
  Y  Y648  1  0.04622367  0.02311183  0.33872364  1.0
  Y  Y649  1  0.04622367  0.35644517  0.33872364  1.0
  Y  Y650  1  0.04622367  0.68977850  0.33872364  1.0
  Y  Y651  1  0.37955700  0.02311183  0.33872364  1.0
  Y  Y652  1  0.37955700  0.35644517  0.33872364  1.0
  Y  Y653  1  0.37955700  0.68977850  0.33872364  1.0
  Y  Y654  1  0.71289033  0.02311183  0.33872364  1.0
  Y  Y655  1  0.71289033  0.35644517  0.33872364  1.0
  Y  Y656  1  0.71289033  0.68977850  0.33872364  1.0
  Y  Y657  1  0.04622367  0.18977850  0.39427919  1.0
  Y  Y658  1  0.04622367  0.52311183  0.39427919  1.0
  Y  Y659  1  0.04622367  0.85644517  0.39427919  1.0
  Y  Y660  1  0.37955700  0.18977850  0.39427919  1.0
  Y  Y661  1  0.37955700  0.52311183  0.39427919  1.0
  Y  Y662  1  0.37955700  0.85644517  0.39427919  1.0
  Y  Y663  1  0.71289033  0.18977850  0.39427919  1.0
  Y  Y664  1  0.71289033  0.52311183  0.39427919  1.0
  Y  Y665  1  0.71289033  0.85644517  0.39427919  1.0
  Y  Y666  1  0.28710967  0.14355483  0.37887131  1.0
  Y  Y667  1  0.28710967  0.47688817  0.37887131  1.0
  Y  Y668  1  0.28710967  0.81022150  0.37887131  1.0
  Y  Y669  1  0.62044300  0.14355483  0.37887131  1.0
  Y  Y670  1  0.62044300  0.47688817  0.37887131  1.0
  Y  Y671  1  0.62044300  0.81022150  0.37887131  1.0
  Y  Y672  1  0.95377633  0.14355483  0.37887131  1.0
  Y  Y673  1  0.95377633  0.47688817  0.37887131  1.0
  Y  Y674  1  0.95377633  0.81022150  0.37887131  1.0
  Y  Y675  1  0.28710967  0.31022150  0.43442686  1.0
  Y  Y676  1  0.28710967  0.64355483  0.43442686  1.0
  Y  Y677  1  0.28710967  0.97688817  0.43442686  1.0
  Y  Y678  1  0.62044300  0.31022150  0.43442686  1.0
  Y  Y679  1  0.62044300  0.64355483  0.43442686  1.0
  Y  Y680  1  0.62044300  0.97688817  0.43442686  1.0
  Y  Y681  1  0.95377633  0.31022150  0.43442686  1.0
  Y  Y682  1  0.95377633  0.64355483  0.43442686  1.0
  Y  Y683  1  0.95377633  0.97688817  0.43442686  1.0
  Y  Y684  1  0.00000000  0.00000000  0.44213081  1.0
  Y  Y685  1  0.00000000  0.33333333  0.44213081  1.0
  Y  Y686  1  0.00000000  0.66666667  0.44213081  1.0
  Y  Y687  1  0.33333333  0.00000000  0.44213081  1.0
  Y  Y688  1  0.33333333  0.33333333  0.44213081  1.0
  Y  Y689  1  0.33333333  0.66666667  0.44213081  1.0
  Y  Y690  1  0.66666667  0.00000000  0.44213081  1.0
  Y  Y691  1  0.66666667  0.33333333  0.44213081  1.0
  Y  Y692  1  0.66666667  0.66666667  0.44213081  1.0
  Y  Y693  1  0.00000000  0.16666667  0.38657525  1.0
  Y  Y694  1  0.00000000  0.50000000  0.38657525  1.0
  Y  Y695  1  0.00000000  0.83333333  0.38657525  1.0
  Y  Y696  1  0.33333333  0.16666667  0.38657525  1.0
  Y  Y697  1  0.33333333  0.50000000  0.38657525  1.0
  Y  Y698  1  0.33333333  0.83333333  0.38657525  1.0
  Y  Y699  1  0.66666667  0.16666667  0.38657525  1.0
  Y  Y700  1  0.66666667  0.50000000  0.38657525  1.0
  Y  Y701  1  0.66666667  0.83333333  0.38657525  1.0
  Ni  Ni702  1  0.02698167  0.09701967  0.36335958  1.0
  Ni  Ni703  1  0.02698167  0.43035300  0.36335958  1.0
  Ni  Ni704  1  0.02698167  0.76368633  0.36335958  1.0
  Ni  Ni705  1  0.36031500  0.09701967  0.36335958  1.0
  Ni  Ni706  1  0.36031500  0.43035300  0.36335958  1.0
  Ni  Ni707  1  0.36031500  0.76368633  0.36335958  1.0
  Ni  Ni708  1  0.69364833  0.09701967  0.36335958  1.0
  Ni  Ni709  1  0.69364833  0.43035300  0.36335958  1.0
  Ni  Ni710  1  0.69364833  0.76368633  0.36335958  1.0
  Ni  Ni711  1  0.02698167  0.26368633  0.41891514  1.0
  Ni  Ni712  1  0.02698167  0.59701967  0.41891514  1.0
  Ni  Ni713  1  0.02698167  0.93035300  0.41891514  1.0
  Ni  Ni714  1  0.36031500  0.26368633  0.41891514  1.0
  Ni  Ni715  1  0.36031500  0.59701967  0.41891514  1.0
  Ni  Ni716  1  0.36031500  0.93035300  0.41891514  1.0
  Ni  Ni717  1  0.69364833  0.26368633  0.41891514  1.0
  Ni  Ni718  1  0.69364833  0.59701967  0.41891514  1.0
  Ni  Ni719  1  0.69364833  0.93035300  0.41891514  1.0
  Ni  Ni720  1  0.19403933  0.01349083  0.39120253  1.0
  Ni  Ni721  1  0.19403933  0.34682417  0.39120253  1.0
  Ni  Ni722  1  0.19403933  0.68015750  0.39120253  1.0
  Ni  Ni723  1  0.52737267  0.01349083  0.39120253  1.0
  Ni  Ni724  1  0.52737267  0.34682417  0.39120253  1.0
  Ni  Ni725  1  0.52737267  0.68015750  0.39120253  1.0
  Ni  Ni726  1  0.86070600  0.01349083  0.39120253  1.0
  Ni  Ni727  1  0.86070600  0.34682417  0.39120253  1.0
  Ni  Ni728  1  0.86070600  0.68015750  0.39120253  1.0
  Ni  Ni729  1  0.19403933  0.18015750  0.33564697  1.0
  Ni  Ni730  1  0.19403933  0.51349083  0.33564697  1.0
  Ni  Ni731  1  0.19403933  0.84682417  0.33564697  1.0
  Ni  Ni732  1  0.52737267  0.18015750  0.33564697  1.0
  Ni  Ni733  1  0.52737267  0.51349083  0.33564697  1.0
  Ni  Ni734  1  0.52737267  0.84682417  0.33564697  1.0
  Ni  Ni735  1  0.86070600  0.18015750  0.33564697  1.0
  Ni  Ni736  1  0.86070600  0.51349083  0.33564697  1.0
  Ni  Ni737  1  0.86070600  0.84682417  0.33564697  1.0
  Ni  Ni738  1  0.16666667  0.08333333  0.35879747  1.0
  Ni  Ni739  1  0.16666667  0.41666667  0.35879747  1.0
  Ni  Ni740  1  0.16666667  0.75000000  0.35879747  1.0
  Ni  Ni741  1  0.50000000  0.08333333  0.35879747  1.0
  Ni  Ni742  1  0.50000000  0.41666667  0.35879747  1.0
  Ni  Ni743  1  0.50000000  0.75000000  0.35879747  1.0
  Ni  Ni744  1  0.83333333  0.08333333  0.35879747  1.0
  Ni  Ni745  1  0.83333333  0.41666667  0.35879747  1.0
  Ni  Ni746  1  0.83333333  0.75000000  0.35879747  1.0
  Ni  Ni747  1  0.16666667  0.25000000  0.41435303  1.0
  Ni  Ni748  1  0.16666667  0.58333333  0.41435303  1.0
  Ni  Ni749  1  0.16666667  0.91666667  0.41435303  1.0
  Ni  Ni750  1  0.50000000  0.25000000  0.41435303  1.0
  Ni  Ni751  1  0.50000000  0.58333333  0.41435303  1.0
  Ni  Ni752  1  0.50000000  0.91666667  0.41435303  1.0
  Ni  Ni753  1  0.83333333  0.25000000  0.41435303  1.0
  Ni  Ni754  1  0.83333333  0.58333333  0.41435303  1.0
  Ni  Ni755  1  0.83333333  0.91666667  0.41435303  1.0
  Ni  Ni756  1  0.13929400  0.06964700  0.40992125  1.0
  Ni  Ni757  1  0.13929400  0.40298033  0.40992125  1.0
  Ni  Ni758  1  0.13929400  0.73631367  0.40992125  1.0
  Ni  Ni759  1  0.47262733  0.06964700  0.40992125  1.0
  Ni  Ni760  1  0.47262733  0.40298033  0.40992125  1.0
  Ni  Ni761  1  0.47262733  0.73631367  0.40992125  1.0
  Ni  Ni762  1  0.80596067  0.06964700  0.40992125  1.0
  Ni  Ni763  1  0.80596067  0.40298033  0.40992125  1.0
  Ni  Ni764  1  0.80596067  0.73631367  0.40992125  1.0
  Ni  Ni765  1  0.13929400  0.23631367  0.35436569  1.0
  Ni  Ni766  1  0.13929400  0.56964700  0.35436569  1.0
  Ni  Ni767  1  0.13929400  0.90298033  0.35436569  1.0
  Ni  Ni768  1  0.47262733  0.23631367  0.35436569  1.0
  Ni  Ni769  1  0.47262733  0.56964700  0.35436569  1.0
  Ni  Ni770  1  0.47262733  0.90298033  0.35436569  1.0
  Ni  Ni771  1  0.80596067  0.23631367  0.35436569  1.0
  Ni  Ni772  1  0.80596067  0.56964700  0.35436569  1.0
  Ni  Ni773  1  0.80596067  0.90298033  0.35436569  1.0
  Ni  Ni774  1  0.30635167  0.06964700  0.35423536  1.0
  Ni  Ni775  1  0.30635167  0.40298033  0.35423536  1.0
  Ni  Ni776  1  0.30635167  0.73631367  0.35423536  1.0
  Ni  Ni777  1  0.63968500  0.06964700  0.35423536  1.0
  Ni  Ni778  1  0.63968500  0.40298033  0.35423536  1.0
  Ni  Ni779  1  0.63968500  0.73631367  0.35423536  1.0
  Ni  Ni780  1  0.97301833  0.06964700  0.35423536  1.0
  Ni  Ni781  1  0.97301833  0.40298033  0.35423536  1.0
  Ni  Ni782  1  0.97301833  0.73631367  0.35423536  1.0
  Ni  Ni783  1  0.30635167  0.23631367  0.40979092  1.0
  Ni  Ni784  1  0.30635167  0.56964700  0.40979092  1.0
  Ni  Ni785  1  0.30635167  0.90298033  0.40979092  1.0
  Ni  Ni786  1  0.63968500  0.23631367  0.40979092  1.0
  Ni  Ni787  1  0.63968500  0.56964700  0.40979092  1.0
  Ni  Ni788  1  0.63968500  0.90298033  0.40979092  1.0
  Ni  Ni789  1  0.97301833  0.23631367  0.40979092  1.0
  Ni  Ni790  1  0.97301833  0.56964700  0.40979092  1.0
  Ni  Ni791  1  0.97301833  0.90298033  0.40979092  1.0
  Ni  Ni792  1  0.22225233  0.11112617  0.36806175  1.0
  Ni  Ni793  1  0.22225233  0.44445950  0.36806175  1.0
  Ni  Ni794  1  0.22225233  0.77779283  0.36806175  1.0
  Ni  Ni795  1  0.55558567  0.11112617  0.36806175  1.0
  Ni  Ni796  1  0.55558567  0.44445950  0.36806175  1.0
  Ni  Ni797  1  0.55558567  0.77779283  0.36806175  1.0
  Ni  Ni798  1  0.88891900  0.11112617  0.36806175  1.0
  Ni  Ni799  1  0.88891900  0.44445950  0.36806175  1.0
  Ni  Ni800  1  0.88891900  0.77779283  0.36806175  1.0
  Ni  Ni801  1  0.22225233  0.27779283  0.42361731  1.0
  Ni  Ni802  1  0.22225233  0.61112617  0.42361731  1.0
  Ni  Ni803  1  0.22225233  0.94445950  0.42361731  1.0
  Ni  Ni804  1  0.55558567  0.27779283  0.42361731  1.0
  Ni  Ni805  1  0.55558567  0.61112617  0.42361731  1.0
  Ni  Ni806  1  0.55558567  0.94445950  0.42361731  1.0
  Ni  Ni807  1  0.88891900  0.27779283  0.42361731  1.0
  Ni  Ni808  1  0.88891900  0.61112617  0.42361731  1.0
  Ni  Ni809  1  0.88891900  0.94445950  0.42361731  1.0
  Ni  Ni810  1  0.19403933  0.09701967  0.41878481  1.0
  Ni  Ni811  1  0.19403933  0.43035300  0.41878481  1.0
  Ni  Ni812  1  0.19403933  0.76368633  0.41878481  1.0
  Ni  Ni813  1  0.52737267  0.09701967  0.41878481  1.0
  Ni  Ni814  1  0.52737267  0.43035300  0.41878481  1.0
  Ni  Ni815  1  0.52737267  0.76368633  0.41878481  1.0
  Ni  Ni816  1  0.86070600  0.09701967  0.41878481  1.0
  Ni  Ni817  1  0.86070600  0.43035300  0.41878481  1.0
  Ni  Ni818  1  0.86070600  0.76368633  0.41878481  1.0
  Ni  Ni819  1  0.19403933  0.26368633  0.36322925  1.0
  Ni  Ni820  1  0.19403933  0.59701967  0.36322925  1.0
  Ni  Ni821  1  0.19403933  0.93035300  0.36322925  1.0
  Ni  Ni822  1  0.52737267  0.26368633  0.36322925  1.0
  Ni  Ni823  1  0.52737267  0.59701967  0.36322925  1.0
  Ni  Ni824  1  0.52737267  0.93035300  0.36322925  1.0
  Ni  Ni825  1  0.86070600  0.26368633  0.36322925  1.0
  Ni  Ni826  1  0.86070600  0.59701967  0.36322925  1.0
  Ni  Ni827  1  0.86070600  0.93035300  0.36322925  1.0
  Ni  Ni828  1  0.11108100  0.05554050  0.34953319  1.0
  Ni  Ni829  1  0.11108100  0.38887383  0.34953319  1.0
  Ni  Ni830  1  0.11108100  0.72220717  0.34953319  1.0
  Ni  Ni831  1  0.44441433  0.05554050  0.34953319  1.0
  Ni  Ni832  1  0.44441433  0.38887383  0.34953319  1.0
  Ni  Ni833  1  0.44441433  0.72220717  0.34953319  1.0
  Ni  Ni834  1  0.77774767  0.05554050  0.34953319  1.0
  Ni  Ni835  1  0.77774767  0.38887383  0.34953319  1.0
  Ni  Ni836  1  0.77774767  0.72220717  0.34953319  1.0
  Ni  Ni837  1  0.11108100  0.22220717  0.40508875  1.0
  Ni  Ni838  1  0.11108100  0.55554050  0.40508875  1.0
  Ni  Ni839  1  0.11108100  0.88887383  0.40508875  1.0
  Ni  Ni840  1  0.44441433  0.22220717  0.40508875  1.0
  Ni  Ni841  1  0.44441433  0.55554050  0.40508875  1.0
  Ni  Ni842  1  0.44441433  0.88887383  0.40508875  1.0
  Ni  Ni843  1  0.77774767  0.22220717  0.40508875  1.0
  Ni  Ni844  1  0.77774767  0.55554050  0.40508875  1.0
  Ni  Ni845  1  0.77774767  0.88887383  0.40508875  1.0
  Ni  Ni846  1  0.13929400  0.15317583  0.43750353  1.0
  Ni  Ni847  1  0.13929400  0.48650917  0.43750353  1.0
  Ni  Ni848  1  0.13929400  0.81984250  0.43750353  1.0
  Ni  Ni849  1  0.47262733  0.15317583  0.43750353  1.0
  Ni  Ni850  1  0.47262733  0.48650917  0.43750353  1.0
  Ni  Ni851  1  0.47262733  0.81984250  0.43750353  1.0
  Ni  Ni852  1  0.80596067  0.15317583  0.43750353  1.0
  Ni  Ni853  1  0.80596067  0.48650917  0.43750353  1.0
  Ni  Ni854  1  0.80596067  0.81984250  0.43750353  1.0
  Ni  Ni855  1  0.13929400  0.31984250  0.38194797  1.0
  Ni  Ni856  1  0.13929400  0.65317583  0.38194797  1.0
  Ni  Ni857  1  0.13929400  0.98650917  0.38194797  1.0
  Ni  Ni858  1  0.47262733  0.31984250  0.38194797  1.0
  Ni  Ni859  1  0.47262733  0.65317583  0.38194797  1.0
  Ni  Ni860  1  0.47262733  0.98650917  0.38194797  1.0
  Ni  Ni861  1  0.80596067  0.31984250  0.38194797  1.0
  Ni  Ni862  1  0.80596067  0.65317583  0.38194797  1.0
  Ni  Ni863  1  0.80596067  0.98650917  0.38194797  1.0
