# generated using pymatgen
data_Zn11Ni2
_symmetry_space_group_name_H-M   'P 1'
_cell_length_a   26.89289402
_cell_length_b   44.59681949
_cell_length_c   28.34759933
_cell_angle_alpha   89.99999999
_cell_angle_beta   90.00000001
_cell_angle_gamma   107.54840062
_symmetry_Int_Tables_number   1
_chemical_formula_structural   Zn11Ni2
_chemical_formula_sum   'Zn792 Ni144'
_cell_volume   32416.14532789
_cell_formula_units_Z   72
loop_
 _symmetry_equiv_pos_site_id
 _symmetry_equiv_pos_as_xyz
  1  'x, y, z'
loop_
 _atom_site_type_symbol
 _atom_site_label
 _atom_site_symmetry_multiplicity
 _atom_site_fract_x
 _atom_site_fract_y
 _atom_site_fract_z
 _atom_site_occupancy
  Ni  Ni0  1  0.16392080  0.22130693  0.16392080  1.0
  Ni  Ni1  1  0.16392080  0.55464027  0.16392080  1.0
  Ni  Ni2  1  0.16392080  0.88797360  0.16392080  1.0
  Ni  Ni3  1  0.49725413  0.22130693  0.16392080  1.0
  Ni  Ni4  1  0.49725413  0.55464027  0.16392080  1.0
  Ni  Ni5  1  0.49725413  0.88797360  0.16392080  1.0
  Ni  Ni6  1  0.83058747  0.22130693  0.16392080  1.0
  Ni  Ni7  1  0.83058747  0.55464027  0.16392080  1.0
  Ni  Ni8  1  0.83058747  0.88797360  0.16392080  1.0
  Ni  Ni9  1  0.06392080  0.02130693  0.06392080  1.0
  Ni  Ni10  1  0.06392080  0.35464027  0.06392080  1.0
  Ni  Ni11  1  0.06392080  0.68797360  0.06392080  1.0
  Ni  Ni12  1  0.39725413  0.02130693  0.06392080  1.0
  Ni  Ni13  1  0.39725413  0.35464027  0.06392080  1.0
  Ni  Ni14  1  0.39725413  0.68797360  0.06392080  1.0
  Ni  Ni15  1  0.73058747  0.02130693  0.06392080  1.0
  Ni  Ni16  1  0.73058747  0.35464027  0.06392080  1.0
  Ni  Ni17  1  0.73058747  0.68797360  0.06392080  1.0
  Ni  Ni18  1  0.24923353  0.28632307  0.02976220  1.0
  Ni  Ni19  1  0.24923353  0.61965640  0.02976220  1.0
  Ni  Ni20  1  0.24923353  0.95298973  0.02976220  1.0
  Ni  Ni21  1  0.58256687  0.28632307  0.02976220  1.0
  Ni  Ni22  1  0.58256687  0.61965640  0.02976220  1.0
  Ni  Ni23  1  0.58256687  0.95298973  0.02976220  1.0
  Ni  Ni24  1  0.91590020  0.28632307  0.02976220  1.0
  Ni  Ni25  1  0.91590020  0.61965640  0.02976220  1.0
  Ni  Ni26  1  0.91590020  0.95298973  0.02976220  1.0
  Ni  Ni27  1  0.01590020  0.15298973  0.12976220  1.0
  Ni  Ni28  1  0.01590020  0.48632307  0.12976220  1.0
  Ni  Ni29  1  0.01590020  0.81965640  0.12976220  1.0
  Ni  Ni30  1  0.34923353  0.15298973  0.12976220  1.0
  Ni  Ni31  1  0.34923353  0.48632307  0.12976220  1.0
  Ni  Ni32  1  0.34923353  0.81965640  0.12976220  1.0
  Ni  Ni33  1  0.68256687  0.15298973  0.12976220  1.0
  Ni  Ni34  1  0.68256687  0.48632307  0.12976220  1.0
  Ni  Ni35  1  0.68256687  0.81965640  0.12976220  1.0
  Ni  Ni36  1  0.16144500  0.11074600  0.16144500  1.0
  Ni  Ni37  1  0.16144500  0.44407933  0.16144500  1.0
  Ni  Ni38  1  0.16144500  0.77741267  0.16144500  1.0
  Ni  Ni39  1  0.49477833  0.11074600  0.16144500  1.0
  Ni  Ni40  1  0.49477833  0.44407933  0.16144500  1.0
  Ni  Ni41  1  0.49477833  0.77741267  0.16144500  1.0
  Ni  Ni42  1  0.82811167  0.11074600  0.16144500  1.0
  Ni  Ni43  1  0.82811167  0.44407933  0.16144500  1.0
  Ni  Ni44  1  0.82811167  0.77741267  0.16144500  1.0
  Ni  Ni45  1  0.06144500  0.24407933  0.06144500  1.0
  Ni  Ni46  1  0.06144500  0.57741267  0.06144500  1.0
  Ni  Ni47  1  0.06144500  0.91074600  0.06144500  1.0
  Ni  Ni48  1  0.39477833  0.24407933  0.06144500  1.0
  Ni  Ni49  1  0.39477833  0.57741267  0.06144500  1.0
  Ni  Ni50  1  0.39477833  0.91074600  0.06144500  1.0
  Ni  Ni51  1  0.72811167  0.24407933  0.06144500  1.0
  Ni  Ni52  1  0.72811167  0.57741267  0.06144500  1.0
  Ni  Ni53  1  0.72811167  0.91074600  0.06144500  1.0
  Ni  Ni54  1  0.14114840  0.17576213  0.02728640  1.0
  Ni  Ni55  1  0.14114840  0.50909547  0.02728640  1.0
  Ni  Ni56  1  0.14114840  0.84242880  0.02728640  1.0
  Ni  Ni57  1  0.47448173  0.17576213  0.02728640  1.0
  Ni  Ni58  1  0.47448173  0.50909547  0.02728640  1.0
  Ni  Ni59  1  0.47448173  0.84242880  0.02728640  1.0
  Ni  Ni60  1  0.80781507  0.17576213  0.02728640  1.0
  Ni  Ni61  1  0.80781507  0.50909547  0.02728640  1.0
  Ni  Ni62  1  0.80781507  0.84242880  0.02728640  1.0
  Ni  Ni63  1  0.24114840  0.04242880  0.12728640  1.0
  Ni  Ni64  1  0.24114840  0.37576213  0.12728640  1.0
  Ni  Ni65  1  0.24114840  0.70909547  0.12728640  1.0
  Ni  Ni66  1  0.57448173  0.04242880  0.12728640  1.0
  Ni  Ni67  1  0.57448173  0.37576213  0.12728640  1.0
  Ni  Ni68  1  0.57448173  0.70909547  0.12728640  1.0
  Ni  Ni69  1  0.90781507  0.04242880  0.12728640  1.0
  Ni  Ni70  1  0.90781507  0.37576213  0.12728640  1.0
  Ni  Ni71  1  0.90781507  0.70909547  0.12728640  1.0
  Ni  Ni72  1  0.03058747  0.28797360  0.36392080  1.0
  Ni  Ni73  1  0.03058747  0.62130693  0.36392080  1.0
  Ni  Ni74  1  0.03058747  0.95464027  0.36392080  1.0
  Ni  Ni75  1  0.36392080  0.28797360  0.36392080  1.0
  Ni  Ni76  1  0.36392080  0.62130693  0.36392080  1.0
  Ni  Ni77  1  0.36392080  0.95464027  0.36392080  1.0
  Ni  Ni78  1  0.69725413  0.28797360  0.36392080  1.0
  Ni  Ni79  1  0.69725413  0.62130693  0.36392080  1.0
  Ni  Ni80  1  0.69725413  0.95464027  0.36392080  1.0
  Ni  Ni81  1  0.26392080  0.08797360  0.26392080  1.0
  Ni  Ni82  1  0.26392080  0.42130693  0.26392080  1.0
  Ni  Ni83  1  0.26392080  0.75464027  0.26392080  1.0
  Ni  Ni84  1  0.59725413  0.08797360  0.26392080  1.0
  Ni  Ni85  1  0.59725413  0.42130693  0.26392080  1.0
  Ni  Ni86  1  0.59725413  0.75464027  0.26392080  1.0
  Ni  Ni87  1  0.93058747  0.08797360  0.26392080  1.0
  Ni  Ni88  1  0.93058747  0.42130693  0.26392080  1.0
  Ni  Ni89  1  0.93058747  0.75464027  0.26392080  1.0
  Ni  Ni90  1  0.11590020  0.01965640  0.22976220  1.0
  Ni  Ni91  1  0.11590020  0.35298973  0.22976220  1.0
  Ni  Ni92  1  0.11590020  0.68632307  0.22976220  1.0
  Ni  Ni93  1  0.44923353  0.01965640  0.22976220  1.0
  Ni  Ni94  1  0.44923353  0.35298973  0.22976220  1.0
  Ni  Ni95  1  0.44923353  0.68632307  0.22976220  1.0
  Ni  Ni96  1  0.78256687  0.01965640  0.22976220  1.0
  Ni  Ni97  1  0.78256687  0.35298973  0.22976220  1.0
  Ni  Ni98  1  0.78256687  0.68632307  0.22976220  1.0
  Ni  Ni99  1  0.21590020  0.21965640  0.32976220  1.0
  Ni  Ni100  1  0.21590020  0.55298973  0.32976220  1.0
  Ni  Ni101  1  0.21590020  0.88632307  0.32976220  1.0
  Ni  Ni102  1  0.54923353  0.21965640  0.32976220  1.0
  Ni  Ni103  1  0.54923353  0.55298973  0.32976220  1.0
  Ni  Ni104  1  0.54923353  0.88632307  0.32976220  1.0
  Ni  Ni105  1  0.88256687  0.21965640  0.32976220  1.0
  Ni  Ni106  1  0.88256687  0.55298973  0.32976220  1.0
  Ni  Ni107  1  0.88256687  0.88632307  0.32976220  1.0
  Ni  Ni108  1  0.02811167  0.17741267  0.36144500  1.0
  Ni  Ni109  1  0.02811167  0.51074600  0.36144500  1.0
  Ni  Ni110  1  0.02811167  0.84407933  0.36144500  1.0
  Ni  Ni111  1  0.36144500  0.17741267  0.36144500  1.0
  Ni  Ni112  1  0.36144500  0.51074600  0.36144500  1.0
  Ni  Ni113  1  0.36144500  0.84407933  0.36144500  1.0
  Ni  Ni114  1  0.69477833  0.17741267  0.36144500  1.0
  Ni  Ni115  1  0.69477833  0.51074600  0.36144500  1.0
  Ni  Ni116  1  0.69477833  0.84407933  0.36144500  1.0
  Ni  Ni117  1  0.26144500  0.31074600  0.26144500  1.0
  Ni  Ni118  1  0.26144500  0.64407933  0.26144500  1.0
  Ni  Ni119  1  0.26144500  0.97741267  0.26144500  1.0
  Ni  Ni120  1  0.59477833  0.31074600  0.26144500  1.0
  Ni  Ni121  1  0.59477833  0.64407933  0.26144500  1.0
  Ni  Ni122  1  0.59477833  0.97741267  0.26144500  1.0
  Ni  Ni123  1  0.92811167  0.31074600  0.26144500  1.0
  Ni  Ni124  1  0.92811167  0.64407933  0.26144500  1.0
  Ni  Ni125  1  0.92811167  0.97741267  0.26144500  1.0
  Ni  Ni126  1  0.00781507  0.24242880  0.22728640  1.0
  Ni  Ni127  1  0.00781507  0.57576213  0.22728640  1.0
  Ni  Ni128  1  0.00781507  0.90909547  0.22728640  1.0
  Ni  Ni129  1  0.34114840  0.24242880  0.22728640  1.0
  Ni  Ni130  1  0.34114840  0.57576213  0.22728640  1.0
  Ni  Ni131  1  0.34114840  0.90909547  0.22728640  1.0
  Ni  Ni132  1  0.67448173  0.24242880  0.22728640  1.0
  Ni  Ni133  1  0.67448173  0.57576213  0.22728640  1.0
  Ni  Ni134  1  0.67448173  0.90909547  0.22728640  1.0
  Ni  Ni135  1  0.10781507  0.10909547  0.32728640  1.0
  Ni  Ni136  1  0.10781507  0.44242880  0.32728640  1.0
  Ni  Ni137  1  0.10781507  0.77576213  0.32728640  1.0
  Ni  Ni138  1  0.44114840  0.10909547  0.32728640  1.0
  Ni  Ni139  1  0.44114840  0.44242880  0.32728640  1.0
  Ni  Ni140  1  0.44114840  0.77576213  0.32728640  1.0
  Ni  Ni141  1  0.77448173  0.10909547  0.32728640  1.0
  Ni  Ni142  1  0.77448173  0.44242880  0.32728640  1.0
  Ni  Ni143  1  0.77448173  0.77576213  0.32728640  1.0
  Zn  Zn144  1  0.05356820  0.18452273  0.05356820  1.0
  Zn  Zn145  1  0.05356820  0.51785607  0.05356820  1.0
  Zn  Zn146  1  0.05356820  0.85118940  0.05356820  1.0
  Zn  Zn147  1  0.38690153  0.18452273  0.05356820  1.0
  Zn  Zn148  1  0.38690153  0.51785607  0.05356820  1.0
  Zn  Zn149  1  0.38690153  0.85118940  0.05356820  1.0
  Zn  Zn150  1  0.72023487  0.18452273  0.05356820  1.0
  Zn  Zn151  1  0.72023487  0.51785607  0.05356820  1.0
  Zn  Zn152  1  0.72023487  0.85118940  0.05356820  1.0
  Zn  Zn153  1  0.15356820  0.05118940  0.15356820  1.0
  Zn  Zn154  1  0.15356820  0.38452273  0.15356820  1.0
  Zn  Zn155  1  0.15356820  0.71785607  0.15356820  1.0
  Zn  Zn156  1  0.48690153  0.05118940  0.15356820  1.0
  Zn  Zn157  1  0.48690153  0.38452273  0.15356820  1.0
  Zn  Zn158  1  0.48690153  0.71785607  0.15356820  1.0
  Zn  Zn159  1  0.82023487  0.05118940  0.15356820  1.0
  Zn  Zn160  1  0.82023487  0.38452273  0.15356820  1.0
  Zn  Zn161  1  0.82023487  0.71785607  0.15356820  1.0
  Zn  Zn162  1  0.14464490  0.22655813  0.07458590  1.0
  Zn  Zn163  1  0.14464490  0.55989147  0.07458590  1.0
  Zn  Zn164  1  0.14464490  0.89322480  0.07458590  1.0
  Zn  Zn165  1  0.47797823  0.22655813  0.07458590  1.0
  Zn  Zn166  1  0.47797823  0.55989147  0.07458590  1.0
  Zn  Zn167  1  0.47797823  0.89322480  0.07458590  1.0
  Zn  Zn168  1  0.81131157  0.22655813  0.07458590  1.0
  Zn  Zn169  1  0.81131157  0.55989147  0.07458590  1.0
  Zn  Zn170  1  0.81131157  0.89322480  0.07458590  1.0
  Zn  Zn171  1  0.24464490  0.09322480  0.17458590  1.0
  Zn  Zn172  1  0.24464490  0.42655813  0.17458590  1.0
  Zn  Zn173  1  0.24464490  0.75989147  0.17458590  1.0
  Zn  Zn174  1  0.57797823  0.09322480  0.17458590  1.0
  Zn  Zn175  1  0.57797823  0.42655813  0.17458590  1.0
  Zn  Zn176  1  0.57797823  0.75989147  0.17458590  1.0
  Zn  Zn177  1  0.91131157  0.09322480  0.17458590  1.0
  Zn  Zn178  1  0.91131157  0.42655813  0.17458590  1.0
  Zn  Zn179  1  0.91131157  0.75989147  0.17458590  1.0
  Zn  Zn180  1  0.11662130  0.17051093  0.11662130  1.0
  Zn  Zn181  1  0.11662130  0.50384427  0.11662130  1.0
  Zn  Zn182  1  0.11662130  0.83717760  0.11662130  1.0
  Zn  Zn183  1  0.44995463  0.17051093  0.11662130  1.0
  Zn  Zn184  1  0.44995463  0.50384427  0.11662130  1.0
  Zn  Zn185  1  0.44995463  0.83717760  0.11662130  1.0
  Zn  Zn186  1  0.78328797  0.17051093  0.11662130  1.0
  Zn  Zn187  1  0.78328797  0.50384427  0.11662130  1.0
  Zn  Zn188  1  0.78328797  0.83717760  0.11662130  1.0
  Zn  Zn189  1  0.01662130  0.30384427  0.01662130  1.0
  Zn  Zn190  1  0.01662130  0.63717760  0.01662130  1.0
  Zn  Zn191  1  0.01662130  0.97051093  0.01662130  1.0
  Zn  Zn192  1  0.34995463  0.30384427  0.01662130  1.0
  Zn  Zn193  1  0.34995463  0.63717760  0.01662130  1.0
  Zn  Zn194  1  0.34995463  0.97051093  0.01662130  1.0
  Zn  Zn195  1  0.68328797  0.30384427  0.01662130  1.0
  Zn  Zn196  1  0.68328797  0.63717760  0.01662130  1.0
  Zn  Zn197  1  0.68328797  0.97051093  0.01662130  1.0
  Zn  Zn198  1  0.06758000  0.21254633  0.13763900  1.0
  Zn  Zn199  1  0.06758000  0.54587967  0.13763900  1.0
  Zn  Zn200  1  0.06758000  0.87921300  0.13763900  1.0
  Zn  Zn201  1  0.40091333  0.21254633  0.13763900  1.0
  Zn  Zn202  1  0.40091333  0.54587967  0.13763900  1.0
  Zn  Zn203  1  0.40091333  0.87921300  0.13763900  1.0
  Zn  Zn204  1  0.73424667  0.21254633  0.13763900  1.0
  Zn  Zn205  1  0.73424667  0.54587967  0.13763900  1.0
  Zn  Zn206  1  0.73424667  0.87921300  0.13763900  1.0
  Zn  Zn207  1  0.30091333  0.01254633  0.03763900  1.0
  Zn  Zn208  1  0.30091333  0.34587967  0.03763900  1.0
  Zn  Zn209  1  0.30091333  0.67921300  0.03763900  1.0
  Zn  Zn210  1  0.63424667  0.01254633  0.03763900  1.0
  Zn  Zn211  1  0.63424667  0.34587967  0.03763900  1.0
  Zn  Zn212  1  0.63424667  0.67921300  0.03763900  1.0
  Zn  Zn213  1  0.96758000  0.01254633  0.03763900  1.0
  Zn  Zn214  1  0.96758000  0.34587967  0.03763900  1.0
  Zn  Zn215  1  0.96758000  0.67921300  0.03763900  1.0
  Zn  Zn216  1  0.31029660  0.19853453  0.09560360  1.0
  Zn  Zn217  1  0.31029660  0.53186787  0.09560360  1.0
  Zn  Zn218  1  0.31029660  0.86520120  0.09560360  1.0
  Zn  Zn219  1  0.64362993  0.19853453  0.09560360  1.0
  Zn  Zn220  1  0.64362993  0.53186787  0.09560360  1.0
  Zn  Zn221  1  0.64362993  0.86520120  0.09560360  1.0
  Zn  Zn222  1  0.97696327  0.19853453  0.09560360  1.0
  Zn  Zn223  1  0.97696327  0.53186787  0.09560360  1.0
  Zn  Zn224  1  0.97696327  0.86520120  0.09560360  1.0
  Zn  Zn225  1  0.07696327  0.06520120  0.19560360  1.0
  Zn  Zn226  1  0.07696327  0.39853453  0.19560360  1.0
  Zn  Zn227  1  0.07696327  0.73186787  0.19560360  1.0
  Zn  Zn228  1  0.41029660  0.06520120  0.19560360  1.0
  Zn  Zn229  1  0.41029660  0.39853453  0.19560360  1.0
  Zn  Zn230  1  0.41029660  0.73186787  0.19560360  1.0
  Zn  Zn231  1  0.74362993  0.06520120  0.19560360  1.0
  Zn  Zn232  1  0.74362993  0.39853453  0.19560360  1.0
  Zn  Zn233  1  0.74362993  0.73186787  0.19560360  1.0
  Zn  Zn234  1  0.06001150  0.12735033  0.06001150  1.0
  Zn  Zn235  1  0.06001150  0.46068367  0.06001150  1.0
  Zn  Zn236  1  0.06001150  0.79401700  0.06001150  1.0
  Zn  Zn237  1  0.39334483  0.12735033  0.06001150  1.0
  Zn  Zn238  1  0.39334483  0.46068367  0.06001150  1.0
  Zn  Zn239  1  0.39334483  0.79401700  0.06001150  1.0
  Zn  Zn240  1  0.72667817  0.12735033  0.06001150  1.0
  Zn  Zn241  1  0.72667817  0.46068367  0.06001150  1.0
  Zn  Zn242  1  0.72667817  0.79401700  0.06001150  1.0
  Zn  Zn243  1  0.16001150  0.32735033  0.16001150  1.0
  Zn  Zn244  1  0.16001150  0.66068367  0.16001150  1.0
  Zn  Zn245  1  0.16001150  0.99401700  0.16001150  1.0
  Zn  Zn246  1  0.49334483  0.32735033  0.16001150  1.0
  Zn  Zn247  1  0.49334483  0.66068367  0.16001150  1.0
  Zn  Zn248  1  0.49334483  0.99401700  0.16001150  1.0
  Zn  Zn249  1  0.82667817  0.32735033  0.16001150  1.0
  Zn  Zn250  1  0.82667817  0.66068367  0.16001150  1.0
  Zn  Zn251  1  0.82667817  0.99401700  0.16001150  1.0
  Zn  Zn252  1  0.30746763  0.28892927  0.18882730  1.0
  Zn  Zn253  1  0.30746763  0.62226260  0.18882730  1.0
  Zn  Zn254  1  0.30746763  0.95559593  0.18882730  1.0
  Zn  Zn255  1  0.64080097  0.28892927  0.18882730  1.0
  Zn  Zn256  1  0.64080097  0.62226260  0.18882730  1.0
  Zn  Zn257  1  0.64080097  0.95559593  0.18882730  1.0
  Zn  Zn258  1  0.97413430  0.28892927  0.18882730  1.0
  Zn  Zn259  1  0.97413430  0.62226260  0.18882730  1.0
  Zn  Zn260  1  0.97413430  0.95559593  0.18882730  1.0
  Zn  Zn261  1  0.20746763  0.08892927  0.08882730  1.0
  Zn  Zn262  1  0.20746763  0.42226260  0.08882730  1.0
  Zn  Zn263  1  0.20746763  0.75559593  0.08882730  1.0
  Zn  Zn264  1  0.54080097  0.08892927  0.08882730  1.0
  Zn  Zn265  1  0.54080097  0.42226260  0.08882730  1.0
  Zn  Zn266  1  0.54080097  0.75559593  0.08882730  1.0
  Zn  Zn267  1  0.87413430  0.08892927  0.08882730  1.0
  Zn  Zn268  1  0.87413430  0.42226260  0.08882730  1.0
  Zn  Zn269  1  0.87413430  0.75559593  0.08882730  1.0
  Zn  Zn270  1  0.21424393  0.19853453  0.09560360  1.0
  Zn  Zn271  1  0.21424393  0.53186787  0.09560360  1.0
  Zn  Zn272  1  0.21424393  0.86520120  0.09560360  1.0
  Zn  Zn273  1  0.54757727  0.19853453  0.09560360  1.0
  Zn  Zn274  1  0.54757727  0.53186787  0.09560360  1.0
  Zn  Zn275  1  0.54757727  0.86520120  0.09560360  1.0
  Zn  Zn276  1  0.88091060  0.19853453  0.09560360  1.0
  Zn  Zn277  1  0.88091060  0.53186787  0.09560360  1.0
  Zn  Zn278  1  0.88091060  0.86520120  0.09560360  1.0
  Zn  Zn279  1  0.31424393  0.06520120  0.19560360  1.0
  Zn  Zn280  1  0.31424393  0.39853453  0.19560360  1.0
  Zn  Zn281  1  0.31424393  0.73186787  0.19560360  1.0
  Zn  Zn282  1  0.64757727  0.06520120  0.19560360  1.0
  Zn  Zn283  1  0.64757727  0.39853453  0.19560360  1.0
  Zn  Zn284  1  0.64757727  0.73186787  0.19560360  1.0
  Zn  Zn285  1  0.98091060  0.06520120  0.19560360  1.0
  Zn  Zn286  1  0.98091060  0.39853453  0.19560360  1.0
  Zn  Zn287  1  0.98091060  0.73186787  0.19560360  1.0
  Zn  Zn288  1  0.03119570  0.06971873  0.03119570  1.0
  Zn  Zn289  1  0.03119570  0.40305207  0.03119570  1.0
  Zn  Zn290  1  0.03119570  0.73638540  0.03119570  1.0
  Zn  Zn291  1  0.36452903  0.06971873  0.03119570  1.0
  Zn  Zn292  1  0.36452903  0.40305207  0.03119570  1.0
  Zn  Zn293  1  0.36452903  0.73638540  0.03119570  1.0
  Zn  Zn294  1  0.69786237  0.06971873  0.03119570  1.0
  Zn  Zn295  1  0.69786237  0.40305207  0.03119570  1.0
  Zn  Zn296  1  0.69786237  0.73638540  0.03119570  1.0
  Zn  Zn297  1  0.13119570  0.26971873  0.13119570  1.0
  Zn  Zn298  1  0.13119570  0.60305207  0.13119570  1.0
  Zn  Zn299  1  0.13119570  0.93638540  0.13119570  1.0
  Zn  Zn300  1  0.46452903  0.26971873  0.13119570  1.0
  Zn  Zn301  1  0.46452903  0.60305207  0.13119570  1.0
  Zn  Zn302  1  0.46452903  0.93638540  0.13119570  1.0
  Zn  Zn303  1  0.79786237  0.26971873  0.13119570  1.0
  Zn  Zn304  1  0.79786237  0.60305207  0.13119570  1.0
  Zn  Zn305  1  0.79786237  0.93638540  0.13119570  1.0
  Zn  Zn306  1  0.31707290  0.30813980  0.10237990  1.0
  Zn  Zn307  1  0.31707290  0.64147313  0.10237990  1.0
  Zn  Zn308  1  0.31707290  0.97480647  0.10237990  1.0
  Zn  Zn309  1  0.65040623  0.30813980  0.10237990  1.0
  Zn  Zn310  1  0.65040623  0.64147313  0.10237990  1.0
  Zn  Zn311  1  0.65040623  0.97480647  0.10237990  1.0
  Zn  Zn312  1  0.98373957  0.30813980  0.10237990  1.0
  Zn  Zn313  1  0.98373957  0.64147313  0.10237990  1.0
  Zn  Zn314  1  0.98373957  0.97480647  0.10237990  1.0
  Zn  Zn315  1  0.21707290  0.10813980  0.00237990  1.0
  Zn  Zn316  1  0.21707290  0.44147313  0.00237990  1.0
  Zn  Zn317  1  0.21707290  0.77480647  0.00237990  1.0
  Zn  Zn318  1  0.55040623  0.10813980  0.00237990  1.0
  Zn  Zn319  1  0.55040623  0.44147313  0.00237990  1.0
  Zn  Zn320  1  0.55040623  0.77480647  0.00237990  1.0
  Zn  Zn321  1  0.88373957  0.10813980  0.00237990  1.0
  Zn  Zn322  1  0.88373957  0.44147313  0.00237990  1.0
  Zn  Zn323  1  0.88373957  0.77480647  0.00237990  1.0
  Zn  Zn324  1  0.06390660  0.00667253  0.15168460  1.0
  Zn  Zn325  1  0.06390660  0.34000587  0.15168460  1.0
  Zn  Zn326  1  0.06390660  0.67333920  0.15168460  1.0
  Zn  Zn327  1  0.39723993  0.00667253  0.15168460  1.0
  Zn  Zn328  1  0.39723993  0.34000587  0.15168460  1.0
  Zn  Zn329  1  0.39723993  0.67333920  0.15168460  1.0
  Zn  Zn330  1  0.73057327  0.00667253  0.15168460  1.0
  Zn  Zn331  1  0.73057327  0.34000587  0.15168460  1.0
  Zn  Zn332  1  0.73057327  0.67333920  0.15168460  1.0
  Zn  Zn333  1  0.29723993  0.14000587  0.05168460  1.0
  Zn  Zn334  1  0.29723993  0.47333920  0.05168460  1.0
  Zn  Zn335  1  0.29723993  0.80667253  0.05168460  1.0
  Zn  Zn336  1  0.63057327  0.14000587  0.05168460  1.0
  Zn  Zn337  1  0.63057327  0.47333920  0.05168460  1.0
  Zn  Zn338  1  0.63057327  0.80667253  0.05168460  1.0
  Zn  Zn339  1  0.96390660  0.14000587  0.05168460  1.0
  Zn  Zn340  1  0.96390660  0.47333920  0.05168460  1.0
  Zn  Zn341  1  0.96390660  0.80667253  0.05168460  1.0
  Zn  Zn342  1  0.26046240  0.22422813  0.17268440  1.0
  Zn  Zn343  1  0.26046240  0.55756147  0.17268440  1.0
  Zn  Zn344  1  0.26046240  0.89089480  0.17268440  1.0
  Zn  Zn345  1  0.59379573  0.22422813  0.17268440  1.0
  Zn  Zn346  1  0.59379573  0.55756147  0.17268440  1.0
  Zn  Zn347  1  0.59379573  0.89089480  0.17268440  1.0
  Zn  Zn348  1  0.92712907  0.22422813  0.17268440  1.0
  Zn  Zn349  1  0.92712907  0.55756147  0.17268440  1.0
  Zn  Zn350  1  0.92712907  0.89089480  0.17268440  1.0
  Zn  Zn351  1  0.16046240  0.02422813  0.07268440  1.0
  Zn  Zn352  1  0.16046240  0.35756147  0.07268440  1.0
  Zn  Zn353  1  0.16046240  0.69089480  0.07268440  1.0
  Zn  Zn354  1  0.49379573  0.02422813  0.07268440  1.0
  Zn  Zn355  1  0.49379573  0.35756147  0.07268440  1.0
  Zn  Zn356  1  0.49379573  0.69089480  0.07268440  1.0
  Zn  Zn357  1  0.82712907  0.02422813  0.07268440  1.0
  Zn  Zn358  1  0.82712907  0.35756147  0.07268440  1.0
  Zn  Zn359  1  0.82712907  0.69089480  0.07268440  1.0
  Zn  Zn360  1  0.09901780  0.07689493  0.09901780  1.0
  Zn  Zn361  1  0.09901780  0.41022827  0.09901780  1.0
  Zn  Zn362  1  0.09901780  0.74356160  0.09901780  1.0
  Zn  Zn363  1  0.43235113  0.07689493  0.09901780  1.0
  Zn  Zn364  1  0.43235113  0.41022827  0.09901780  1.0
  Zn  Zn365  1  0.43235113  0.74356160  0.09901780  1.0
  Zn  Zn366  1  0.76568447  0.07689493  0.09901780  1.0
  Zn  Zn367  1  0.76568447  0.41022827  0.09901780  1.0
  Zn  Zn368  1  0.76568447  0.74356160  0.09901780  1.0
  Zn  Zn369  1  0.19901780  0.27689493  0.19901780  1.0
  Zn  Zn370  1  0.19901780  0.61022827  0.19901780  1.0
  Zn  Zn371  1  0.19901780  0.94356160  0.19901780  1.0
  Zn  Zn372  1  0.53235113  0.27689493  0.19901780  1.0
  Zn  Zn373  1  0.53235113  0.61022827  0.19901780  1.0
  Zn  Zn374  1  0.53235113  0.94356160  0.19901780  1.0
  Zn  Zn375  1  0.86568447  0.27689493  0.19901780  1.0
  Zn  Zn376  1  0.86568447  0.61022827  0.19901780  1.0
  Zn  Zn377  1  0.86568447  0.94356160  0.19901780  1.0
  Zn  Zn378  1  0.23023153  0.26292507  0.11314420  1.0
  Zn  Zn379  1  0.23023153  0.59625840  0.11314420  1.0
  Zn  Zn380  1  0.23023153  0.92959173  0.11314420  1.0
  Zn  Zn381  1  0.56356487  0.26292507  0.11314420  1.0
  Zn  Zn382  1  0.56356487  0.59625840  0.11314420  1.0
  Zn  Zn383  1  0.56356487  0.92959173  0.11314420  1.0
  Zn  Zn384  1  0.89689820  0.26292507  0.11314420  1.0
  Zn  Zn385  1  0.89689820  0.59625840  0.11314420  1.0
  Zn  Zn386  1  0.89689820  0.92959173  0.11314420  1.0
  Zn  Zn387  1  0.13023153  0.06292507  0.01314420  1.0
  Zn  Zn388  1  0.13023153  0.39625840  0.01314420  1.0
  Zn  Zn389  1  0.13023153  0.72959173  0.01314420  1.0
  Zn  Zn390  1  0.46356487  0.06292507  0.01314420  1.0
  Zn  Zn391  1  0.46356487  0.39625840  0.01314420  1.0
  Zn  Zn392  1  0.46356487  0.72959173  0.01314420  1.0
  Zn  Zn393  1  0.79689820  0.06292507  0.01314420  1.0
  Zn  Zn394  1  0.79689820  0.39625840  0.01314420  1.0
  Zn  Zn395  1  0.79689820  0.72959173  0.01314420  1.0
  Zn  Zn396  1  0.25123133  0.14714733  0.13414400  1.0
  Zn  Zn397  1  0.25123133  0.48048067  0.13414400  1.0
  Zn  Zn398  1  0.25123133  0.81381400  0.13414400  1.0
  Zn  Zn399  1  0.58456467  0.14714733  0.13414400  1.0
  Zn  Zn400  1  0.58456467  0.48048067  0.13414400  1.0
  Zn  Zn401  1  0.58456467  0.81381400  0.13414400  1.0
  Zn  Zn402  1  0.91789800  0.14714733  0.13414400  1.0
  Zn  Zn403  1  0.91789800  0.48048067  0.13414400  1.0
  Zn  Zn404  1  0.91789800  0.81381400  0.13414400  1.0
  Zn  Zn405  1  0.15123133  0.28048067  0.03414400  1.0
  Zn  Zn406  1  0.15123133  0.61381400  0.03414400  1.0
  Zn  Zn407  1  0.15123133  0.94714733  0.03414400  1.0
  Zn  Zn408  1  0.48456467  0.28048067  0.03414400  1.0
  Zn  Zn409  1  0.48456467  0.61381400  0.03414400  1.0
  Zn  Zn410  1  0.48456467  0.94714733  0.03414400  1.0
  Zn  Zn411  1  0.81789800  0.28048067  0.03414400  1.0
  Zn  Zn412  1  0.81789800  0.61381400  0.03414400  1.0
  Zn  Zn413  1  0.81789800  0.94714733  0.03414400  1.0
  Zn  Zn414  1  0.21267593  0.22781387  0.00781060  1.0
  Zn  Zn415  1  0.21267593  0.56114720  0.00781060  1.0
  Zn  Zn416  1  0.21267593  0.89448053  0.00781060  1.0
  Zn  Zn417  1  0.54600927  0.22781387  0.00781060  1.0
  Zn  Zn418  1  0.54600927  0.56114720  0.00781060  1.0
  Zn  Zn419  1  0.54600927  0.89448053  0.00781060  1.0
  Zn  Zn420  1  0.87934260  0.22781387  0.00781060  1.0
  Zn  Zn421  1  0.87934260  0.56114720  0.00781060  1.0
  Zn  Zn422  1  0.87934260  0.89448053  0.00781060  1.0
  Zn  Zn423  1  0.31267593  0.09448053  0.10781060  1.0
  Zn  Zn424  1  0.31267593  0.42781387  0.10781060  1.0
  Zn  Zn425  1  0.31267593  0.76114720  0.10781060  1.0
  Zn  Zn426  1  0.64600927  0.09448053  0.10781060  1.0
  Zn  Zn427  1  0.64600927  0.42781387  0.10781060  1.0
  Zn  Zn428  1  0.64600927  0.76114720  0.10781060  1.0
  Zn  Zn429  1  0.97934260  0.09448053  0.10781060  1.0
  Zn  Zn430  1  0.97934260  0.42781387  0.10781060  1.0
  Zn  Zn431  1  0.97934260  0.76114720  0.10781060  1.0
  Zn  Zn432  1  0.16584100  0.13414400  0.07806300  1.0
  Zn  Zn433  1  0.16584100  0.46747733  0.07806300  1.0
  Zn  Zn434  1  0.16584100  0.80081067  0.07806300  1.0
  Zn  Zn435  1  0.49917433  0.13414400  0.07806300  1.0
  Zn  Zn436  1  0.49917433  0.46747733  0.07806300  1.0
  Zn  Zn437  1  0.49917433  0.80081067  0.07806300  1.0
  Zn  Zn438  1  0.83250767  0.13414400  0.07806300  1.0
  Zn  Zn439  1  0.83250767  0.46747733  0.07806300  1.0
  Zn  Zn440  1  0.83250767  0.80081067  0.07806300  1.0
  Zn  Zn441  1  0.26584100  0.00081067  0.17806300  1.0
  Zn  Zn442  1  0.26584100  0.33414400  0.17806300  1.0
  Zn  Zn443  1  0.26584100  0.66747733  0.17806300  1.0
  Zn  Zn444  1  0.59917433  0.00081067  0.17806300  1.0
  Zn  Zn445  1  0.59917433  0.33414400  0.17806300  1.0
  Zn  Zn446  1  0.59917433  0.66747733  0.17806300  1.0
  Zn  Zn447  1  0.93250767  0.00081067  0.17806300  1.0
  Zn  Zn448  1  0.93250767  0.33414400  0.17806300  1.0
  Zn  Zn449  1  0.93250767  0.66747733  0.17806300  1.0
  Zn  Zn450  1  0.30261853  0.24992173  0.05706320  1.0
  Zn  Zn451  1  0.30261853  0.58325507  0.05706320  1.0
  Zn  Zn452  1  0.30261853  0.91658840  0.05706320  1.0
  Zn  Zn453  1  0.63595187  0.24992173  0.05706320  1.0
  Zn  Zn454  1  0.63595187  0.58325507  0.05706320  1.0
  Zn  Zn455  1  0.63595187  0.91658840  0.05706320  1.0
  Zn  Zn456  1  0.96928520  0.24992173  0.05706320  1.0
  Zn  Zn457  1  0.96928520  0.58325507  0.05706320  1.0
  Zn  Zn458  1  0.96928520  0.91658840  0.05706320  1.0
  Zn  Zn459  1  0.06928520  0.11658840  0.15706320  1.0
  Zn  Zn460  1  0.06928520  0.44992173  0.15706320  1.0
  Zn  Zn461  1  0.06928520  0.78325507  0.15706320  1.0
  Zn  Zn462  1  0.40261853  0.11658840  0.15706320  1.0
  Zn  Zn463  1  0.40261853  0.44992173  0.15706320  1.0
  Zn  Zn464  1  0.40261853  0.78325507  0.15706320  1.0
  Zn  Zn465  1  0.73595187  0.11658840  0.15706320  1.0
  Zn  Zn466  1  0.73595187  0.44992173  0.15706320  1.0
  Zn  Zn467  1  0.73595187  0.78325507  0.15706320  1.0
  Zn  Zn468  1  0.18339660  0.16925520  0.18339660  1.0
  Zn  Zn469  1  0.18339660  0.50258853  0.18339660  1.0
  Zn  Zn470  1  0.18339660  0.83592187  0.18339660  1.0
  Zn  Zn471  1  0.51672993  0.16925520  0.18339660  1.0
  Zn  Zn472  1  0.51672993  0.50258853  0.18339660  1.0
  Zn  Zn473  1  0.51672993  0.83592187  0.18339660  1.0
  Zn  Zn474  1  0.85006327  0.16925520  0.18339660  1.0
  Zn  Zn475  1  0.85006327  0.50258853  0.18339660  1.0
  Zn  Zn476  1  0.85006327  0.83592187  0.18339660  1.0
  Zn  Zn477  1  0.08339660  0.30258853  0.08339660  1.0
  Zn  Zn478  1  0.08339660  0.63592187  0.08339660  1.0
  Zn  Zn479  1  0.08339660  0.96925520  0.08339660  1.0
  Zn  Zn480  1  0.41672993  0.30258853  0.08339660  1.0
  Zn  Zn481  1  0.41672993  0.63592187  0.08339660  1.0
  Zn  Zn482  1  0.41672993  0.96925520  0.08339660  1.0
  Zn  Zn483  1  0.75006327  0.30258853  0.08339660  1.0
  Zn  Zn484  1  0.75006327  0.63592187  0.08339660  1.0
  Zn  Zn485  1  0.75006327  0.96925520  0.08339660  1.0
  Zn  Zn486  1  0.02243527  0.25706320  0.13952260  1.0
  Zn  Zn487  1  0.02243527  0.59039653  0.13952260  1.0
  Zn  Zn488  1  0.02243527  0.92372987  0.13952260  1.0
  Zn  Zn489  1  0.35576860  0.25706320  0.13952260  1.0
  Zn  Zn490  1  0.35576860  0.59039653  0.13952260  1.0
  Zn  Zn491  1  0.35576860  0.92372987  0.13952260  1.0
  Zn  Zn492  1  0.68910193  0.25706320  0.13952260  1.0
  Zn  Zn493  1  0.68910193  0.59039653  0.13952260  1.0
  Zn  Zn494  1  0.68910193  0.92372987  0.13952260  1.0
  Zn  Zn495  1  0.25576860  0.05706320  0.03952260  1.0
  Zn  Zn496  1  0.25576860  0.39039653  0.03952260  1.0
  Zn  Zn497  1  0.25576860  0.72372987  0.03952260  1.0
  Zn  Zn498  1  0.58910193  0.05706320  0.03952260  1.0
  Zn  Zn499  1  0.58910193  0.39039653  0.03952260  1.0
  Zn  Zn500  1  0.58910193  0.72372987  0.03952260  1.0
  Zn  Zn501  1  0.92243527  0.05706320  0.03952260  1.0
  Zn  Zn502  1  0.92243527  0.39039653  0.03952260  1.0
  Zn  Zn503  1  0.92243527  0.72372987  0.03952260  1.0
  Zn  Zn504  1  0.23476880  0.17284093  0.01852280  1.0
  Zn  Zn505  1  0.23476880  0.50617427  0.01852280  1.0
  Zn  Zn506  1  0.23476880  0.83950760  0.01852280  1.0
  Zn  Zn507  1  0.56810213  0.17284093  0.01852280  1.0
  Zn  Zn508  1  0.56810213  0.50617427  0.01852280  1.0
  Zn  Zn509  1  0.56810213  0.83950760  0.01852280  1.0
  Zn  Zn510  1  0.90143547  0.17284093  0.01852280  1.0
  Zn  Zn511  1  0.90143547  0.50617427  0.01852280  1.0
  Zn  Zn512  1  0.90143547  0.83950760  0.01852280  1.0
  Zn  Zn513  1  0.00143547  0.03950760  0.11852280  1.0
  Zn  Zn514  1  0.00143547  0.37284093  0.11852280  1.0
  Zn  Zn515  1  0.00143547  0.70617427  0.11852280  1.0
  Zn  Zn516  1  0.33476880  0.03950760  0.11852280  1.0
  Zn  Zn517  1  0.33476880  0.37284093  0.11852280  1.0
  Zn  Zn518  1  0.33476880  0.70617427  0.11852280  1.0
  Zn  Zn519  1  0.66810213  0.03950760  0.11852280  1.0
  Zn  Zn520  1  0.66810213  0.37284093  0.11852280  1.0
  Zn  Zn521  1  0.66810213  0.70617427  0.11852280  1.0
  Zn  Zn522  1  0.32065740  0.18684080  0.19218940  1.0
  Zn  Zn523  1  0.32065740  0.52017413  0.19218940  1.0
  Zn  Zn524  1  0.32065740  0.85350747  0.19218940  1.0
  Zn  Zn525  1  0.65399073  0.18684080  0.19218940  1.0
  Zn  Zn526  1  0.65399073  0.52017413  0.19218940  1.0
  Zn  Zn527  1  0.65399073  0.85350747  0.19218940  1.0
  Zn  Zn528  1  0.98732407  0.18684080  0.19218940  1.0
  Zn  Zn529  1  0.98732407  0.52017413  0.19218940  1.0
  Zn  Zn530  1  0.98732407  0.85350747  0.19218940  1.0
  Zn  Zn531  1  0.22065740  0.32017413  0.09218940  1.0
  Zn  Zn532  1  0.22065740  0.65350747  0.09218940  1.0
  Zn  Zn533  1  0.22065740  0.98684080  0.09218940  1.0
  Zn  Zn534  1  0.55399073  0.32017413  0.09218940  1.0
  Zn  Zn535  1  0.55399073  0.65350747  0.09218940  1.0
  Zn  Zn536  1  0.55399073  0.98684080  0.09218940  1.0
  Zn  Zn537  1  0.88732407  0.32017413  0.09218940  1.0
  Zn  Zn538  1  0.88732407  0.65350747  0.09218940  1.0
  Zn  Zn539  1  0.88732407  0.98684080  0.09218940  1.0
  Zn  Zn540  1  0.25356820  0.25118940  0.25356820  1.0
  Zn  Zn541  1  0.25356820  0.58452273  0.25356820  1.0
  Zn  Zn542  1  0.25356820  0.91785607  0.25356820  1.0
  Zn  Zn543  1  0.58690153  0.25118940  0.25356820  1.0
  Zn  Zn544  1  0.58690153  0.58452273  0.25356820  1.0
  Zn  Zn545  1  0.58690153  0.91785607  0.25356820  1.0
  Zn  Zn546  1  0.92023487  0.25118940  0.25356820  1.0
  Zn  Zn547  1  0.92023487  0.58452273  0.25356820  1.0
  Zn  Zn548  1  0.92023487  0.91785607  0.25356820  1.0
  Zn  Zn549  1  0.02023487  0.11785607  0.35356820  1.0
  Zn  Zn550  1  0.02023487  0.45118940  0.35356820  1.0
  Zn  Zn551  1  0.02023487  0.78452273  0.35356820  1.0
  Zn  Zn552  1  0.35356820  0.11785607  0.35356820  1.0
  Zn  Zn553  1  0.35356820  0.45118940  0.35356820  1.0
  Zn  Zn554  1  0.35356820  0.78452273  0.35356820  1.0
  Zn  Zn555  1  0.68690153  0.11785607  0.35356820  1.0
  Zn  Zn556  1  0.68690153  0.45118940  0.35356820  1.0
  Zn  Zn557  1  0.68690153  0.78452273  0.35356820  1.0
  Zn  Zn558  1  0.01131157  0.29322480  0.27458590  1.0
  Zn  Zn559  1  0.01131157  0.62655813  0.27458590  1.0
  Zn  Zn560  1  0.01131157  0.95989147  0.27458590  1.0
  Zn  Zn561  1  0.34464490  0.29322480  0.27458590  1.0
  Zn  Zn562  1  0.34464490  0.62655813  0.27458590  1.0
  Zn  Zn563  1  0.34464490  0.95989147  0.27458590  1.0
  Zn  Zn564  1  0.67797823  0.29322480  0.27458590  1.0
  Zn  Zn565  1  0.67797823  0.62655813  0.27458590  1.0
  Zn  Zn566  1  0.67797823  0.95989147  0.27458590  1.0
  Zn  Zn567  1  0.11131157  0.15989147  0.37458590  1.0
  Zn  Zn568  1  0.11131157  0.49322480  0.37458590  1.0
  Zn  Zn569  1  0.11131157  0.82655813  0.37458590  1.0
  Zn  Zn570  1  0.44464490  0.15989147  0.37458590  1.0
  Zn  Zn571  1  0.44464490  0.49322480  0.37458590  1.0
  Zn  Zn572  1  0.44464490  0.82655813  0.37458590  1.0
  Zn  Zn573  1  0.77797823  0.15989147  0.37458590  1.0
  Zn  Zn574  1  0.77797823  0.49322480  0.37458590  1.0
  Zn  Zn575  1  0.77797823  0.82655813  0.37458590  1.0
  Zn  Zn576  1  0.31662130  0.23717760  0.31662130  1.0
  Zn  Zn577  1  0.31662130  0.57051093  0.31662130  1.0
  Zn  Zn578  1  0.31662130  0.90384427  0.31662130  1.0
  Zn  Zn579  1  0.64995463  0.23717760  0.31662130  1.0
  Zn  Zn580  1  0.64995463  0.57051093  0.31662130  1.0
  Zn  Zn581  1  0.64995463  0.90384427  0.31662130  1.0
  Zn  Zn582  1  0.98328797  0.23717760  0.31662130  1.0
  Zn  Zn583  1  0.98328797  0.57051093  0.31662130  1.0
  Zn  Zn584  1  0.98328797  0.90384427  0.31662130  1.0
  Zn  Zn585  1  0.21662130  0.03717760  0.21662130  1.0
  Zn  Zn586  1  0.21662130  0.37051093  0.21662130  1.0
  Zn  Zn587  1  0.21662130  0.70384427  0.21662130  1.0
  Zn  Zn588  1  0.54995463  0.03717760  0.21662130  1.0
  Zn  Zn589  1  0.54995463  0.37051093  0.21662130  1.0
  Zn  Zn590  1  0.54995463  0.70384427  0.21662130  1.0
  Zn  Zn591  1  0.88328797  0.03717760  0.21662130  1.0
  Zn  Zn592  1  0.88328797  0.37051093  0.21662130  1.0
  Zn  Zn593  1  0.88328797  0.70384427  0.21662130  1.0
  Zn  Zn594  1  0.26758000  0.27921300  0.33763900  1.0
  Zn  Zn595  1  0.26758000  0.61254633  0.33763900  1.0
  Zn  Zn596  1  0.26758000  0.94587967  0.33763900  1.0
  Zn  Zn597  1  0.60091333  0.27921300  0.33763900  1.0
  Zn  Zn598  1  0.60091333  0.61254633  0.33763900  1.0
  Zn  Zn599  1  0.60091333  0.94587967  0.33763900  1.0
  Zn  Zn600  1  0.93424667  0.27921300  0.33763900  1.0
  Zn  Zn601  1  0.93424667  0.61254633  0.33763900  1.0
  Zn  Zn602  1  0.93424667  0.94587967  0.33763900  1.0
  Zn  Zn603  1  0.16758000  0.07921300  0.23763900  1.0
  Zn  Zn604  1  0.16758000  0.41254633  0.23763900  1.0
  Zn  Zn605  1  0.16758000  0.74587967  0.23763900  1.0
  Zn  Zn606  1  0.50091333  0.07921300  0.23763900  1.0
  Zn  Zn607  1  0.50091333  0.41254633  0.23763900  1.0
  Zn  Zn608  1  0.50091333  0.74587967  0.23763900  1.0
  Zn  Zn609  1  0.83424667  0.07921300  0.23763900  1.0
  Zn  Zn610  1  0.83424667  0.41254633  0.23763900  1.0
  Zn  Zn611  1  0.83424667  0.74587967  0.23763900  1.0
  Zn  Zn612  1  0.17696327  0.26520120  0.29560360  1.0
  Zn  Zn613  1  0.17696327  0.59853453  0.29560360  1.0
  Zn  Zn614  1  0.17696327  0.93186787  0.29560360  1.0
  Zn  Zn615  1  0.51029660  0.26520120  0.29560360  1.0
  Zn  Zn616  1  0.51029660  0.59853453  0.29560360  1.0
  Zn  Zn617  1  0.51029660  0.93186787  0.29560360  1.0
  Zn  Zn618  1  0.84362993  0.26520120  0.29560360  1.0
  Zn  Zn619  1  0.84362993  0.59853453  0.29560360  1.0
  Zn  Zn620  1  0.84362993  0.93186787  0.29560360  1.0
  Zn  Zn621  1  0.27696327  0.13186787  0.39560360  1.0
  Zn  Zn622  1  0.27696327  0.46520120  0.39560360  1.0
  Zn  Zn623  1  0.27696327  0.79853453  0.39560360  1.0
  Zn  Zn624  1  0.61029660  0.13186787  0.39560360  1.0
  Zn  Zn625  1  0.61029660  0.46520120  0.39560360  1.0
  Zn  Zn626  1  0.61029660  0.79853453  0.39560360  1.0
  Zn  Zn627  1  0.94362993  0.13186787  0.39560360  1.0
  Zn  Zn628  1  0.94362993  0.46520120  0.39560360  1.0
  Zn  Zn629  1  0.94362993  0.79853453  0.39560360  1.0
  Zn  Zn630  1  0.26001150  0.19401700  0.26001150  1.0
  Zn  Zn631  1  0.26001150  0.52735033  0.26001150  1.0
  Zn  Zn632  1  0.26001150  0.86068367  0.26001150  1.0
  Zn  Zn633  1  0.59334483  0.19401700  0.26001150  1.0
  Zn  Zn634  1  0.59334483  0.52735033  0.26001150  1.0
  Zn  Zn635  1  0.59334483  0.86068367  0.26001150  1.0
  Zn  Zn636  1  0.92667817  0.19401700  0.26001150  1.0
  Zn  Zn637  1  0.92667817  0.52735033  0.26001150  1.0
  Zn  Zn638  1  0.92667817  0.86068367  0.26001150  1.0
  Zn  Zn639  1  0.02667817  0.06068367  0.36001150  1.0
  Zn  Zn640  1  0.02667817  0.39401700  0.36001150  1.0
  Zn  Zn641  1  0.02667817  0.72735033  0.36001150  1.0
  Zn  Zn642  1  0.36001150  0.06068367  0.36001150  1.0
  Zn  Zn643  1  0.36001150  0.39401700  0.36001150  1.0
  Zn  Zn644  1  0.36001150  0.72735033  0.36001150  1.0
  Zn  Zn645  1  0.69334483  0.06068367  0.36001150  1.0
  Zn  Zn646  1  0.69334483  0.39401700  0.36001150  1.0
  Zn  Zn647  1  0.69334483  0.72735033  0.36001150  1.0
  Zn  Zn648  1  0.17413430  0.02226260  0.38882730  1.0
  Zn  Zn649  1  0.17413430  0.35559593  0.38882730  1.0
  Zn  Zn650  1  0.17413430  0.68892927  0.38882730  1.0
  Zn  Zn651  1  0.50746763  0.02226260  0.38882730  1.0
  Zn  Zn652  1  0.50746763  0.35559593  0.38882730  1.0
  Zn  Zn653  1  0.50746763  0.68892927  0.38882730  1.0
  Zn  Zn654  1  0.84080097  0.02226260  0.38882730  1.0
  Zn  Zn655  1  0.84080097  0.35559593  0.38882730  1.0
  Zn  Zn656  1  0.84080097  0.68892927  0.38882730  1.0
  Zn  Zn657  1  0.07413430  0.15559593  0.28882730  1.0
  Zn  Zn658  1  0.07413430  0.48892927  0.28882730  1.0
  Zn  Zn659  1  0.07413430  0.82226260  0.28882730  1.0
  Zn  Zn660  1  0.40746763  0.15559593  0.28882730  1.0
  Zn  Zn661  1  0.40746763  0.48892927  0.28882730  1.0
  Zn  Zn662  1  0.40746763  0.82226260  0.28882730  1.0
  Zn  Zn663  1  0.74080097  0.15559593  0.28882730  1.0
  Zn  Zn664  1  0.74080097  0.48892927  0.28882730  1.0
  Zn  Zn665  1  0.74080097  0.82226260  0.28882730  1.0
  Zn  Zn666  1  0.08091060  0.26520120  0.29560360  1.0
  Zn  Zn667  1  0.08091060  0.59853453  0.29560360  1.0
  Zn  Zn668  1  0.08091060  0.93186787  0.29560360  1.0
  Zn  Zn669  1  0.41424393  0.26520120  0.29560360  1.0
  Zn  Zn670  1  0.41424393  0.59853453  0.29560360  1.0
  Zn  Zn671  1  0.41424393  0.93186787  0.29560360  1.0
  Zn  Zn672  1  0.74757727  0.26520120  0.29560360  1.0
  Zn  Zn673  1  0.74757727  0.59853453  0.29560360  1.0
  Zn  Zn674  1  0.74757727  0.93186787  0.29560360  1.0
  Zn  Zn675  1  0.18091060  0.13186787  0.39560360  1.0
  Zn  Zn676  1  0.18091060  0.46520120  0.39560360  1.0
  Zn  Zn677  1  0.18091060  0.79853453  0.39560360  1.0
  Zn  Zn678  1  0.51424393  0.13186787  0.39560360  1.0
  Zn  Zn679  1  0.51424393  0.46520120  0.39560360  1.0
  Zn  Zn680  1  0.51424393  0.79853453  0.39560360  1.0
  Zn  Zn681  1  0.84757727  0.13186787  0.39560360  1.0
  Zn  Zn682  1  0.84757727  0.46520120  0.39560360  1.0
  Zn  Zn683  1  0.84757727  0.79853453  0.39560360  1.0
  Zn  Zn684  1  0.23119570  0.13638540  0.23119570  1.0
  Zn  Zn685  1  0.23119570  0.46971873  0.23119570  1.0
  Zn  Zn686  1  0.23119570  0.80305207  0.23119570  1.0
  Zn  Zn687  1  0.56452903  0.13638540  0.23119570  1.0
  Zn  Zn688  1  0.56452903  0.46971873  0.23119570  1.0
  Zn  Zn689  1  0.56452903  0.80305207  0.23119570  1.0
  Zn  Zn690  1  0.89786237  0.13638540  0.23119570  1.0
  Zn  Zn691  1  0.89786237  0.46971873  0.23119570  1.0
  Zn  Zn692  1  0.89786237  0.80305207  0.23119570  1.0
  Zn  Zn693  1  0.33119570  0.00305207  0.33119570  1.0
  Zn  Zn694  1  0.33119570  0.33638540  0.33119570  1.0
  Zn  Zn695  1  0.33119570  0.66971873  0.33119570  1.0
  Zn  Zn696  1  0.66452903  0.00305207  0.33119570  1.0
  Zn  Zn697  1  0.66452903  0.33638540  0.33119570  1.0
  Zn  Zn698  1  0.66452903  0.66971873  0.33119570  1.0
  Zn  Zn699  1  0.99786237  0.00305207  0.33119570  1.0
  Zn  Zn700  1  0.99786237  0.33638540  0.33119570  1.0
  Zn  Zn701  1  0.99786237  0.66971873  0.33119570  1.0
  Zn  Zn702  1  0.18373957  0.04147313  0.30237990  1.0
  Zn  Zn703  1  0.18373957  0.37480647  0.30237990  1.0
  Zn  Zn704  1  0.18373957  0.70813980  0.30237990  1.0
  Zn  Zn705  1  0.51707290  0.04147313  0.30237990  1.0
  Zn  Zn706  1  0.51707290  0.37480647  0.30237990  1.0
  Zn  Zn707  1  0.51707290  0.70813980  0.30237990  1.0
  Zn  Zn708  1  0.85040623  0.04147313  0.30237990  1.0
  Zn  Zn709  1  0.85040623  0.37480647  0.30237990  1.0
  Zn  Zn710  1  0.85040623  0.70813980  0.30237990  1.0
  Zn  Zn711  1  0.08373957  0.17480647  0.20237990  1.0
  Zn  Zn712  1  0.08373957  0.50813980  0.20237990  1.0
  Zn  Zn713  1  0.08373957  0.84147313  0.20237990  1.0
  Zn  Zn714  1  0.41707290  0.17480647  0.20237990  1.0
  Zn  Zn715  1  0.41707290  0.50813980  0.20237990  1.0
  Zn  Zn716  1  0.41707290  0.84147313  0.20237990  1.0
  Zn  Zn717  1  0.75040623  0.17480647  0.20237990  1.0
  Zn  Zn718  1  0.75040623  0.50813980  0.20237990  1.0
  Zn  Zn719  1  0.75040623  0.84147313  0.20237990  1.0
  Zn  Zn720  1  0.26390660  0.07333920  0.35168460  1.0
  Zn  Zn721  1  0.26390660  0.40667253  0.35168460  1.0
  Zn  Zn722  1  0.26390660  0.74000587  0.35168460  1.0
  Zn  Zn723  1  0.59723993  0.07333920  0.35168460  1.0
  Zn  Zn724  1  0.59723993  0.40667253  0.35168460  1.0
  Zn  Zn725  1  0.59723993  0.74000587  0.35168460  1.0
  Zn  Zn726  1  0.93057327  0.07333920  0.35168460  1.0
  Zn  Zn727  1  0.93057327  0.40667253  0.35168460  1.0
  Zn  Zn728  1  0.93057327  0.74000587  0.35168460  1.0
  Zn  Zn729  1  0.16390660  0.20667253  0.25168460  1.0
  Zn  Zn730  1  0.16390660  0.54000587  0.25168460  1.0
  Zn  Zn731  1  0.16390660  0.87333920  0.25168460  1.0
  Zn  Zn732  1  0.49723993  0.20667253  0.25168460  1.0
  Zn  Zn733  1  0.49723993  0.54000587  0.25168460  1.0
  Zn  Zn734  1  0.49723993  0.87333920  0.25168460  1.0
  Zn  Zn735  1  0.83057327  0.20667253  0.25168460  1.0
  Zn  Zn736  1  0.83057327  0.54000587  0.25168460  1.0
  Zn  Zn737  1  0.83057327  0.87333920  0.25168460  1.0
  Zn  Zn738  1  0.12712907  0.29089480  0.37268440  1.0
  Zn  Zn739  1  0.12712907  0.62422813  0.37268440  1.0
  Zn  Zn740  1  0.12712907  0.95756147  0.37268440  1.0
  Zn  Zn741  1  0.46046240  0.29089480  0.37268440  1.0
  Zn  Zn742  1  0.46046240  0.62422813  0.37268440  1.0
  Zn  Zn743  1  0.46046240  0.95756147  0.37268440  1.0
  Zn  Zn744  1  0.79379573  0.29089480  0.37268440  1.0
  Zn  Zn745  1  0.79379573  0.62422813  0.37268440  1.0
  Zn  Zn746  1  0.79379573  0.95756147  0.37268440  1.0
  Zn  Zn747  1  0.02712907  0.09089480  0.27268440  1.0
  Zn  Zn748  1  0.02712907  0.42422813  0.27268440  1.0
  Zn  Zn749  1  0.02712907  0.75756147  0.27268440  1.0
  Zn  Zn750  1  0.36046240  0.09089480  0.27268440  1.0
  Zn  Zn751  1  0.36046240  0.42422813  0.27268440  1.0
  Zn  Zn752  1  0.36046240  0.75756147  0.27268440  1.0
  Zn  Zn753  1  0.69379573  0.09089480  0.27268440  1.0
  Zn  Zn754  1  0.69379573  0.42422813  0.27268440  1.0
  Zn  Zn755  1  0.69379573  0.75756147  0.27268440  1.0
  Zn  Zn756  1  0.29901780  0.14356160  0.29901780  1.0
  Zn  Zn757  1  0.29901780  0.47689493  0.29901780  1.0
  Zn  Zn758  1  0.29901780  0.81022827  0.29901780  1.0
  Zn  Zn759  1  0.63235113  0.14356160  0.29901780  1.0
  Zn  Zn760  1  0.63235113  0.47689493  0.29901780  1.0
  Zn  Zn761  1  0.63235113  0.81022827  0.29901780  1.0
  Zn  Zn762  1  0.96568447  0.14356160  0.29901780  1.0
  Zn  Zn763  1  0.96568447  0.47689493  0.29901780  1.0
  Zn  Zn764  1  0.96568447  0.81022827  0.29901780  1.0
  Zn  Zn765  1  0.06568447  0.01022827  0.39901780  1.0
  Zn  Zn766  1  0.06568447  0.34356160  0.39901780  1.0
  Zn  Zn767  1  0.06568447  0.67689493  0.39901780  1.0
  Zn  Zn768  1  0.39901780  0.01022827  0.39901780  1.0
  Zn  Zn769  1  0.39901780  0.34356160  0.39901780  1.0
  Zn  Zn770  1  0.39901780  0.67689493  0.39901780  1.0
  Zn  Zn771  1  0.73235113  0.01022827  0.39901780  1.0
  Zn  Zn772  1  0.73235113  0.34356160  0.39901780  1.0
  Zn  Zn773  1  0.73235113  0.67689493  0.39901780  1.0
  Zn  Zn774  1  0.09689820  0.32959173  0.31314420  1.0
  Zn  Zn775  1  0.09689820  0.66292507  0.31314420  1.0
  Zn  Zn776  1  0.09689820  0.99625840  0.31314420  1.0
  Zn  Zn777  1  0.43023153  0.32959173  0.31314420  1.0
  Zn  Zn778  1  0.43023153  0.66292507  0.31314420  1.0
  Zn  Zn779  1  0.43023153  0.99625840  0.31314420  1.0
  Zn  Zn780  1  0.76356487  0.32959173  0.31314420  1.0
  Zn  Zn781  1  0.76356487  0.66292507  0.31314420  1.0
  Zn  Zn782  1  0.76356487  0.99625840  0.31314420  1.0
  Zn  Zn783  1  0.33023153  0.12959173  0.21314420  1.0
  Zn  Zn784  1  0.33023153  0.46292507  0.21314420  1.0
  Zn  Zn785  1  0.33023153  0.79625840  0.21314420  1.0
  Zn  Zn786  1  0.66356487  0.12959173  0.21314420  1.0
  Zn  Zn787  1  0.66356487  0.46292507  0.21314420  1.0
  Zn  Zn788  1  0.66356487  0.79625840  0.21314420  1.0
  Zn  Zn789  1  0.99689820  0.12959173  0.21314420  1.0
  Zn  Zn790  1  0.99689820  0.46292507  0.21314420  1.0
  Zn  Zn791  1  0.99689820  0.79625840  0.21314420  1.0
  Zn  Zn792  1  0.11789800  0.21381400  0.33414400  1.0
  Zn  Zn793  1  0.11789800  0.54714733  0.33414400  1.0
  Zn  Zn794  1  0.11789800  0.88048067  0.33414400  1.0
  Zn  Zn795  1  0.45123133  0.21381400  0.33414400  1.0
  Zn  Zn796  1  0.45123133  0.54714733  0.33414400  1.0
  Zn  Zn797  1  0.45123133  0.88048067  0.33414400  1.0
  Zn  Zn798  1  0.78456467  0.21381400  0.33414400  1.0
  Zn  Zn799  1  0.78456467  0.54714733  0.33414400  1.0
  Zn  Zn800  1  0.78456467  0.88048067  0.33414400  1.0
  Zn  Zn801  1  0.01789800  0.01381400  0.23414400  1.0
  Zn  Zn802  1  0.01789800  0.34714733  0.23414400  1.0
  Zn  Zn803  1  0.01789800  0.68048067  0.23414400  1.0
  Zn  Zn804  1  0.35123133  0.01381400  0.23414400  1.0
  Zn  Zn805  1  0.35123133  0.34714733  0.23414400  1.0
  Zn  Zn806  1  0.35123133  0.68048067  0.23414400  1.0
  Zn  Zn807  1  0.68456467  0.01381400  0.23414400  1.0
  Zn  Zn808  1  0.68456467  0.34714733  0.23414400  1.0
  Zn  Zn809  1  0.68456467  0.68048067  0.23414400  1.0
  Zn  Zn810  1  0.07934260  0.29448053  0.20781060  1.0
  Zn  Zn811  1  0.07934260  0.62781387  0.20781060  1.0
  Zn  Zn812  1  0.07934260  0.96114720  0.20781060  1.0
  Zn  Zn813  1  0.41267593  0.29448053  0.20781060  1.0
  Zn  Zn814  1  0.41267593  0.62781387  0.20781060  1.0
  Zn  Zn815  1  0.41267593  0.96114720  0.20781060  1.0
  Zn  Zn816  1  0.74600927  0.29448053  0.20781060  1.0
  Zn  Zn817  1  0.74600927  0.62781387  0.20781060  1.0
  Zn  Zn818  1  0.74600927  0.96114720  0.20781060  1.0
  Zn  Zn819  1  0.17934260  0.16114720  0.30781060  1.0
  Zn  Zn820  1  0.17934260  0.49448053  0.30781060  1.0
  Zn  Zn821  1  0.17934260  0.82781387  0.30781060  1.0
  Zn  Zn822  1  0.51267593  0.16114720  0.30781060  1.0
  Zn  Zn823  1  0.51267593  0.49448053  0.30781060  1.0
  Zn  Zn824  1  0.51267593  0.82781387  0.30781060  1.0
  Zn  Zn825  1  0.84600927  0.16114720  0.30781060  1.0
  Zn  Zn826  1  0.84600927  0.49448053  0.30781060  1.0
  Zn  Zn827  1  0.84600927  0.82781387  0.30781060  1.0
  Zn  Zn828  1  0.03250767  0.20081067  0.27806300  1.0
  Zn  Zn829  1  0.03250767  0.53414400  0.27806300  1.0
  Zn  Zn830  1  0.03250767  0.86747733  0.27806300  1.0
  Zn  Zn831  1  0.36584100  0.20081067  0.27806300  1.0
  Zn  Zn832  1  0.36584100  0.53414400  0.27806300  1.0
  Zn  Zn833  1  0.36584100  0.86747733  0.27806300  1.0
  Zn  Zn834  1  0.69917433  0.20081067  0.27806300  1.0
  Zn  Zn835  1  0.69917433  0.53414400  0.27806300  1.0
  Zn  Zn836  1  0.69917433  0.86747733  0.27806300  1.0
  Zn  Zn837  1  0.13250767  0.06747733  0.37806300  1.0
  Zn  Zn838  1  0.13250767  0.40081067  0.37806300  1.0
  Zn  Zn839  1  0.13250767  0.73414400  0.37806300  1.0
  Zn  Zn840  1  0.46584100  0.06747733  0.37806300  1.0
  Zn  Zn841  1  0.46584100  0.40081067  0.37806300  1.0
  Zn  Zn842  1  0.46584100  0.73414400  0.37806300  1.0
  Zn  Zn843  1  0.79917433  0.06747733  0.37806300  1.0
  Zn  Zn844  1  0.79917433  0.40081067  0.37806300  1.0
  Zn  Zn845  1  0.79917433  0.73414400  0.37806300  1.0
  Zn  Zn846  1  0.16928520  0.31658840  0.25706320  1.0
  Zn  Zn847  1  0.16928520  0.64992173  0.25706320  1.0
  Zn  Zn848  1  0.16928520  0.98325507  0.25706320  1.0
  Zn  Zn849  1  0.50261853  0.31658840  0.25706320  1.0
  Zn  Zn850  1  0.50261853  0.64992173  0.25706320  1.0
  Zn  Zn851  1  0.50261853  0.98325507  0.25706320  1.0
  Zn  Zn852  1  0.83595187  0.31658840  0.25706320  1.0
  Zn  Zn853  1  0.83595187  0.64992173  0.25706320  1.0
  Zn  Zn854  1  0.83595187  0.98325507  0.25706320  1.0
  Zn  Zn855  1  0.26928520  0.18325507  0.35706320  1.0
  Zn  Zn856  1  0.26928520  0.51658840  0.35706320  1.0
  Zn  Zn857  1  0.26928520  0.84992173  0.35706320  1.0
  Zn  Zn858  1  0.60261853  0.18325507  0.35706320  1.0
  Zn  Zn859  1  0.60261853  0.51658840  0.35706320  1.0
  Zn  Zn860  1  0.60261853  0.84992173  0.35706320  1.0
  Zn  Zn861  1  0.93595187  0.18325507  0.35706320  1.0
  Zn  Zn862  1  0.93595187  0.51658840  0.35706320  1.0
  Zn  Zn863  1  0.93595187  0.84992173  0.35706320  1.0
  Zn  Zn864  1  0.05006327  0.23592187  0.38339660  1.0
  Zn  Zn865  1  0.05006327  0.56925520  0.38339660  1.0
  Zn  Zn866  1  0.05006327  0.90258853  0.38339660  1.0
  Zn  Zn867  1  0.38339660  0.23592187  0.38339660  1.0
  Zn  Zn868  1  0.38339660  0.56925520  0.38339660  1.0
  Zn  Zn869  1  0.38339660  0.90258853  0.38339660  1.0
  Zn  Zn870  1  0.71672993  0.23592187  0.38339660  1.0
  Zn  Zn871  1  0.71672993  0.56925520  0.38339660  1.0
  Zn  Zn872  1  0.71672993  0.90258853  0.38339660  1.0
  Zn  Zn873  1  0.28339660  0.03592187  0.28339660  1.0
  Zn  Zn874  1  0.28339660  0.36925520  0.28339660  1.0
  Zn  Zn875  1  0.28339660  0.70258853  0.28339660  1.0
  Zn  Zn876  1  0.61672993  0.03592187  0.28339660  1.0
  Zn  Zn877  1  0.61672993  0.36925520  0.28339660  1.0
  Zn  Zn878  1  0.61672993  0.70258853  0.28339660  1.0
  Zn  Zn879  1  0.95006327  0.03592187  0.28339660  1.0
  Zn  Zn880  1  0.95006327  0.36925520  0.28339660  1.0
  Zn  Zn881  1  0.95006327  0.70258853  0.28339660  1.0
  Zn  Zn882  1  0.22243527  0.32372987  0.33952260  1.0
  Zn  Zn883  1  0.22243527  0.65706320  0.33952260  1.0
  Zn  Zn884  1  0.22243527  0.99039653  0.33952260  1.0
  Zn  Zn885  1  0.55576860  0.32372987  0.33952260  1.0
  Zn  Zn886  1  0.55576860  0.65706320  0.33952260  1.0
  Zn  Zn887  1  0.55576860  0.99039653  0.33952260  1.0
  Zn  Zn888  1  0.88910193  0.32372987  0.33952260  1.0
  Zn  Zn889  1  0.88910193  0.65706320  0.33952260  1.0
  Zn  Zn890  1  0.88910193  0.99039653  0.33952260  1.0
  Zn  Zn891  1  0.12243527  0.12372987  0.23952260  1.0
  Zn  Zn892  1  0.12243527  0.45706320  0.23952260  1.0
  Zn  Zn893  1  0.12243527  0.79039653  0.23952260  1.0
  Zn  Zn894  1  0.45576860  0.12372987  0.23952260  1.0
  Zn  Zn895  1  0.45576860  0.45706320  0.23952260  1.0
  Zn  Zn896  1  0.45576860  0.79039653  0.23952260  1.0
  Zn  Zn897  1  0.78910193  0.12372987  0.23952260  1.0
  Zn  Zn898  1  0.78910193  0.45706320  0.23952260  1.0
  Zn  Zn899  1  0.78910193  0.79039653  0.23952260  1.0
  Zn  Zn900  1  0.10143547  0.23950760  0.21852280  1.0
  Zn  Zn901  1  0.10143547  0.57284093  0.21852280  1.0
  Zn  Zn902  1  0.10143547  0.90617427  0.21852280  1.0
  Zn  Zn903  1  0.43476880  0.23950760  0.21852280  1.0
  Zn  Zn904  1  0.43476880  0.57284093  0.21852280  1.0
  Zn  Zn905  1  0.43476880  0.90617427  0.21852280  1.0
  Zn  Zn906  1  0.76810213  0.23950760  0.21852280  1.0
  Zn  Zn907  1  0.76810213  0.57284093  0.21852280  1.0
  Zn  Zn908  1  0.76810213  0.90617427  0.21852280  1.0
  Zn  Zn909  1  0.20143547  0.10617427  0.31852280  1.0
  Zn  Zn910  1  0.20143547  0.43950760  0.31852280  1.0
  Zn  Zn911  1  0.20143547  0.77284093  0.31852280  1.0
  Zn  Zn912  1  0.53476880  0.10617427  0.31852280  1.0
  Zn  Zn913  1  0.53476880  0.43950760  0.31852280  1.0
  Zn  Zn914  1  0.53476880  0.77284093  0.31852280  1.0
  Zn  Zn915  1  0.86810213  0.10617427  0.31852280  1.0
  Zn  Zn916  1  0.86810213  0.43950760  0.31852280  1.0
  Zn  Zn917  1  0.86810213  0.77284093  0.31852280  1.0
  Zn  Zn918  1  0.18732407  0.25350747  0.39218940  1.0
  Zn  Zn919  1  0.18732407  0.58684080  0.39218940  1.0
  Zn  Zn920  1  0.18732407  0.92017413  0.39218940  1.0
  Zn  Zn921  1  0.52065740  0.25350747  0.39218940  1.0
  Zn  Zn922  1  0.52065740  0.58684080  0.39218940  1.0
  Zn  Zn923  1  0.52065740  0.92017413  0.39218940  1.0
  Zn  Zn924  1  0.85399073  0.25350747  0.39218940  1.0
  Zn  Zn925  1  0.85399073  0.58684080  0.39218940  1.0
  Zn  Zn926  1  0.85399073  0.92017413  0.39218940  1.0
  Zn  Zn927  1  0.08732407  0.05350747  0.29218940  1.0
  Zn  Zn928  1  0.08732407  0.38684080  0.29218940  1.0
  Zn  Zn929  1  0.08732407  0.72017413  0.29218940  1.0
  Zn  Zn930  1  0.42065740  0.05350747  0.29218940  1.0
  Zn  Zn931  1  0.42065740  0.38684080  0.29218940  1.0
  Zn  Zn932  1  0.42065740  0.72017413  0.29218940  1.0
  Zn  Zn933  1  0.75399073  0.05350747  0.29218940  1.0
  Zn  Zn934  1  0.75399073  0.38684080  0.29218940  1.0
  Zn  Zn935  1  0.75399073  0.72017413  0.29218940  1.0
