# generated using pymatgen
data_Zn11Ni2
_symmetry_space_group_name_H-M   'P 1'
_cell_length_a   38.03229545
_cell_length_b   44.59681949
_cell_length_c   26.89289402
_cell_angle_alpha   95.76818118
_cell_angle_beta   90.00000000
_cell_angle_gamma   90.00000000
_symmetry_Int_Tables_number   1
_chemical_formula_structural   Zn11Ni2
_chemical_formula_sum   'Zn1188 Ni216'
_cell_volume   45382.60345905
_cell_formula_units_Z   108
loop_
 _symmetry_equiv_pos_site_id
 _symmetry_equiv_pos_as_xyz
  1  'x, y, z'
loop_
 _atom_site_type_symbol
 _atom_site_label
 _atom_site_symmetry_multiplicity
 _atom_site_fract_x
 _atom_site_fract_y
 _atom_site_fract_z
 _atom_site_occupancy
  Ni  Ni0  1  0.33333333  0.23929280  0.09404054  1.0
  Ni  Ni1  1  0.33333333  0.57262613  0.09404054  1.0
  Ni  Ni2  1  0.33333333  0.90595946  0.09404054  1.0
  Ni  Ni3  1  0.66666667  0.23929280  0.09404054  1.0
  Ni  Ni4  1  0.66666667  0.57262613  0.09404054  1.0
  Ni  Ni5  1  0.66666667  0.90595946  0.09404054  1.0
  Ni  Ni6  1  0.00000000  0.23929280  0.09404054  1.0
  Ni  Ni7  1  0.00000000  0.57262613  0.09404054  1.0
  Ni  Ni8  1  0.00000000  0.90595946  0.09404054  1.0
  Ni  Ni9  1  0.16666667  0.14405470  0.02261196  1.0
  Ni  Ni10  1  0.16666667  0.47738804  0.02261196  1.0
  Ni  Ni11  1  0.16666667  0.81072137  0.02261196  1.0
  Ni  Ni12  1  0.50000000  0.14405470  0.02261196  1.0
  Ni  Ni13  1  0.50000000  0.47738804  0.02261196  1.0
  Ni  Ni14  1  0.50000000  0.81072137  0.02261196  1.0
  Ni  Ni15  1  0.83333333  0.14405470  0.02261196  1.0
  Ni  Ni16  1  0.83333333  0.47738804  0.02261196  1.0
  Ni  Ni17  1  0.83333333  0.81072137  0.02261196  1.0
  Ni  Ni18  1  0.10973567  0.06272470  0.04701096  1.0
  Ni  Ni19  1  0.10973567  0.39605804  0.04701096  1.0
  Ni  Ni20  1  0.10973567  0.72939137  0.04701096  1.0
  Ni  Ni21  1  0.44306900  0.06272470  0.04701096  1.0
  Ni  Ni22  1  0.44306900  0.39605804  0.04701096  1.0
  Ni  Ni23  1  0.44306900  0.72939137  0.04701096  1.0
  Ni  Ni24  1  0.77640233  0.06272470  0.04701096  1.0
  Ni  Ni25  1  0.77640233  0.39605804  0.04701096  1.0
  Ni  Ni26  1  0.77640233  0.72939137  0.04701096  1.0
  Ni  Ni27  1  0.27640233  0.15796280  0.11843954  1.0
  Ni  Ni28  1  0.27640233  0.49129613  0.11843954  1.0
  Ni  Ni29  1  0.27640233  0.82462946  0.11843954  1.0
  Ni  Ni30  1  0.60973567  0.15796280  0.11843954  1.0
  Ni  Ni31  1  0.60973567  0.49129613  0.11843954  1.0
  Ni  Ni32  1  0.60973567  0.82462946  0.11843954  1.0
  Ni  Ni33  1  0.94306900  0.15796280  0.11843954  1.0
  Ni  Ni34  1  0.94306900  0.49129613  0.11843954  1.0
  Ni  Ni35  1  0.94306900  0.82462946  0.11843954  1.0
  Ni  Ni36  1  0.22359767  0.06272470  0.04701096  1.0
  Ni  Ni37  1  0.22359767  0.39605804  0.04701096  1.0
  Ni  Ni38  1  0.22359767  0.72939137  0.04701096  1.0
  Ni  Ni39  1  0.55693100  0.06272470  0.04701096  1.0
  Ni  Ni40  1  0.55693100  0.39605804  0.04701096  1.0
  Ni  Ni41  1  0.55693100  0.72939137  0.04701096  1.0
  Ni  Ni42  1  0.89026433  0.06272470  0.04701096  1.0
  Ni  Ni43  1  0.89026433  0.39605804  0.04701096  1.0
  Ni  Ni44  1  0.89026433  0.72939137  0.04701096  1.0
  Ni  Ni45  1  0.05693100  0.15796280  0.11843954  1.0
  Ni  Ni46  1  0.05693100  0.49129613  0.11843954  1.0
  Ni  Ni47  1  0.05693100  0.82462946  0.11843954  1.0
  Ni  Ni48  1  0.39026433  0.15796280  0.11843954  1.0
  Ni  Ni49  1  0.39026433  0.49129613  0.11843954  1.0
  Ni  Ni50  1  0.39026433  0.82462946  0.11843954  1.0
  Ni  Ni51  1  0.72359767  0.15796280  0.11843954  1.0
  Ni  Ni52  1  0.72359767  0.49129613  0.11843954  1.0
  Ni  Ni53  1  0.72359767  0.82462946  0.11843954  1.0
  Ni  Ni54  1  0.33333333  0.01628461  0.09757739  1.0
  Ni  Ni55  1  0.33333333  0.34961794  0.09757739  1.0
  Ni  Ni56  1  0.33333333  0.68295127  0.09757739  1.0
  Ni  Ni57  1  0.66666667  0.01628461  0.09757739  1.0
  Ni  Ni58  1  0.66666667  0.34961794  0.09757739  1.0
  Ni  Ni59  1  0.66666667  0.68295127  0.09757739  1.0
  Ni  Ni60  1  0.00000000  0.01628461  0.09757739  1.0
  Ni  Ni61  1  1.00000000  0.34961794  0.09757739  1.0
  Ni  Ni62  1  1.00000000  0.68295127  0.09757739  1.0
  Ni  Ni63  1  0.16666667  0.25437985  0.02614882  1.0
  Ni  Ni64  1  0.16666667  0.58771318  0.02614882  1.0
  Ni  Ni65  1  0.16666667  0.92104651  0.02614882  1.0
  Ni  Ni66  1  0.50000000  0.25437985  0.02614882  1.0
  Ni  Ni67  1  0.50000000  0.58771318  0.02614882  1.0
  Ni  Ni68  1  0.50000000  0.92104651  0.02614882  1.0
  Ni  Ni69  1  0.83333333  0.25437985  0.02614882  1.0
  Ni  Ni70  1  0.83333333  0.58771318  0.02614882  1.0
  Ni  Ni71  1  0.83333333  0.92104651  0.02614882  1.0
  Ni  Ni72  1  0.00000000  0.09643565  0.23689768  1.0
  Ni  Ni73  1  0.00000000  0.42976899  0.23689768  1.0
  Ni  Ni74  1  0.00000000  0.76310232  0.23689768  1.0
  Ni  Ni75  1  0.33333333  0.09643565  0.23689768  1.0
  Ni  Ni76  1  0.33333333  0.42976899  0.23689768  1.0
  Ni  Ni77  1  0.33333333  0.76310232  0.23689768  1.0
  Ni  Ni78  1  0.66666667  0.09643565  0.23689768  1.0
  Ni  Ni79  1  0.66666667  0.42976899  0.23689768  1.0
  Ni  Ni80  1  0.66666667  0.76310232  0.23689768  1.0
  Ni  Ni81  1  0.16666667  0.00119756  0.16546911  1.0
  Ni  Ni82  1  0.16666667  0.33453089  0.16546911  1.0
  Ni  Ni83  1  0.16666667  0.66786423  0.16546911  1.0
  Ni  Ni84  1  0.50000000  0.00119756  0.16546911  1.0
  Ni  Ni85  1  0.50000000  0.33453089  0.16546911  1.0
  Ni  Ni86  1  0.50000000  0.66786423  0.16546911  1.0
  Ni  Ni87  1  0.83333333  0.00119756  0.16546911  1.0
  Ni  Ni88  1  0.83333333  0.33453089  0.16546911  1.0
  Ni  Ni89  1  0.83333333  0.66786423  0.16546911  1.0
  Ni  Ni90  1  0.10973567  0.25320089  0.18986811  1.0
  Ni  Ni91  1  0.10973567  0.58653423  0.18986811  1.0
  Ni  Ni92  1  0.10973567  0.91986756  0.18986811  1.0
  Ni  Ni93  1  0.44306900  0.25320089  0.18986811  1.0
  Ni  Ni94  1  0.44306900  0.58653423  0.18986811  1.0
  Ni  Ni95  1  0.44306900  0.91986756  0.18986811  1.0
  Ni  Ni96  1  0.77640233  0.25320089  0.18986811  1.0
  Ni  Ni97  1  0.77640233  0.58653423  0.18986811  1.0
  Ni  Ni98  1  0.77640233  0.91986756  0.18986811  1.0
  Ni  Ni99  1  0.27640233  0.01510565  0.26129668  1.0
  Ni  Ni100  1  0.27640233  0.34843899  0.26129668  1.0
  Ni  Ni101  1  0.27640233  0.68177232  0.26129668  1.0
  Ni  Ni102  1  0.60973567  0.01510565  0.26129668  1.0
  Ni  Ni103  1  0.60973567  0.34843899  0.26129668  1.0
  Ni  Ni104  1  0.60973567  0.68177232  0.26129668  1.0
  Ni  Ni105  1  0.94306900  0.01510565  0.26129668  1.0
  Ni  Ni106  1  0.94306900  0.34843899  0.26129668  1.0
  Ni  Ni107  1  0.94306900  0.68177232  0.26129668  1.0
  Ni  Ni108  1  0.22359767  0.25320089  0.18986811  1.0
  Ni  Ni109  1  0.22359767  0.58653423  0.18986811  1.0
  Ni  Ni110  1  0.22359767  0.91986756  0.18986811  1.0
  Ni  Ni111  1  0.55693100  0.25320089  0.18986811  1.0
  Ni  Ni112  1  0.55693100  0.58653423  0.18986811  1.0
  Ni  Ni113  1  0.55693100  0.91986756  0.18986811  1.0
  Ni  Ni114  1  0.89026433  0.25320089  0.18986811  1.0
  Ni  Ni115  1  0.89026433  0.58653423  0.18986811  1.0
  Ni  Ni116  1  0.89026433  0.91986756  0.18986811  1.0
  Ni  Ni117  1  0.05693100  0.01510565  0.26129668  1.0
  Ni  Ni118  1  0.05693100  0.34843899  0.26129668  1.0
  Ni  Ni119  1  0.05693100  0.68177232  0.26129668  1.0
  Ni  Ni120  1  0.39026433  0.01510565  0.26129668  1.0
  Ni  Ni121  1  0.39026433  0.34843899  0.26129668  1.0
  Ni  Ni122  1  0.39026433  0.68177232  0.26129668  1.0
  Ni  Ni123  1  0.72359767  0.01510565  0.26129668  1.0
  Ni  Ni124  1  0.72359767  0.34843899  0.26129668  1.0
  Ni  Ni125  1  0.72359767  0.68177232  0.26129668  1.0
  Ni  Ni126  1  0.00000000  0.20676080  0.24043454  1.0
  Ni  Ni127  1  0.00000000  0.54009413  0.24043454  1.0
  Ni  Ni128  1  0.00000000  0.87342746  0.24043454  1.0
  Ni  Ni129  1  0.33333333  0.20676080  0.24043454  1.0
  Ni  Ni130  1  0.33333333  0.54009413  0.24043454  1.0
  Ni  Ni131  1  0.33333333  0.87342746  0.24043454  1.0
  Ni  Ni132  1  0.66666667  0.20676080  0.24043454  1.0
  Ni  Ni133  1  0.66666667  0.54009413  0.24043454  1.0
  Ni  Ni134  1  0.66666667  0.87342746  0.24043454  1.0
  Ni  Ni135  1  0.16666667  0.11152270  0.16900596  1.0
  Ni  Ni136  1  0.16666667  0.44485604  0.16900596  1.0
  Ni  Ni137  1  0.16666667  0.77818937  0.16900596  1.0
  Ni  Ni138  1  0.50000000  0.11152270  0.16900596  1.0
  Ni  Ni139  1  0.50000000  0.44485604  0.16900596  1.0
  Ni  Ni140  1  0.50000000  0.77818937  0.16900596  1.0
  Ni  Ni141  1  0.83333333  0.11152270  0.16900596  1.0
  Ni  Ni142  1  0.83333333  0.44485604  0.16900596  1.0
  Ni  Ni143  1  0.83333333  0.77818937  0.16900596  1.0
  Ni  Ni144  1  0.00000000  0.28691185  0.37975482  1.0
  Ni  Ni145  1  0.00000000  0.62024518  0.37975482  1.0
  Ni  Ni146  1  0.00000000  0.95357851  0.37975482  1.0
  Ni  Ni147  1  0.33333333  0.28691185  0.37975482  1.0
  Ni  Ni148  1  0.33333333  0.62024518  0.37975482  1.0
  Ni  Ni149  1  0.33333333  0.95357851  0.37975482  1.0
  Ni  Ni150  1  0.66666667  0.28691185  0.37975482  1.0
  Ni  Ni151  1  0.66666667  0.62024518  0.37975482  1.0
  Ni  Ni152  1  0.66666667  0.95357851  0.37975482  1.0
  Ni  Ni153  1  0.16666667  0.19167375  0.30832625  1.0
  Ni  Ni154  1  0.16666667  0.52500708  0.30832625  1.0
  Ni  Ni155  1  0.16666667  0.85834042  0.30832625  1.0
  Ni  Ni156  1  0.50000000  0.19167375  0.30832625  1.0
  Ni  Ni157  1  0.50000000  0.52500708  0.30832625  1.0
  Ni  Ni158  1  0.50000000  0.85834042  0.30832625  1.0
  Ni  Ni159  1  0.83333333  0.19167375  0.30832625  1.0
  Ni  Ni160  1  0.83333333  0.52500708  0.30832625  1.0
  Ni  Ni161  1  0.83333333  0.85834042  0.30832625  1.0
  Ni  Ni162  1  0.10973567  0.11034375  0.33272525  1.0
  Ni  Ni163  1  0.10973567  0.44367708  0.33272525  1.0
  Ni  Ni164  1  0.10973567  0.77701042  0.33272525  1.0
  Ni  Ni165  1  0.44306900  0.11034375  0.33272525  1.0
  Ni  Ni166  1  0.44306900  0.44367708  0.33272525  1.0
  Ni  Ni167  1  0.44306900  0.77701042  0.33272525  1.0
  Ni  Ni168  1  0.77640233  0.11034375  0.33272525  1.0
  Ni  Ni169  1  0.77640233  0.44367708  0.33272525  1.0
  Ni  Ni170  1  0.77640233  0.77701042  0.33272525  1.0
  Ni  Ni171  1  0.27640233  0.20558185  0.40415382  1.0
  Ni  Ni172  1  0.27640233  0.53891518  0.40415382  1.0
  Ni  Ni173  1  0.27640233  0.87224851  0.40415382  1.0
  Ni  Ni174  1  0.60973567  0.20558185  0.40415382  1.0
  Ni  Ni175  1  0.60973567  0.53891518  0.40415382  1.0
  Ni  Ni176  1  0.60973567  0.87224851  0.40415382  1.0
  Ni  Ni177  1  0.94306900  0.20558185  0.40415382  1.0
  Ni  Ni178  1  0.94306900  0.53891518  0.40415382  1.0
  Ni  Ni179  1  0.94306900  0.87224851  0.40415382  1.0
  Ni  Ni180  1  0.22359767  0.11034375  0.33272525  1.0
  Ni  Ni181  1  0.22359767  0.44367708  0.33272525  1.0
  Ni  Ni182  1  0.22359767  0.77701042  0.33272525  1.0
  Ni  Ni183  1  0.55693100  0.11034375  0.33272525  1.0
  Ni  Ni184  1  0.55693100  0.44367708  0.33272525  1.0
  Ni  Ni185  1  0.55693100  0.77701042  0.33272525  1.0
  Ni  Ni186  1  0.89026433  0.11034375  0.33272525  1.0
  Ni  Ni187  1  0.89026433  0.44367708  0.33272525  1.0
  Ni  Ni188  1  0.89026433  0.77701042  0.33272525  1.0
  Ni  Ni189  1  0.05693100  0.20558185  0.40415382  1.0
  Ni  Ni190  1  0.05693100  0.53891518  0.40415382  1.0
  Ni  Ni191  1  0.05693100  0.87224851  0.40415382  1.0
  Ni  Ni192  1  0.39026433  0.20558185  0.40415382  1.0
  Ni  Ni193  1  0.39026433  0.53891518  0.40415382  1.0
  Ni  Ni194  1  0.39026433  0.87224851  0.40415382  1.0
  Ni  Ni195  1  0.72359767  0.20558185  0.40415382  1.0
  Ni  Ni196  1  0.72359767  0.53891518  0.40415382  1.0
  Ni  Ni197  1  0.72359767  0.87224851  0.40415382  1.0
  Ni  Ni198  1  0.33333333  0.06390365  0.38329168  1.0
  Ni  Ni199  1  0.33333333  0.39723699  0.38329168  1.0
  Ni  Ni200  1  0.33333333  0.73057032  0.38329168  1.0
  Ni  Ni201  1  0.66666667  0.06390365  0.38329168  1.0
  Ni  Ni202  1  0.66666667  0.39723699  0.38329168  1.0
  Ni  Ni203  1  0.66666667  0.73057032  0.38329168  1.0
  Ni  Ni204  1  0.00000000  0.06390365  0.38329168  1.0
  Ni  Ni205  1  0.00000000  0.39723699  0.38329168  1.0
  Ni  Ni206  1  0.00000000  0.73057032  0.38329168  1.0
  Ni  Ni207  1  0.16666667  0.30199889  0.31186311  1.0
  Ni  Ni208  1  0.16666667  0.63533223  0.31186311  1.0
  Ni  Ni209  1  0.16666667  0.96866556  0.31186311  1.0
  Ni  Ni210  1  0.50000000  0.30199889  0.31186311  1.0
  Ni  Ni211  1  0.50000000  0.63533223  0.31186311  1.0
  Ni  Ni212  1  0.50000000  0.96866556  0.31186311  1.0
  Ni  Ni213  1  0.83333333  0.30199889  0.31186311  1.0
  Ni  Ni214  1  0.83333333  0.63533223  0.31186311  1.0
  Ni  Ni215  1  0.83333333  0.96866556  0.31186311  1.0
  Zn  Zn216  1  0.33333333  0.30332665  0.03000668  1.0
  Zn  Zn217  1  0.33333333  0.63665999  0.03000668  1.0
  Zn  Zn218  1  0.33333333  0.96999332  0.03000668  1.0
  Zn  Zn219  1  0.66666667  0.30332665  0.03000668  1.0
  Zn  Zn220  1  0.66666667  0.63665999  0.03000668  1.0
  Zn  Zn221  1  0.66666667  0.96999332  0.03000668  1.0
  Zn  Zn222  1  1.00000000  0.30332665  0.03000668  1.0
  Zn  Zn223  1  0.00000000  0.63665999  0.03000668  1.0
  Zn  Zn224  1  0.00000000  0.96999332  0.03000668  1.0
  Zn  Zn225  1  0.16666667  0.06523142  0.10143525  1.0
  Zn  Zn226  1  0.16666667  0.39856475  0.10143525  1.0
  Zn  Zn227  1  0.16666667  0.73189808  0.10143525  1.0
  Zn  Zn228  1  0.50000000  0.06523142  0.10143525  1.0
  Zn  Zn229  1  0.50000000  0.39856475  0.10143525  1.0
  Zn  Zn230  1  0.50000000  0.73189808  0.10143525  1.0
  Zn  Zn231  1  0.83333333  0.06523142  0.10143525  1.0
  Zn  Zn232  1  0.83333333  0.39856475  0.10143525  1.0
  Zn  Zn233  1  0.83333333  0.73189808  0.10143525  1.0
  Zn  Zn234  1  0.03502950  0.02003546  0.01499404  1.0
  Zn  Zn235  1  0.03502950  0.35336880  0.01499404  1.0
  Zn  Zn236  1  0.03502950  0.68670213  0.01499404  1.0
  Zn  Zn237  1  0.36836283  0.02003546  0.01499404  1.0
  Zn  Zn238  1  0.36836283  0.35336880  0.01499404  1.0
  Zn  Zn239  1  0.36836283  0.68670213  0.01499404  1.0
  Zn  Zn240  1  0.70169617  0.02003546  0.01499404  1.0
  Zn  Zn241  1  0.70169617  0.35336880  0.01499404  1.0
  Zn  Zn242  1  0.70169617  0.68670213  0.01499404  1.0
  Zn  Zn243  1  0.20169617  0.11527356  0.08642261  1.0
  Zn  Zn244  1  0.20169617  0.44860689  0.08642261  1.0
  Zn  Zn245  1  0.20169617  0.78194023  0.08642261  1.0
  Zn  Zn246  1  0.53502950  0.11527356  0.08642261  1.0
  Zn  Zn247  1  0.53502950  0.44860689  0.08642261  1.0
  Zn  Zn248  1  0.53502950  0.78194023  0.08642261  1.0
  Zn  Zn249  1  0.86836283  0.11527356  0.08642261  1.0
  Zn  Zn250  1  0.86836283  0.44860689  0.08642261  1.0
  Zn  Zn251  1  0.86836283  0.78194023  0.08642261  1.0
  Zn  Zn252  1  0.29830383  0.02003546  0.01499404  1.0
  Zn  Zn253  1  0.29830383  0.35336880  0.01499404  1.0
  Zn  Zn254  1  0.29830383  0.68670213  0.01499404  1.0
  Zn  Zn255  1  0.63163717  0.02003546  0.01499404  1.0
  Zn  Zn256  1  0.63163717  0.35336880  0.01499404  1.0
  Zn  Zn257  1  0.63163717  0.68670213  0.01499404  1.0
  Zn  Zn258  1  0.96497050  0.02003546  0.01499404  1.0
  Zn  Zn259  1  0.96497050  0.35336880  0.01499404  1.0
  Zn  Zn260  1  0.96497050  0.68670213  0.01499404  1.0
  Zn  Zn261  1  0.13163717  0.11527356  0.08642261  1.0
  Zn  Zn262  1  0.13163717  0.44860689  0.08642261  1.0
  Zn  Zn263  1  0.13163717  0.78194023  0.08642261  1.0
  Zn  Zn264  1  0.46497050  0.11527356  0.08642261  1.0
  Zn  Zn265  1  0.46497050  0.44860689  0.08642261  1.0
  Zn  Zn266  1  0.46497050  0.78194023  0.08642261  1.0
  Zn  Zn267  1  0.79830383  0.11527356  0.08642261  1.0
  Zn  Zn268  1  0.79830383  0.44860689  0.08642261  1.0
  Zn  Zn269  1  0.79830383  0.78194023  0.08642261  1.0
  Zn  Zn270  1  0.33333333  0.18048637  0.08278796  1.0
  Zn  Zn271  1  0.33333333  0.51381970  0.08278796  1.0
  Zn  Zn272  1  0.33333333  0.84715304  0.08278796  1.0
  Zn  Zn273  1  0.66666667  0.18048637  0.08278796  1.0
  Zn  Zn274  1  0.66666667  0.51381970  0.08278796  1.0
  Zn  Zn275  1  0.66666667  0.84715304  0.08278796  1.0
  Zn  Zn276  1  0.00000000  0.18048637  0.08278796  1.0
  Zn  Zn277  1  0.00000000  0.51381970  0.08278796  1.0
  Zn  Zn278  1  0.00000000  0.84715304  0.08278796  1.0
  Zn  Zn279  1  0.16666667  0.08524827  0.01135939  1.0
  Zn  Zn280  1  0.16666667  0.41858161  0.01135939  1.0
  Zn  Zn281  1  0.16666667  0.75191494  0.01135939  1.0
  Zn  Zn282  1  0.50000000  0.08524827  0.01135939  1.0
  Zn  Zn283  1  0.50000000  0.41858161  0.01135939  1.0
  Zn  Zn284  1  0.50000000  0.75191494  0.01135939  1.0
  Zn  Zn285  1  0.83333333  0.08524827  0.01135939  1.0
  Zn  Zn286  1  0.83333333  0.41858161  0.01135939  1.0
  Zn  Zn287  1  0.83333333  0.75191494  0.01135939  1.0
  Zn  Zn288  1  0.33333333  0.12270032  0.09199268  1.0
  Zn  Zn289  1  0.33333333  0.45603365  0.09199268  1.0
  Zn  Zn290  1  0.33333333  0.78936699  0.09199268  1.0
  Zn  Zn291  1  0.66666667  0.12270032  0.09199268  1.0
  Zn  Zn292  1  0.66666667  0.45603365  0.09199268  1.0
  Zn  Zn293  1  0.66666667  0.78936699  0.09199268  1.0
  Zn  Zn294  1  0.00000000  0.12270032  0.09199268  1.0
  Zn  Zn295  1  0.00000000  0.45603365  0.09199268  1.0
  Zn  Zn296  1  0.00000000  0.78936699  0.09199268  1.0
  Zn  Zn297  1  0.16666667  0.02746223  0.02056411  1.0
  Zn  Zn298  1  0.16666667  0.36079556  0.02056411  1.0
  Zn  Zn299  1  0.16666667  0.69412889  0.02056411  1.0
  Zn  Zn300  1  0.50000000  0.02746223  0.02056411  1.0
  Zn  Zn301  1  0.50000000  0.36079556  0.02056411  1.0
  Zn  Zn302  1  0.50000000  0.69412889  0.02056411  1.0
  Zn  Zn303  1  0.83333333  0.02746223  0.02056411  1.0
  Zn  Zn304  1  0.83333333  0.36079556  0.02056411  1.0
  Zn  Zn305  1  0.83333333  0.69412889  0.02056411  1.0
  Zn  Zn306  1  0.27401317  0.31640332  0.07625018  1.0
  Zn  Zn307  1  0.27401317  0.64973665  0.07625018  1.0
  Zn  Zn308  1  0.27401317  0.98306999  0.07625018  1.0
  Zn  Zn309  1  0.60734650  0.31640332  0.07625018  1.0
  Zn  Zn310  1  0.60734650  0.64973665  0.07625018  1.0
  Zn  Zn311  1  0.60734650  0.98306999  0.07625018  1.0
  Zn  Zn312  1  0.94067983  0.31640332  0.07625018  1.0
  Zn  Zn313  1  0.94067983  0.64973665  0.07625018  1.0
  Zn  Zn314  1  0.94067983  0.98306999  0.07625018  1.0
  Zn  Zn315  1  0.10734650  0.22116523  0.00482161  1.0
  Zn  Zn316  1  0.10734650  0.55449856  0.00482161  1.0
  Zn  Zn317  1  0.10734650  0.88783189  0.00482161  1.0
  Zn  Zn318  1  0.44067983  0.22116523  0.00482161  1.0
  Zn  Zn319  1  0.44067983  0.55449856  0.00482161  1.0
  Zn  Zn320  1  0.44067983  0.88783189  0.00482161  1.0
  Zn  Zn321  1  0.77401317  0.22116523  0.00482161  1.0
  Zn  Zn322  1  0.77401317  0.55449856  0.00482161  1.0
  Zn  Zn323  1  0.77401317  0.88783189  0.00482161  1.0
  Zn  Zn324  1  0.05932017  0.31640332  0.07625018  1.0
  Zn  Zn325  1  0.05932017  0.64973665  0.07625018  1.0
  Zn  Zn326  1  0.05932017  0.98306999  0.07625018  1.0
  Zn  Zn327  1  0.39265350  0.31640332  0.07625018  1.0
  Zn  Zn328  1  0.39265350  0.64973665  0.07625018  1.0
  Zn  Zn329  1  0.39265350  0.98306999  0.07625018  1.0
  Zn  Zn330  1  0.72598683  0.31640332  0.07625018  1.0
  Zn  Zn331  1  0.72598683  0.64973665  0.07625018  1.0
  Zn  Zn332  1  0.72598683  0.98306999  0.07625018  1.0
  Zn  Zn333  1  0.22598683  0.22116523  0.00482161  1.0
  Zn  Zn334  1  0.22598683  0.55449856  0.00482161  1.0
  Zn  Zn335  1  0.22598683  0.88783189  0.00482161  1.0
  Zn  Zn336  1  0.55932017  0.22116523  0.00482161  1.0
  Zn  Zn337  1  0.55932017  0.55449856  0.00482161  1.0
  Zn  Zn338  1  0.55932017  0.88783189  0.00482161  1.0
  Zn  Zn339  1  0.89265350  0.22116523  0.00482161  1.0
  Zn  Zn340  1  0.89265350  0.55449856  0.00482161  1.0
  Zn  Zn341  1  0.89265350  0.88783189  0.00482161  1.0
  Zn  Zn342  1  0.00000000  0.06781308  0.05082725  1.0
  Zn  Zn343  1  0.00000000  0.40114642  0.05082725  1.0
  Zn  Zn344  1  0.00000000  0.73447975  0.05082725  1.0
  Zn  Zn345  1  0.33333333  0.06781308  0.05082725  1.0
  Zn  Zn346  1  0.33333333  0.40114642  0.05082725  1.0
  Zn  Zn347  1  0.33333333  0.73447975  0.05082725  1.0
  Zn  Zn348  1  0.66666667  0.06781308  0.05082725  1.0
  Zn  Zn349  1  0.66666667  0.40114642  0.05082725  1.0
  Zn  Zn350  1  0.66666667  0.73447975  0.05082725  1.0
  Zn  Zn351  1  0.16666667  0.16305118  0.12225582  1.0
  Zn  Zn352  1  0.16666667  0.49638451  0.12225582  1.0
  Zn  Zn353  1  0.16666667  0.82971785  0.12225582  1.0
  Zn  Zn354  1  0.50000000  0.16305118  0.12225582  1.0
  Zn  Zn355  1  0.50000000  0.49638451  0.12225582  1.0
  Zn  Zn356  1  0.50000000  0.82971785  0.12225582  1.0
  Zn  Zn357  1  0.83333333  0.16305118  0.12225582  1.0
  Zn  Zn358  1  0.83333333  0.49638451  0.12225582  1.0
  Zn  Zn359  1  0.83333333  0.82971785  0.12225582  1.0
  Zn  Zn360  1  0.22598683  0.30268151  0.13799832  1.0
  Zn  Zn361  1  0.22598683  0.63601485  0.13799832  1.0
  Zn  Zn362  1  0.22598683  0.96934818  0.13799832  1.0
  Zn  Zn363  1  0.55932017  0.30268151  0.13799832  1.0
  Zn  Zn364  1  0.55932017  0.63601485  0.13799832  1.0
  Zn  Zn365  1  0.55932017  0.96934818  0.13799832  1.0
  Zn  Zn366  1  0.89265350  0.30268151  0.13799832  1.0
  Zn  Zn367  1  0.89265350  0.63601485  0.13799832  1.0
  Zn  Zn368  1  0.89265350  0.96934818  0.13799832  1.0
  Zn  Zn369  1  0.05932017  0.20744342  0.06656975  1.0
  Zn  Zn370  1  0.05932017  0.54077675  0.06656975  1.0
  Zn  Zn371  1  0.05932017  0.87411008  0.06656975  1.0
  Zn  Zn372  1  0.39265350  0.20744342  0.06656975  1.0
  Zn  Zn373  1  0.39265350  0.54077675  0.06656975  1.0
  Zn  Zn374  1  0.39265350  0.87411008  0.06656975  1.0
  Zn  Zn375  1  0.72598683  0.20744342  0.06656975  1.0
  Zn  Zn376  1  0.72598683  0.54077675  0.06656975  1.0
  Zn  Zn377  1  0.72598683  0.87411008  0.06656975  1.0
  Zn  Zn378  1  0.10734650  0.30268151  0.13799832  1.0
  Zn  Zn379  1  0.10734650  0.63601485  0.13799832  1.0
  Zn  Zn380  1  0.10734650  0.96934818  0.13799832  1.0
  Zn  Zn381  1  0.44067983  0.30268151  0.13799832  1.0
  Zn  Zn382  1  0.44067983  0.63601485  0.13799832  1.0
  Zn  Zn383  1  0.44067983  0.96934818  0.13799832  1.0
  Zn  Zn384  1  0.77401317  0.30268151  0.13799832  1.0
  Zn  Zn385  1  0.77401317  0.63601485  0.13799832  1.0
  Zn  Zn386  1  0.77401317  0.96934818  0.13799832  1.0
  Zn  Zn387  1  0.27401317  0.20744342  0.06656975  1.0
  Zn  Zn388  1  0.27401317  0.54077675  0.06656975  1.0
  Zn  Zn389  1  0.27401317  0.87411008  0.06656975  1.0
  Zn  Zn390  1  0.60734650  0.20744342  0.06656975  1.0
  Zn  Zn391  1  0.60734650  0.54077675  0.06656975  1.0
  Zn  Zn392  1  0.60734650  0.87411008  0.06656975  1.0
  Zn  Zn393  1  0.94067983  0.20744342  0.06656975  1.0
  Zn  Zn394  1  0.94067983  0.54077675  0.06656975  1.0
  Zn  Zn395  1  0.94067983  0.87411008  0.06656975  1.0
  Zn  Zn396  1  0.12277767  0.01999699  0.10278068  1.0
  Zn  Zn397  1  0.12277767  0.35333032  0.10278068  1.0
  Zn  Zn398  1  0.12277767  0.68666365  0.10278068  1.0
  Zn  Zn399  1  0.45611100  0.01999699  0.10278068  1.0
  Zn  Zn400  1  0.45611100  0.35333032  0.10278068  1.0
  Zn  Zn401  1  0.45611100  0.68666365  0.10278068  1.0
  Zn  Zn402  1  0.78944433  0.01999699  0.10278068  1.0
  Zn  Zn403  1  0.78944433  0.35333032  0.10278068  1.0
  Zn  Zn404  1  0.78944433  0.68666365  0.10278068  1.0
  Zn  Zn405  1  0.28944433  0.25809223  0.03135211  1.0
  Zn  Zn406  1  0.28944433  0.59142556  0.03135211  1.0
  Zn  Zn407  1  0.28944433  0.92475889  0.03135211  1.0
  Zn  Zn408  1  0.62277767  0.25809223  0.03135211  1.0
  Zn  Zn409  1  0.62277767  0.59142556  0.03135211  1.0
  Zn  Zn410  1  0.62277767  0.92475889  0.03135211  1.0
  Zn  Zn411  1  0.95611100  0.25809223  0.03135211  1.0
  Zn  Zn412  1  0.95611100  0.59142556  0.03135211  1.0
  Zn  Zn413  1  0.95611100  0.92475889  0.03135211  1.0
  Zn  Zn414  1  0.33333333  0.29571137  0.12539996  1.0
  Zn  Zn415  1  0.33333333  0.62904470  0.12539996  1.0
  Zn  Zn416  1  0.33333333  0.96237804  0.12539996  1.0
  Zn  Zn417  1  0.66666667  0.29571137  0.12539996  1.0
  Zn  Zn418  1  0.66666667  0.62904470  0.12539996  1.0
  Zn  Zn419  1  0.66666667  0.96237804  0.12539996  1.0
  Zn  Zn420  1  0.00000000  0.29571137  0.12539996  1.0
  Zn  Zn421  1  0.00000000  0.62904470  0.12539996  1.0
  Zn  Zn422  1  0.00000000  0.96237804  0.12539996  1.0
  Zn  Zn423  1  0.16666667  0.20047327  0.05397139  1.0
  Zn  Zn424  1  0.16666667  0.53380661  0.05397139  1.0
  Zn  Zn425  1  0.16666667  0.86713994  0.05397139  1.0
  Zn  Zn426  1  0.50000000  0.20047327  0.05397139  1.0
  Zn  Zn427  1  0.50000000  0.53380661  0.05397139  1.0
  Zn  Zn428  1  0.50000000  0.86713994  0.05397139  1.0
  Zn  Zn429  1  0.83333333  0.20047327  0.05397139  1.0
  Zn  Zn430  1  0.83333333  0.53380661  0.05397139  1.0
  Zn  Zn431  1  0.83333333  0.86713994  0.05397139  1.0
  Zn  Zn432  1  0.21055567  0.01999699  0.10278068  1.0
  Zn  Zn433  1  0.21055567  0.35333032  0.10278068  1.0
  Zn  Zn434  1  0.21055567  0.68666365  0.10278068  1.0
  Zn  Zn435  1  0.54388900  0.01999699  0.10278068  1.0
  Zn  Zn436  1  0.54388900  0.35333032  0.10278068  1.0
  Zn  Zn437  1  0.54388900  0.68666365  0.10278068  1.0
  Zn  Zn438  1  0.87722233  0.01999699  0.10278068  1.0
  Zn  Zn439  1  0.87722233  0.35333032  0.10278068  1.0
  Zn  Zn440  1  0.87722233  0.68666365  0.10278068  1.0
  Zn  Zn441  1  0.04388900  0.25809223  0.03135211  1.0
  Zn  Zn442  1  0.04388900  0.59142556  0.03135211  1.0
  Zn  Zn443  1  0.04388900  0.92475889  0.03135211  1.0
  Zn  Zn444  1  0.37722233  0.25809223  0.03135211  1.0
  Zn  Zn445  1  0.37722233  0.59142556  0.03135211  1.0
  Zn  Zn446  1  0.37722233  0.92475889  0.03135211  1.0
  Zn  Zn447  1  0.71055567  0.25809223  0.03135211  1.0
  Zn  Zn448  1  0.71055567  0.59142556  0.03135211  1.0
  Zn  Zn449  1  0.71055567  0.92475889  0.03135211  1.0
  Zn  Zn450  1  0.05854367  0.26156746  0.13030954  1.0
  Zn  Zn451  1  0.05854367  0.59490080  0.13030954  1.0
  Zn  Zn452  1  0.05854367  0.92823413  0.13030954  1.0
  Zn  Zn453  1  0.39187700  0.26156746  0.13030954  1.0
  Zn  Zn454  1  0.39187700  0.59490080  0.13030954  1.0
  Zn  Zn455  1  0.39187700  0.92823413  0.13030954  1.0
  Zn  Zn456  1  0.72521033  0.26156746  0.13030954  1.0
  Zn  Zn457  1  0.72521033  0.59490080  0.13030954  1.0
  Zn  Zn458  1  0.72521033  0.92823413  0.13030954  1.0
  Zn  Zn459  1  0.22521033  0.16632937  0.05888096  1.0
  Zn  Zn460  1  0.22521033  0.49966270  0.05888096  1.0
  Zn  Zn461  1  0.22521033  0.83299604  0.05888096  1.0
  Zn  Zn462  1  0.55854367  0.16632937  0.05888096  1.0
  Zn  Zn463  1  0.55854367  0.49966270  0.05888096  1.0
  Zn  Zn464  1  0.55854367  0.83299604  0.05888096  1.0
  Zn  Zn465  1  0.89187700  0.16632937  0.05888096  1.0
  Zn  Zn466  1  0.89187700  0.49966270  0.05888096  1.0
  Zn  Zn467  1  0.89187700  0.83299604  0.05888096  1.0
  Zn  Zn468  1  0.26909933  0.10363080  0.07769054  1.0
  Zn  Zn469  1  0.26909933  0.43696413  0.07769054  1.0
  Zn  Zn470  1  0.26909933  0.77029746  0.07769054  1.0
  Zn  Zn471  1  0.60243267  0.10363080  0.07769054  1.0
  Zn  Zn472  1  0.60243267  0.43696413  0.07769054  1.0
  Zn  Zn473  1  0.60243267  0.77029746  0.07769054  1.0
  Zn  Zn474  1  0.93576600  0.10363080  0.07769054  1.0
  Zn  Zn475  1  0.93576600  0.43696413  0.07769054  1.0
  Zn  Zn476  1  0.93576600  0.77029746  0.07769054  1.0
  Zn  Zn477  1  0.10243267  0.00839270  0.00626196  1.0
  Zn  Zn478  1  0.10243267  0.34172604  0.00626196  1.0
  Zn  Zn479  1  0.10243267  0.67505937  0.00626196  1.0
  Zn  Zn480  1  0.43576600  0.00839270  0.00626196  1.0
  Zn  Zn481  1  0.43576600  0.34172604  0.00626196  1.0
  Zn  Zn482  1  0.43576600  0.67505937  0.00626196  1.0
  Zn  Zn483  1  0.76909933  0.00839270  0.00626196  1.0
  Zn  Zn484  1  0.76909933  0.34172604  0.00626196  1.0
  Zn  Zn485  1  0.76909933  0.67505937  0.00626196  1.0
  Zn  Zn486  1  0.05854367  0.04601185  0.10030982  1.0
  Zn  Zn487  1  0.05854367  0.37934518  0.10030982  1.0
  Zn  Zn488  1  0.05854367  0.71267851  0.10030982  1.0
  Zn  Zn489  1  0.39187700  0.04601185  0.10030982  1.0
  Zn  Zn490  1  0.39187700  0.37934518  0.10030982  1.0
  Zn  Zn491  1  0.39187700  0.71267851  0.10030982  1.0
  Zn  Zn492  1  0.72521033  0.04601185  0.10030982  1.0
  Zn  Zn493  1  0.72521033  0.37934518  0.10030982  1.0
  Zn  Zn494  1  0.72521033  0.71267851  0.10030982  1.0
  Zn  Zn495  1  0.22521033  0.28410708  0.02888125  1.0
  Zn  Zn496  1  0.22521033  0.61744042  0.02888125  1.0
  Zn  Zn497  1  0.22521033  0.95077375  0.02888125  1.0
  Zn  Zn498  1  0.55854367  0.28410708  0.02888125  1.0
  Zn  Zn499  1  0.55854367  0.61744042  0.02888125  1.0
  Zn  Zn500  1  0.55854367  0.95077375  0.02888125  1.0
  Zn  Zn501  1  0.89187700  0.28410708  0.02888125  1.0
  Zn  Zn502  1  0.89187700  0.61744042  0.02888125  1.0
  Zn  Zn503  1  0.89187700  0.95077375  0.02888125  1.0
  Zn  Zn504  1  0.27478967  0.04601185  0.10030982  1.0
  Zn  Zn505  1  0.27478967  0.37934518  0.10030982  1.0
  Zn  Zn506  1  0.27478967  0.71267851  0.10030982  1.0
  Zn  Zn507  1  0.60812300  0.04601185  0.10030982  1.0
  Zn  Zn508  1  0.60812300  0.37934518  0.10030982  1.0
  Zn  Zn509  1  0.60812300  0.71267851  0.10030982  1.0
  Zn  Zn510  1  0.94145633  0.04601185  0.10030982  1.0
  Zn  Zn511  1  0.94145633  0.37934518  0.10030982  1.0
  Zn  Zn512  1  0.94145633  0.71267851  0.10030982  1.0
  Zn  Zn513  1  0.10812300  0.28410708  0.02888125  1.0
  Zn  Zn514  1  0.10812300  0.61744042  0.02888125  1.0
  Zn  Zn515  1  0.10812300  0.95077375  0.02888125  1.0
  Zn  Zn516  1  0.44145633  0.28410708  0.02888125  1.0
  Zn  Zn517  1  0.44145633  0.61744042  0.02888125  1.0
  Zn  Zn518  1  0.44145633  0.95077375  0.02888125  1.0
  Zn  Zn519  1  0.77478967  0.28410708  0.02888125  1.0
  Zn  Zn520  1  0.77478967  0.61744042  0.02888125  1.0
  Zn  Zn521  1  0.77478967  0.95077375  0.02888125  1.0
  Zn  Zn522  1  0.06423400  0.10363080  0.07769054  1.0
  Zn  Zn523  1  0.06423400  0.43696413  0.07769054  1.0
  Zn  Zn524  1  0.06423400  0.77029746  0.07769054  1.0
  Zn  Zn525  1  0.39756733  0.10363080  0.07769054  1.0
  Zn  Zn526  1  0.39756733  0.43696413  0.07769054  1.0
  Zn  Zn527  1  0.39756733  0.77029746  0.07769054  1.0
  Zn  Zn528  1  0.73090067  0.10363080  0.07769054  1.0
  Zn  Zn529  1  0.73090067  0.43696413  0.07769054  1.0
  Zn  Zn530  1  0.73090067  0.77029746  0.07769054  1.0
  Zn  Zn531  1  0.23090067  0.00839270  0.00626196  1.0
  Zn  Zn532  1  0.23090067  0.34172604  0.00626196  1.0
  Zn  Zn533  1  0.23090067  0.67505937  0.00626196  1.0
  Zn  Zn534  1  0.56423400  0.00839270  0.00626196  1.0
  Zn  Zn535  1  0.56423400  0.34172604  0.00626196  1.0
  Zn  Zn536  1  0.56423400  0.67505937  0.00626196  1.0
  Zn  Zn537  1  0.89756733  0.00839270  0.00626196  1.0
  Zn  Zn538  1  0.89756733  0.34172604  0.00626196  1.0
  Zn  Zn539  1  0.89756733  0.67505937  0.00626196  1.0
  Zn  Zn540  1  0.27478967  0.26156746  0.13030954  1.0
  Zn  Zn541  1  0.27478967  0.59490080  0.13030954  1.0
  Zn  Zn542  1  0.27478967  0.92823413  0.13030954  1.0
  Zn  Zn543  1  0.60812300  0.26156746  0.13030954  1.0
  Zn  Zn544  1  0.60812300  0.59490080  0.13030954  1.0
  Zn  Zn545  1  0.60812300  0.92823413  0.13030954  1.0
  Zn  Zn546  1  0.94145633  0.26156746  0.13030954  1.0
  Zn  Zn547  1  0.94145633  0.59490080  0.13030954  1.0
  Zn  Zn548  1  0.94145633  0.92823413  0.13030954  1.0
  Zn  Zn549  1  0.10812300  0.16632937  0.05888096  1.0
  Zn  Zn550  1  0.10812300  0.49966270  0.05888096  1.0
  Zn  Zn551  1  0.10812300  0.83299604  0.05888096  1.0
  Zn  Zn552  1  0.44145633  0.16632937  0.05888096  1.0
  Zn  Zn553  1  0.44145633  0.49966270  0.05888096  1.0
  Zn  Zn554  1  0.44145633  0.83299604  0.05888096  1.0
  Zn  Zn555  1  0.77478967  0.16632937  0.05888096  1.0
  Zn  Zn556  1  0.77478967  0.49966270  0.05888096  1.0
  Zn  Zn557  1  0.77478967  0.83299604  0.05888096  1.0
  Zn  Zn558  1  0.04388900  0.14868861  0.02366839  1.0
  Zn  Zn559  1  0.04388900  0.48202194  0.02366839  1.0
  Zn  Zn560  1  0.04388900  0.81535527  0.02366839  1.0
  Zn  Zn561  1  0.37722233  0.14868861  0.02366839  1.0
  Zn  Zn562  1  0.37722233  0.48202194  0.02366839  1.0
  Zn  Zn563  1  0.37722233  0.81535527  0.02366839  1.0
  Zn  Zn564  1  0.71055567  0.14868861  0.02366839  1.0
  Zn  Zn565  1  0.71055567  0.48202194  0.02366839  1.0
  Zn  Zn566  1  0.71055567  0.81535527  0.02366839  1.0
  Zn  Zn567  1  0.21055567  0.24392670  0.09509696  1.0
  Zn  Zn568  1  0.21055567  0.57726004  0.09509696  1.0
  Zn  Zn569  1  0.21055567  0.91059337  0.09509696  1.0
  Zn  Zn570  1  0.54388900  0.24392670  0.09509696  1.0
  Zn  Zn571  1  0.54388900  0.57726004  0.09509696  1.0
  Zn  Zn572  1  0.54388900  0.91059337  0.09509696  1.0
  Zn  Zn573  1  0.87722233  0.24392670  0.09509696  1.0
  Zn  Zn574  1  0.87722233  0.57726004  0.09509696  1.0
  Zn  Zn575  1  0.87722233  0.91059337  0.09509696  1.0
  Zn  Zn576  1  0.33333333  0.21138718  0.00485882  1.0
  Zn  Zn577  1  0.33333333  0.54472051  0.00485882  1.0
  Zn  Zn578  1  0.33333333  0.87805385  0.00485882  1.0
  Zn  Zn579  1  0.66666667  0.21138718  0.00485882  1.0
  Zn  Zn580  1  0.66666667  0.54472051  0.00485882  1.0
  Zn  Zn581  1  0.66666667  0.87805385  0.00485882  1.0
  Zn  Zn582  1  0.00000000  0.21138718  0.00485882  1.0
  Zn  Zn583  1  0.00000000  0.54472051  0.00485882  1.0
  Zn  Zn584  1  0.00000000  0.87805385  0.00485882  1.0
  Zn  Zn585  1  0.16666667  0.30662527  0.07628739  1.0
  Zn  Zn586  1  0.16666667  0.63995861  0.07628739  1.0
  Zn  Zn587  1  0.16666667  0.97329194  0.07628739  1.0
  Zn  Zn588  1  0.50000000  0.30662527  0.07628739  1.0
  Zn  Zn589  1  0.50000000  0.63995861  0.07628739  1.0
  Zn  Zn590  1  0.50000000  0.97329194  0.07628739  1.0
  Zn  Zn591  1  0.83333333  0.30662527  0.07628739  1.0
  Zn  Zn592  1  0.83333333  0.63995861  0.07628739  1.0
  Zn  Zn593  1  0.83333333  0.97329194  0.07628739  1.0
  Zn  Zn594  1  0.28944433  0.14868861  0.02366839  1.0
  Zn  Zn595  1  0.28944433  0.48202194  0.02366839  1.0
  Zn  Zn596  1  0.28944433  0.81535527  0.02366839  1.0
  Zn  Zn597  1  0.62277767  0.14868861  0.02366839  1.0
  Zn  Zn598  1  0.62277767  0.48202194  0.02366839  1.0
  Zn  Zn599  1  0.62277767  0.81535527  0.02366839  1.0
  Zn  Zn600  1  0.95611100  0.14868861  0.02366839  1.0
  Zn  Zn601  1  0.95611100  0.48202194  0.02366839  1.0
  Zn  Zn602  1  0.95611100  0.81535527  0.02366839  1.0
  Zn  Zn603  1  0.12277767  0.24392670  0.09509696  1.0
  Zn  Zn604  1  0.12277767  0.57726004  0.09509696  1.0
  Zn  Zn605  1  0.12277767  0.91059337  0.09509696  1.0
  Zn  Zn606  1  0.45611100  0.24392670  0.09509696  1.0
  Zn  Zn607  1  0.45611100  0.57726004  0.09509696  1.0
  Zn  Zn608  1  0.45611100  0.91059337  0.09509696  1.0
  Zn  Zn609  1  0.78944433  0.24392670  0.09509696  1.0
  Zn  Zn610  1  0.78944433  0.57726004  0.09509696  1.0
  Zn  Zn611  1  0.78944433  0.91059337  0.09509696  1.0
  Zn  Zn612  1  0.00000000  0.16046951  0.17286382  1.0
  Zn  Zn613  1  0.00000000  0.49380285  0.17286382  1.0
  Zn  Zn614  1  0.00000000  0.82713618  0.17286382  1.0
  Zn  Zn615  1  0.33333333  0.16046951  0.17286382  1.0
  Zn  Zn616  1  0.33333333  0.49380285  0.17286382  1.0
  Zn  Zn617  1  0.33333333  0.82713618  0.17286382  1.0
  Zn  Zn618  1  0.66666667  0.16046951  0.17286382  1.0
  Zn  Zn619  1  0.66666667  0.49380285  0.17286382  1.0
  Zn  Zn620  1  0.66666667  0.82713618  0.17286382  1.0
  Zn  Zn621  1  0.16666667  0.25570761  0.24429239  1.0
  Zn  Zn622  1  0.16666667  0.58904094  0.24429239  1.0
  Zn  Zn623  1  0.16666667  0.92237427  0.24429239  1.0
  Zn  Zn624  1  0.50000000  0.25570761  0.24429239  1.0
  Zn  Zn625  1  0.50000000  0.58904094  0.24429239  1.0
  Zn  Zn626  1  0.50000000  0.92237427  0.24429239  1.0
  Zn  Zn627  1  0.83333333  0.25570761  0.24429239  1.0
  Zn  Zn628  1  0.83333333  0.58904094  0.24429239  1.0
  Zn  Zn629  1  0.83333333  0.92237427  0.24429239  1.0
  Zn  Zn630  1  0.03502950  0.21051165  0.15785118  1.0
  Zn  Zn631  1  0.03502950  0.54384499  0.15785118  1.0
  Zn  Zn632  1  0.03502950  0.87717832  0.15785118  1.0
  Zn  Zn633  1  0.36836283  0.21051165  0.15785118  1.0
  Zn  Zn634  1  0.36836283  0.54384499  0.15785118  1.0
  Zn  Zn635  1  0.36836283  0.87717832  0.15785118  1.0
  Zn  Zn636  1  0.70169617  0.21051165  0.15785118  1.0
  Zn  Zn637  1  0.70169617  0.54384499  0.15785118  1.0
  Zn  Zn638  1  0.70169617  0.87717832  0.15785118  1.0
  Zn  Zn639  1  0.20169617  0.30574975  0.22927975  1.0
  Zn  Zn640  1  0.20169617  0.63908308  0.22927975  1.0
  Zn  Zn641  1  0.20169617  0.97241642  0.22927975  1.0
  Zn  Zn642  1  0.53502950  0.30574975  0.22927975  1.0
  Zn  Zn643  1  0.53502950  0.63908308  0.22927975  1.0
  Zn  Zn644  1  0.53502950  0.97241642  0.22927975  1.0
  Zn  Zn645  1  0.86836283  0.30574975  0.22927975  1.0
  Zn  Zn646  1  0.86836283  0.63908308  0.22927975  1.0
  Zn  Zn647  1  0.86836283  0.97241642  0.22927975  1.0
  Zn  Zn648  1  0.29830383  0.21051165  0.15785118  1.0
  Zn  Zn649  1  0.29830383  0.54384499  0.15785118  1.0
  Zn  Zn650  1  0.29830383  0.87717832  0.15785118  1.0
  Zn  Zn651  1  0.63163717  0.21051165  0.15785118  1.0
  Zn  Zn652  1  0.63163717  0.54384499  0.15785118  1.0
  Zn  Zn653  1  0.63163717  0.87717832  0.15785118  1.0
  Zn  Zn654  1  0.96497050  0.21051165  0.15785118  1.0
  Zn  Zn655  1  0.96497050  0.54384499  0.15785118  1.0
  Zn  Zn656  1  0.96497050  0.87717832  0.15785118  1.0
  Zn  Zn657  1  0.13163717  0.30574975  0.22927975  1.0
  Zn  Zn658  1  0.13163717  0.63908308  0.22927975  1.0
  Zn  Zn659  1  0.13163717  0.97241642  0.22927975  1.0
  Zn  Zn660  1  0.46497050  0.30574975  0.22927975  1.0
  Zn  Zn661  1  0.46497050  0.63908308  0.22927975  1.0
  Zn  Zn662  1  0.46497050  0.97241642  0.22927975  1.0
  Zn  Zn663  1  0.79830383  0.30574975  0.22927975  1.0
  Zn  Zn664  1  0.79830383  0.63908308  0.22927975  1.0
  Zn  Zn665  1  0.79830383  0.97241642  0.22927975  1.0
  Zn  Zn666  1  0.33333333  0.03762923  0.22564511  1.0
  Zn  Zn667  1  0.33333333  0.37096256  0.22564511  1.0
  Zn  Zn668  1  0.33333333  0.70429589  0.22564511  1.0
  Zn  Zn669  1  0.66666667  0.03762923  0.22564511  1.0
  Zn  Zn670  1  0.66666667  0.37096256  0.22564511  1.0
  Zn  Zn671  1  0.66666667  0.70429589  0.22564511  1.0
  Zn  Zn672  1  0.00000000  0.03762923  0.22564511  1.0
  Zn  Zn673  1  1.00000000  0.37096256  0.22564511  1.0
  Zn  Zn674  1  1.00000000  0.70429589  0.22564511  1.0
  Zn  Zn675  1  0.16666667  0.27572446  0.15421654  1.0
  Zn  Zn676  1  0.16666667  0.60905780  0.15421654  1.0
  Zn  Zn677  1  0.16666667  0.94239113  0.15421654  1.0
  Zn  Zn678  1  0.50000000  0.27572446  0.15421654  1.0
  Zn  Zn679  1  0.50000000  0.60905780  0.15421654  1.0
  Zn  Zn680  1  0.50000000  0.94239113  0.15421654  1.0
  Zn  Zn681  1  0.83333333  0.27572446  0.15421654  1.0
  Zn  Zn682  1  0.83333333  0.60905780  0.15421654  1.0
  Zn  Zn683  1  0.83333333  0.94239113  0.15421654  1.0
  Zn  Zn684  1  0.33333333  0.31317651  0.23484982  1.0
  Zn  Zn685  1  0.33333333  0.64650985  0.23484982  1.0
  Zn  Zn686  1  0.33333333  0.97984318  0.23484982  1.0
  Zn  Zn687  1  0.66666667  0.31317651  0.23484982  1.0
  Zn  Zn688  1  0.66666667  0.64650985  0.23484982  1.0
  Zn  Zn689  1  0.66666667  0.97984318  0.23484982  1.0
  Zn  Zn690  1  1.00000000  0.31317651  0.23484982  1.0
  Zn  Zn691  1  0.00000000  0.64650985  0.23484982  1.0
  Zn  Zn692  1  0.00000000  0.97984318  0.23484982  1.0
  Zn  Zn693  1  0.16666667  0.21793842  0.16342125  1.0
  Zn  Zn694  1  0.16666667  0.55127175  0.16342125  1.0
  Zn  Zn695  1  0.16666667  0.88460508  0.16342125  1.0
  Zn  Zn696  1  0.50000000  0.21793842  0.16342125  1.0
  Zn  Zn697  1  0.50000000  0.55127175  0.16342125  1.0
  Zn  Zn698  1  0.50000000  0.88460508  0.16342125  1.0
  Zn  Zn699  1  0.83333333  0.21793842  0.16342125  1.0
  Zn  Zn700  1  0.83333333  0.55127175  0.16342125  1.0
  Zn  Zn701  1  0.83333333  0.88460508  0.16342125  1.0
  Zn  Zn702  1  0.27401317  0.17354618  0.21910732  1.0
  Zn  Zn703  1  0.27401317  0.50687951  0.21910732  1.0
  Zn  Zn704  1  0.27401317  0.84021285  0.21910732  1.0
  Zn  Zn705  1  0.60734650  0.17354618  0.21910732  1.0
  Zn  Zn706  1  0.60734650  0.50687951  0.21910732  1.0
  Zn  Zn707  1  0.60734650  0.84021285  0.21910732  1.0
  Zn  Zn708  1  0.94067983  0.17354618  0.21910732  1.0
  Zn  Zn709  1  0.94067983  0.50687951  0.21910732  1.0
  Zn  Zn710  1  0.94067983  0.84021285  0.21910732  1.0
  Zn  Zn711  1  0.10734650  0.07830808  0.14767875  1.0
  Zn  Zn712  1  0.10734650  0.41164142  0.14767875  1.0
  Zn  Zn713  1  0.10734650  0.74497475  0.14767875  1.0
  Zn  Zn714  1  0.44067983  0.07830808  0.14767875  1.0
  Zn  Zn715  1  0.44067983  0.41164142  0.14767875  1.0
  Zn  Zn716  1  0.44067983  0.74497475  0.14767875  1.0
  Zn  Zn717  1  0.77401317  0.07830808  0.14767875  1.0
  Zn  Zn718  1  0.77401317  0.41164142  0.14767875  1.0
  Zn  Zn719  1  0.77401317  0.74497475  0.14767875  1.0
  Zn  Zn720  1  0.05932017  0.17354618  0.21910732  1.0
  Zn  Zn721  1  0.05932017  0.50687951  0.21910732  1.0
  Zn  Zn722  1  0.05932017  0.84021285  0.21910732  1.0
  Zn  Zn723  1  0.39265350  0.17354618  0.21910732  1.0
  Zn  Zn724  1  0.39265350  0.50687951  0.21910732  1.0
  Zn  Zn725  1  0.39265350  0.84021285  0.21910732  1.0
  Zn  Zn726  1  0.72598683  0.17354618  0.21910732  1.0
  Zn  Zn727  1  0.72598683  0.50687951  0.21910732  1.0
  Zn  Zn728  1  0.72598683  0.84021285  0.21910732  1.0
  Zn  Zn729  1  0.22598683  0.07830808  0.14767875  1.0
  Zn  Zn730  1  0.22598683  0.41164142  0.14767875  1.0
  Zn  Zn731  1  0.22598683  0.74497475  0.14767875  1.0
  Zn  Zn732  1  0.55932017  0.07830808  0.14767875  1.0
  Zn  Zn733  1  0.55932017  0.41164142  0.14767875  1.0
  Zn  Zn734  1  0.55932017  0.74497475  0.14767875  1.0
  Zn  Zn735  1  0.89265350  0.07830808  0.14767875  1.0
  Zn  Zn736  1  0.89265350  0.41164142  0.14767875  1.0
  Zn  Zn737  1  0.89265350  0.74497475  0.14767875  1.0
  Zn  Zn738  1  0.00000000  0.25828927  0.19368439  1.0
  Zn  Zn739  1  0.00000000  0.59162261  0.19368439  1.0
  Zn  Zn740  1  0.00000000  0.92495594  0.19368439  1.0
  Zn  Zn741  1  0.33333333  0.25828927  0.19368439  1.0
  Zn  Zn742  1  0.33333333  0.59162261  0.19368439  1.0
  Zn  Zn743  1  0.33333333  0.92495594  0.19368439  1.0
  Zn  Zn744  1  0.66666667  0.25828927  0.19368439  1.0
  Zn  Zn745  1  0.66666667  0.59162261  0.19368439  1.0
  Zn  Zn746  1  0.66666667  0.92495594  0.19368439  1.0
  Zn  Zn747  1  0.16666667  0.02019404  0.26511296  1.0
  Zn  Zn748  1  0.16666667  0.35352737  0.26511296  1.0
  Zn  Zn749  1  0.16666667  0.68686070  0.26511296  1.0
  Zn  Zn750  1  0.50000000  0.02019404  0.26511296  1.0
  Zn  Zn751  1  0.50000000  0.35352737  0.26511296  1.0
  Zn  Zn752  1  0.50000000  0.68686070  0.26511296  1.0
  Zn  Zn753  1  0.83333333  0.02019404  0.26511296  1.0
  Zn  Zn754  1  0.83333333  0.35352737  0.26511296  1.0
  Zn  Zn755  1  0.83333333  0.68686070  0.26511296  1.0
  Zn  Zn756  1  0.22598683  0.15982437  0.28085546  1.0
  Zn  Zn757  1  0.22598683  0.49315770  0.28085546  1.0
  Zn  Zn758  1  0.22598683  0.82649104  0.28085546  1.0
  Zn  Zn759  1  0.55932017  0.15982437  0.28085546  1.0
  Zn  Zn760  1  0.55932017  0.49315770  0.28085546  1.0
  Zn  Zn761  1  0.55932017  0.82649104  0.28085546  1.0
  Zn  Zn762  1  0.89265350  0.15982437  0.28085546  1.0
  Zn  Zn763  1  0.89265350  0.49315770  0.28085546  1.0
  Zn  Zn764  1  0.89265350  0.82649104  0.28085546  1.0
  Zn  Zn765  1  0.05932017  0.06458627  0.20942689  1.0
  Zn  Zn766  1  0.05932017  0.39791961  0.20942689  1.0
  Zn  Zn767  1  0.05932017  0.73125294  0.20942689  1.0
  Zn  Zn768  1  0.39265350  0.06458627  0.20942689  1.0
  Zn  Zn769  1  0.39265350  0.39791961  0.20942689  1.0
  Zn  Zn770  1  0.39265350  0.73125294  0.20942689  1.0
  Zn  Zn771  1  0.72598683  0.06458627  0.20942689  1.0
  Zn  Zn772  1  0.72598683  0.39791961  0.20942689  1.0
  Zn  Zn773  1  0.72598683  0.73125294  0.20942689  1.0
  Zn  Zn774  1  0.10734650  0.15982437  0.28085546  1.0
  Zn  Zn775  1  0.10734650  0.49315770  0.28085546  1.0
  Zn  Zn776  1  0.10734650  0.82649104  0.28085546  1.0
  Zn  Zn777  1  0.44067983  0.15982437  0.28085546  1.0
  Zn  Zn778  1  0.44067983  0.49315770  0.28085546  1.0
  Zn  Zn779  1  0.44067983  0.82649104  0.28085546  1.0
  Zn  Zn780  1  0.77401317  0.15982437  0.28085546  1.0
  Zn  Zn781  1  0.77401317  0.49315770  0.28085546  1.0
  Zn  Zn782  1  0.77401317  0.82649104  0.28085546  1.0
  Zn  Zn783  1  0.27401317  0.06458627  0.20942689  1.0
  Zn  Zn784  1  0.27401317  0.39791961  0.20942689  1.0
  Zn  Zn785  1  0.27401317  0.73125294  0.20942689  1.0
  Zn  Zn786  1  0.60734650  0.06458627  0.20942689  1.0
  Zn  Zn787  1  0.60734650  0.39791961  0.20942689  1.0
  Zn  Zn788  1  0.60734650  0.73125294  0.20942689  1.0
  Zn  Zn789  1  0.94067983  0.06458627  0.20942689  1.0
  Zn  Zn790  1  0.94067983  0.39791961  0.20942689  1.0
  Zn  Zn791  1  0.94067983  0.73125294  0.20942689  1.0
  Zn  Zn792  1  0.12277767  0.21047318  0.24563782  1.0
  Zn  Zn793  1  0.12277767  0.54380651  0.24563782  1.0
  Zn  Zn794  1  0.12277767  0.87713985  0.24563782  1.0
  Zn  Zn795  1  0.45611100  0.21047318  0.24563782  1.0
  Zn  Zn796  1  0.45611100  0.54380651  0.24563782  1.0
  Zn  Zn797  1  0.45611100  0.87713985  0.24563782  1.0
  Zn  Zn798  1  0.78944433  0.21047318  0.24563782  1.0
  Zn  Zn799  1  0.78944433  0.54380651  0.24563782  1.0
  Zn  Zn800  1  0.78944433  0.87713985  0.24563782  1.0
  Zn  Zn801  1  0.28944433  0.11523508  0.17420925  1.0
  Zn  Zn802  1  0.28944433  0.44856842  0.17420925  1.0
  Zn  Zn803  1  0.28944433  0.78190175  0.17420925  1.0
  Zn  Zn804  1  0.62277767  0.11523508  0.17420925  1.0
  Zn  Zn805  1  0.62277767  0.44856842  0.17420925  1.0
  Zn  Zn806  1  0.62277767  0.78190175  0.17420925  1.0
  Zn  Zn807  1  0.95611100  0.11523508  0.17420925  1.0
  Zn  Zn808  1  0.95611100  0.44856842  0.17420925  1.0
  Zn  Zn809  1  0.95611100  0.78190175  0.17420925  1.0
  Zn  Zn810  1  0.33333333  0.15285423  0.26825711  1.0
  Zn  Zn811  1  0.33333333  0.48618756  0.26825711  1.0
  Zn  Zn812  1  0.33333333  0.81952089  0.26825711  1.0
  Zn  Zn813  1  0.66666667  0.15285423  0.26825711  1.0
  Zn  Zn814  1  0.66666667  0.48618756  0.26825711  1.0
  Zn  Zn815  1  0.66666667  0.81952089  0.26825711  1.0
  Zn  Zn816  1  0.00000000  0.15285423  0.26825711  1.0
  Zn  Zn817  1  0.00000000  0.48618756  0.26825711  1.0
  Zn  Zn818  1  0.00000000  0.81952089  0.26825711  1.0
  Zn  Zn819  1  0.16666667  0.05761613  0.19682854  1.0
  Zn  Zn820  1  0.16666667  0.39094946  0.19682854  1.0
  Zn  Zn821  1  0.16666667  0.72428280  0.19682854  1.0
  Zn  Zn822  1  0.50000000  0.05761613  0.19682854  1.0
  Zn  Zn823  1  0.50000000  0.39094946  0.19682854  1.0
  Zn  Zn824  1  0.50000000  0.72428280  0.19682854  1.0
  Zn  Zn825  1  0.83333333  0.05761613  0.19682854  1.0
  Zn  Zn826  1  0.83333333  0.39094946  0.19682854  1.0
  Zn  Zn827  1  0.83333333  0.72428280  0.19682854  1.0
  Zn  Zn828  1  0.21055567  0.21047318  0.24563782  1.0
  Zn  Zn829  1  0.21055567  0.54380651  0.24563782  1.0
  Zn  Zn830  1  0.21055567  0.87713985  0.24563782  1.0
  Zn  Zn831  1  0.54388900  0.21047318  0.24563782  1.0
  Zn  Zn832  1  0.54388900  0.54380651  0.24563782  1.0
  Zn  Zn833  1  0.54388900  0.87713985  0.24563782  1.0
  Zn  Zn834  1  0.87722233  0.21047318  0.24563782  1.0
  Zn  Zn835  1  0.87722233  0.54380651  0.24563782  1.0
  Zn  Zn836  1  0.87722233  0.87713985  0.24563782  1.0
  Zn  Zn837  1  0.04388900  0.11523508  0.17420925  1.0
  Zn  Zn838  1  0.04388900  0.44856842  0.17420925  1.0
  Zn  Zn839  1  0.04388900  0.78190175  0.17420925  1.0
  Zn  Zn840  1  0.37722233  0.11523508  0.17420925  1.0
  Zn  Zn841  1  0.37722233  0.44856842  0.17420925  1.0
  Zn  Zn842  1  0.37722233  0.78190175  0.17420925  1.0
  Zn  Zn843  1  0.71055567  0.11523508  0.17420925  1.0
  Zn  Zn844  1  0.71055567  0.44856842  0.17420925  1.0
  Zn  Zn845  1  0.71055567  0.78190175  0.17420925  1.0
  Zn  Zn846  1  0.05854367  0.11871032  0.27316668  1.0
  Zn  Zn847  1  0.05854367  0.45204365  0.27316668  1.0
  Zn  Zn848  1  0.05854367  0.78537699  0.27316668  1.0
  Zn  Zn849  1  0.39187700  0.11871032  0.27316668  1.0
  Zn  Zn850  1  0.39187700  0.45204365  0.27316668  1.0
  Zn  Zn851  1  0.39187700  0.78537699  0.27316668  1.0
  Zn  Zn852  1  0.72521033  0.11871032  0.27316668  1.0
  Zn  Zn853  1  0.72521033  0.45204365  0.27316668  1.0
  Zn  Zn854  1  0.72521033  0.78537699  0.27316668  1.0
  Zn  Zn855  1  0.22521033  0.02347223  0.20173811  1.0
  Zn  Zn856  1  0.22521033  0.35680556  0.20173811  1.0
  Zn  Zn857  1  0.22521033  0.69013889  0.20173811  1.0
  Zn  Zn858  1  0.55854367  0.02347223  0.20173811  1.0
  Zn  Zn859  1  0.55854367  0.35680556  0.20173811  1.0
  Zn  Zn860  1  0.55854367  0.69013889  0.20173811  1.0
  Zn  Zn861  1  0.89187700  0.02347223  0.20173811  1.0
  Zn  Zn862  1  0.89187700  0.35680556  0.20173811  1.0
  Zn  Zn863  1  0.89187700  0.69013889  0.20173811  1.0
  Zn  Zn864  1  0.26909933  0.29410699  0.22054768  1.0
  Zn  Zn865  1  0.26909933  0.62744032  0.22054768  1.0
  Zn  Zn866  1  0.26909933  0.96077365  0.22054768  1.0
  Zn  Zn867  1  0.60243267  0.29410699  0.22054768  1.0
  Zn  Zn868  1  0.60243267  0.62744032  0.22054768  1.0
  Zn  Zn869  1  0.60243267  0.96077365  0.22054768  1.0
  Zn  Zn870  1  0.93576600  0.29410699  0.22054768  1.0
  Zn  Zn871  1  0.93576600  0.62744032  0.22054768  1.0
  Zn  Zn872  1  0.93576600  0.96077365  0.22054768  1.0
  Zn  Zn873  1  0.10243267  0.19886889  0.14911911  1.0
  Zn  Zn874  1  0.10243267  0.53220223  0.14911911  1.0
  Zn  Zn875  1  0.10243267  0.86553556  0.14911911  1.0
  Zn  Zn876  1  0.43576600  0.19886889  0.14911911  1.0
  Zn  Zn877  1  0.43576600  0.53220223  0.14911911  1.0
  Zn  Zn878  1  0.43576600  0.86553556  0.14911911  1.0
  Zn  Zn879  1  0.76909933  0.19886889  0.14911911  1.0
  Zn  Zn880  1  0.76909933  0.53220223  0.14911911  1.0
  Zn  Zn881  1  0.76909933  0.86553556  0.14911911  1.0
  Zn  Zn882  1  0.05854367  0.23648804  0.24316696  1.0
  Zn  Zn883  1  0.05854367  0.56982137  0.24316696  1.0
  Zn  Zn884  1  0.05854367  0.90315470  0.24316696  1.0
  Zn  Zn885  1  0.39187700  0.23648804  0.24316696  1.0
  Zn  Zn886  1  0.39187700  0.56982137  0.24316696  1.0
  Zn  Zn887  1  0.39187700  0.90315470  0.24316696  1.0
  Zn  Zn888  1  0.72521033  0.23648804  0.24316696  1.0
  Zn  Zn889  1  0.72521033  0.56982137  0.24316696  1.0
  Zn  Zn890  1  0.72521033  0.90315470  0.24316696  1.0
  Zn  Zn891  1  0.22521033  0.14124994  0.17173839  1.0
  Zn  Zn892  1  0.22521033  0.47458327  0.17173839  1.0
  Zn  Zn893  1  0.22521033  0.80791661  0.17173839  1.0
  Zn  Zn894  1  0.55854367  0.14124994  0.17173839  1.0
  Zn  Zn895  1  0.55854367  0.47458327  0.17173839  1.0
  Zn  Zn896  1  0.55854367  0.80791661  0.17173839  1.0
  Zn  Zn897  1  0.89187700  0.14124994  0.17173839  1.0
  Zn  Zn898  1  0.89187700  0.47458327  0.17173839  1.0
  Zn  Zn899  1  0.89187700  0.80791661  0.17173839  1.0
  Zn  Zn900  1  0.27478967  0.23648804  0.24316696  1.0
  Zn  Zn901  1  0.27478967  0.56982137  0.24316696  1.0
  Zn  Zn902  1  0.27478967  0.90315470  0.24316696  1.0
  Zn  Zn903  1  0.60812300  0.23648804  0.24316696  1.0
  Zn  Zn904  1  0.60812300  0.56982137  0.24316696  1.0
  Zn  Zn905  1  0.60812300  0.90315470  0.24316696  1.0
  Zn  Zn906  1  0.94145633  0.23648804  0.24316696  1.0
  Zn  Zn907  1  0.94145633  0.56982137  0.24316696  1.0
  Zn  Zn908  1  0.94145633  0.90315470  0.24316696  1.0
  Zn  Zn909  1  0.10812300  0.14124994  0.17173839  1.0
  Zn  Zn910  1  0.10812300  0.47458327  0.17173839  1.0
  Zn  Zn911  1  0.10812300  0.80791661  0.17173839  1.0
  Zn  Zn912  1  0.44145633  0.14124994  0.17173839  1.0
  Zn  Zn913  1  0.44145633  0.47458327  0.17173839  1.0
  Zn  Zn914  1  0.44145633  0.80791661  0.17173839  1.0
  Zn  Zn915  1  0.77478967  0.14124994  0.17173839  1.0
  Zn  Zn916  1  0.77478967  0.47458327  0.17173839  1.0
  Zn  Zn917  1  0.77478967  0.80791661  0.17173839  1.0
  Zn  Zn918  1  0.06423400  0.29410699  0.22054768  1.0
  Zn  Zn919  1  0.06423400  0.62744032  0.22054768  1.0
  Zn  Zn920  1  0.06423400  0.96077365  0.22054768  1.0
  Zn  Zn921  1  0.39756733  0.29410699  0.22054768  1.0
  Zn  Zn922  1  0.39756733  0.62744032  0.22054768  1.0
  Zn  Zn923  1  0.39756733  0.96077365  0.22054768  1.0
  Zn  Zn924  1  0.73090067  0.29410699  0.22054768  1.0
  Zn  Zn925  1  0.73090067  0.62744032  0.22054768  1.0
  Zn  Zn926  1  0.73090067  0.96077365  0.22054768  1.0
  Zn  Zn927  1  0.23090067  0.19886889  0.14911911  1.0
  Zn  Zn928  1  0.23090067  0.53220223  0.14911911  1.0
  Zn  Zn929  1  0.23090067  0.86553556  0.14911911  1.0
  Zn  Zn930  1  0.56423400  0.19886889  0.14911911  1.0
  Zn  Zn931  1  0.56423400  0.53220223  0.14911911  1.0
  Zn  Zn932  1  0.56423400  0.86553556  0.14911911  1.0
  Zn  Zn933  1  0.89756733  0.19886889  0.14911911  1.0
  Zn  Zn934  1  0.89756733  0.53220223  0.14911911  1.0
  Zn  Zn935  1  0.89756733  0.86553556  0.14911911  1.0
  Zn  Zn936  1  0.27478967  0.11871032  0.27316668  1.0
  Zn  Zn937  1  0.27478967  0.45204365  0.27316668  1.0
  Zn  Zn938  1  0.27478967  0.78537699  0.27316668  1.0
  Zn  Zn939  1  0.60812300  0.11871032  0.27316668  1.0
  Zn  Zn940  1  0.60812300  0.45204365  0.27316668  1.0
  Zn  Zn941  1  0.60812300  0.78537699  0.27316668  1.0
  Zn  Zn942  1  0.94145633  0.11871032  0.27316668  1.0
  Zn  Zn943  1  0.94145633  0.45204365  0.27316668  1.0
  Zn  Zn944  1  0.94145633  0.78537699  0.27316668  1.0
  Zn  Zn945  1  0.10812300  0.02347223  0.20173811  1.0
  Zn  Zn946  1  0.10812300  0.35680556  0.20173811  1.0
  Zn  Zn947  1  0.10812300  0.69013889  0.20173811  1.0
  Zn  Zn948  1  0.44145633  0.02347223  0.20173811  1.0
  Zn  Zn949  1  0.44145633  0.35680556  0.20173811  1.0
  Zn  Zn950  1  0.44145633  0.69013889  0.20173811  1.0
  Zn  Zn951  1  0.77478967  0.02347223  0.20173811  1.0
  Zn  Zn952  1  0.77478967  0.35680556  0.20173811  1.0
  Zn  Zn953  1  0.77478967  0.69013889  0.20173811  1.0
  Zn  Zn954  1  0.04388900  0.00583146  0.16652554  1.0
  Zn  Zn955  1  0.04388900  0.33916480  0.16652554  1.0
  Zn  Zn956  1  0.04388900  0.67249813  0.16652554  1.0
  Zn  Zn957  1  0.37722233  0.00583146  0.16652554  1.0
  Zn  Zn958  1  0.37722233  0.33916480  0.16652554  1.0
  Zn  Zn959  1  0.37722233  0.67249813  0.16652554  1.0
  Zn  Zn960  1  0.71055567  0.00583146  0.16652554  1.0
  Zn  Zn961  1  0.71055567  0.33916480  0.16652554  1.0
  Zn  Zn962  1  0.71055567  0.67249813  0.16652554  1.0
  Zn  Zn963  1  0.21055567  0.10106956  0.23795411  1.0
  Zn  Zn964  1  0.21055567  0.43440289  0.23795411  1.0
  Zn  Zn965  1  0.21055567  0.76773623  0.23795411  1.0
  Zn  Zn966  1  0.54388900  0.10106956  0.23795411  1.0
  Zn  Zn967  1  0.54388900  0.43440289  0.23795411  1.0
  Zn  Zn968  1  0.54388900  0.76773623  0.23795411  1.0
  Zn  Zn969  1  0.87722233  0.10106956  0.23795411  1.0
  Zn  Zn970  1  0.87722233  0.43440289  0.23795411  1.0
  Zn  Zn971  1  0.87722233  0.76773623  0.23795411  1.0
  Zn  Zn972  1  0.33333333  0.06853004  0.14771596  1.0
  Zn  Zn973  1  0.33333333  0.40186337  0.14771596  1.0
  Zn  Zn974  1  0.33333333  0.73519670  0.14771596  1.0
  Zn  Zn975  1  0.66666667  0.06853004  0.14771596  1.0
  Zn  Zn976  1  0.66666667  0.40186337  0.14771596  1.0
  Zn  Zn977  1  0.66666667  0.73519670  0.14771596  1.0
  Zn  Zn978  1  0.00000000  0.06853004  0.14771596  1.0
  Zn  Zn979  1  1.00000000  0.40186337  0.14771596  1.0
  Zn  Zn980  1  1.00000000  0.73519670  0.14771596  1.0
  Zn  Zn981  1  0.16666667  0.16376813  0.21914454  1.0
  Zn  Zn982  1  0.16666667  0.49710146  0.21914454  1.0
  Zn  Zn983  1  0.16666667  0.83043480  0.21914454  1.0
  Zn  Zn984  1  0.50000000  0.16376813  0.21914454  1.0
  Zn  Zn985  1  0.50000000  0.49710146  0.21914454  1.0
  Zn  Zn986  1  0.50000000  0.83043480  0.21914454  1.0
  Zn  Zn987  1  0.83333333  0.16376813  0.21914454  1.0
  Zn  Zn988  1  0.83333333  0.49710146  0.21914454  1.0
  Zn  Zn989  1  0.83333333  0.83043480  0.21914454  1.0
  Zn  Zn990  1  0.28944433  0.00583146  0.16652554  1.0
  Zn  Zn991  1  0.28944433  0.33916480  0.16652554  1.0
  Zn  Zn992  1  0.28944433  0.67249813  0.16652554  1.0
  Zn  Zn993  1  0.62277767  0.00583146  0.16652554  1.0
  Zn  Zn994  1  0.62277767  0.33916480  0.16652554  1.0
  Zn  Zn995  1  0.62277767  0.67249813  0.16652554  1.0
  Zn  Zn996  1  0.95611100  0.00583146  0.16652554  1.0
  Zn  Zn997  1  0.95611100  0.33916480  0.16652554  1.0
  Zn  Zn998  1  0.95611100  0.67249813  0.16652554  1.0
  Zn  Zn999  1  0.12277767  0.10106956  0.23795411  1.0
  Zn  Zn1000  1  0.12277767  0.43440289  0.23795411  1.0
  Zn  Zn1001  1  0.12277767  0.76773623  0.23795411  1.0
  Zn  Zn1002  1  0.45611100  0.10106956  0.23795411  1.0
  Zn  Zn1003  1  0.45611100  0.43440289  0.23795411  1.0
  Zn  Zn1004  1  0.45611100  0.76773623  0.23795411  1.0
  Zn  Zn1005  1  0.78944433  0.10106956  0.23795411  1.0
  Zn  Zn1006  1  0.78944433  0.43440289  0.23795411  1.0
  Zn  Zn1007  1  0.78944433  0.76773623  0.23795411  1.0
  Zn  Zn1008  1  0.00000000  0.01761237  0.31572096  1.0
  Zn  Zn1009  1  0.00000000  0.35094570  0.31572096  1.0
  Zn  Zn1010  1  0.00000000  0.68427904  0.31572096  1.0
  Zn  Zn1011  1  0.33333333  0.01761237  0.31572096  1.0
  Zn  Zn1012  1  0.33333333  0.35094570  0.31572096  1.0
  Zn  Zn1013  1  0.33333333  0.68427904  0.31572096  1.0
  Zn  Zn1014  1  0.66666667  0.01761237  0.31572096  1.0
  Zn  Zn1015  1  0.66666667  0.35094570  0.31572096  1.0
  Zn  Zn1016  1  0.66666667  0.68427904  0.31572096  1.0
  Zn  Zn1017  1  0.16666667  0.11285046  0.38714954  1.0
  Zn  Zn1018  1  0.16666667  0.44618380  0.38714954  1.0
  Zn  Zn1019  1  0.16666667  0.77951713  0.38714954  1.0
  Zn  Zn1020  1  0.50000000  0.11285046  0.38714954  1.0
  Zn  Zn1021  1  0.50000000  0.44618380  0.38714954  1.0
  Zn  Zn1022  1  0.50000000  0.77951713  0.38714954  1.0
  Zn  Zn1023  1  0.83333333  0.11285046  0.38714954  1.0
  Zn  Zn1024  1  0.83333333  0.44618380  0.38714954  1.0
  Zn  Zn1025  1  0.83333333  0.77951713  0.38714954  1.0
  Zn  Zn1026  1  0.03502950  0.06765451  0.30070832  1.0
  Zn  Zn1027  1  0.03502950  0.40098785  0.30070832  1.0
  Zn  Zn1028  1  0.03502950  0.73432118  0.30070832  1.0
  Zn  Zn1029  1  0.36836283  0.06765451  0.30070832  1.0
  Zn  Zn1030  1  0.36836283  0.40098785  0.30070832  1.0
  Zn  Zn1031  1  0.36836283  0.73432118  0.30070832  1.0
  Zn  Zn1032  1  0.70169617  0.06765451  0.30070832  1.0
  Zn  Zn1033  1  0.70169617  0.40098785  0.30070832  1.0
  Zn  Zn1034  1  0.70169617  0.73432118  0.30070832  1.0
  Zn  Zn1035  1  0.20169617  0.16289261  0.37213689  1.0
  Zn  Zn1036  1  0.20169617  0.49622594  0.37213689  1.0
  Zn  Zn1037  1  0.20169617  0.82955927  0.37213689  1.0
  Zn  Zn1038  1  0.53502950  0.16289261  0.37213689  1.0
  Zn  Zn1039  1  0.53502950  0.49622594  0.37213689  1.0
  Zn  Zn1040  1  0.53502950  0.82955927  0.37213689  1.0
  Zn  Zn1041  1  0.86836283  0.16289261  0.37213689  1.0
  Zn  Zn1042  1  0.86836283  0.49622594  0.37213689  1.0
  Zn  Zn1043  1  0.86836283  0.82955927  0.37213689  1.0
  Zn  Zn1044  1  0.29830383  0.06765451  0.30070832  1.0
  Zn  Zn1045  1  0.29830383  0.40098785  0.30070832  1.0
  Zn  Zn1046  1  0.29830383  0.73432118  0.30070832  1.0
  Zn  Zn1047  1  0.63163717  0.06765451  0.30070832  1.0
  Zn  Zn1048  1  0.63163717  0.40098785  0.30070832  1.0
  Zn  Zn1049  1  0.63163717  0.73432118  0.30070832  1.0
  Zn  Zn1050  1  0.96497050  0.06765451  0.30070832  1.0
  Zn  Zn1051  1  0.96497050  0.40098785  0.30070832  1.0
  Zn  Zn1052  1  0.96497050  0.73432118  0.30070832  1.0
  Zn  Zn1053  1  0.13163717  0.16289261  0.37213689  1.0
  Zn  Zn1054  1  0.13163717  0.49622594  0.37213689  1.0
  Zn  Zn1055  1  0.13163717  0.82955927  0.37213689  1.0
  Zn  Zn1056  1  0.46497050  0.16289261  0.37213689  1.0
  Zn  Zn1057  1  0.46497050  0.49622594  0.37213689  1.0
  Zn  Zn1058  1  0.46497050  0.82955927  0.37213689  1.0
  Zn  Zn1059  1  0.79830383  0.16289261  0.37213689  1.0
  Zn  Zn1060  1  0.79830383  0.49622594  0.37213689  1.0
  Zn  Zn1061  1  0.79830383  0.82955927  0.37213689  1.0
  Zn  Zn1062  1  0.33333333  0.22810542  0.36850225  1.0
  Zn  Zn1063  1  0.33333333  0.56143875  0.36850225  1.0
  Zn  Zn1064  1  0.33333333  0.89477208  0.36850225  1.0
  Zn  Zn1065  1  0.66666667  0.22810542  0.36850225  1.0
  Zn  Zn1066  1  0.66666667  0.56143875  0.36850225  1.0
  Zn  Zn1067  1  0.66666667  0.89477208  0.36850225  1.0
  Zn  Zn1068  1  0.00000000  0.22810542  0.36850225  1.0
  Zn  Zn1069  1  0.00000000  0.56143875  0.36850225  1.0
  Zn  Zn1070  1  0.00000000  0.89477208  0.36850225  1.0
  Zn  Zn1071  1  0.16666667  0.13286732  0.29707368  1.0
  Zn  Zn1072  1  0.16666667  0.46620065  0.29707368  1.0
  Zn  Zn1073  1  0.16666667  0.79953399  0.29707368  1.0
  Zn  Zn1074  1  0.50000000  0.13286732  0.29707368  1.0
  Zn  Zn1075  1  0.50000000  0.46620065  0.29707368  1.0
  Zn  Zn1076  1  0.50000000  0.79953399  0.29707368  1.0
  Zn  Zn1077  1  0.83333333  0.13286732  0.29707368  1.0
  Zn  Zn1078  1  0.83333333  0.46620065  0.29707368  1.0
  Zn  Zn1079  1  0.83333333  0.79953399  0.29707368  1.0
  Zn  Zn1080  1  0.00000000  0.17031937  0.37770696  1.0
  Zn  Zn1081  1  0.00000000  0.50365270  0.37770696  1.0
  Zn  Zn1082  1  0.00000000  0.83698604  0.37770696  1.0
  Zn  Zn1083  1  0.33333333  0.17031937  0.37770696  1.0
  Zn  Zn1084  1  0.33333333  0.50365270  0.37770696  1.0
  Zn  Zn1085  1  0.33333333  0.83698604  0.37770696  1.0
  Zn  Zn1086  1  0.66666667  0.17031937  0.37770696  1.0
  Zn  Zn1087  1  0.66666667  0.50365270  0.37770696  1.0
  Zn  Zn1088  1  0.66666667  0.83698604  0.37770696  1.0
  Zn  Zn1089  1  0.16666667  0.07508127  0.30627839  1.0
  Zn  Zn1090  1  0.16666667  0.40841461  0.30627839  1.0
  Zn  Zn1091  1  0.16666667  0.74174794  0.30627839  1.0
  Zn  Zn1092  1  0.50000000  0.07508127  0.30627839  1.0
  Zn  Zn1093  1  0.50000000  0.40841461  0.30627839  1.0
  Zn  Zn1094  1  0.50000000  0.74174794  0.30627839  1.0
  Zn  Zn1095  1  0.83333333  0.07508127  0.30627839  1.0
  Zn  Zn1096  1  0.83333333  0.40841461  0.30627839  1.0
  Zn  Zn1097  1  0.83333333  0.74174794  0.30627839  1.0
  Zn  Zn1098  1  0.27401317  0.03068904  0.36196446  1.0
  Zn  Zn1099  1  0.27401317  0.36402237  0.36196446  1.0
  Zn  Zn1100  1  0.27401317  0.69735570  0.36196446  1.0
  Zn  Zn1101  1  0.60734650  0.03068904  0.36196446  1.0
  Zn  Zn1102  1  0.60734650  0.36402237  0.36196446  1.0
  Zn  Zn1103  1  0.60734650  0.69735570  0.36196446  1.0
  Zn  Zn1104  1  0.94067983  0.03068904  0.36196446  1.0
  Zn  Zn1105  1  0.94067983  0.36402237  0.36196446  1.0
  Zn  Zn1106  1  0.94067983  0.69735570  0.36196446  1.0
  Zn  Zn1107  1  0.10734650  0.26878427  0.29053589  1.0
  Zn  Zn1108  1  0.10734650  0.60211761  0.29053589  1.0
  Zn  Zn1109  1  0.10734650  0.93545094  0.29053589  1.0
  Zn  Zn1110  1  0.44067983  0.26878427  0.29053589  1.0
  Zn  Zn1111  1  0.44067983  0.60211761  0.29053589  1.0
  Zn  Zn1112  1  0.44067983  0.93545094  0.29053589  1.0
  Zn  Zn1113  1  0.77401317  0.26878427  0.29053589  1.0
  Zn  Zn1114  1  0.77401317  0.60211761  0.29053589  1.0
  Zn  Zn1115  1  0.77401317  0.93545094  0.29053589  1.0
  Zn  Zn1116  1  0.05932017  0.03068904  0.36196446  1.0
  Zn  Zn1117  1  0.05932017  0.36402237  0.36196446  1.0
  Zn  Zn1118  1  0.05932017  0.69735570  0.36196446  1.0
  Zn  Zn1119  1  0.39265350  0.03068904  0.36196446  1.0
  Zn  Zn1120  1  0.39265350  0.36402237  0.36196446  1.0
  Zn  Zn1121  1  0.39265350  0.69735570  0.36196446  1.0
  Zn  Zn1122  1  0.72598683  0.03068904  0.36196446  1.0
  Zn  Zn1123  1  0.72598683  0.36402237  0.36196446  1.0
  Zn  Zn1124  1  0.72598683  0.69735570  0.36196446  1.0
  Zn  Zn1125  1  0.22598683  0.26878427  0.29053589  1.0
  Zn  Zn1126  1  0.22598683  0.60211761  0.29053589  1.0
  Zn  Zn1127  1  0.22598683  0.93545094  0.29053589  1.0
  Zn  Zn1128  1  0.55932017  0.26878427  0.29053589  1.0
  Zn  Zn1129  1  0.55932017  0.60211761  0.29053589  1.0
  Zn  Zn1130  1  0.55932017  0.93545094  0.29053589  1.0
  Zn  Zn1131  1  0.89265350  0.26878427  0.29053589  1.0
  Zn  Zn1132  1  0.89265350  0.60211761  0.29053589  1.0
  Zn  Zn1133  1  0.89265350  0.93545094  0.29053589  1.0
  Zn  Zn1134  1  0.00000000  0.11543213  0.33654154  1.0
  Zn  Zn1135  1  0.00000000  0.44876546  0.33654154  1.0
  Zn  Zn1136  1  0.00000000  0.78209880  0.33654154  1.0
  Zn  Zn1137  1  0.33333333  0.11543213  0.33654154  1.0
  Zn  Zn1138  1  0.33333333  0.44876546  0.33654154  1.0
  Zn  Zn1139  1  0.33333333  0.78209880  0.33654154  1.0
  Zn  Zn1140  1  0.66666667  0.11543213  0.33654154  1.0
  Zn  Zn1141  1  0.66666667  0.44876546  0.33654154  1.0
  Zn  Zn1142  1  0.66666667  0.78209880  0.33654154  1.0
  Zn  Zn1143  1  0.16666667  0.21067023  0.40797011  1.0
  Zn  Zn1144  1  0.16666667  0.54400356  0.40797011  1.0
  Zn  Zn1145  1  0.16666667  0.87733689  0.40797011  1.0
  Zn  Zn1146  1  0.50000000  0.21067023  0.40797011  1.0
  Zn  Zn1147  1  0.50000000  0.54400356  0.40797011  1.0
  Zn  Zn1148  1  0.50000000  0.87733689  0.40797011  1.0
  Zn  Zn1149  1  0.83333333  0.21067023  0.40797011  1.0
  Zn  Zn1150  1  0.83333333  0.54400356  0.40797011  1.0
  Zn  Zn1151  1  0.83333333  0.87733689  0.40797011  1.0
  Zn  Zn1152  1  0.22598683  0.01696723  0.42371261  1.0
  Zn  Zn1153  1  0.22598683  0.35030056  0.42371261  1.0
  Zn  Zn1154  1  0.22598683  0.68363389  0.42371261  1.0
  Zn  Zn1155  1  0.55932017  0.01696723  0.42371261  1.0
  Zn  Zn1156  1  0.55932017  0.35030056  0.42371261  1.0
  Zn  Zn1157  1  0.55932017  0.68363389  0.42371261  1.0
  Zn  Zn1158  1  0.89265350  0.01696723  0.42371261  1.0
  Zn  Zn1159  1  0.89265350  0.35030056  0.42371261  1.0
  Zn  Zn1160  1  0.89265350  0.68363389  0.42371261  1.0
  Zn  Zn1161  1  0.05932017  0.25506246  0.35228404  1.0
  Zn  Zn1162  1  0.05932017  0.58839580  0.35228404  1.0
  Zn  Zn1163  1  0.05932017  0.92172913  0.35228404  1.0
  Zn  Zn1164  1  0.39265350  0.25506246  0.35228404  1.0
  Zn  Zn1165  1  0.39265350  0.58839580  0.35228404  1.0
  Zn  Zn1166  1  0.39265350  0.92172913  0.35228404  1.0
  Zn  Zn1167  1  0.72598683  0.25506246  0.35228404  1.0
  Zn  Zn1168  1  0.72598683  0.58839580  0.35228404  1.0
  Zn  Zn1169  1  0.72598683  0.92172913  0.35228404  1.0
  Zn  Zn1170  1  0.10734650  0.01696723  0.42371261  1.0
  Zn  Zn1171  1  0.10734650  0.35030056  0.42371261  1.0
  Zn  Zn1172  1  0.10734650  0.68363389  0.42371261  1.0
  Zn  Zn1173  1  0.44067983  0.01696723  0.42371261  1.0
  Zn  Zn1174  1  0.44067983  0.35030056  0.42371261  1.0
  Zn  Zn1175  1  0.44067983  0.68363389  0.42371261  1.0
  Zn  Zn1176  1  0.77401317  0.01696723  0.42371261  1.0
  Zn  Zn1177  1  0.77401317  0.35030056  0.42371261  1.0
  Zn  Zn1178  1  0.77401317  0.68363389  0.42371261  1.0
  Zn  Zn1179  1  0.27401317  0.25506246  0.35228404  1.0
  Zn  Zn1180  1  0.27401317  0.58839580  0.35228404  1.0
  Zn  Zn1181  1  0.27401317  0.92172913  0.35228404  1.0
  Zn  Zn1182  1  0.60734650  0.25506246  0.35228404  1.0
  Zn  Zn1183  1  0.60734650  0.58839580  0.35228404  1.0
  Zn  Zn1184  1  0.60734650  0.92172913  0.35228404  1.0
  Zn  Zn1185  1  0.94067983  0.25506246  0.35228404  1.0
  Zn  Zn1186  1  0.94067983  0.58839580  0.35228404  1.0
  Zn  Zn1187  1  0.94067983  0.92172913  0.35228404  1.0
  Zn  Zn1188  1  0.12277767  0.06761604  0.38849496  1.0
  Zn  Zn1189  1  0.12277767  0.40094937  0.38849496  1.0
  Zn  Zn1190  1  0.12277767  0.73428270  0.38849496  1.0
  Zn  Zn1191  1  0.45611100  0.06761604  0.38849496  1.0
  Zn  Zn1192  1  0.45611100  0.40094937  0.38849496  1.0
  Zn  Zn1193  1  0.45611100  0.73428270  0.38849496  1.0
  Zn  Zn1194  1  0.78944433  0.06761604  0.38849496  1.0
  Zn  Zn1195  1  0.78944433  0.40094937  0.38849496  1.0
  Zn  Zn1196  1  0.78944433  0.73428270  0.38849496  1.0
  Zn  Zn1197  1  0.28944433  0.30571127  0.31706639  1.0
  Zn  Zn1198  1  0.28944433  0.63904461  0.31706639  1.0
  Zn  Zn1199  1  0.28944433  0.97237794  0.31706639  1.0
  Zn  Zn1200  1  0.62277767  0.30571127  0.31706639  1.0
  Zn  Zn1201  1  0.62277767  0.63904461  0.31706639  1.0
  Zn  Zn1202  1  0.62277767  0.97237794  0.31706639  1.0
  Zn  Zn1203  1  0.95611100  0.30571127  0.31706639  1.0
  Zn  Zn1204  1  0.95611100  0.63904461  0.31706639  1.0
  Zn  Zn1205  1  0.95611100  0.97237794  0.31706639  1.0
  Zn  Zn1206  1  0.33333333  0.00999708  0.41111425  1.0
  Zn  Zn1207  1  0.33333333  0.34333042  0.41111425  1.0
  Zn  Zn1208  1  0.33333333  0.67666375  0.41111425  1.0
  Zn  Zn1209  1  0.66666667  0.00999708  0.41111425  1.0
  Zn  Zn1210  1  0.66666667  0.34333042  0.41111425  1.0
  Zn  Zn1211  1  0.66666667  0.67666375  0.41111425  1.0
  Zn  Zn1212  1  0.00000000  0.00999708  0.41111425  1.0
  Zn  Zn1213  1  1.00000000  0.34333042  0.41111425  1.0
  Zn  Zn1214  1  1.00000000  0.67666375  0.41111425  1.0
  Zn  Zn1215  1  0.16666667  0.24809232  0.33968568  1.0
  Zn  Zn1216  1  0.16666667  0.58142565  0.33968568  1.0
  Zn  Zn1217  1  0.16666667  0.91475899  0.33968568  1.0
  Zn  Zn1218  1  0.50000000  0.24809232  0.33968568  1.0
  Zn  Zn1219  1  0.50000000  0.58142565  0.33968568  1.0
  Zn  Zn1220  1  0.50000000  0.91475899  0.33968568  1.0
  Zn  Zn1221  1  0.83333333  0.24809232  0.33968568  1.0
  Zn  Zn1222  1  0.83333333  0.58142565  0.33968568  1.0
  Zn  Zn1223  1  0.83333333  0.91475899  0.33968568  1.0
  Zn  Zn1224  1  0.21055567  0.06761604  0.38849496  1.0
  Zn  Zn1225  1  0.21055567  0.40094937  0.38849496  1.0
  Zn  Zn1226  1  0.21055567  0.73428270  0.38849496  1.0
  Zn  Zn1227  1  0.54388900  0.06761604  0.38849496  1.0
  Zn  Zn1228  1  0.54388900  0.40094937  0.38849496  1.0
  Zn  Zn1229  1  0.54388900  0.73428270  0.38849496  1.0
  Zn  Zn1230  1  0.87722233  0.06761604  0.38849496  1.0
  Zn  Zn1231  1  0.87722233  0.40094937  0.38849496  1.0
  Zn  Zn1232  1  0.87722233  0.73428270  0.38849496  1.0
  Zn  Zn1233  1  0.04388900  0.30571127  0.31706639  1.0
  Zn  Zn1234  1  0.04388900  0.63904461  0.31706639  1.0
  Zn  Zn1235  1  0.04388900  0.97237794  0.31706639  1.0
  Zn  Zn1236  1  0.37722233  0.30571127  0.31706639  1.0
  Zn  Zn1237  1  0.37722233  0.63904461  0.31706639  1.0
  Zn  Zn1238  1  0.37722233  0.97237794  0.31706639  1.0
  Zn  Zn1239  1  0.71055567  0.30571127  0.31706639  1.0
  Zn  Zn1240  1  0.71055567  0.63904461  0.31706639  1.0
  Zn  Zn1241  1  0.71055567  0.97237794  0.31706639  1.0
  Zn  Zn1242  1  0.05854367  0.30918651  0.41602382  1.0
  Zn  Zn1243  1  0.05854367  0.64251985  0.41602382  1.0
  Zn  Zn1244  1  0.05854367  0.97585318  0.41602382  1.0
  Zn  Zn1245  1  0.39187700  0.30918651  0.41602382  1.0
  Zn  Zn1246  1  0.39187700  0.64251985  0.41602382  1.0
  Zn  Zn1247  1  0.39187700  0.97585318  0.41602382  1.0
  Zn  Zn1248  1  0.72521033  0.30918651  0.41602382  1.0
  Zn  Zn1249  1  0.72521033  0.64251985  0.41602382  1.0
  Zn  Zn1250  1  0.72521033  0.97585318  0.41602382  1.0
  Zn  Zn1251  1  0.22521033  0.21394842  0.34459525  1.0
  Zn  Zn1252  1  0.22521033  0.54728175  0.34459525  1.0
  Zn  Zn1253  1  0.22521033  0.88061508  0.34459525  1.0
  Zn  Zn1254  1  0.55854367  0.21394842  0.34459525  1.0
  Zn  Zn1255  1  0.55854367  0.54728175  0.34459525  1.0
  Zn  Zn1256  1  0.55854367  0.88061508  0.34459525  1.0
  Zn  Zn1257  1  0.89187700  0.21394842  0.34459525  1.0
  Zn  Zn1258  1  0.89187700  0.54728175  0.34459525  1.0
  Zn  Zn1259  1  0.89187700  0.88061508  0.34459525  1.0
  Zn  Zn1260  1  0.26909933  0.15124985  0.36340482  1.0
  Zn  Zn1261  1  0.26909933  0.48458318  0.36340482  1.0
  Zn  Zn1262  1  0.26909933  0.81791651  0.36340482  1.0
  Zn  Zn1263  1  0.60243267  0.15124985  0.36340482  1.0
  Zn  Zn1264  1  0.60243267  0.48458318  0.36340482  1.0
  Zn  Zn1265  1  0.60243267  0.81791651  0.36340482  1.0
  Zn  Zn1266  1  0.93576600  0.15124985  0.36340482  1.0
  Zn  Zn1267  1  0.93576600  0.48458318  0.36340482  1.0
  Zn  Zn1268  1  0.93576600  0.81791651  0.36340482  1.0
  Zn  Zn1269  1  0.10243267  0.05601175  0.29197625  1.0
  Zn  Zn1270  1  0.10243267  0.38934508  0.29197625  1.0
  Zn  Zn1271  1  0.10243267  0.72267842  0.29197625  1.0
  Zn  Zn1272  1  0.43576600  0.05601175  0.29197625  1.0
  Zn  Zn1273  1  0.43576600  0.38934508  0.29197625  1.0
  Zn  Zn1274  1  0.43576600  0.72267842  0.29197625  1.0
  Zn  Zn1275  1  0.76909933  0.05601175  0.29197625  1.0
  Zn  Zn1276  1  0.76909933  0.38934508  0.29197625  1.0
  Zn  Zn1277  1  0.76909933  0.72267842  0.29197625  1.0
  Zn  Zn1278  1  0.05854367  0.09363089  0.38602411  1.0
  Zn  Zn1279  1  0.05854367  0.42696423  0.38602411  1.0
  Zn  Zn1280  1  0.05854367  0.76029756  0.38602411  1.0
  Zn  Zn1281  1  0.39187700  0.09363089  0.38602411  1.0
  Zn  Zn1282  1  0.39187700  0.42696423  0.38602411  1.0
  Zn  Zn1283  1  0.39187700  0.76029756  0.38602411  1.0
  Zn  Zn1284  1  0.72521033  0.09363089  0.38602411  1.0
  Zn  Zn1285  1  0.72521033  0.42696423  0.38602411  1.0
  Zn  Zn1286  1  0.72521033  0.76029756  0.38602411  1.0
  Zn  Zn1287  1  0.22521033  0.33172613  0.31459554  1.0
  Zn  Zn1288  1  0.22521033  0.66505946  0.31459554  1.0
  Zn  Zn1289  1  0.22521033  0.99839280  0.31459554  1.0
  Zn  Zn1290  1  0.55854367  0.33172613  0.31459554  1.0
  Zn  Zn1291  1  0.55854367  0.66505946  0.31459554  1.0
  Zn  Zn1292  1  0.55854367  0.99839280  0.31459554  1.0
  Zn  Zn1293  1  0.89187700  0.33172613  0.31459554  1.0
  Zn  Zn1294  1  0.89187700  0.66505946  0.31459554  1.0
  Zn  Zn1295  1  0.89187700  0.99839280  0.31459554  1.0
  Zn  Zn1296  1  0.27478967  0.09363089  0.38602411  1.0
  Zn  Zn1297  1  0.27478967  0.42696423  0.38602411  1.0
  Zn  Zn1298  1  0.27478967  0.76029756  0.38602411  1.0
  Zn  Zn1299  1  0.60812300  0.09363089  0.38602411  1.0
  Zn  Zn1300  1  0.60812300  0.42696423  0.38602411  1.0
  Zn  Zn1301  1  0.60812300  0.76029756  0.38602411  1.0
  Zn  Zn1302  1  0.94145633  0.09363089  0.38602411  1.0
  Zn  Zn1303  1  0.94145633  0.42696423  0.38602411  1.0
  Zn  Zn1304  1  0.94145633  0.76029756  0.38602411  1.0
  Zn  Zn1305  1  0.10812300  0.33172613  0.31459554  1.0
  Zn  Zn1306  1  0.10812300  0.66505946  0.31459554  1.0
  Zn  Zn1307  1  0.10812300  0.99839280  0.31459554  1.0
  Zn  Zn1308  1  0.44145633  0.33172613  0.31459554  1.0
  Zn  Zn1309  1  0.44145633  0.66505946  0.31459554  1.0
  Zn  Zn1310  1  0.44145633  0.99839280  0.31459554  1.0
  Zn  Zn1311  1  0.77478967  0.33172613  0.31459554  1.0
  Zn  Zn1312  1  0.77478967  0.66505946  0.31459554  1.0
  Zn  Zn1313  1  0.77478967  0.99839280  0.31459554  1.0
  Zn  Zn1314  1  0.06423400  0.15124985  0.36340482  1.0
  Zn  Zn1315  1  0.06423400  0.48458318  0.36340482  1.0
  Zn  Zn1316  1  0.06423400  0.81791651  0.36340482  1.0
  Zn  Zn1317  1  0.39756733  0.15124985  0.36340482  1.0
  Zn  Zn1318  1  0.39756733  0.48458318  0.36340482  1.0
  Zn  Zn1319  1  0.39756733  0.81791651  0.36340482  1.0
  Zn  Zn1320  1  0.73090067  0.15124985  0.36340482  1.0
  Zn  Zn1321  1  0.73090067  0.48458318  0.36340482  1.0
  Zn  Zn1322  1  0.73090067  0.81791651  0.36340482  1.0
  Zn  Zn1323  1  0.23090067  0.05601175  0.29197625  1.0
  Zn  Zn1324  1  0.23090067  0.38934508  0.29197625  1.0
  Zn  Zn1325  1  0.23090067  0.72267842  0.29197625  1.0
  Zn  Zn1326  1  0.56423400  0.05601175  0.29197625  1.0
  Zn  Zn1327  1  0.56423400  0.38934508  0.29197625  1.0
  Zn  Zn1328  1  0.56423400  0.72267842  0.29197625  1.0
  Zn  Zn1329  1  0.89756733  0.05601175  0.29197625  1.0
  Zn  Zn1330  1  0.89756733  0.38934508  0.29197625  1.0
  Zn  Zn1331  1  0.89756733  0.72267842  0.29197625  1.0
  Zn  Zn1332  1  0.27478967  0.30918651  0.41602382  1.0
  Zn  Zn1333  1  0.27478967  0.64251985  0.41602382  1.0
  Zn  Zn1334  1  0.27478967  0.97585318  0.41602382  1.0
  Zn  Zn1335  1  0.60812300  0.30918651  0.41602382  1.0
  Zn  Zn1336  1  0.60812300  0.64251985  0.41602382  1.0
  Zn  Zn1337  1  0.60812300  0.97585318  0.41602382  1.0
  Zn  Zn1338  1  0.94145633  0.30918651  0.41602382  1.0
  Zn  Zn1339  1  0.94145633  0.64251985  0.41602382  1.0
  Zn  Zn1340  1  0.94145633  0.97585318  0.41602382  1.0
  Zn  Zn1341  1  0.10812300  0.21394842  0.34459525  1.0
  Zn  Zn1342  1  0.10812300  0.54728175  0.34459525  1.0
  Zn  Zn1343  1  0.10812300  0.88061508  0.34459525  1.0
  Zn  Zn1344  1  0.44145633  0.21394842  0.34459525  1.0
  Zn  Zn1345  1  0.44145633  0.54728175  0.34459525  1.0
  Zn  Zn1346  1  0.44145633  0.88061508  0.34459525  1.0
  Zn  Zn1347  1  0.77478967  0.21394842  0.34459525  1.0
  Zn  Zn1348  1  0.77478967  0.54728175  0.34459525  1.0
  Zn  Zn1349  1  0.77478967  0.88061508  0.34459525  1.0
  Zn  Zn1350  1  0.04388900  0.19630765  0.30938268  1.0
  Zn  Zn1351  1  0.04388900  0.52964099  0.30938268  1.0
  Zn  Zn1352  1  0.04388900  0.86297432  0.30938268  1.0
  Zn  Zn1353  1  0.37722233  0.19630765  0.30938268  1.0
  Zn  Zn1354  1  0.37722233  0.52964099  0.30938268  1.0
  Zn  Zn1355  1  0.37722233  0.86297432  0.30938268  1.0
  Zn  Zn1356  1  0.71055567  0.19630765  0.30938268  1.0
  Zn  Zn1357  1  0.71055567  0.52964099  0.30938268  1.0
  Zn  Zn1358  1  0.71055567  0.86297432  0.30938268  1.0
  Zn  Zn1359  1  0.21055567  0.29154575  0.38081125  1.0
  Zn  Zn1360  1  0.21055567  0.62487908  0.38081125  1.0
  Zn  Zn1361  1  0.21055567  0.95821242  0.38081125  1.0
  Zn  Zn1362  1  0.54388900  0.29154575  0.38081125  1.0
  Zn  Zn1363  1  0.54388900  0.62487908  0.38081125  1.0
  Zn  Zn1364  1  0.54388900  0.95821242  0.38081125  1.0
  Zn  Zn1365  1  0.87722233  0.29154575  0.38081125  1.0
  Zn  Zn1366  1  0.87722233  0.62487908  0.38081125  1.0
  Zn  Zn1367  1  0.87722233  0.95821242  0.38081125  1.0
  Zn  Zn1368  1  0.33333333  0.25900623  0.29057311  1.0
  Zn  Zn1369  1  0.33333333  0.59233956  0.29057311  1.0
  Zn  Zn1370  1  0.33333333  0.92567289  0.29057311  1.0
  Zn  Zn1371  1  0.66666667  0.25900623  0.29057311  1.0
  Zn  Zn1372  1  0.66666667  0.59233956  0.29057311  1.0
  Zn  Zn1373  1  0.66666667  0.92567289  0.29057311  1.0
  Zn  Zn1374  1  0.00000000  0.25900623  0.29057311  1.0
  Zn  Zn1375  1  0.00000000  0.59233956  0.29057311  1.0
  Zn  Zn1376  1  0.00000000  0.92567289  0.29057311  1.0
  Zn  Zn1377  1  0.16666667  0.02091099  0.36200168  1.0
  Zn  Zn1378  1  0.16666667  0.35424432  0.36200168  1.0
  Zn  Zn1379  1  0.16666667  0.68757765  0.36200168  1.0
  Zn  Zn1380  1  0.50000000  0.02091099  0.36200168  1.0
  Zn  Zn1381  1  0.50000000  0.35424432  0.36200168  1.0
  Zn  Zn1382  1  0.50000000  0.68757765  0.36200168  1.0
  Zn  Zn1383  1  0.83333333  0.02091099  0.36200168  1.0
  Zn  Zn1384  1  0.83333333  0.35424432  0.36200168  1.0
  Zn  Zn1385  1  0.83333333  0.68757765  0.36200168  1.0
  Zn  Zn1386  1  0.28944433  0.19630765  0.30938268  1.0
  Zn  Zn1387  1  0.28944433  0.52964099  0.30938268  1.0
  Zn  Zn1388  1  0.28944433  0.86297432  0.30938268  1.0
  Zn  Zn1389  1  0.62277767  0.19630765  0.30938268  1.0
  Zn  Zn1390  1  0.62277767  0.52964099  0.30938268  1.0
  Zn  Zn1391  1  0.62277767  0.86297432  0.30938268  1.0
  Zn  Zn1392  1  0.95611100  0.19630765  0.30938268  1.0
  Zn  Zn1393  1  0.95611100  0.52964099  0.30938268  1.0
  Zn  Zn1394  1  0.95611100  0.86297432  0.30938268  1.0
  Zn  Zn1395  1  0.12277767  0.29154575  0.38081125  1.0
  Zn  Zn1396  1  0.12277767  0.62487908  0.38081125  1.0
  Zn  Zn1397  1  0.12277767  0.95821242  0.38081125  1.0
  Zn  Zn1398  1  0.45611100  0.29154575  0.38081125  1.0
  Zn  Zn1399  1  0.45611100  0.62487908  0.38081125  1.0
  Zn  Zn1400  1  0.45611100  0.95821242  0.38081125  1.0
  Zn  Zn1401  1  0.78944433  0.29154575  0.38081125  1.0
  Zn  Zn1402  1  0.78944433  0.62487908  0.38081125  1.0
  Zn  Zn1403  1  0.78944433  0.95821242  0.38081125  1.0
