# generated using pymatgen
data_Zn22Ni3
_symmetry_space_group_name_H-M   'P 1'
_cell_length_a   61.17156103
_cell_length_b   37.09332293
_cell_length_c   53.53507117
_cell_angle_alpha   143.89993902
_cell_angle_beta   140.39708112
_cell_angle_gamma   46.39013610
_symmetry_Int_Tables_number   1
_chemical_formula_structural   Zn22Ni3
_chemical_formula_sum   'Zn1188 Ni162'
_cell_volume   44888.36092297
_cell_formula_units_Z   54
loop_
 _symmetry_equiv_pos_site_id
 _symmetry_equiv_pos_as_xyz
  1  'x, y, z'
loop_
 _atom_site_type_symbol
 _atom_site_label
 _atom_site_symmetry_multiplicity
 _atom_site_fract_x
 _atom_site_fract_y
 _atom_site_fract_z
 _atom_site_occupancy
  Zn  Zn0  1  0.12328383  0.10368767  0.04166043  1.0
  Zn  Zn1  1  0.12328383  0.43702100  0.04166043  1.0
  Zn  Zn2  1  0.12328383  0.77035433  0.04166043  1.0
  Zn  Zn3  1  0.45661717  0.10368767  0.04166043  1.0
  Zn  Zn4  1  0.45661717  0.43702100  0.04166043  1.0
  Zn  Zn5  1  0.45661717  0.77035433  0.04166043  1.0
  Zn  Zn6  1  0.78995050  0.10368767  0.04166043  1.0
  Zn  Zn7  1  0.78995050  0.43702100  0.04166043  1.0
  Zn  Zn8  1  0.78995050  0.77035433  0.04166043  1.0
  Zn  Zn9  1  0.28995050  0.10368767  0.11308900  1.0
  Zn  Zn10  1  0.28995050  0.43702100  0.11308900  1.0
  Zn  Zn11  1  0.28995050  0.77035433  0.11308900  1.0
  Zn  Zn12  1  0.62328383  0.10368767  0.11308900  1.0
  Zn  Zn13  1  0.62328383  0.43702100  0.11308900  1.0
  Zn  Zn14  1  0.62328383  0.77035433  0.11308900  1.0
  Zn  Zn15  1  0.95661717  0.10368767  0.11308900  1.0
  Zn  Zn16  1  0.95661717  0.43702100  0.11308900  1.0
  Zn  Zn17  1  0.95661717  0.77035433  0.11308900  1.0
  Zn  Zn18  1  0.04338283  0.22964567  0.01692886  1.0
  Zn  Zn19  1  0.04338283  0.56297900  0.01692886  1.0
  Zn  Zn20  1  0.04338283  0.89631233  0.01692886  1.0
  Zn  Zn21  1  0.37671617  0.22964567  0.01692886  1.0
  Zn  Zn22  1  0.37671617  0.56297900  0.01692886  1.0
  Zn  Zn23  1  0.37671617  0.89631233  0.01692886  1.0
  Zn  Zn24  1  0.71004950  0.22964567  0.01692886  1.0
  Zn  Zn25  1  0.71004950  0.56297900  0.01692886  1.0
  Zn  Zn26  1  0.71004950  0.89631233  0.01692886  1.0
  Zn  Zn27  1  0.21004950  0.22964567  0.08835743  1.0
  Zn  Zn28  1  0.21004950  0.56297900  0.08835743  1.0
  Zn  Zn29  1  0.21004950  0.89631233  0.08835743  1.0
  Zn  Zn30  1  0.54338283  0.22964567  0.08835743  1.0
  Zn  Zn31  1  0.54338283  0.56297900  0.08835743  1.0
  Zn  Zn32  1  0.54338283  0.89631233  0.08835743  1.0
  Zn  Zn33  1  0.87671617  0.22964567  0.08835743  1.0
  Zn  Zn34  1  0.87671617  0.56297900  0.08835743  1.0
  Zn  Zn35  1  0.87671617  0.89631233  0.08835743  1.0
  Zn  Zn36  1  0.10927433  0.22964567  0.10164650  1.0
  Zn  Zn37  1  0.10927433  0.56297900  0.10164650  1.0
  Zn  Zn38  1  0.10927433  0.89631233  0.10164650  1.0
  Zn  Zn39  1  0.44260767  0.22964567  0.10164650  1.0
  Zn  Zn40  1  0.44260767  0.56297900  0.10164650  1.0
  Zn  Zn41  1  0.44260767  0.89631233  0.10164650  1.0
  Zn  Zn42  1  0.77594100  0.22964567  0.10164650  1.0
  Zn  Zn43  1  0.77594100  0.56297900  0.10164650  1.0
  Zn  Zn44  1  0.77594100  0.89631233  0.10164650  1.0
  Zn  Zn45  1  0.27594100  0.22964567  0.03021793  1.0
  Zn  Zn46  1  0.27594100  0.56297900  0.03021793  1.0
  Zn  Zn47  1  0.27594100  0.89631233  0.03021793  1.0
  Zn  Zn48  1  0.60927433  0.22964567  0.03021793  1.0
  Zn  Zn49  1  0.60927433  0.56297900  0.03021793  1.0
  Zn  Zn50  1  0.60927433  0.89631233  0.03021793  1.0
  Zn  Zn51  1  0.94260767  0.22964567  0.03021793  1.0
  Zn  Zn52  1  0.94260767  0.56297900  0.03021793  1.0
  Zn  Zn53  1  0.94260767  0.89631233  0.03021793  1.0
  Zn  Zn54  1  0.05739233  0.10368767  0.09979993  1.0
  Zn  Zn55  1  0.05739233  0.43702100  0.09979993  1.0
  Zn  Zn56  1  0.05739233  0.77035433  0.09979993  1.0
  Zn  Zn57  1  0.39072567  0.10368767  0.09979993  1.0
  Zn  Zn58  1  0.39072567  0.43702100  0.09979993  1.0
  Zn  Zn59  1  0.39072567  0.77035433  0.09979993  1.0
  Zn  Zn60  1  0.72405900  0.10368767  0.09979993  1.0
  Zn  Zn61  1  0.72405900  0.43702100  0.09979993  1.0
  Zn  Zn62  1  0.72405900  0.77035433  0.09979993  1.0
  Zn  Zn63  1  0.22405900  0.10368767  0.02837136  1.0
  Zn  Zn64  1  0.22405900  0.43702100  0.02837136  1.0
  Zn  Zn65  1  0.22405900  0.77035433  0.02837136  1.0
  Zn  Zn66  1  0.55739233  0.10368767  0.02837136  1.0
  Zn  Zn67  1  0.55739233  0.43702100  0.02837136  1.0
  Zn  Zn68  1  0.55739233  0.77035433  0.02837136  1.0
  Zn  Zn69  1  0.89072567  0.10368767  0.02837136  1.0
  Zn  Zn70  1  0.89072567  0.43702100  0.02837136  1.0
  Zn  Zn71  1  0.89072567  0.77035433  0.02837136  1.0
  Zn  Zn72  1  0.05373983  0.00000000  0.06267443  1.0
  Zn  Zn73  1  0.05373983  0.33333333  0.06267443  1.0
  Zn  Zn74  1  0.05373983  0.66666667  0.06267443  1.0
  Zn  Zn75  1  0.38707317  0.00000000  0.06267443  1.0
  Zn  Zn76  1  0.38707317  0.33333333  0.06267443  1.0
  Zn  Zn77  1  0.38707317  0.66666667  0.06267443  1.0
  Zn  Zn78  1  0.72040650  0.00000000  0.06267443  1.0
  Zn  Zn79  1  0.72040650  0.33333333  0.06267443  1.0
  Zn  Zn80  1  0.72040650  0.66666667  0.06267443  1.0
  Zn  Zn81  1  0.22040650  0.00000000  0.13410300  1.0
  Zn  Zn82  1  0.22040650  0.33333333  0.13410300  1.0
  Zn  Zn83  1  0.22040650  0.66666667  0.13410300  1.0
  Zn  Zn84  1  0.55373983  0.00000000  0.13410300  1.0
  Zn  Zn85  1  0.55373983  0.33333333  0.13410300  1.0
  Zn  Zn86  1  0.55373983  0.66666667  0.13410300  1.0
  Zn  Zn87  1  0.88707317  0.00000000  0.13410300  1.0
  Zn  Zn88  1  0.88707317  0.33333333  0.13410300  1.0
  Zn  Zn89  1  0.88707317  0.66666667  0.13410300  1.0
  Zn  Zn90  1  0.11292683  0.00000000  0.13877200  1.0
  Zn  Zn91  1  0.11292683  0.33333333  0.13877200  1.0
  Zn  Zn92  1  0.11292683  0.66666667  0.13877200  1.0
  Zn  Zn93  1  0.44626017  0.00000000  0.13877200  1.0
  Zn  Zn94  1  0.44626017  0.33333333  0.13877200  1.0
  Zn  Zn95  1  0.44626017  0.66666667  0.13877200  1.0
  Zn  Zn96  1  0.77959350  0.00000000  0.13877200  1.0
  Zn  Zn97  1  0.77959350  0.33333333  0.13877200  1.0
  Zn  Zn98  1  0.77959350  0.66666667  0.13877200  1.0
  Zn  Zn99  1  0.27959350  0.00000000  0.06734343  1.0
  Zn  Zn100  1  0.27959350  0.33333333  0.06734343  1.0
  Zn  Zn101  1  0.27959350  0.66666667  0.06734343  1.0
  Zn  Zn102  1  0.61292683  0.00000000  0.06734343  1.0
  Zn  Zn103  1  0.61292683  0.33333333  0.06734343  1.0
  Zn  Zn104  1  0.61292683  0.66666667  0.06734343  1.0
  Zn  Zn105  1  0.94626017  0.00000000  0.06734343  1.0
  Zn  Zn106  1  0.94626017  0.33333333  0.06734343  1.0
  Zn  Zn107  1  0.94626017  0.66666667  0.06734343  1.0
  Zn  Zn108  1  0.13842767  0.26142467  0.04629336  1.0
  Zn  Zn109  1  0.13842767  0.59475800  0.04629336  1.0
  Zn  Zn110  1  0.13842767  0.92809133  0.04629336  1.0
  Zn  Zn111  1  0.47176100  0.26142467  0.04629336  1.0
  Zn  Zn112  1  0.47176100  0.59475800  0.04629336  1.0
  Zn  Zn113  1  0.47176100  0.92809133  0.04629336  1.0
  Zn  Zn114  1  0.80509433  0.26142467  0.04629336  1.0
  Zn  Zn115  1  0.80509433  0.59475800  0.04629336  1.0
  Zn  Zn116  1  0.80509433  0.92809133  0.04629336  1.0
  Zn  Zn117  1  0.30509433  0.26142467  0.11772193  1.0
  Zn  Zn118  1  0.30509433  0.59475800  0.11772193  1.0
  Zn  Zn119  1  0.30509433  0.92809133  0.11772193  1.0
  Zn  Zn120  1  0.63842767  0.26142467  0.11772193  1.0
  Zn  Zn121  1  0.63842767  0.59475800  0.11772193  1.0
  Zn  Zn122  1  0.63842767  0.92809133  0.11772193  1.0
  Zn  Zn123  1  0.97176100  0.26142467  0.11772193  1.0
  Zn  Zn124  1  0.97176100  0.59475800  0.11772193  1.0
  Zn  Zn125  1  0.97176100  0.92809133  0.11772193  1.0
  Zn  Zn126  1  0.02823900  0.07190867  0.01229593  1.0
  Zn  Zn127  1  0.02823900  0.40524200  0.01229593  1.0
  Zn  Zn128  1  0.02823900  0.73857533  0.01229593  1.0
  Zn  Zn129  1  0.36157233  0.07190867  0.01229593  1.0
  Zn  Zn130  1  0.36157233  0.40524200  0.01229593  1.0
  Zn  Zn131  1  0.36157233  0.73857533  0.01229593  1.0
  Zn  Zn132  1  0.69490567  0.07190867  0.01229593  1.0
  Zn  Zn133  1  0.69490567  0.40524200  0.01229593  1.0
  Zn  Zn134  1  0.69490567  0.73857533  0.01229593  1.0
  Zn  Zn135  1  0.19490567  0.07190867  0.08372450  1.0
  Zn  Zn136  1  0.19490567  0.40524200  0.08372450  1.0
  Zn  Zn137  1  0.19490567  0.73857533  0.08372450  1.0
  Zn  Zn138  1  0.52823900  0.07190867  0.08372450  1.0
  Zn  Zn139  1  0.52823900  0.40524200  0.08372450  1.0
  Zn  Zn140  1  0.52823900  0.73857533  0.08372450  1.0
  Zn  Zn141  1  0.86157233  0.07190867  0.08372450  1.0
  Zn  Zn142  1  0.86157233  0.40524200  0.08372450  1.0
  Zn  Zn143  1  0.86157233  0.73857533  0.08372450  1.0
  Zn  Zn144  1  0.16270600  0.05875933  0.09188893  1.0
  Zn  Zn145  1  0.16270600  0.39209267  0.09188893  1.0
  Zn  Zn146  1  0.16270600  0.72542600  0.09188893  1.0
  Zn  Zn147  1  0.49603933  0.05875933  0.09188893  1.0
  Zn  Zn148  1  0.49603933  0.39209267  0.09188893  1.0
  Zn  Zn149  1  0.49603933  0.72542600  0.09188893  1.0
  Zn  Zn150  1  0.82937267  0.05875933  0.09188893  1.0
  Zn  Zn151  1  0.82937267  0.39209267  0.09188893  1.0
  Zn  Zn152  1  0.82937267  0.72542600  0.09188893  1.0
  Zn  Zn153  1  0.32937267  0.05875933  0.02046036  1.0
  Zn  Zn154  1  0.32937267  0.39209267  0.02046036  1.0
  Zn  Zn155  1  0.32937267  0.72542600  0.02046036  1.0
  Zn  Zn156  1  0.66270600  0.05875933  0.02046036  1.0
  Zn  Zn157  1  0.66270600  0.39209267  0.02046036  1.0
  Zn  Zn158  1  0.66270600  0.72542600  0.02046036  1.0
  Zn  Zn159  1  0.99603933  0.05875933  0.02046036  1.0
  Zn  Zn160  1  0.99603933  0.39209267  0.02046036  1.0
  Zn  Zn161  1  0.99603933  0.72542600  0.02046036  1.0
  Zn  Zn162  1  0.00396067  0.27457400  0.10955750  1.0
  Zn  Zn163  1  0.00396067  0.60790733  0.10955750  1.0
  Zn  Zn164  1  0.00396067  0.94124067  0.10955750  1.0
  Zn  Zn165  1  0.33729400  0.27457400  0.10955750  1.0
  Zn  Zn166  1  0.33729400  0.60790733  0.10955750  1.0
  Zn  Zn167  1  0.33729400  0.94124067  0.10955750  1.0
  Zn  Zn168  1  0.67062733  0.27457400  0.10955750  1.0
  Zn  Zn169  1  0.67062733  0.60790733  0.10955750  1.0
  Zn  Zn170  1  0.67062733  0.94124067  0.10955750  1.0
  Zn  Zn171  1  0.17062733  0.27457400  0.03812893  1.0
  Zn  Zn172  1  0.17062733  0.60790733  0.03812893  1.0
  Zn  Zn173  1  0.17062733  0.94124067  0.03812893  1.0
  Zn  Zn174  1  0.50396067  0.27457400  0.03812893  1.0
  Zn  Zn175  1  0.50396067  0.60790733  0.03812893  1.0
  Zn  Zn176  1  0.50396067  0.94124067  0.03812893  1.0
  Zn  Zn177  1  0.83729400  0.27457400  0.03812893  1.0
  Zn  Zn178  1  0.83729400  0.60790733  0.03812893  1.0
  Zn  Zn179  1  0.83729400  0.94124067  0.03812893  1.0
  Zn  Zn180  1  0.05871133  0.09085500  0.00735621  1.0
  Zn  Zn181  1  0.05871133  0.42418833  0.00735621  1.0
  Zn  Zn182  1  0.05871133  0.75752167  0.00735621  1.0
  Zn  Zn183  1  0.39204467  0.09085500  0.00735621  1.0
  Zn  Zn184  1  0.39204467  0.42418833  0.00735621  1.0
  Zn  Zn185  1  0.39204467  0.75752167  0.00735621  1.0
  Zn  Zn186  1  0.72537800  0.09085500  0.00735621  1.0
  Zn  Zn187  1  0.72537800  0.42418833  0.00735621  1.0
  Zn  Zn188  1  0.72537800  0.75752167  0.00735621  1.0
  Zn  Zn189  1  0.22537800  0.09085500  0.07878479  1.0
  Zn  Zn190  1  0.22537800  0.42418833  0.07878479  1.0
  Zn  Zn191  1  0.22537800  0.75752167  0.07878479  1.0
  Zn  Zn192  1  0.55871133  0.09085500  0.07878479  1.0
  Zn  Zn193  1  0.55871133  0.42418833  0.07878479  1.0
  Zn  Zn194  1  0.55871133  0.75752167  0.07878479  1.0
  Zn  Zn195  1  0.89204467  0.09085500  0.07878479  1.0
  Zn  Zn196  1  0.89204467  0.42418833  0.07878479  1.0
  Zn  Zn197  1  0.89204467  0.75752167  0.07878479  1.0
  Zn  Zn198  1  0.10795533  0.24247833  0.05123307  1.0
  Zn  Zn199  1  0.10795533  0.57581167  0.05123307  1.0
  Zn  Zn200  1  0.10795533  0.90914500  0.05123307  1.0
  Zn  Zn201  1  0.44128867  0.24247833  0.05123307  1.0
  Zn  Zn202  1  0.44128867  0.57581167  0.05123307  1.0
  Zn  Zn203  1  0.44128867  0.90914500  0.05123307  1.0
  Zn  Zn204  1  0.77462200  0.24247833  0.05123307  1.0
  Zn  Zn205  1  0.77462200  0.57581167  0.05123307  1.0
  Zn  Zn206  1  0.77462200  0.90914500  0.05123307  1.0
  Zn  Zn207  1  0.27462200  0.24247833  0.12266164  1.0
  Zn  Zn208  1  0.27462200  0.57581167  0.12266164  1.0
  Zn  Zn209  1  0.27462200  0.90914500  0.12266164  1.0
  Zn  Zn210  1  0.60795533  0.24247833  0.12266164  1.0
  Zn  Zn211  1  0.60795533  0.57581167  0.12266164  1.0
  Zn  Zn212  1  0.60795533  0.90914500  0.12266164  1.0
  Zn  Zn213  1  0.94128867  0.24247833  0.12266164  1.0
  Zn  Zn214  1  0.94128867  0.57581167  0.12266164  1.0
  Zn  Zn215  1  0.94128867  0.90914500  0.12266164  1.0
  Zn  Zn216  1  0.11433000  0.12548433  0.14121793  1.0
  Zn  Zn217  1  0.11433000  0.45881767  0.14121793  1.0
  Zn  Zn218  1  0.11433000  0.79215100  0.14121793  1.0
  Zn  Zn219  1  0.44766333  0.12548433  0.14121793  1.0
  Zn  Zn220  1  0.44766333  0.45881767  0.14121793  1.0
  Zn  Zn221  1  0.44766333  0.79215100  0.14121793  1.0
  Zn  Zn222  1  0.78099667  0.12548433  0.14121793  1.0
  Zn  Zn223  1  0.78099667  0.45881767  0.14121793  1.0
  Zn  Zn224  1  0.78099667  0.79215100  0.14121793  1.0
  Zn  Zn225  1  0.28099667  0.12548433  0.06978936  1.0
  Zn  Zn226  1  0.28099667  0.45881767  0.06978936  1.0
  Zn  Zn227  1  0.28099667  0.79215100  0.06978936  1.0
  Zn  Zn228  1  0.61433000  0.12548433  0.06978936  1.0
  Zn  Zn229  1  0.61433000  0.45881767  0.06978936  1.0
  Zn  Zn230  1  0.61433000  0.79215100  0.06978936  1.0
  Zn  Zn231  1  0.94766333  0.12548433  0.06978936  1.0
  Zn  Zn232  1  0.94766333  0.45881767  0.06978936  1.0
  Zn  Zn233  1  0.94766333  0.79215100  0.06978936  1.0
  Zn  Zn234  1  0.05233667  0.20784900  0.06022850  1.0
  Zn  Zn235  1  0.05233667  0.54118233  0.06022850  1.0
  Zn  Zn236  1  0.05233667  0.87451567  0.06022850  1.0
  Zn  Zn237  1  0.38567000  0.20784900  0.06022850  1.0
  Zn  Zn238  1  0.38567000  0.54118233  0.06022850  1.0
  Zn  Zn239  1  0.38567000  0.87451567  0.06022850  1.0
  Zn  Zn240  1  0.71900333  0.20784900  0.06022850  1.0
  Zn  Zn241  1  0.71900333  0.54118233  0.06022850  1.0
  Zn  Zn242  1  0.71900333  0.87451567  0.06022850  1.0
  Zn  Zn243  1  0.21900333  0.20784900  0.13165707  1.0
  Zn  Zn244  1  0.21900333  0.54118233  0.13165707  1.0
  Zn  Zn245  1  0.21900333  0.87451567  0.13165707  1.0
  Zn  Zn246  1  0.55233667  0.20784900  0.13165707  1.0
  Zn  Zn247  1  0.55233667  0.54118233  0.13165707  1.0
  Zn  Zn248  1  0.55233667  0.87451567  0.13165707  1.0
  Zn  Zn249  1  0.88567000  0.20784900  0.13165707  1.0
  Zn  Zn250  1  0.88567000  0.54118233  0.13165707  1.0
  Zn  Zn251  1  0.88567000  0.87451567  0.13165707  1.0
  Zn  Zn252  1  0.00395467  0.15406933  0.10955436  1.0
  Zn  Zn253  1  0.00395467  0.48740267  0.10955436  1.0
  Zn  Zn254  1  0.00395467  0.82073600  0.10955436  1.0
  Zn  Zn255  1  0.33728800  0.15406933  0.10955436  1.0
  Zn  Zn256  1  0.33728800  0.48740267  0.10955436  1.0
  Zn  Zn257  1  0.33728800  0.82073600  0.10955436  1.0
  Zn  Zn258  1  0.67062133  0.15406933  0.10955436  1.0
  Zn  Zn259  1  0.67062133  0.48740267  0.10955436  1.0
  Zn  Zn260  1  0.67062133  0.82073600  0.10955436  1.0
  Zn  Zn261  1  0.17062133  0.15406933  0.03812579  1.0
  Zn  Zn262  1  0.17062133  0.48740267  0.03812579  1.0
  Zn  Zn263  1  0.17062133  0.82073600  0.03812579  1.0
  Zn  Zn264  1  0.50395467  0.15406933  0.03812579  1.0
  Zn  Zn265  1  0.50395467  0.48740267  0.03812579  1.0
  Zn  Zn266  1  0.50395467  0.82073600  0.03812579  1.0
  Zn  Zn267  1  0.83728800  0.15406933  0.03812579  1.0
  Zn  Zn268  1  0.83728800  0.48740267  0.03812579  1.0
  Zn  Zn269  1  0.83728800  0.82073600  0.03812579  1.0
  Zn  Zn270  1  0.16271200  0.17926400  0.09189207  1.0
  Zn  Zn271  1  0.16271200  0.51259733  0.09189207  1.0
  Zn  Zn272  1  0.16271200  0.84593067  0.09189207  1.0
  Zn  Zn273  1  0.49604533  0.17926400  0.09189207  1.0
  Zn  Zn274  1  0.49604533  0.51259733  0.09189207  1.0
  Zn  Zn275  1  0.49604533  0.84593067  0.09189207  1.0
  Zn  Zn276  1  0.82937867  0.17926400  0.09189207  1.0
  Zn  Zn277  1  0.82937867  0.51259733  0.09189207  1.0
  Zn  Zn278  1  0.82937867  0.84593067  0.09189207  1.0
  Zn  Zn279  1  0.32937867  0.17926400  0.02046350  1.0
  Zn  Zn280  1  0.32937867  0.51259733  0.02046350  1.0
  Zn  Zn281  1  0.32937867  0.84593067  0.02046350  1.0
  Zn  Zn282  1  0.66271200  0.17926400  0.02046350  1.0
  Zn  Zn283  1  0.66271200  0.51259733  0.02046350  1.0
  Zn  Zn284  1  0.66271200  0.84593067  0.02046350  1.0
  Zn  Zn285  1  0.99604533  0.17926400  0.02046350  1.0
  Zn  Zn286  1  0.99604533  0.51259733  0.02046350  1.0
  Zn  Zn287  1  0.99604533  0.84593067  0.02046350  1.0
  Zn  Zn288  1  0.05629100  0.17926400  0.09792221  1.0
  Zn  Zn289  1  0.05629100  0.51259733  0.09792221  1.0
  Zn  Zn290  1  0.05629100  0.84593067  0.09792221  1.0
  Zn  Zn291  1  0.38962433  0.17926400  0.09792221  1.0
  Zn  Zn292  1  0.38962433  0.51259733  0.09792221  1.0
  Zn  Zn293  1  0.38962433  0.84593067  0.09792221  1.0
  Zn  Zn294  1  0.72295767  0.17926400  0.09792221  1.0
  Zn  Zn295  1  0.72295767  0.51259733  0.09792221  1.0
  Zn  Zn296  1  0.72295767  0.84593067  0.09792221  1.0
  Zn  Zn297  1  0.22295767  0.17926400  0.02649364  1.0
  Zn  Zn298  1  0.22295767  0.51259733  0.02649364  1.0
  Zn  Zn299  1  0.22295767  0.84593067  0.02649364  1.0
  Zn  Zn300  1  0.55629100  0.17926400  0.02649364  1.0
  Zn  Zn301  1  0.55629100  0.51259733  0.02649364  1.0
  Zn  Zn302  1  0.55629100  0.84593067  0.02649364  1.0
  Zn  Zn303  1  0.88962433  0.17926400  0.02649364  1.0
  Zn  Zn304  1  0.88962433  0.51259733  0.02649364  1.0
  Zn  Zn305  1  0.88962433  0.84593067  0.02649364  1.0
  Zn  Zn306  1  0.11037567  0.15406933  0.10352421  1.0
  Zn  Zn307  1  0.11037567  0.48740267  0.10352421  1.0
  Zn  Zn308  1  0.11037567  0.82073600  0.10352421  1.0
  Zn  Zn309  1  0.44370900  0.15406933  0.10352421  1.0
  Zn  Zn310  1  0.44370900  0.48740267  0.10352421  1.0
  Zn  Zn311  1  0.44370900  0.82073600  0.10352421  1.0
  Zn  Zn312  1  0.77704233  0.15406933  0.10352421  1.0
  Zn  Zn313  1  0.77704233  0.48740267  0.10352421  1.0
  Zn  Zn314  1  0.77704233  0.82073600  0.10352421  1.0
  Zn  Zn315  1  0.27704233  0.15406933  0.03209564  1.0
  Zn  Zn316  1  0.27704233  0.48740267  0.03209564  1.0
  Zn  Zn317  1  0.27704233  0.82073600  0.03209564  1.0
  Zn  Zn318  1  0.61037567  0.15406933  0.03209564  1.0
  Zn  Zn319  1  0.61037567  0.48740267  0.03209564  1.0
  Zn  Zn320  1  0.61037567  0.82073600  0.03209564  1.0
  Zn  Zn321  1  0.94370900  0.15406933  0.03209564  1.0
  Zn  Zn322  1  0.94370900  0.48740267  0.03209564  1.0
  Zn  Zn323  1  0.94370900  0.82073600  0.03209564  1.0
  Zn  Zn324  1  0.16645583  0.03328867  0.13375829  1.0
  Zn  Zn325  1  0.16645583  0.36662200  0.13375829  1.0
  Zn  Zn326  1  0.16645583  0.69995533  0.13375829  1.0
  Zn  Zn327  1  0.49978917  0.03328867  0.13375829  1.0
  Zn  Zn328  1  0.49978917  0.36662200  0.13375829  1.0
  Zn  Zn329  1  0.49978917  0.69995533  0.13375829  1.0
  Zn  Zn330  1  0.83312250  0.03328867  0.13375829  1.0
  Zn  Zn331  1  0.83312250  0.36662200  0.13375829  1.0
  Zn  Zn332  1  0.83312250  0.69995533  0.13375829  1.0
  Zn  Zn333  1  0.33312250  0.03328867  0.06232971  1.0
  Zn  Zn334  1  0.33312250  0.36662200  0.06232971  1.0
  Zn  Zn335  1  0.33312250  0.69995533  0.06232971  1.0
  Zn  Zn336  1  0.66645583  0.03328867  0.06232971  1.0
  Zn  Zn337  1  0.66645583  0.36662200  0.06232971  1.0
  Zn  Zn338  1  0.66645583  0.69995533  0.06232971  1.0
  Zn  Zn339  1  0.99978917  0.03328867  0.06232971  1.0
  Zn  Zn340  1  0.99978917  0.36662200  0.06232971  1.0
  Zn  Zn341  1  0.99978917  0.69995533  0.06232971  1.0
  Zn  Zn342  1  0.00021083  0.30004467  0.06768814  1.0
  Zn  Zn343  1  0.00021083  0.63337800  0.06768814  1.0
  Zn  Zn344  1  0.00021083  0.96671133  0.06768814  1.0
  Zn  Zn345  1  0.33354417  0.30004467  0.06768814  1.0
  Zn  Zn346  1  0.33354417  0.63337800  0.06768814  1.0
  Zn  Zn347  1  0.33354417  0.96671133  0.06768814  1.0
  Zn  Zn348  1  0.66687750  0.30004467  0.06768814  1.0
  Zn  Zn349  1  0.66687750  0.63337800  0.06768814  1.0
  Zn  Zn350  1  0.66687750  0.96671133  0.06768814  1.0
  Zn  Zn351  1  0.16687750  0.30004467  0.13911671  1.0
  Zn  Zn352  1  0.16687750  0.63337800  0.13911671  1.0
  Zn  Zn353  1  0.16687750  0.96671133  0.13911671  1.0
  Zn  Zn354  1  0.50021083  0.30004467  0.13911671  1.0
  Zn  Zn355  1  0.50021083  0.63337800  0.13911671  1.0
  Zn  Zn356  1  0.50021083  0.96671133  0.13911671  1.0
  Zn  Zn357  1  0.83354417  0.30004467  0.13911671  1.0
  Zn  Zn358  1  0.83354417  0.63337800  0.13911671  1.0
  Zn  Zn359  1  0.83354417  0.96671133  0.13911671  1.0
  Zn  Zn360  1  0.06366867  0.30004467  0.00641964  1.0
  Zn  Zn361  1  0.06366867  0.63337800  0.00641964  1.0
  Zn  Zn362  1  0.06366867  0.96671133  0.00641964  1.0
  Zn  Zn363  1  0.39700200  0.30004467  0.00641964  1.0
  Zn  Zn364  1  0.39700200  0.63337800  0.00641964  1.0
  Zn  Zn365  1  0.39700200  0.96671133  0.00641964  1.0
  Zn  Zn366  1  0.73033533  0.30004467  0.00641964  1.0
  Zn  Zn367  1  0.73033533  0.63337800  0.00641964  1.0
  Zn  Zn368  1  0.73033533  0.96671133  0.00641964  1.0
  Zn  Zn369  1  0.23033533  0.30004467  0.07784821  1.0
  Zn  Zn370  1  0.23033533  0.63337800  0.07784821  1.0
  Zn  Zn371  1  0.23033533  0.96671133  0.07784821  1.0
  Zn  Zn372  1  0.56366867  0.30004467  0.07784821  1.0
  Zn  Zn373  1  0.56366867  0.63337800  0.07784821  1.0
  Zn  Zn374  1  0.56366867  0.96671133  0.07784821  1.0
  Zn  Zn375  1  0.89700200  0.30004467  0.07784821  1.0
  Zn  Zn376  1  0.89700200  0.63337800  0.07784821  1.0
  Zn  Zn377  1  0.89700200  0.96671133  0.07784821  1.0
  Zn  Zn378  1  0.10299800  0.03328867  0.05216964  1.0
  Zn  Zn379  1  0.10299800  0.36662200  0.05216964  1.0
  Zn  Zn380  1  0.10299800  0.69995533  0.05216964  1.0
  Zn  Zn381  1  0.43633133  0.03328867  0.05216964  1.0
  Zn  Zn382  1  0.43633133  0.36662200  0.05216964  1.0
  Zn  Zn383  1  0.43633133  0.69995533  0.05216964  1.0
  Zn  Zn384  1  0.76966467  0.03328867  0.05216964  1.0
  Zn  Zn385  1  0.76966467  0.36662200  0.05216964  1.0
  Zn  Zn386  1  0.76966467  0.69995533  0.05216964  1.0
  Zn  Zn387  1  0.26966467  0.03328867  0.12359821  1.0
  Zn  Zn388  1  0.26966467  0.36662200  0.12359821  1.0
  Zn  Zn389  1  0.26966467  0.69995533  0.12359821  1.0
  Zn  Zn390  1  0.60299800  0.03328867  0.12359821  1.0
  Zn  Zn391  1  0.60299800  0.36662200  0.12359821  1.0
  Zn  Zn392  1  0.60299800  0.69995533  0.12359821  1.0
  Zn  Zn393  1  0.93633133  0.03328867  0.12359821  1.0
  Zn  Zn394  1  0.93633133  0.36662200  0.12359821  1.0
  Zn  Zn395  1  0.93633133  0.69995533  0.12359821  1.0
  Ni  Ni396  1  0.10962617  0.01805067  0.09719086  1.0
  Ni  Ni397  1  0.10962617  0.35138400  0.09719086  1.0
  Ni  Ni398  1  0.10962617  0.68471733  0.09719086  1.0
  Ni  Ni399  1  0.44295950  0.01805067  0.09719086  1.0
  Ni  Ni400  1  0.44295950  0.35138400  0.09719086  1.0
  Ni  Ni401  1  0.44295950  0.68471733  0.09719086  1.0
  Ni  Ni402  1  0.77629283  0.01805067  0.09719086  1.0
  Ni  Ni403  1  0.77629283  0.35138400  0.09719086  1.0
  Ni  Ni404  1  0.77629283  0.68471733  0.09719086  1.0
  Ni  Ni405  1  0.27629283  0.01805067  0.02576229  1.0
  Ni  Ni406  1  0.27629283  0.35138400  0.02576229  1.0
  Ni  Ni407  1  0.27629283  0.68471733  0.02576229  1.0
  Ni  Ni408  1  0.60962617  0.01805067  0.02576229  1.0
  Ni  Ni409  1  0.60962617  0.35138400  0.02576229  1.0
  Ni  Ni410  1  0.60962617  0.68471733  0.02576229  1.0
  Ni  Ni411  1  0.94295950  0.01805067  0.02576229  1.0
  Ni  Ni412  1  0.94295950  0.35138400  0.02576229  1.0
  Ni  Ni413  1  0.94295950  0.68471733  0.02576229  1.0
  Ni  Ni414  1  0.05704050  0.31528267  0.10425557  1.0
  Ni  Ni415  1  0.05704050  0.64861600  0.10425557  1.0
  Ni  Ni416  1  0.05704050  0.98194933  0.10425557  1.0
  Ni  Ni417  1  0.39037383  0.31528267  0.10425557  1.0
  Ni  Ni418  1  0.39037383  0.64861600  0.10425557  1.0
  Ni  Ni419  1  0.39037383  0.98194933  0.10425557  1.0
  Ni  Ni420  1  0.72370717  0.31528267  0.10425557  1.0
  Ni  Ni421  1  0.72370717  0.64861600  0.10425557  1.0
  Ni  Ni422  1  0.72370717  0.98194933  0.10425557  1.0
  Ni  Ni423  1  0.22370717  0.31528267  0.03282700  1.0
  Ni  Ni424  1  0.22370717  0.64861600  0.03282700  1.0
  Ni  Ni425  1  0.22370717  0.98194933  0.03282700  1.0
  Ni  Ni426  1  0.55704050  0.31528267  0.03282700  1.0
  Ni  Ni427  1  0.55704050  0.64861600  0.03282700  1.0
  Ni  Ni428  1  0.55704050  0.98194933  0.03282700  1.0
  Ni  Ni429  1  0.89037383  0.31528267  0.03282700  1.0
  Ni  Ni430  1  0.89037383  0.64861600  0.03282700  1.0
  Ni  Ni431  1  0.89037383  0.98194933  0.03282700  1.0
  Ni  Ni432  1  0.00000000  0.16666667  0.06500893  1.0
  Ni  Ni433  1  0.00000000  0.50000000  0.06500893  1.0
  Ni  Ni434  1  0.00000000  0.83333333  0.06500893  1.0
  Ni  Ni435  1  0.33333333  0.16666667  0.06500893  1.0
  Ni  Ni436  1  0.33333333  0.50000000  0.06500893  1.0
  Ni  Ni437  1  0.33333333  0.83333333  0.06500893  1.0
  Ni  Ni438  1  0.66666667  0.16666667  0.06500893  1.0
  Ni  Ni439  1  0.66666667  0.50000000  0.06500893  1.0
  Ni  Ni440  1  0.66666667  0.83333333  0.06500893  1.0
  Ni  Ni441  1  0.16666667  0.16666667  0.13643750  1.0
  Ni  Ni442  1  0.16666667  0.50000000  0.13643750  1.0
  Ni  Ni443  1  0.16666667  0.83333333  0.13643750  1.0
  Ni  Ni444  1  0.50000000  0.16666667  0.13643750  1.0
  Ni  Ni445  1  0.50000000  0.50000000  0.13643750  1.0
  Ni  Ni446  1  0.50000000  0.83333333  0.13643750  1.0
  Ni  Ni447  1  0.83333333  0.16666667  0.13643750  1.0
  Ni  Ni448  1  0.83333333  0.50000000  0.13643750  1.0
  Ni  Ni449  1  0.83333333  0.83333333  0.13643750  1.0
  Zn  Zn450  1  0.12328383  0.10368767  0.18451757  1.0
  Zn  Zn451  1  0.12328383  0.43702100  0.18451757  1.0
  Zn  Zn452  1  0.12328383  0.77035433  0.18451757  1.0
  Zn  Zn453  1  0.45661717  0.10368767  0.18451757  1.0
  Zn  Zn454  1  0.45661717  0.43702100  0.18451757  1.0
  Zn  Zn455  1  0.45661717  0.77035433  0.18451757  1.0
  Zn  Zn456  1  0.78995050  0.10368767  0.18451757  1.0
  Zn  Zn457  1  0.78995050  0.43702100  0.18451757  1.0
  Zn  Zn458  1  0.78995050  0.77035433  0.18451757  1.0
  Zn  Zn459  1  0.28995050  0.10368767  0.25594614  1.0
  Zn  Zn460  1  0.28995050  0.43702100  0.25594614  1.0
  Zn  Zn461  1  0.28995050  0.77035433  0.25594614  1.0
  Zn  Zn462  1  0.62328383  0.10368767  0.25594614  1.0
  Zn  Zn463  1  0.62328383  0.43702100  0.25594614  1.0
  Zn  Zn464  1  0.62328383  0.77035433  0.25594614  1.0
  Zn  Zn465  1  0.95661717  0.10368767  0.25594614  1.0
  Zn  Zn466  1  0.95661717  0.43702100  0.25594614  1.0
  Zn  Zn467  1  0.95661717  0.77035433  0.25594614  1.0
  Zn  Zn468  1  0.04338283  0.22964567  0.15978600  1.0
  Zn  Zn469  1  0.04338283  0.56297900  0.15978600  1.0
  Zn  Zn470  1  0.04338283  0.89631233  0.15978600  1.0
  Zn  Zn471  1  0.37671617  0.22964567  0.15978600  1.0
  Zn  Zn472  1  0.37671617  0.56297900  0.15978600  1.0
  Zn  Zn473  1  0.37671617  0.89631233  0.15978600  1.0
  Zn  Zn474  1  0.71004950  0.22964567  0.15978600  1.0
  Zn  Zn475  1  0.71004950  0.56297900  0.15978600  1.0
  Zn  Zn476  1  0.71004950  0.89631233  0.15978600  1.0
  Zn  Zn477  1  0.21004950  0.22964567  0.23121457  1.0
  Zn  Zn478  1  0.21004950  0.56297900  0.23121457  1.0
  Zn  Zn479  1  0.21004950  0.89631233  0.23121457  1.0
  Zn  Zn480  1  0.54338283  0.22964567  0.23121457  1.0
  Zn  Zn481  1  0.54338283  0.56297900  0.23121457  1.0
  Zn  Zn482  1  0.54338283  0.89631233  0.23121457  1.0
  Zn  Zn483  1  0.87671617  0.22964567  0.23121457  1.0
  Zn  Zn484  1  0.87671617  0.56297900  0.23121457  1.0
  Zn  Zn485  1  0.87671617  0.89631233  0.23121457  1.0
  Zn  Zn486  1  0.10927433  0.22964567  0.24450364  1.0
  Zn  Zn487  1  0.10927433  0.56297900  0.24450364  1.0
  Zn  Zn488  1  0.10927433  0.89631233  0.24450364  1.0
  Zn  Zn489  1  0.44260767  0.22964567  0.24450364  1.0
  Zn  Zn490  1  0.44260767  0.56297900  0.24450364  1.0
  Zn  Zn491  1  0.44260767  0.89631233  0.24450364  1.0
  Zn  Zn492  1  0.77594100  0.22964567  0.24450364  1.0
  Zn  Zn493  1  0.77594100  0.56297900  0.24450364  1.0
  Zn  Zn494  1  0.77594100  0.89631233  0.24450364  1.0
  Zn  Zn495  1  0.27594100  0.22964567  0.17307507  1.0
  Zn  Zn496  1  0.27594100  0.56297900  0.17307507  1.0
  Zn  Zn497  1  0.27594100  0.89631233  0.17307507  1.0
  Zn  Zn498  1  0.60927433  0.22964567  0.17307507  1.0
  Zn  Zn499  1  0.60927433  0.56297900  0.17307507  1.0
  Zn  Zn500  1  0.60927433  0.89631233  0.17307507  1.0
  Zn  Zn501  1  0.94260767  0.22964567  0.17307507  1.0
  Zn  Zn502  1  0.94260767  0.56297900  0.17307507  1.0
  Zn  Zn503  1  0.94260767  0.89631233  0.17307507  1.0
  Zn  Zn504  1  0.05739233  0.10368767  0.24265707  1.0
  Zn  Zn505  1  0.05739233  0.43702100  0.24265707  1.0
  Zn  Zn506  1  0.05739233  0.77035433  0.24265707  1.0
  Zn  Zn507  1  0.39072567  0.10368767  0.24265707  1.0
  Zn  Zn508  1  0.39072567  0.43702100  0.24265707  1.0
  Zn  Zn509  1  0.39072567  0.77035433  0.24265707  1.0
  Zn  Zn510  1  0.72405900  0.10368767  0.24265707  1.0
  Zn  Zn511  1  0.72405900  0.43702100  0.24265707  1.0
  Zn  Zn512  1  0.72405900  0.77035433  0.24265707  1.0
  Zn  Zn513  1  0.22405900  0.10368767  0.17122850  1.0
  Zn  Zn514  1  0.22405900  0.43702100  0.17122850  1.0
  Zn  Zn515  1  0.22405900  0.77035433  0.17122850  1.0
  Zn  Zn516  1  0.55739233  0.10368767  0.17122850  1.0
  Zn  Zn517  1  0.55739233  0.43702100  0.17122850  1.0
  Zn  Zn518  1  0.55739233  0.77035433  0.17122850  1.0
  Zn  Zn519  1  0.89072567  0.10368767  0.17122850  1.0
  Zn  Zn520  1  0.89072567  0.43702100  0.17122850  1.0
  Zn  Zn521  1  0.89072567  0.77035433  0.17122850  1.0
  Zn  Zn522  1  0.05373983  0.00000000  0.20553157  1.0
  Zn  Zn523  1  0.05373983  0.33333333  0.20553157  1.0
  Zn  Zn524  1  0.05373983  0.66666667  0.20553157  1.0
  Zn  Zn525  1  0.38707317  0.00000000  0.20553157  1.0
  Zn  Zn526  1  0.38707317  0.33333333  0.20553157  1.0
  Zn  Zn527  1  0.38707317  0.66666667  0.20553157  1.0
  Zn  Zn528  1  0.72040650  0.00000000  0.20553157  1.0
  Zn  Zn529  1  0.72040650  0.33333333  0.20553157  1.0
  Zn  Zn530  1  0.72040650  0.66666667  0.20553157  1.0
  Zn  Zn531  1  0.22040650  0.00000000  0.27696014  1.0
  Zn  Zn532  1  0.22040650  0.33333333  0.27696014  1.0
  Zn  Zn533  1  0.22040650  0.66666667  0.27696014  1.0
  Zn  Zn534  1  0.55373983  0.00000000  0.27696014  1.0
  Zn  Zn535  1  0.55373983  0.33333333  0.27696014  1.0
  Zn  Zn536  1  0.55373983  0.66666667  0.27696014  1.0
  Zn  Zn537  1  0.88707317  0.00000000  0.27696014  1.0
  Zn  Zn538  1  0.88707317  0.33333333  0.27696014  1.0
  Zn  Zn539  1  0.88707317  0.66666667  0.27696014  1.0
  Zn  Zn540  1  0.11292683  0.00000000  0.28162914  1.0
  Zn  Zn541  1  0.11292683  0.33333333  0.28162914  1.0
  Zn  Zn542  1  0.11292683  0.66666667  0.28162914  1.0
  Zn  Zn543  1  0.44626017  0.00000000  0.28162914  1.0
  Zn  Zn544  1  0.44626017  0.33333333  0.28162914  1.0
  Zn  Zn545  1  0.44626017  0.66666667  0.28162914  1.0
  Zn  Zn546  1  0.77959350  0.00000000  0.28162914  1.0
  Zn  Zn547  1  0.77959350  0.33333333  0.28162914  1.0
  Zn  Zn548  1  0.77959350  0.66666667  0.28162914  1.0
  Zn  Zn549  1  0.27959350  0.00000000  0.21020057  1.0
  Zn  Zn550  1  0.27959350  0.33333333  0.21020057  1.0
  Zn  Zn551  1  0.27959350  0.66666667  0.21020057  1.0
  Zn  Zn552  1  0.61292683  0.00000000  0.21020057  1.0
  Zn  Zn553  1  0.61292683  0.33333333  0.21020057  1.0
  Zn  Zn554  1  0.61292683  0.66666667  0.21020057  1.0
  Zn  Zn555  1  0.94626017  0.00000000  0.21020057  1.0
  Zn  Zn556  1  0.94626017  0.33333333  0.21020057  1.0
  Zn  Zn557  1  0.94626017  0.66666667  0.21020057  1.0
  Zn  Zn558  1  0.13842767  0.26142467  0.18915050  1.0
  Zn  Zn559  1  0.13842767  0.59475800  0.18915050  1.0
  Zn  Zn560  1  0.13842767  0.92809133  0.18915050  1.0
  Zn  Zn561  1  0.47176100  0.26142467  0.18915050  1.0
  Zn  Zn562  1  0.47176100  0.59475800  0.18915050  1.0
  Zn  Zn563  1  0.47176100  0.92809133  0.18915050  1.0
  Zn  Zn564  1  0.80509433  0.26142467  0.18915050  1.0
  Zn  Zn565  1  0.80509433  0.59475800  0.18915050  1.0
  Zn  Zn566  1  0.80509433  0.92809133  0.18915050  1.0
  Zn  Zn567  1  0.30509433  0.26142467  0.26057907  1.0
  Zn  Zn568  1  0.30509433  0.59475800  0.26057907  1.0
  Zn  Zn569  1  0.30509433  0.92809133  0.26057907  1.0
  Zn  Zn570  1  0.63842767  0.26142467  0.26057907  1.0
  Zn  Zn571  1  0.63842767  0.59475800  0.26057907  1.0
  Zn  Zn572  1  0.63842767  0.92809133  0.26057907  1.0
  Zn  Zn573  1  0.97176100  0.26142467  0.26057907  1.0
  Zn  Zn574  1  0.97176100  0.59475800  0.26057907  1.0
  Zn  Zn575  1  0.97176100  0.92809133  0.26057907  1.0
  Zn  Zn576  1  0.02823900  0.07190867  0.15515307  1.0
  Zn  Zn577  1  0.02823900  0.40524200  0.15515307  1.0
  Zn  Zn578  1  0.02823900  0.73857533  0.15515307  1.0
  Zn  Zn579  1  0.36157233  0.07190867  0.15515307  1.0
  Zn  Zn580  1  0.36157233  0.40524200  0.15515307  1.0
  Zn  Zn581  1  0.36157233  0.73857533  0.15515307  1.0
  Zn  Zn582  1  0.69490567  0.07190867  0.15515307  1.0
  Zn  Zn583  1  0.69490567  0.40524200  0.15515307  1.0
  Zn  Zn584  1  0.69490567  0.73857533  0.15515307  1.0
  Zn  Zn585  1  0.19490567  0.07190867  0.22658164  1.0
  Zn  Zn586  1  0.19490567  0.40524200  0.22658164  1.0
  Zn  Zn587  1  0.19490567  0.73857533  0.22658164  1.0
  Zn  Zn588  1  0.52823900  0.07190867  0.22658164  1.0
  Zn  Zn589  1  0.52823900  0.40524200  0.22658164  1.0
  Zn  Zn590  1  0.52823900  0.73857533  0.22658164  1.0
  Zn  Zn591  1  0.86157233  0.07190867  0.22658164  1.0
  Zn  Zn592  1  0.86157233  0.40524200  0.22658164  1.0
  Zn  Zn593  1  0.86157233  0.73857533  0.22658164  1.0
  Zn  Zn594  1  0.16270600  0.05875933  0.23474607  1.0
  Zn  Zn595  1  0.16270600  0.39209267  0.23474607  1.0
  Zn  Zn596  1  0.16270600  0.72542600  0.23474607  1.0
  Zn  Zn597  1  0.49603933  0.05875933  0.23474607  1.0
  Zn  Zn598  1  0.49603933  0.39209267  0.23474607  1.0
  Zn  Zn599  1  0.49603933  0.72542600  0.23474607  1.0
  Zn  Zn600  1  0.82937267  0.05875933  0.23474607  1.0
  Zn  Zn601  1  0.82937267  0.39209267  0.23474607  1.0
  Zn  Zn602  1  0.82937267  0.72542600  0.23474607  1.0
  Zn  Zn603  1  0.32937267  0.05875933  0.16331750  1.0
  Zn  Zn604  1  0.32937267  0.39209267  0.16331750  1.0
  Zn  Zn605  1  0.32937267  0.72542600  0.16331750  1.0
  Zn  Zn606  1  0.66270600  0.05875933  0.16331750  1.0
  Zn  Zn607  1  0.66270600  0.39209267  0.16331750  1.0
  Zn  Zn608  1  0.66270600  0.72542600  0.16331750  1.0
  Zn  Zn609  1  0.99603933  0.05875933  0.16331750  1.0
  Zn  Zn610  1  0.99603933  0.39209267  0.16331750  1.0
  Zn  Zn611  1  0.99603933  0.72542600  0.16331750  1.0
  Zn  Zn612  1  0.00396067  0.27457400  0.25241464  1.0
  Zn  Zn613  1  0.00396067  0.60790733  0.25241464  1.0
  Zn  Zn614  1  0.00396067  0.94124067  0.25241464  1.0
  Zn  Zn615  1  0.33729400  0.27457400  0.25241464  1.0
  Zn  Zn616  1  0.33729400  0.60790733  0.25241464  1.0
  Zn  Zn617  1  0.33729400  0.94124067  0.25241464  1.0
  Zn  Zn618  1  0.67062733  0.27457400  0.25241464  1.0
  Zn  Zn619  1  0.67062733  0.60790733  0.25241464  1.0
  Zn  Zn620  1  0.67062733  0.94124067  0.25241464  1.0
  Zn  Zn621  1  0.17062733  0.27457400  0.18098607  1.0
  Zn  Zn622  1  0.17062733  0.60790733  0.18098607  1.0
  Zn  Zn623  1  0.17062733  0.94124067  0.18098607  1.0
  Zn  Zn624  1  0.50396067  0.27457400  0.18098607  1.0
  Zn  Zn625  1  0.50396067  0.60790733  0.18098607  1.0
  Zn  Zn626  1  0.50396067  0.94124067  0.18098607  1.0
  Zn  Zn627  1  0.83729400  0.27457400  0.18098607  1.0
  Zn  Zn628  1  0.83729400  0.60790733  0.18098607  1.0
  Zn  Zn629  1  0.83729400  0.94124067  0.18098607  1.0
  Zn  Zn630  1  0.05871133  0.09085500  0.15021336  1.0
  Zn  Zn631  1  0.05871133  0.42418833  0.15021336  1.0
  Zn  Zn632  1  0.05871133  0.75752167  0.15021336  1.0
  Zn  Zn633  1  0.39204467  0.09085500  0.15021336  1.0
  Zn  Zn634  1  0.39204467  0.42418833  0.15021336  1.0
  Zn  Zn635  1  0.39204467  0.75752167  0.15021336  1.0
  Zn  Zn636  1  0.72537800  0.09085500  0.15021336  1.0
  Zn  Zn637  1  0.72537800  0.42418833  0.15021336  1.0
  Zn  Zn638  1  0.72537800  0.75752167  0.15021336  1.0
  Zn  Zn639  1  0.22537800  0.09085500  0.22164193  1.0
  Zn  Zn640  1  0.22537800  0.42418833  0.22164193  1.0
  Zn  Zn641  1  0.22537800  0.75752167  0.22164193  1.0
  Zn  Zn642  1  0.55871133  0.09085500  0.22164193  1.0
  Zn  Zn643  1  0.55871133  0.42418833  0.22164193  1.0
  Zn  Zn644  1  0.55871133  0.75752167  0.22164193  1.0
  Zn  Zn645  1  0.89204467  0.09085500  0.22164193  1.0
  Zn  Zn646  1  0.89204467  0.42418833  0.22164193  1.0
  Zn  Zn647  1  0.89204467  0.75752167  0.22164193  1.0
  Zn  Zn648  1  0.10795533  0.24247833  0.19409021  1.0
  Zn  Zn649  1  0.10795533  0.57581167  0.19409021  1.0
  Zn  Zn650  1  0.10795533  0.90914500  0.19409021  1.0
  Zn  Zn651  1  0.44128867  0.24247833  0.19409021  1.0
  Zn  Zn652  1  0.44128867  0.57581167  0.19409021  1.0
  Zn  Zn653  1  0.44128867  0.90914500  0.19409021  1.0
  Zn  Zn654  1  0.77462200  0.24247833  0.19409021  1.0
  Zn  Zn655  1  0.77462200  0.57581167  0.19409021  1.0
  Zn  Zn656  1  0.77462200  0.90914500  0.19409021  1.0
  Zn  Zn657  1  0.27462200  0.24247833  0.26551879  1.0
  Zn  Zn658  1  0.27462200  0.57581167  0.26551879  1.0
  Zn  Zn659  1  0.27462200  0.90914500  0.26551879  1.0
  Zn  Zn660  1  0.60795533  0.24247833  0.26551879  1.0
  Zn  Zn661  1  0.60795533  0.57581167  0.26551879  1.0
  Zn  Zn662  1  0.60795533  0.90914500  0.26551879  1.0
  Zn  Zn663  1  0.94128867  0.24247833  0.26551879  1.0
  Zn  Zn664  1  0.94128867  0.57581167  0.26551879  1.0
  Zn  Zn665  1  0.94128867  0.90914500  0.26551879  1.0
  Zn  Zn666  1  0.11433000  0.12548433  0.28407507  1.0
  Zn  Zn667  1  0.11433000  0.45881767  0.28407507  1.0
  Zn  Zn668  1  0.11433000  0.79215100  0.28407507  1.0
  Zn  Zn669  1  0.44766333  0.12548433  0.28407507  1.0
  Zn  Zn670  1  0.44766333  0.45881767  0.28407507  1.0
  Zn  Zn671  1  0.44766333  0.79215100  0.28407507  1.0
  Zn  Zn672  1  0.78099667  0.12548433  0.28407507  1.0
  Zn  Zn673  1  0.78099667  0.45881767  0.28407507  1.0
  Zn  Zn674  1  0.78099667  0.79215100  0.28407507  1.0
  Zn  Zn675  1  0.28099667  0.12548433  0.21264650  1.0
  Zn  Zn676  1  0.28099667  0.45881767  0.21264650  1.0
  Zn  Zn677  1  0.28099667  0.79215100  0.21264650  1.0
  Zn  Zn678  1  0.61433000  0.12548433  0.21264650  1.0
  Zn  Zn679  1  0.61433000  0.45881767  0.21264650  1.0
  Zn  Zn680  1  0.61433000  0.79215100  0.21264650  1.0
  Zn  Zn681  1  0.94766333  0.12548433  0.21264650  1.0
  Zn  Zn682  1  0.94766333  0.45881767  0.21264650  1.0
  Zn  Zn683  1  0.94766333  0.79215100  0.21264650  1.0
  Zn  Zn684  1  0.05233667  0.20784900  0.20308564  1.0
  Zn  Zn685  1  0.05233667  0.54118233  0.20308564  1.0
  Zn  Zn686  1  0.05233667  0.87451567  0.20308564  1.0
  Zn  Zn687  1  0.38567000  0.20784900  0.20308564  1.0
  Zn  Zn688  1  0.38567000  0.54118233  0.20308564  1.0
  Zn  Zn689  1  0.38567000  0.87451567  0.20308564  1.0
  Zn  Zn690  1  0.71900333  0.20784900  0.20308564  1.0
  Zn  Zn691  1  0.71900333  0.54118233  0.20308564  1.0
  Zn  Zn692  1  0.71900333  0.87451567  0.20308564  1.0
  Zn  Zn693  1  0.21900333  0.20784900  0.27451421  1.0
  Zn  Zn694  1  0.21900333  0.54118233  0.27451421  1.0
  Zn  Zn695  1  0.21900333  0.87451567  0.27451421  1.0
  Zn  Zn696  1  0.55233667  0.20784900  0.27451421  1.0
  Zn  Zn697  1  0.55233667  0.54118233  0.27451421  1.0
  Zn  Zn698  1  0.55233667  0.87451567  0.27451421  1.0
  Zn  Zn699  1  0.88567000  0.20784900  0.27451421  1.0
  Zn  Zn700  1  0.88567000  0.54118233  0.27451421  1.0
  Zn  Zn701  1  0.88567000  0.87451567  0.27451421  1.0
  Zn  Zn702  1  0.00395467  0.15406933  0.25241150  1.0
  Zn  Zn703  1  0.00395467  0.48740267  0.25241150  1.0
  Zn  Zn704  1  0.00395467  0.82073600  0.25241150  1.0
  Zn  Zn705  1  0.33728800  0.15406933  0.25241150  1.0
  Zn  Zn706  1  0.33728800  0.48740267  0.25241150  1.0
  Zn  Zn707  1  0.33728800  0.82073600  0.25241150  1.0
  Zn  Zn708  1  0.67062133  0.15406933  0.25241150  1.0
  Zn  Zn709  1  0.67062133  0.48740267  0.25241150  1.0
  Zn  Zn710  1  0.67062133  0.82073600  0.25241150  1.0
  Zn  Zn711  1  0.17062133  0.15406933  0.18098293  1.0
  Zn  Zn712  1  0.17062133  0.48740267  0.18098293  1.0
  Zn  Zn713  1  0.17062133  0.82073600  0.18098293  1.0
  Zn  Zn714  1  0.50395467  0.15406933  0.18098293  1.0
  Zn  Zn715  1  0.50395467  0.48740267  0.18098293  1.0
  Zn  Zn716  1  0.50395467  0.82073600  0.18098293  1.0
  Zn  Zn717  1  0.83728800  0.15406933  0.18098293  1.0
  Zn  Zn718  1  0.83728800  0.48740267  0.18098293  1.0
  Zn  Zn719  1  0.83728800  0.82073600  0.18098293  1.0
  Zn  Zn720  1  0.16271200  0.17926400  0.23474921  1.0
  Zn  Zn721  1  0.16271200  0.51259733  0.23474921  1.0
  Zn  Zn722  1  0.16271200  0.84593067  0.23474921  1.0
  Zn  Zn723  1  0.49604533  0.17926400  0.23474921  1.0
  Zn  Zn724  1  0.49604533  0.51259733  0.23474921  1.0
  Zn  Zn725  1  0.49604533  0.84593067  0.23474921  1.0
  Zn  Zn726  1  0.82937867  0.17926400  0.23474921  1.0
  Zn  Zn727  1  0.82937867  0.51259733  0.23474921  1.0
  Zn  Zn728  1  0.82937867  0.84593067  0.23474921  1.0
  Zn  Zn729  1  0.32937867  0.17926400  0.16332064  1.0
  Zn  Zn730  1  0.32937867  0.51259733  0.16332064  1.0
  Zn  Zn731  1  0.32937867  0.84593067  0.16332064  1.0
  Zn  Zn732  1  0.66271200  0.17926400  0.16332064  1.0
  Zn  Zn733  1  0.66271200  0.51259733  0.16332064  1.0
  Zn  Zn734  1  0.66271200  0.84593067  0.16332064  1.0
  Zn  Zn735  1  0.99604533  0.17926400  0.16332064  1.0
  Zn  Zn736  1  0.99604533  0.51259733  0.16332064  1.0
  Zn  Zn737  1  0.99604533  0.84593067  0.16332064  1.0
  Zn  Zn738  1  0.05629100  0.17926400  0.24077936  1.0
  Zn  Zn739  1  0.05629100  0.51259733  0.24077936  1.0
  Zn  Zn740  1  0.05629100  0.84593067  0.24077936  1.0
  Zn  Zn741  1  0.38962433  0.17926400  0.24077936  1.0
  Zn  Zn742  1  0.38962433  0.51259733  0.24077936  1.0
  Zn  Zn743  1  0.38962433  0.84593067  0.24077936  1.0
  Zn  Zn744  1  0.72295767  0.17926400  0.24077936  1.0
  Zn  Zn745  1  0.72295767  0.51259733  0.24077936  1.0
  Zn  Zn746  1  0.72295767  0.84593067  0.24077936  1.0
  Zn  Zn747  1  0.22295767  0.17926400  0.16935079  1.0
  Zn  Zn748  1  0.22295767  0.51259733  0.16935079  1.0
  Zn  Zn749  1  0.22295767  0.84593067  0.16935079  1.0
  Zn  Zn750  1  0.55629100  0.17926400  0.16935079  1.0
  Zn  Zn751  1  0.55629100  0.51259733  0.16935079  1.0
  Zn  Zn752  1  0.55629100  0.84593067  0.16935079  1.0
  Zn  Zn753  1  0.88962433  0.17926400  0.16935079  1.0
  Zn  Zn754  1  0.88962433  0.51259733  0.16935079  1.0
  Zn  Zn755  1  0.88962433  0.84593067  0.16935079  1.0
  Zn  Zn756  1  0.11037567  0.15406933  0.24638136  1.0
  Zn  Zn757  1  0.11037567  0.48740267  0.24638136  1.0
  Zn  Zn758  1  0.11037567  0.82073600  0.24638136  1.0
  Zn  Zn759  1  0.44370900  0.15406933  0.24638136  1.0
  Zn  Zn760  1  0.44370900  0.48740267  0.24638136  1.0
  Zn  Zn761  1  0.44370900  0.82073600  0.24638136  1.0
  Zn  Zn762  1  0.77704233  0.15406933  0.24638136  1.0
  Zn  Zn763  1  0.77704233  0.48740267  0.24638136  1.0
  Zn  Zn764  1  0.77704233  0.82073600  0.24638136  1.0
  Zn  Zn765  1  0.27704233  0.15406933  0.17495279  1.0
  Zn  Zn766  1  0.27704233  0.48740267  0.17495279  1.0
  Zn  Zn767  1  0.27704233  0.82073600  0.17495279  1.0
  Zn  Zn768  1  0.61037567  0.15406933  0.17495279  1.0
  Zn  Zn769  1  0.61037567  0.48740267  0.17495279  1.0
  Zn  Zn770  1  0.61037567  0.82073600  0.17495279  1.0
  Zn  Zn771  1  0.94370900  0.15406933  0.17495279  1.0
  Zn  Zn772  1  0.94370900  0.48740267  0.17495279  1.0
  Zn  Zn773  1  0.94370900  0.82073600  0.17495279  1.0
  Zn  Zn774  1  0.16645583  0.03328867  0.27661543  1.0
  Zn  Zn775  1  0.16645583  0.36662200  0.27661543  1.0
  Zn  Zn776  1  0.16645583  0.69995533  0.27661543  1.0
  Zn  Zn777  1  0.49978917  0.03328867  0.27661543  1.0
  Zn  Zn778  1  0.49978917  0.36662200  0.27661543  1.0
  Zn  Zn779  1  0.49978917  0.69995533  0.27661543  1.0
  Zn  Zn780  1  0.83312250  0.03328867  0.27661543  1.0
  Zn  Zn781  1  0.83312250  0.36662200  0.27661543  1.0
  Zn  Zn782  1  0.83312250  0.69995533  0.27661543  1.0
  Zn  Zn783  1  0.33312250  0.03328867  0.20518686  1.0
  Zn  Zn784  1  0.33312250  0.36662200  0.20518686  1.0
  Zn  Zn785  1  0.33312250  0.69995533  0.20518686  1.0
  Zn  Zn786  1  0.66645583  0.03328867  0.20518686  1.0
  Zn  Zn787  1  0.66645583  0.36662200  0.20518686  1.0
  Zn  Zn788  1  0.66645583  0.69995533  0.20518686  1.0
  Zn  Zn789  1  0.99978917  0.03328867  0.20518686  1.0
  Zn  Zn790  1  0.99978917  0.36662200  0.20518686  1.0
  Zn  Zn791  1  0.99978917  0.69995533  0.20518686  1.0
  Zn  Zn792  1  0.00021083  0.30004467  0.21054529  1.0
  Zn  Zn793  1  0.00021083  0.63337800  0.21054529  1.0
  Zn  Zn794  1  0.00021083  0.96671133  0.21054529  1.0
  Zn  Zn795  1  0.33354417  0.30004467  0.21054529  1.0
  Zn  Zn796  1  0.33354417  0.63337800  0.21054529  1.0
  Zn  Zn797  1  0.33354417  0.96671133  0.21054529  1.0
  Zn  Zn798  1  0.66687750  0.30004467  0.21054529  1.0
  Zn  Zn799  1  0.66687750  0.63337800  0.21054529  1.0
  Zn  Zn800  1  0.66687750  0.96671133  0.21054529  1.0
  Zn  Zn801  1  0.16687750  0.30004467  0.28197386  1.0
  Zn  Zn802  1  0.16687750  0.63337800  0.28197386  1.0
  Zn  Zn803  1  0.16687750  0.96671133  0.28197386  1.0
  Zn  Zn804  1  0.50021083  0.30004467  0.28197386  1.0
  Zn  Zn805  1  0.50021083  0.63337800  0.28197386  1.0
  Zn  Zn806  1  0.50021083  0.96671133  0.28197386  1.0
  Zn  Zn807  1  0.83354417  0.30004467  0.28197386  1.0
  Zn  Zn808  1  0.83354417  0.63337800  0.28197386  1.0
  Zn  Zn809  1  0.83354417  0.96671133  0.28197386  1.0
  Zn  Zn810  1  0.06366867  0.30004467  0.14927679  1.0
  Zn  Zn811  1  0.06366867  0.63337800  0.14927679  1.0
  Zn  Zn812  1  0.06366867  0.96671133  0.14927679  1.0
  Zn  Zn813  1  0.39700200  0.30004467  0.14927679  1.0
  Zn  Zn814  1  0.39700200  0.63337800  0.14927679  1.0
  Zn  Zn815  1  0.39700200  0.96671133  0.14927679  1.0
  Zn  Zn816  1  0.73033533  0.30004467  0.14927679  1.0
  Zn  Zn817  1  0.73033533  0.63337800  0.14927679  1.0
  Zn  Zn818  1  0.73033533  0.96671133  0.14927679  1.0
  Zn  Zn819  1  0.23033533  0.30004467  0.22070536  1.0
  Zn  Zn820  1  0.23033533  0.63337800  0.22070536  1.0
  Zn  Zn821  1  0.23033533  0.96671133  0.22070536  1.0
  Zn  Zn822  1  0.56366867  0.30004467  0.22070536  1.0
  Zn  Zn823  1  0.56366867  0.63337800  0.22070536  1.0
  Zn  Zn824  1  0.56366867  0.96671133  0.22070536  1.0
  Zn  Zn825  1  0.89700200  0.30004467  0.22070536  1.0
  Zn  Zn826  1  0.89700200  0.63337800  0.22070536  1.0
  Zn  Zn827  1  0.89700200  0.96671133  0.22070536  1.0
  Zn  Zn828  1  0.10299800  0.03328867  0.19502679  1.0
  Zn  Zn829  1  0.10299800  0.36662200  0.19502679  1.0
  Zn  Zn830  1  0.10299800  0.69995533  0.19502679  1.0
  Zn  Zn831  1  0.43633133  0.03328867  0.19502679  1.0
  Zn  Zn832  1  0.43633133  0.36662200  0.19502679  1.0
  Zn  Zn833  1  0.43633133  0.69995533  0.19502679  1.0
  Zn  Zn834  1  0.76966467  0.03328867  0.19502679  1.0
  Zn  Zn835  1  0.76966467  0.36662200  0.19502679  1.0
  Zn  Zn836  1  0.76966467  0.69995533  0.19502679  1.0
  Zn  Zn837  1  0.26966467  0.03328867  0.26645536  1.0
  Zn  Zn838  1  0.26966467  0.36662200  0.26645536  1.0
  Zn  Zn839  1  0.26966467  0.69995533  0.26645536  1.0
  Zn  Zn840  1  0.60299800  0.03328867  0.26645536  1.0
  Zn  Zn841  1  0.60299800  0.36662200  0.26645536  1.0
  Zn  Zn842  1  0.60299800  0.69995533  0.26645536  1.0
  Zn  Zn843  1  0.93633133  0.03328867  0.26645536  1.0
  Zn  Zn844  1  0.93633133  0.36662200  0.26645536  1.0
  Zn  Zn845  1  0.93633133  0.69995533  0.26645536  1.0
  Ni  Ni846  1  0.10962617  0.01805067  0.24004800  1.0
  Ni  Ni847  1  0.10962617  0.35138400  0.24004800  1.0
  Ni  Ni848  1  0.10962617  0.68471733  0.24004800  1.0
  Ni  Ni849  1  0.44295950  0.01805067  0.24004800  1.0
  Ni  Ni850  1  0.44295950  0.35138400  0.24004800  1.0
  Ni  Ni851  1  0.44295950  0.68471733  0.24004800  1.0
  Ni  Ni852  1  0.77629283  0.01805067  0.24004800  1.0
  Ni  Ni853  1  0.77629283  0.35138400  0.24004800  1.0
  Ni  Ni854  1  0.77629283  0.68471733  0.24004800  1.0
  Ni  Ni855  1  0.27629283  0.01805067  0.16861943  1.0
  Ni  Ni856  1  0.27629283  0.35138400  0.16861943  1.0
  Ni  Ni857  1  0.27629283  0.68471733  0.16861943  1.0
  Ni  Ni858  1  0.60962617  0.01805067  0.16861943  1.0
  Ni  Ni859  1  0.60962617  0.35138400  0.16861943  1.0
  Ni  Ni860  1  0.60962617  0.68471733  0.16861943  1.0
  Ni  Ni861  1  0.94295950  0.01805067  0.16861943  1.0
  Ni  Ni862  1  0.94295950  0.35138400  0.16861943  1.0
  Ni  Ni863  1  0.94295950  0.68471733  0.16861943  1.0
  Ni  Ni864  1  0.05704050  0.31528267  0.24711271  1.0
  Ni  Ni865  1  0.05704050  0.64861600  0.24711271  1.0
  Ni  Ni866  1  0.05704050  0.98194933  0.24711271  1.0
  Ni  Ni867  1  0.39037383  0.31528267  0.24711271  1.0
  Ni  Ni868  1  0.39037383  0.64861600  0.24711271  1.0
  Ni  Ni869  1  0.39037383  0.98194933  0.24711271  1.0
  Ni  Ni870  1  0.72370717  0.31528267  0.24711271  1.0
  Ni  Ni871  1  0.72370717  0.64861600  0.24711271  1.0
  Ni  Ni872  1  0.72370717  0.98194933  0.24711271  1.0
  Ni  Ni873  1  0.22370717  0.31528267  0.17568414  1.0
  Ni  Ni874  1  0.22370717  0.64861600  0.17568414  1.0
  Ni  Ni875  1  0.22370717  0.98194933  0.17568414  1.0
  Ni  Ni876  1  0.55704050  0.31528267  0.17568414  1.0
  Ni  Ni877  1  0.55704050  0.64861600  0.17568414  1.0
  Ni  Ni878  1  0.55704050  0.98194933  0.17568414  1.0
  Ni  Ni879  1  0.89037383  0.31528267  0.17568414  1.0
  Ni  Ni880  1  0.89037383  0.64861600  0.17568414  1.0
  Ni  Ni881  1  0.89037383  0.98194933  0.17568414  1.0
  Ni  Ni882  1  0.00000000  0.16666667  0.20786607  1.0
  Ni  Ni883  1  0.00000000  0.50000000  0.20786607  1.0
  Ni  Ni884  1  0.00000000  0.83333333  0.20786607  1.0
  Ni  Ni885  1  0.33333333  0.16666667  0.20786607  1.0
  Ni  Ni886  1  0.33333333  0.50000000  0.20786607  1.0
  Ni  Ni887  1  0.33333333  0.83333333  0.20786607  1.0
  Ni  Ni888  1  0.66666667  0.16666667  0.20786607  1.0
  Ni  Ni889  1  0.66666667  0.50000000  0.20786607  1.0
  Ni  Ni890  1  0.66666667  0.83333333  0.20786607  1.0
  Ni  Ni891  1  0.16666667  0.16666667  0.27929464  1.0
  Ni  Ni892  1  0.16666667  0.50000000  0.27929464  1.0
  Ni  Ni893  1  0.16666667  0.83333333  0.27929464  1.0
  Ni  Ni894  1  0.50000000  0.16666667  0.27929464  1.0
  Ni  Ni895  1  0.50000000  0.50000000  0.27929464  1.0
  Ni  Ni896  1  0.50000000  0.83333333  0.27929464  1.0
  Ni  Ni897  1  0.83333333  0.16666667  0.27929464  1.0
  Ni  Ni898  1  0.83333333  0.50000000  0.27929464  1.0
  Ni  Ni899  1  0.83333333  0.83333333  0.27929464  1.0
  Zn  Zn900  1  0.12328383  0.10368767  0.32737471  1.0
  Zn  Zn901  1  0.12328383  0.43702100  0.32737471  1.0
  Zn  Zn902  1  0.12328383  0.77035433  0.32737471  1.0
  Zn  Zn903  1  0.45661717  0.10368767  0.32737471  1.0
  Zn  Zn904  1  0.45661717  0.43702100  0.32737471  1.0
  Zn  Zn905  1  0.45661717  0.77035433  0.32737471  1.0
  Zn  Zn906  1  0.78995050  0.10368767  0.32737471  1.0
  Zn  Zn907  1  0.78995050  0.43702100  0.32737471  1.0
  Zn  Zn908  1  0.78995050  0.77035433  0.32737471  1.0
  Zn  Zn909  1  0.28995050  0.10368767  0.39880329  1.0
  Zn  Zn910  1  0.28995050  0.43702100  0.39880329  1.0
  Zn  Zn911  1  0.28995050  0.77035433  0.39880329  1.0
  Zn  Zn912  1  0.62328383  0.10368767  0.39880329  1.0
  Zn  Zn913  1  0.62328383  0.43702100  0.39880329  1.0
  Zn  Zn914  1  0.62328383  0.77035433  0.39880329  1.0
  Zn  Zn915  1  0.95661717  0.10368767  0.39880329  1.0
  Zn  Zn916  1  0.95661717  0.43702100  0.39880329  1.0
  Zn  Zn917  1  0.95661717  0.77035433  0.39880329  1.0
  Zn  Zn918  1  0.04338283  0.22964567  0.30264314  1.0
  Zn  Zn919  1  0.04338283  0.56297900  0.30264314  1.0
  Zn  Zn920  1  0.04338283  0.89631233  0.30264314  1.0
  Zn  Zn921  1  0.37671617  0.22964567  0.30264314  1.0
  Zn  Zn922  1  0.37671617  0.56297900  0.30264314  1.0
  Zn  Zn923  1  0.37671617  0.89631233  0.30264314  1.0
  Zn  Zn924  1  0.71004950  0.22964567  0.30264314  1.0
  Zn  Zn925  1  0.71004950  0.56297900  0.30264314  1.0
  Zn  Zn926  1  0.71004950  0.89631233  0.30264314  1.0
  Zn  Zn927  1  0.21004950  0.22964567  0.37407171  1.0
  Zn  Zn928  1  0.21004950  0.56297900  0.37407171  1.0
  Zn  Zn929  1  0.21004950  0.89631233  0.37407171  1.0
  Zn  Zn930  1  0.54338283  0.22964567  0.37407171  1.0
  Zn  Zn931  1  0.54338283  0.56297900  0.37407171  1.0
  Zn  Zn932  1  0.54338283  0.89631233  0.37407171  1.0
  Zn  Zn933  1  0.87671617  0.22964567  0.37407171  1.0
  Zn  Zn934  1  0.87671617  0.56297900  0.37407171  1.0
  Zn  Zn935  1  0.87671617  0.89631233  0.37407171  1.0
  Zn  Zn936  1  0.10927433  0.22964567  0.38736079  1.0
  Zn  Zn937  1  0.10927433  0.56297900  0.38736079  1.0
  Zn  Zn938  1  0.10927433  0.89631233  0.38736079  1.0
  Zn  Zn939  1  0.44260767  0.22964567  0.38736079  1.0
  Zn  Zn940  1  0.44260767  0.56297900  0.38736079  1.0
  Zn  Zn941  1  0.44260767  0.89631233  0.38736079  1.0
  Zn  Zn942  1  0.77594100  0.22964567  0.38736079  1.0
  Zn  Zn943  1  0.77594100  0.56297900  0.38736079  1.0
  Zn  Zn944  1  0.77594100  0.89631233  0.38736079  1.0
  Zn  Zn945  1  0.27594100  0.22964567  0.31593221  1.0
  Zn  Zn946  1  0.27594100  0.56297900  0.31593221  1.0
  Zn  Zn947  1  0.27594100  0.89631233  0.31593221  1.0
  Zn  Zn948  1  0.60927433  0.22964567  0.31593221  1.0
  Zn  Zn949  1  0.60927433  0.56297900  0.31593221  1.0
  Zn  Zn950  1  0.60927433  0.89631233  0.31593221  1.0
  Zn  Zn951  1  0.94260767  0.22964567  0.31593221  1.0
  Zn  Zn952  1  0.94260767  0.56297900  0.31593221  1.0
  Zn  Zn953  1  0.94260767  0.89631233  0.31593221  1.0
  Zn  Zn954  1  0.05739233  0.10368767  0.38551421  1.0
  Zn  Zn955  1  0.05739233  0.43702100  0.38551421  1.0
  Zn  Zn956  1  0.05739233  0.77035433  0.38551421  1.0
  Zn  Zn957  1  0.39072567  0.10368767  0.38551421  1.0
  Zn  Zn958  1  0.39072567  0.43702100  0.38551421  1.0
  Zn  Zn959  1  0.39072567  0.77035433  0.38551421  1.0
  Zn  Zn960  1  0.72405900  0.10368767  0.38551421  1.0
  Zn  Zn961  1  0.72405900  0.43702100  0.38551421  1.0
  Zn  Zn962  1  0.72405900  0.77035433  0.38551421  1.0
  Zn  Zn963  1  0.22405900  0.10368767  0.31408564  1.0
  Zn  Zn964  1  0.22405900  0.43702100  0.31408564  1.0
  Zn  Zn965  1  0.22405900  0.77035433  0.31408564  1.0
  Zn  Zn966  1  0.55739233  0.10368767  0.31408564  1.0
  Zn  Zn967  1  0.55739233  0.43702100  0.31408564  1.0
  Zn  Zn968  1  0.55739233  0.77035433  0.31408564  1.0
  Zn  Zn969  1  0.89072567  0.10368767  0.31408564  1.0
  Zn  Zn970  1  0.89072567  0.43702100  0.31408564  1.0
  Zn  Zn971  1  0.89072567  0.77035433  0.31408564  1.0
  Zn  Zn972  1  0.05373983  0.00000000  0.34838871  1.0
  Zn  Zn973  1  0.05373983  0.33333333  0.34838871  1.0
  Zn  Zn974  1  0.05373983  0.66666667  0.34838871  1.0
  Zn  Zn975  1  0.38707317  0.00000000  0.34838871  1.0
  Zn  Zn976  1  0.38707317  0.33333333  0.34838871  1.0
  Zn  Zn977  1  0.38707317  0.66666667  0.34838871  1.0
  Zn  Zn978  1  0.72040650  0.00000000  0.34838871  1.0
  Zn  Zn979  1  0.72040650  0.33333333  0.34838871  1.0
  Zn  Zn980  1  0.72040650  0.66666667  0.34838871  1.0
  Zn  Zn981  1  0.22040650  0.00000000  0.41981729  1.0
  Zn  Zn982  1  0.22040650  0.33333333  0.41981729  1.0
  Zn  Zn983  1  0.22040650  0.66666667  0.41981729  1.0
  Zn  Zn984  1  0.55373983  0.00000000  0.41981729  1.0
  Zn  Zn985  1  0.55373983  0.33333333  0.41981729  1.0
  Zn  Zn986  1  0.55373983  0.66666667  0.41981729  1.0
  Zn  Zn987  1  0.88707317  0.00000000  0.41981729  1.0
  Zn  Zn988  1  0.88707317  0.33333333  0.41981729  1.0
  Zn  Zn989  1  0.88707317  0.66666667  0.41981729  1.0
  Zn  Zn990  1  0.11292683  0.00000000  0.42448629  1.0
  Zn  Zn991  1  0.11292683  0.33333333  0.42448629  1.0
  Zn  Zn992  1  0.11292683  0.66666667  0.42448629  1.0
  Zn  Zn993  1  0.44626017  0.00000000  0.42448629  1.0
  Zn  Zn994  1  0.44626017  0.33333333  0.42448629  1.0
  Zn  Zn995  1  0.44626017  0.66666667  0.42448629  1.0
  Zn  Zn996  1  0.77959350  0.00000000  0.42448629  1.0
  Zn  Zn997  1  0.77959350  0.33333333  0.42448629  1.0
  Zn  Zn998  1  0.77959350  0.66666667  0.42448629  1.0
  Zn  Zn999  1  0.27959350  0.00000000  0.35305771  1.0
  Zn  Zn1000  1  0.27959350  0.33333333  0.35305771  1.0
  Zn  Zn1001  1  0.27959350  0.66666667  0.35305771  1.0
  Zn  Zn1002  1  0.61292683  0.00000000  0.35305771  1.0
  Zn  Zn1003  1  0.61292683  0.33333333  0.35305771  1.0
  Zn  Zn1004  1  0.61292683  0.66666667  0.35305771  1.0
  Zn  Zn1005  1  0.94626017  0.00000000  0.35305771  1.0
  Zn  Zn1006  1  0.94626017  0.33333333  0.35305771  1.0
  Zn  Zn1007  1  0.94626017  0.66666667  0.35305771  1.0
  Zn  Zn1008  1  0.13842767  0.26142467  0.33200764  1.0
  Zn  Zn1009  1  0.13842767  0.59475800  0.33200764  1.0
  Zn  Zn1010  1  0.13842767  0.92809133  0.33200764  1.0
  Zn  Zn1011  1  0.47176100  0.26142467  0.33200764  1.0
  Zn  Zn1012  1  0.47176100  0.59475800  0.33200764  1.0
  Zn  Zn1013  1  0.47176100  0.92809133  0.33200764  1.0
  Zn  Zn1014  1  0.80509433  0.26142467  0.33200764  1.0
  Zn  Zn1015  1  0.80509433  0.59475800  0.33200764  1.0
  Zn  Zn1016  1  0.80509433  0.92809133  0.33200764  1.0
  Zn  Zn1017  1  0.30509433  0.26142467  0.40343621  1.0
  Zn  Zn1018  1  0.30509433  0.59475800  0.40343621  1.0
  Zn  Zn1019  1  0.30509433  0.92809133  0.40343621  1.0
  Zn  Zn1020  1  0.63842767  0.26142467  0.40343621  1.0
  Zn  Zn1021  1  0.63842767  0.59475800  0.40343621  1.0
  Zn  Zn1022  1  0.63842767  0.92809133  0.40343621  1.0
  Zn  Zn1023  1  0.97176100  0.26142467  0.40343621  1.0
  Zn  Zn1024  1  0.97176100  0.59475800  0.40343621  1.0
  Zn  Zn1025  1  0.97176100  0.92809133  0.40343621  1.0
  Zn  Zn1026  1  0.02823900  0.07190867  0.29801021  1.0
  Zn  Zn1027  1  0.02823900  0.40524200  0.29801021  1.0
  Zn  Zn1028  1  0.02823900  0.73857533  0.29801021  1.0
  Zn  Zn1029  1  0.36157233  0.07190867  0.29801021  1.0
  Zn  Zn1030  1  0.36157233  0.40524200  0.29801021  1.0
  Zn  Zn1031  1  0.36157233  0.73857533  0.29801021  1.0
  Zn  Zn1032  1  0.69490567  0.07190867  0.29801021  1.0
  Zn  Zn1033  1  0.69490567  0.40524200  0.29801021  1.0
  Zn  Zn1034  1  0.69490567  0.73857533  0.29801021  1.0
  Zn  Zn1035  1  0.19490567  0.07190867  0.36943879  1.0
  Zn  Zn1036  1  0.19490567  0.40524200  0.36943879  1.0
  Zn  Zn1037  1  0.19490567  0.73857533  0.36943879  1.0
  Zn  Zn1038  1  0.52823900  0.07190867  0.36943879  1.0
  Zn  Zn1039  1  0.52823900  0.40524200  0.36943879  1.0
  Zn  Zn1040  1  0.52823900  0.73857533  0.36943879  1.0
  Zn  Zn1041  1  0.86157233  0.07190867  0.36943879  1.0
  Zn  Zn1042  1  0.86157233  0.40524200  0.36943879  1.0
  Zn  Zn1043  1  0.86157233  0.73857533  0.36943879  1.0
  Zn  Zn1044  1  0.16270600  0.05875933  0.37760321  1.0
  Zn  Zn1045  1  0.16270600  0.39209267  0.37760321  1.0
  Zn  Zn1046  1  0.16270600  0.72542600  0.37760321  1.0
  Zn  Zn1047  1  0.49603933  0.05875933  0.37760321  1.0
  Zn  Zn1048  1  0.49603933  0.39209267  0.37760321  1.0
  Zn  Zn1049  1  0.49603933  0.72542600  0.37760321  1.0
  Zn  Zn1050  1  0.82937267  0.05875933  0.37760321  1.0
  Zn  Zn1051  1  0.82937267  0.39209267  0.37760321  1.0
  Zn  Zn1052  1  0.82937267  0.72542600  0.37760321  1.0
  Zn  Zn1053  1  0.32937267  0.05875933  0.30617464  1.0
  Zn  Zn1054  1  0.32937267  0.39209267  0.30617464  1.0
  Zn  Zn1055  1  0.32937267  0.72542600  0.30617464  1.0
  Zn  Zn1056  1  0.66270600  0.05875933  0.30617464  1.0
  Zn  Zn1057  1  0.66270600  0.39209267  0.30617464  1.0
  Zn  Zn1058  1  0.66270600  0.72542600  0.30617464  1.0
  Zn  Zn1059  1  0.99603933  0.05875933  0.30617464  1.0
  Zn  Zn1060  1  0.99603933  0.39209267  0.30617464  1.0
  Zn  Zn1061  1  0.99603933  0.72542600  0.30617464  1.0
  Zn  Zn1062  1  0.00396067  0.27457400  0.39527179  1.0
  Zn  Zn1063  1  0.00396067  0.60790733  0.39527179  1.0
  Zn  Zn1064  1  0.00396067  0.94124067  0.39527179  1.0
  Zn  Zn1065  1  0.33729400  0.27457400  0.39527179  1.0
  Zn  Zn1066  1  0.33729400  0.60790733  0.39527179  1.0
  Zn  Zn1067  1  0.33729400  0.94124067  0.39527179  1.0
  Zn  Zn1068  1  0.67062733  0.27457400  0.39527179  1.0
  Zn  Zn1069  1  0.67062733  0.60790733  0.39527179  1.0
  Zn  Zn1070  1  0.67062733  0.94124067  0.39527179  1.0
  Zn  Zn1071  1  0.17062733  0.27457400  0.32384321  1.0
  Zn  Zn1072  1  0.17062733  0.60790733  0.32384321  1.0
  Zn  Zn1073  1  0.17062733  0.94124067  0.32384321  1.0
  Zn  Zn1074  1  0.50396067  0.27457400  0.32384321  1.0
  Zn  Zn1075  1  0.50396067  0.60790733  0.32384321  1.0
  Zn  Zn1076  1  0.50396067  0.94124067  0.32384321  1.0
  Zn  Zn1077  1  0.83729400  0.27457400  0.32384321  1.0
  Zn  Zn1078  1  0.83729400  0.60790733  0.32384321  1.0
  Zn  Zn1079  1  0.83729400  0.94124067  0.32384321  1.0
  Zn  Zn1080  1  0.05871133  0.09085500  0.29307050  1.0
  Zn  Zn1081  1  0.05871133  0.42418833  0.29307050  1.0
  Zn  Zn1082  1  0.05871133  0.75752167  0.29307050  1.0
  Zn  Zn1083  1  0.39204467  0.09085500  0.29307050  1.0
  Zn  Zn1084  1  0.39204467  0.42418833  0.29307050  1.0
  Zn  Zn1085  1  0.39204467  0.75752167  0.29307050  1.0
  Zn  Zn1086  1  0.72537800  0.09085500  0.29307050  1.0
  Zn  Zn1087  1  0.72537800  0.42418833  0.29307050  1.0
  Zn  Zn1088  1  0.72537800  0.75752167  0.29307050  1.0
  Zn  Zn1089  1  0.22537800  0.09085500  0.36449907  1.0
  Zn  Zn1090  1  0.22537800  0.42418833  0.36449907  1.0
  Zn  Zn1091  1  0.22537800  0.75752167  0.36449907  1.0
  Zn  Zn1092  1  0.55871133  0.09085500  0.36449907  1.0
  Zn  Zn1093  1  0.55871133  0.42418833  0.36449907  1.0
  Zn  Zn1094  1  0.55871133  0.75752167  0.36449907  1.0
  Zn  Zn1095  1  0.89204467  0.09085500  0.36449907  1.0
  Zn  Zn1096  1  0.89204467  0.42418833  0.36449907  1.0
  Zn  Zn1097  1  0.89204467  0.75752167  0.36449907  1.0
  Zn  Zn1098  1  0.10795533  0.24247833  0.33694736  1.0
  Zn  Zn1099  1  0.10795533  0.57581167  0.33694736  1.0
  Zn  Zn1100  1  0.10795533  0.90914500  0.33694736  1.0
  Zn  Zn1101  1  0.44128867  0.24247833  0.33694736  1.0
  Zn  Zn1102  1  0.44128867  0.57581167  0.33694736  1.0
  Zn  Zn1103  1  0.44128867  0.90914500  0.33694736  1.0
  Zn  Zn1104  1  0.77462200  0.24247833  0.33694736  1.0
  Zn  Zn1105  1  0.77462200  0.57581167  0.33694736  1.0
  Zn  Zn1106  1  0.77462200  0.90914500  0.33694736  1.0
  Zn  Zn1107  1  0.27462200  0.24247833  0.40837593  1.0
  Zn  Zn1108  1  0.27462200  0.57581167  0.40837593  1.0
  Zn  Zn1109  1  0.27462200  0.90914500  0.40837593  1.0
  Zn  Zn1110  1  0.60795533  0.24247833  0.40837593  1.0
  Zn  Zn1111  1  0.60795533  0.57581167  0.40837593  1.0
  Zn  Zn1112  1  0.60795533  0.90914500  0.40837593  1.0
  Zn  Zn1113  1  0.94128867  0.24247833  0.40837593  1.0
  Zn  Zn1114  1  0.94128867  0.57581167  0.40837593  1.0
  Zn  Zn1115  1  0.94128867  0.90914500  0.40837593  1.0
  Zn  Zn1116  1  0.11433000  0.12548433  0.42693221  1.0
  Zn  Zn1117  1  0.11433000  0.45881767  0.42693221  1.0
  Zn  Zn1118  1  0.11433000  0.79215100  0.42693221  1.0
  Zn  Zn1119  1  0.44766333  0.12548433  0.42693221  1.0
  Zn  Zn1120  1  0.44766333  0.45881767  0.42693221  1.0
  Zn  Zn1121  1  0.44766333  0.79215100  0.42693221  1.0
  Zn  Zn1122  1  0.78099667  0.12548433  0.42693221  1.0
  Zn  Zn1123  1  0.78099667  0.45881767  0.42693221  1.0
  Zn  Zn1124  1  0.78099667  0.79215100  0.42693221  1.0
  Zn  Zn1125  1  0.28099667  0.12548433  0.35550364  1.0
  Zn  Zn1126  1  0.28099667  0.45881767  0.35550364  1.0
  Zn  Zn1127  1  0.28099667  0.79215100  0.35550364  1.0
  Zn  Zn1128  1  0.61433000  0.12548433  0.35550364  1.0
  Zn  Zn1129  1  0.61433000  0.45881767  0.35550364  1.0
  Zn  Zn1130  1  0.61433000  0.79215100  0.35550364  1.0
  Zn  Zn1131  1  0.94766333  0.12548433  0.35550364  1.0
  Zn  Zn1132  1  0.94766333  0.45881767  0.35550364  1.0
  Zn  Zn1133  1  0.94766333  0.79215100  0.35550364  1.0
  Zn  Zn1134  1  0.05233667  0.20784900  0.34594279  1.0
  Zn  Zn1135  1  0.05233667  0.54118233  0.34594279  1.0
  Zn  Zn1136  1  0.05233667  0.87451567  0.34594279  1.0
  Zn  Zn1137  1  0.38567000  0.20784900  0.34594279  1.0
  Zn  Zn1138  1  0.38567000  0.54118233  0.34594279  1.0
  Zn  Zn1139  1  0.38567000  0.87451567  0.34594279  1.0
  Zn  Zn1140  1  0.71900333  0.20784900  0.34594279  1.0
  Zn  Zn1141  1  0.71900333  0.54118233  0.34594279  1.0
  Zn  Zn1142  1  0.71900333  0.87451567  0.34594279  1.0
  Zn  Zn1143  1  0.21900333  0.20784900  0.41737136  1.0
  Zn  Zn1144  1  0.21900333  0.54118233  0.41737136  1.0
  Zn  Zn1145  1  0.21900333  0.87451567  0.41737136  1.0
  Zn  Zn1146  1  0.55233667  0.20784900  0.41737136  1.0
  Zn  Zn1147  1  0.55233667  0.54118233  0.41737136  1.0
  Zn  Zn1148  1  0.55233667  0.87451567  0.41737136  1.0
  Zn  Zn1149  1  0.88567000  0.20784900  0.41737136  1.0
  Zn  Zn1150  1  0.88567000  0.54118233  0.41737136  1.0
  Zn  Zn1151  1  0.88567000  0.87451567  0.41737136  1.0
  Zn  Zn1152  1  0.00395467  0.15406933  0.39526864  1.0
  Zn  Zn1153  1  0.00395467  0.48740267  0.39526864  1.0
  Zn  Zn1154  1  0.00395467  0.82073600  0.39526864  1.0
  Zn  Zn1155  1  0.33728800  0.15406933  0.39526864  1.0
  Zn  Zn1156  1  0.33728800  0.48740267  0.39526864  1.0
  Zn  Zn1157  1  0.33728800  0.82073600  0.39526864  1.0
  Zn  Zn1158  1  0.67062133  0.15406933  0.39526864  1.0
  Zn  Zn1159  1  0.67062133  0.48740267  0.39526864  1.0
  Zn  Zn1160  1  0.67062133  0.82073600  0.39526864  1.0
  Zn  Zn1161  1  0.17062133  0.15406933  0.32384007  1.0
  Zn  Zn1162  1  0.17062133  0.48740267  0.32384007  1.0
  Zn  Zn1163  1  0.17062133  0.82073600  0.32384007  1.0
  Zn  Zn1164  1  0.50395467  0.15406933  0.32384007  1.0
  Zn  Zn1165  1  0.50395467  0.48740267  0.32384007  1.0
  Zn  Zn1166  1  0.50395467  0.82073600  0.32384007  1.0
  Zn  Zn1167  1  0.83728800  0.15406933  0.32384007  1.0
  Zn  Zn1168  1  0.83728800  0.48740267  0.32384007  1.0
  Zn  Zn1169  1  0.83728800  0.82073600  0.32384007  1.0
  Zn  Zn1170  1  0.16271200  0.17926400  0.37760636  1.0
  Zn  Zn1171  1  0.16271200  0.51259733  0.37760636  1.0
  Zn  Zn1172  1  0.16271200  0.84593067  0.37760636  1.0
  Zn  Zn1173  1  0.49604533  0.17926400  0.37760636  1.0
  Zn  Zn1174  1  0.49604533  0.51259733  0.37760636  1.0
  Zn  Zn1175  1  0.49604533  0.84593067  0.37760636  1.0
  Zn  Zn1176  1  0.82937867  0.17926400  0.37760636  1.0
  Zn  Zn1177  1  0.82937867  0.51259733  0.37760636  1.0
  Zn  Zn1178  1  0.82937867  0.84593067  0.37760636  1.0
  Zn  Zn1179  1  0.32937867  0.17926400  0.30617779  1.0
  Zn  Zn1180  1  0.32937867  0.51259733  0.30617779  1.0
  Zn  Zn1181  1  0.32937867  0.84593067  0.30617779  1.0
  Zn  Zn1182  1  0.66271200  0.17926400  0.30617779  1.0
  Zn  Zn1183  1  0.66271200  0.51259733  0.30617779  1.0
  Zn  Zn1184  1  0.66271200  0.84593067  0.30617779  1.0
  Zn  Zn1185  1  0.99604533  0.17926400  0.30617779  1.0
  Zn  Zn1186  1  0.99604533  0.51259733  0.30617779  1.0
  Zn  Zn1187  1  0.99604533  0.84593067  0.30617779  1.0
  Zn  Zn1188  1  0.05629100  0.17926400  0.38363650  1.0
  Zn  Zn1189  1  0.05629100  0.51259733  0.38363650  1.0
  Zn  Zn1190  1  0.05629100  0.84593067  0.38363650  1.0
  Zn  Zn1191  1  0.38962433  0.17926400  0.38363650  1.0
  Zn  Zn1192  1  0.38962433  0.51259733  0.38363650  1.0
  Zn  Zn1193  1  0.38962433  0.84593067  0.38363650  1.0
  Zn  Zn1194  1  0.72295767  0.17926400  0.38363650  1.0
  Zn  Zn1195  1  0.72295767  0.51259733  0.38363650  1.0
  Zn  Zn1196  1  0.72295767  0.84593067  0.38363650  1.0
  Zn  Zn1197  1  0.22295767  0.17926400  0.31220793  1.0
  Zn  Zn1198  1  0.22295767  0.51259733  0.31220793  1.0
  Zn  Zn1199  1  0.22295767  0.84593067  0.31220793  1.0
  Zn  Zn1200  1  0.55629100  0.17926400  0.31220793  1.0
  Zn  Zn1201  1  0.55629100  0.51259733  0.31220793  1.0
  Zn  Zn1202  1  0.55629100  0.84593067  0.31220793  1.0
  Zn  Zn1203  1  0.88962433  0.17926400  0.31220793  1.0
  Zn  Zn1204  1  0.88962433  0.51259733  0.31220793  1.0
  Zn  Zn1205  1  0.88962433  0.84593067  0.31220793  1.0
  Zn  Zn1206  1  0.11037567  0.15406933  0.38923850  1.0
  Zn  Zn1207  1  0.11037567  0.48740267  0.38923850  1.0
  Zn  Zn1208  1  0.11037567  0.82073600  0.38923850  1.0
  Zn  Zn1209  1  0.44370900  0.15406933  0.38923850  1.0
  Zn  Zn1210  1  0.44370900  0.48740267  0.38923850  1.0
  Zn  Zn1211  1  0.44370900  0.82073600  0.38923850  1.0
  Zn  Zn1212  1  0.77704233  0.15406933  0.38923850  1.0
  Zn  Zn1213  1  0.77704233  0.48740267  0.38923850  1.0
  Zn  Zn1214  1  0.77704233  0.82073600  0.38923850  1.0
  Zn  Zn1215  1  0.27704233  0.15406933  0.31780993  1.0
  Zn  Zn1216  1  0.27704233  0.48740267  0.31780993  1.0
  Zn  Zn1217  1  0.27704233  0.82073600  0.31780993  1.0
  Zn  Zn1218  1  0.61037567  0.15406933  0.31780993  1.0
  Zn  Zn1219  1  0.61037567  0.48740267  0.31780993  1.0
  Zn  Zn1220  1  0.61037567  0.82073600  0.31780993  1.0
  Zn  Zn1221  1  0.94370900  0.15406933  0.31780993  1.0
  Zn  Zn1222  1  0.94370900  0.48740267  0.31780993  1.0
  Zn  Zn1223  1  0.94370900  0.82073600  0.31780993  1.0
  Zn  Zn1224  1  0.16645583  0.03328867  0.41947257  1.0
  Zn  Zn1225  1  0.16645583  0.36662200  0.41947257  1.0
  Zn  Zn1226  1  0.16645583  0.69995533  0.41947257  1.0
  Zn  Zn1227  1  0.49978917  0.03328867  0.41947257  1.0
  Zn  Zn1228  1  0.49978917  0.36662200  0.41947257  1.0
  Zn  Zn1229  1  0.49978917  0.69995533  0.41947257  1.0
  Zn  Zn1230  1  0.83312250  0.03328867  0.41947257  1.0
  Zn  Zn1231  1  0.83312250  0.36662200  0.41947257  1.0
  Zn  Zn1232  1  0.83312250  0.69995533  0.41947257  1.0
  Zn  Zn1233  1  0.33312250  0.03328867  0.34804400  1.0
  Zn  Zn1234  1  0.33312250  0.36662200  0.34804400  1.0
  Zn  Zn1235  1  0.33312250  0.69995533  0.34804400  1.0
  Zn  Zn1236  1  0.66645583  0.03328867  0.34804400  1.0
  Zn  Zn1237  1  0.66645583  0.36662200  0.34804400  1.0
  Zn  Zn1238  1  0.66645583  0.69995533  0.34804400  1.0
  Zn  Zn1239  1  0.99978917  0.03328867  0.34804400  1.0
  Zn  Zn1240  1  0.99978917  0.36662200  0.34804400  1.0
  Zn  Zn1241  1  0.99978917  0.69995533  0.34804400  1.0
  Zn  Zn1242  1  0.00021083  0.30004467  0.35340243  1.0
  Zn  Zn1243  1  0.00021083  0.63337800  0.35340243  1.0
  Zn  Zn1244  1  0.00021083  0.96671133  0.35340243  1.0
  Zn  Zn1245  1  0.33354417  0.30004467  0.35340243  1.0
  Zn  Zn1246  1  0.33354417  0.63337800  0.35340243  1.0
  Zn  Zn1247  1  0.33354417  0.96671133  0.35340243  1.0
  Zn  Zn1248  1  0.66687750  0.30004467  0.35340243  1.0
  Zn  Zn1249  1  0.66687750  0.63337800  0.35340243  1.0
  Zn  Zn1250  1  0.66687750  0.96671133  0.35340243  1.0
  Zn  Zn1251  1  0.16687750  0.30004467  0.42483100  1.0
  Zn  Zn1252  1  0.16687750  0.63337800  0.42483100  1.0
  Zn  Zn1253  1  0.16687750  0.96671133  0.42483100  1.0
  Zn  Zn1254  1  0.50021083  0.30004467  0.42483100  1.0
  Zn  Zn1255  1  0.50021083  0.63337800  0.42483100  1.0
  Zn  Zn1256  1  0.50021083  0.96671133  0.42483100  1.0
  Zn  Zn1257  1  0.83354417  0.30004467  0.42483100  1.0
  Zn  Zn1258  1  0.83354417  0.63337800  0.42483100  1.0
  Zn  Zn1259  1  0.83354417  0.96671133  0.42483100  1.0
  Zn  Zn1260  1  0.06366867  0.30004467  0.29213393  1.0
  Zn  Zn1261  1  0.06366867  0.63337800  0.29213393  1.0
  Zn  Zn1262  1  0.06366867  0.96671133  0.29213393  1.0
  Zn  Zn1263  1  0.39700200  0.30004467  0.29213393  1.0
  Zn  Zn1264  1  0.39700200  0.63337800  0.29213393  1.0
  Zn  Zn1265  1  0.39700200  0.96671133  0.29213393  1.0
  Zn  Zn1266  1  0.73033533  0.30004467  0.29213393  1.0
  Zn  Zn1267  1  0.73033533  0.63337800  0.29213393  1.0
  Zn  Zn1268  1  0.73033533  0.96671133  0.29213393  1.0
  Zn  Zn1269  1  0.23033533  0.30004467  0.36356250  1.0
  Zn  Zn1270  1  0.23033533  0.63337800  0.36356250  1.0
  Zn  Zn1271  1  0.23033533  0.96671133  0.36356250  1.0
  Zn  Zn1272  1  0.56366867  0.30004467  0.36356250  1.0
  Zn  Zn1273  1  0.56366867  0.63337800  0.36356250  1.0
  Zn  Zn1274  1  0.56366867  0.96671133  0.36356250  1.0
  Zn  Zn1275  1  0.89700200  0.30004467  0.36356250  1.0
  Zn  Zn1276  1  0.89700200  0.63337800  0.36356250  1.0
  Zn  Zn1277  1  0.89700200  0.96671133  0.36356250  1.0
  Zn  Zn1278  1  0.10299800  0.03328867  0.33788393  1.0
  Zn  Zn1279  1  0.10299800  0.36662200  0.33788393  1.0
  Zn  Zn1280  1  0.10299800  0.69995533  0.33788393  1.0
  Zn  Zn1281  1  0.43633133  0.03328867  0.33788393  1.0
  Zn  Zn1282  1  0.43633133  0.36662200  0.33788393  1.0
  Zn  Zn1283  1  0.43633133  0.69995533  0.33788393  1.0
  Zn  Zn1284  1  0.76966467  0.03328867  0.33788393  1.0
  Zn  Zn1285  1  0.76966467  0.36662200  0.33788393  1.0
  Zn  Zn1286  1  0.76966467  0.69995533  0.33788393  1.0
  Zn  Zn1287  1  0.26966467  0.03328867  0.40931250  1.0
  Zn  Zn1288  1  0.26966467  0.36662200  0.40931250  1.0
  Zn  Zn1289  1  0.26966467  0.69995533  0.40931250  1.0
  Zn  Zn1290  1  0.60299800  0.03328867  0.40931250  1.0
  Zn  Zn1291  1  0.60299800  0.36662200  0.40931250  1.0
  Zn  Zn1292  1  0.60299800  0.69995533  0.40931250  1.0
  Zn  Zn1293  1  0.93633133  0.03328867  0.40931250  1.0
  Zn  Zn1294  1  0.93633133  0.36662200  0.40931250  1.0
  Zn  Zn1295  1  0.93633133  0.69995533  0.40931250  1.0
  Ni  Ni1296  1  0.10962617  0.01805067  0.38290514  1.0
  Ni  Ni1297  1  0.10962617  0.35138400  0.38290514  1.0
  Ni  Ni1298  1  0.10962617  0.68471733  0.38290514  1.0
  Ni  Ni1299  1  0.44295950  0.01805067  0.38290514  1.0
  Ni  Ni1300  1  0.44295950  0.35138400  0.38290514  1.0
  Ni  Ni1301  1  0.44295950  0.68471733  0.38290514  1.0
  Ni  Ni1302  1  0.77629283  0.01805067  0.38290514  1.0
  Ni  Ni1303  1  0.77629283  0.35138400  0.38290514  1.0
  Ni  Ni1304  1  0.77629283  0.68471733  0.38290514  1.0
  Ni  Ni1305  1  0.27629283  0.01805067  0.31147657  1.0
  Ni  Ni1306  1  0.27629283  0.35138400  0.31147657  1.0
  Ni  Ni1307  1  0.27629283  0.68471733  0.31147657  1.0
  Ni  Ni1308  1  0.60962617  0.01805067  0.31147657  1.0
  Ni  Ni1309  1  0.60962617  0.35138400  0.31147657  1.0
  Ni  Ni1310  1  0.60962617  0.68471733  0.31147657  1.0
  Ni  Ni1311  1  0.94295950  0.01805067  0.31147657  1.0
  Ni  Ni1312  1  0.94295950  0.35138400  0.31147657  1.0
  Ni  Ni1313  1  0.94295950  0.68471733  0.31147657  1.0
  Ni  Ni1314  1  0.05704050  0.31528267  0.38996986  1.0
  Ni  Ni1315  1  0.05704050  0.64861600  0.38996986  1.0
  Ni  Ni1316  1  0.05704050  0.98194933  0.38996986  1.0
  Ni  Ni1317  1  0.39037383  0.31528267  0.38996986  1.0
  Ni  Ni1318  1  0.39037383  0.64861600  0.38996986  1.0
  Ni  Ni1319  1  0.39037383  0.98194933  0.38996986  1.0
  Ni  Ni1320  1  0.72370717  0.31528267  0.38996986  1.0
  Ni  Ni1321  1  0.72370717  0.64861600  0.38996986  1.0
  Ni  Ni1322  1  0.72370717  0.98194933  0.38996986  1.0
  Ni  Ni1323  1  0.22370717  0.31528267  0.31854129  1.0
  Ni  Ni1324  1  0.22370717  0.64861600  0.31854129  1.0
  Ni  Ni1325  1  0.22370717  0.98194933  0.31854129  1.0
  Ni  Ni1326  1  0.55704050  0.31528267  0.31854129  1.0
  Ni  Ni1327  1  0.55704050  0.64861600  0.31854129  1.0
  Ni  Ni1328  1  0.55704050  0.98194933  0.31854129  1.0
  Ni  Ni1329  1  0.89037383  0.31528267  0.31854129  1.0
  Ni  Ni1330  1  0.89037383  0.64861600  0.31854129  1.0
  Ni  Ni1331  1  0.89037383  0.98194933  0.31854129  1.0
  Ni  Ni1332  1  0.00000000  0.16666667  0.35072321  1.0
  Ni  Ni1333  1  0.00000000  0.50000000  0.35072321  1.0
  Ni  Ni1334  1  0.00000000  0.83333333  0.35072321  1.0
  Ni  Ni1335  1  0.33333333  0.16666667  0.35072321  1.0
  Ni  Ni1336  1  0.33333333  0.50000000  0.35072321  1.0
  Ni  Ni1337  1  0.33333333  0.83333333  0.35072321  1.0
  Ni  Ni1338  1  0.66666667  0.16666667  0.35072321  1.0
  Ni  Ni1339  1  0.66666667  0.50000000  0.35072321  1.0
  Ni  Ni1340  1  0.66666667  0.83333333  0.35072321  1.0
  Ni  Ni1341  1  0.16666667  0.16666667  0.42215179  1.0
  Ni  Ni1342  1  0.16666667  0.50000000  0.42215179  1.0
  Ni  Ni1343  1  0.16666667  0.83333333  0.42215179  1.0
  Ni  Ni1344  1  0.50000000  0.16666667  0.42215179  1.0
  Ni  Ni1345  1  0.50000000  0.50000000  0.42215179  1.0
  Ni  Ni1346  1  0.50000000  0.83333333  0.42215179  1.0
  Ni  Ni1347  1  0.83333333  0.16666667  0.42215179  1.0
  Ni  Ni1348  1  0.83333333  0.50000000  0.42215179  1.0
  Ni  Ni1349  1  0.83333333  0.83333333  0.42215179  1.0
