# generated using pymatgen
data_Zn22Ni3
_symmetry_space_group_name_H-M   'P 1'
_cell_length_a   37.09332293
_cell_length_b   38.59893020
_cell_length_c   33.45629113
_cell_angle_alpha   96.06220401
_cell_angle_beta   95.87099812
_cell_angle_gamma   107.81684757
_symmetry_Int_Tables_number   1
_chemical_formula_structural   Zn22Ni3
_chemical_formula_sum   'Zn1188 Ni162'
_cell_volume   44888.36092297
_cell_formula_units_Z   54
loop_
 _symmetry_equiv_pos_site_id
 _symmetry_equiv_pos_as_xyz
  1  'x, y, z'
loop_
 _atom_site_type_symbol
 _atom_site_label
 _atom_site_symmetry_multiplicity
 _atom_site_fract_x
 _atom_site_fract_y
 _atom_site_fract_z
 _atom_site_occupancy
  Ni  Ni0  1  0.32607790  0.27711995  0.87772079  1.0
  Ni  Ni1  1  0.32607790  0.61045329  0.87772079  1.0
  Ni  Ni2  1  0.32607790  0.94378662  0.87772079  1.0
  Ni  Ni3  1  0.65941124  0.27711995  0.87772079  1.0
  Ni  Ni4  1  0.65941124  0.61045329  0.87772079  1.0
  Ni  Ni5  1  0.65941124  0.94378662  0.87772079  1.0
  Ni  Ni6  1  0.99274457  0.27711995  0.87772079  1.0
  Ni  Ni7  1  0.99274457  0.61045329  0.87772079  1.0
  Ni  Ni8  1  0.99274457  0.94378662  0.87772079  1.0
  Ni  Ni9  1  0.13560171  0.18188186  0.94914936  1.0
  Ni  Ni10  1  0.13560171  0.51521519  0.94914936  1.0
  Ni  Ni11  1  0.13560171  0.84854852  0.94914936  1.0
  Ni  Ni12  1  0.46893505  0.18188186  0.94914936  1.0
  Ni  Ni13  1  0.46893505  0.51521519  0.94914936  1.0
  Ni  Ni14  1  0.46893505  0.84854852  0.94914936  1.0
  Ni  Ni15  1  0.80226838  0.18188186  0.94914936  1.0
  Ni  Ni16  1  0.80226838  0.51521519  0.94914936  1.0
  Ni  Ni17  1  0.80226838  0.84854852  0.94914936  1.0
  Ni  Ni18  1  0.05487448  0.24668957  0.97942207  1.0
  Ni  Ni19  1  0.05487448  0.58002290  0.97942207  1.0
  Ni  Ni20  1  0.05487448  0.91335624  0.97942207  1.0
  Ni  Ni21  1  0.38820781  0.24668957  0.97942207  1.0
  Ni  Ni22  1  0.38820781  0.58002290  0.97942207  1.0
  Ni  Ni23  1  0.38820781  0.91335624  0.97942207  1.0
  Ni  Ni24  1  0.72154114  0.24668957  0.97942207  1.0
  Ni  Ni25  1  0.72154114  0.58002290  0.97942207  1.0
  Ni  Ni26  1  0.72154114  0.91335624  0.97942207  1.0
  Ni  Ni27  1  0.24535067  0.00859433  0.90799350  1.0
  Ni  Ni28  1  0.24535067  0.34192767  0.90799350  1.0
  Ni  Ni29  1  0.24535067  0.67526100  0.90799350  1.0
  Ni  Ni30  1  0.57868400  0.00859433  0.90799350  1.0
  Ni  Ni31  1  0.57868400  0.34192767  0.90799350  1.0
  Ni  Ni32  1  0.57868400  0.67526100  0.90799350  1.0
  Ni  Ni33  1  0.91201733  0.00859433  0.90799350  1.0
  Ni  Ni34  1  0.91201733  0.34192767  0.90799350  1.0
  Ni  Ni35  1  0.91201733  0.67526100  0.90799350  1.0
  Ni  Ni36  1  0.28571429  0.14285714  0.89285714  1.0
  Ni  Ni37  1  0.28571429  0.47619048  0.89285714  1.0
  Ni  Ni38  1  0.28571429  0.80952381  0.89285714  1.0
  Ni  Ni39  1  0.61904762  0.14285714  0.89285714  1.0
  Ni  Ni40  1  0.61904762  0.47619048  0.89285714  1.0
  Ni  Ni41  1  0.61904762  0.80952381  0.89285714  1.0
  Ni  Ni42  1  0.95238095  0.14285714  0.89285714  1.0
  Ni  Ni43  1  0.95238095  0.47619048  0.89285714  1.0
  Ni  Ni44  1  0.95238095  0.80952381  0.89285714  1.0
  Ni  Ni45  1  0.09523810  0.04761905  0.96428571  1.0
  Ni  Ni46  1  0.09523810  0.38095238  0.96428571  1.0
  Ni  Ni47  1  0.09523810  0.71428571  0.96428571  1.0
  Ni  Ni48  1  0.42857143  0.04761905  0.96428571  1.0
  Ni  Ni49  1  0.42857143  0.38095238  0.96428571  1.0
  Ni  Ni50  1  0.42857143  0.71428571  0.96428571  1.0
  Ni  Ni51  1  0.76190476  0.04761905  0.96428571  1.0
  Ni  Ni52  1  0.76190476  0.38095238  0.96428571  1.0
  Ni  Ni53  1  0.76190476  0.71428571  0.96428571  1.0
  Ni  Ni54  1  0.04036362  0.13426281  0.73486364  1.0
  Ni  Ni55  1  0.04036362  0.46759614  0.73486364  1.0
  Ni  Ni56  1  0.04036362  0.80092948  0.73486364  1.0
  Ni  Ni57  1  0.37369695  0.13426281  0.73486364  1.0
  Ni  Ni58  1  0.37369695  0.46759614  0.73486364  1.0
  Ni  Ni59  1  0.37369695  0.80092948  0.73486364  1.0
  Ni  Ni60  1  0.70703029  0.13426281  0.73486364  1.0
  Ni  Ni61  1  0.70703029  0.46759614  0.73486364  1.0
  Ni  Ni62  1  0.70703029  0.80092948  0.73486364  1.0
  Ni  Ni63  1  0.18322076  0.03902471  0.80629221  1.0
  Ni  Ni64  1  0.18322076  0.37235805  0.80629221  1.0
  Ni  Ni65  1  0.18322076  0.70569138  0.80629221  1.0
  Ni  Ni66  1  0.51655410  0.03902471  0.80629221  1.0
  Ni  Ni67  1  0.51655410  0.37235805  0.80629221  1.0
  Ni  Ni68  1  0.51655410  0.70569138  0.80629221  1.0
  Ni  Ni69  1  0.84988743  0.03902471  0.80629221  1.0
  Ni  Ni70  1  0.84988743  0.37235805  0.80629221  1.0
  Ni  Ni71  1  0.84988743  0.70569138  0.80629221  1.0
  Ni  Ni72  1  0.10249352  0.10383243  0.83656493  1.0
  Ni  Ni73  1  0.10249352  0.43716576  0.83656493  1.0
  Ni  Ni74  1  0.10249352  0.77049910  0.83656493  1.0
  Ni  Ni75  1  0.43582686  0.10383243  0.83656493  1.0
  Ni  Ni76  1  0.43582686  0.43716576  0.83656493  1.0
  Ni  Ni77  1  0.43582686  0.77049910  0.83656493  1.0
  Ni  Ni78  1  0.76916019  0.10383243  0.83656493  1.0
  Ni  Ni79  1  0.76916019  0.43716576  0.83656493  1.0
  Ni  Ni80  1  0.76916019  0.77049910  0.83656493  1.0
  Ni  Ni81  1  0.29296971  0.19907052  0.76513636  1.0
  Ni  Ni82  1  0.29296971  0.53240386  0.76513636  1.0
  Ni  Ni83  1  0.29296971  0.86573719  0.76513636  1.0
  Ni  Ni84  1  0.62630305  0.19907052  0.76513636  1.0
  Ni  Ni85  1  0.62630305  0.53240386  0.76513636  1.0
  Ni  Ni86  1  0.62630305  0.86573719  0.76513636  1.0
  Ni  Ni87  1  0.95963638  0.19907052  0.76513636  1.0
  Ni  Ni88  1  0.95963638  0.53240386  0.76513636  1.0
  Ni  Ni89  1  0.95963638  0.86573719  0.76513636  1.0
  Ni  Ni90  1  0.33333333  0.33333333  0.75000000  1.0
  Ni  Ni91  1  0.33333333  0.66666667  0.75000000  1.0
  Ni  Ni92  1  0.33333333  1.00000000  0.75000000  1.0
  Ni  Ni93  1  0.66666667  0.33333333  0.75000000  1.0
  Ni  Ni94  1  0.66666667  0.66666667  0.75000000  1.0
  Ni  Ni95  1  0.66666667  1.00000000  0.75000000  1.0
  Ni  Ni96  1  1.00000000  0.33333333  0.75000000  1.0
  Ni  Ni97  1  1.00000000  0.66666667  0.75000000  1.0
  Ni  Ni98  1  1.00000000  1.00000000  0.75000000  1.0
  Ni  Ni99  1  0.14285714  0.23809524  0.82142857  1.0
  Ni  Ni100  1  0.14285714  0.57142857  0.82142857  1.0
  Ni  Ni101  1  0.14285714  0.90476190  0.82142857  1.0
  Ni  Ni102  1  0.47619048  0.23809524  0.82142857  1.0
  Ni  Ni103  1  0.47619048  0.57142857  0.82142857  1.0
  Ni  Ni104  1  0.47619048  0.90476190  0.82142857  1.0
  Ni  Ni105  1  0.80952381  0.23809524  0.82142857  1.0
  Ni  Ni106  1  0.80952381  0.57142857  0.82142857  1.0
  Ni  Ni107  1  0.80952381  0.90476190  0.82142857  1.0
  Ni  Ni108  1  0.08798267  0.32473900  0.59200650  1.0
  Ni  Ni109  1  0.08798267  0.65807233  0.59200650  1.0
  Ni  Ni110  1  0.08798267  0.99140567  0.59200650  1.0
  Ni  Ni111  1  0.42131600  0.32473900  0.59200650  1.0
  Ni  Ni112  1  0.42131600  0.65807233  0.59200650  1.0
  Ni  Ni113  1  0.42131600  0.99140567  0.59200650  1.0
  Ni  Ni114  1  0.75464933  0.32473900  0.59200650  1.0
  Ni  Ni115  1  0.75464933  0.65807233  0.59200650  1.0
  Ni  Ni116  1  0.75464933  0.99140567  0.59200650  1.0
  Ni  Ni117  1  0.23083981  0.22950090  0.66343507  1.0
  Ni  Ni118  1  0.23083981  0.56283424  0.66343507  1.0
  Ni  Ni119  1  0.23083981  0.89616757  0.66343507  1.0
  Ni  Ni120  1  0.56417314  0.22950090  0.66343507  1.0
  Ni  Ni121  1  0.56417314  0.56283424  0.66343507  1.0
  Ni  Ni122  1  0.56417314  0.89616757  0.66343507  1.0
  Ni  Ni123  1  0.89750648  0.22950090  0.66343507  1.0
  Ni  Ni124  1  0.89750648  0.56283424  0.66343507  1.0
  Ni  Ni125  1  0.89750648  0.89616757  0.66343507  1.0
  Ni  Ni126  1  0.15011257  0.29430862  0.69370779  1.0
  Ni  Ni127  1  0.15011257  0.62764195  0.69370779  1.0
  Ni  Ni128  1  0.15011257  0.96097529  0.69370779  1.0
  Ni  Ni129  1  0.48344590  0.29430862  0.69370779  1.0
  Ni  Ni130  1  0.48344590  0.62764195  0.69370779  1.0
  Ni  Ni131  1  0.48344590  0.96097529  0.69370779  1.0
  Ni  Ni132  1  0.81677924  0.29430862  0.69370779  1.0
  Ni  Ni133  1  0.81677924  0.62764195  0.69370779  1.0
  Ni  Ni134  1  0.81677924  0.96097529  0.69370779  1.0
  Ni  Ni135  1  0.00725543  0.05621338  0.62227921  1.0
  Ni  Ni136  1  0.00725543  0.38954671  0.62227921  1.0
  Ni  Ni137  1  0.00725543  0.72288005  0.62227921  1.0
  Ni  Ni138  1  0.34058876  0.05621338  0.62227921  1.0
  Ni  Ni139  1  0.34058876  0.38954671  0.62227921  1.0
  Ni  Ni140  1  0.34058876  0.72288005  0.62227921  1.0
  Ni  Ni141  1  0.67392210  0.05621338  0.62227921  1.0
  Ni  Ni142  1  0.67392210  0.38954671  0.62227921  1.0
  Ni  Ni143  1  0.67392210  0.72288005  0.62227921  1.0
  Ni  Ni144  1  0.04761905  0.19047619  0.60714286  1.0
  Ni  Ni145  1  0.04761905  0.52380952  0.60714286  1.0
  Ni  Ni146  1  0.04761905  0.85714286  0.60714286  1.0
  Ni  Ni147  1  0.38095238  0.19047619  0.60714286  1.0
  Ni  Ni148  1  0.38095238  0.52380952  0.60714286  1.0
  Ni  Ni149  1  0.38095238  0.85714286  0.60714286  1.0
  Ni  Ni150  1  0.71428571  0.19047619  0.60714286  1.0
  Ni  Ni151  1  0.71428571  0.52380952  0.60714286  1.0
  Ni  Ni152  1  0.71428571  0.85714286  0.60714286  1.0
  Ni  Ni153  1  0.19047619  0.09523810  0.67857143  1.0
  Ni  Ni154  1  0.19047619  0.42857143  0.67857143  1.0
  Ni  Ni155  1  0.19047619  0.76190476  0.67857143  1.0
  Ni  Ni156  1  0.52380952  0.09523810  0.67857143  1.0
  Ni  Ni157  1  0.52380952  0.42857143  0.67857143  1.0
  Ni  Ni158  1  0.52380952  0.76190476  0.67857143  1.0
  Ni  Ni159  1  0.85714286  0.09523810  0.67857143  1.0
  Ni  Ni160  1  0.85714286  0.42857143  0.67857143  1.0
  Ni  Ni161  1  0.85714286  0.76190476  0.67857143  1.0
  Zn  Zn162  1  0.03846262  0.00522181  0.90999514  1.0
  Zn  Zn163  1  0.03846262  0.33855514  0.90999514  1.0
  Zn  Zn164  1  0.03846262  0.67188848  0.90999514  1.0
  Zn  Zn165  1  0.37179595  0.00522181  0.90999514  1.0
  Zn  Zn166  1  0.37179595  0.33855514  0.90999514  1.0
  Zn  Zn167  1  0.37179595  0.67188848  0.90999514  1.0
  Zn  Zn168  1  0.70512929  0.00522181  0.90999514  1.0
  Zn  Zn169  1  0.70512929  0.33855514  0.90999514  1.0
  Zn  Zn170  1  0.70512929  0.67188848  0.90999514  1.0
  Zn  Zn171  1  0.18131976  0.24331705  0.98142371  1.0
  Zn  Zn172  1  0.18131976  0.57665038  0.98142371  1.0
  Zn  Zn173  1  0.18131976  0.90998371  0.98142371  1.0
  Zn  Zn174  1  0.51465310  0.24331705  0.98142371  1.0
  Zn  Zn175  1  0.51465310  0.57665038  0.98142371  1.0
  Zn  Zn176  1  0.51465310  0.90998371  0.98142371  1.0
  Zn  Zn177  1  0.84798643  0.24331705  0.98142371  1.0
  Zn  Zn178  1  0.84798643  0.57665038  0.98142371  1.0
  Zn  Zn179  1  0.84798643  0.90998371  0.98142371  1.0
  Zn  Zn180  1  0.00915643  0.18525438  0.94714771  1.0
  Zn  Zn181  1  0.00915643  0.51858771  0.94714771  1.0
  Zn  Zn182  1  0.00915643  0.85192105  0.94714771  1.0
  Zn  Zn183  1  0.34248976  0.18525438  0.94714771  1.0
  Zn  Zn184  1  0.34248976  0.51858771  0.94714771  1.0
  Zn  Zn185  1  0.34248976  0.85192105  0.94714771  1.0
  Zn  Zn186  1  0.67582310  0.18525438  0.94714771  1.0
  Zn  Zn187  1  0.67582310  0.51858771  0.94714771  1.0
  Zn  Zn188  1  0.67582310  0.85192105  0.94714771  1.0
  Zn  Zn189  1  0.19963262  0.28049248  0.87571914  1.0
  Zn  Zn190  1  0.19963262  0.61382581  0.87571914  1.0
  Zn  Zn191  1  0.19963262  0.94715914  0.87571914  1.0
  Zn  Zn192  1  0.53296595  0.28049248  0.87571914  1.0
  Zn  Zn193  1  0.53296595  0.61382581  0.87571914  1.0
  Zn  Zn194  1  0.53296595  0.94715914  0.87571914  1.0
  Zn  Zn195  1  0.86629929  0.28049248  0.87571914  1.0
  Zn  Zn196  1  0.86629929  0.61382581  0.87571914  1.0
  Zn  Zn197  1  0.86629929  0.94715914  0.87571914  1.0
  Zn  Zn198  1  0.09442776  0.06122338  0.88900821  1.0
  Zn  Zn199  1  0.09442776  0.39455671  0.88900821  1.0
  Zn  Zn200  1  0.09442776  0.72789005  0.88900821  1.0
  Zn  Zn201  1  0.42776110  0.06122338  0.88900821  1.0
  Zn  Zn202  1  0.42776110  0.39455671  0.88900821  1.0
  Zn  Zn203  1  0.42776110  0.72789005  0.88900821  1.0
  Zn  Zn204  1  0.76109443  0.06122338  0.88900821  1.0
  Zn  Zn205  1  0.76109443  0.39455671  0.88900821  1.0
  Zn  Zn206  1  0.76109443  0.72789005  0.88900821  1.0
  Zn  Zn207  1  0.23728490  0.29931862  0.96043679  1.0
  Zn  Zn208  1  0.23728490  0.63265195  0.96043679  1.0
  Zn  Zn209  1  0.23728490  0.96598529  0.96043679  1.0
  Zn  Zn210  1  0.57061824  0.29931862  0.96043679  1.0
  Zn  Zn211  1  0.57061824  0.63265195  0.96043679  1.0
  Zn  Zn212  1  0.57061824  0.96598529  0.96043679  1.0
  Zn  Zn213  1  0.90395157  0.29931862  0.96043679  1.0
  Zn  Zn214  1  0.90395157  0.63265195  0.96043679  1.0
  Zn  Zn215  1  0.90395157  0.96598529  0.96043679  1.0
  Zn  Zn216  1  0.28652462  0.12925281  0.96813464  1.0
  Zn  Zn217  1  0.28652462  0.46258614  0.96813464  1.0
  Zn  Zn218  1  0.28652462  0.79591948  0.96813464  1.0
  Zn  Zn219  1  0.61985795  0.12925281  0.96813464  1.0
  Zn  Zn220  1  0.61985795  0.46258614  0.96813464  1.0
  Zn  Zn221  1  0.61985795  0.79591948  0.96813464  1.0
  Zn  Zn222  1  0.95319129  0.12925281  0.96813464  1.0
  Zn  Zn223  1  0.95319129  0.46258614  0.96813464  1.0
  Zn  Zn224  1  0.95319129  0.79591948  0.96813464  1.0
  Zn  Zn225  1  0.14366748  0.22449090  0.89670607  1.0
  Zn  Zn226  1  0.14366748  0.55782424  0.89670607  1.0
  Zn  Zn227  1  0.14366748  0.89115757  0.89670607  1.0
  Zn  Zn228  1  0.47700081  0.22449090  0.89670607  1.0
  Zn  Zn229  1  0.47700081  0.55782424  0.89670607  1.0
  Zn  Zn230  1  0.47700081  0.89115757  0.89670607  1.0
  Zn  Zn231  1  0.81033414  0.22449090  0.89670607  1.0
  Zn  Zn232  1  0.81033414  0.55782424  0.89670607  1.0
  Zn  Zn233  1  0.81033414  0.89115757  0.89670607  1.0
  Zn  Zn234  1  0.22118467  0.11059233  0.99766550  1.0
  Zn  Zn235  1  0.22118467  0.44392567  0.99766550  1.0
  Zn  Zn236  1  0.22118467  0.77725900  0.99766550  1.0
  Zn  Zn237  1  0.55451800  0.11059233  0.99766550  1.0
  Zn  Zn238  1  0.55451800  0.44392567  0.99766550  1.0
  Zn  Zn239  1  0.55451800  0.77725900  0.99766550  1.0
  Zn  Zn240  1  0.88785133  0.11059233  0.99766550  1.0
  Zn  Zn241  1  0.88785133  0.44392567  0.99766550  1.0
  Zn  Zn242  1  0.88785133  0.77725900  0.99766550  1.0
  Zn  Zn243  1  0.07832752  0.20583043  0.92623693  1.0
  Zn  Zn244  1  0.07832752  0.53916376  0.92623693  1.0
  Zn  Zn245  1  0.07832752  0.87249710  0.92623693  1.0
  Zn  Zn246  1  0.41166086  0.20583043  0.92623693  1.0
  Zn  Zn247  1  0.41166086  0.53916376  0.92623693  1.0
  Zn  Zn248  1  0.41166086  0.87249710  0.92623693  1.0
  Zn  Zn249  1  0.74499419  0.20583043  0.92623693  1.0
  Zn  Zn250  1  0.74499419  0.53916376  0.92623693  1.0
  Zn  Zn251  1  0.74499419  0.87249710  0.92623693  1.0
  Zn  Zn252  1  0.30262486  0.31797910  0.93090593  1.0
  Zn  Zn253  1  0.30262486  0.65131243  0.93090593  1.0
  Zn  Zn254  1  0.30262486  0.98464576  0.93090593  1.0
  Zn  Zn255  1  0.63595819  0.31797910  0.93090593  1.0
  Zn  Zn256  1  0.63595819  0.65131243  0.93090593  1.0
  Zn  Zn257  1  0.63595819  0.98464576  0.93090593  1.0
  Zn  Zn258  1  0.96929152  0.31797910  0.93090593  1.0
  Zn  Zn259  1  0.96929152  0.65131243  0.93090593  1.0
  Zn  Zn260  1  0.96929152  0.98464576  0.93090593  1.0
  Zn  Zn261  1  0.15976771  0.07988386  0.85947736  1.0
  Zn  Zn262  1  0.15976771  0.41321719  0.85947736  1.0
  Zn  Zn263  1  0.15976771  0.74655052  0.85947736  1.0
  Zn  Zn264  1  0.49310105  0.07988386  0.85947736  1.0
  Zn  Zn265  1  0.49310105  0.41321719  0.85947736  1.0
  Zn  Zn266  1  0.49310105  0.74655052  0.85947736  1.0
  Zn  Zn267  1  0.82643438  0.07988386  0.85947736  1.0
  Zn  Zn268  1  0.82643438  0.41321719  0.85947736  1.0
  Zn  Zn269  1  0.82643438  0.74655052  0.85947736  1.0
  Zn  Zn270  1  0.11711238  0.11503419  0.95608286  1.0
  Zn  Zn271  1  0.11711238  0.44836752  0.95608286  1.0
  Zn  Zn272  1  0.11711238  0.78170086  0.95608286  1.0
  Zn  Zn273  1  0.45044571  0.11503419  0.95608286  1.0
  Zn  Zn274  1  0.45044571  0.44836752  0.95608286  1.0
  Zn  Zn275  1  0.45044571  0.78170086  0.95608286  1.0
  Zn  Zn276  1  0.78377905  0.11503419  0.95608286  1.0
  Zn  Zn277  1  0.78377905  0.44836752  0.95608286  1.0
  Zn  Zn278  1  0.78377905  0.78170086  0.95608286  1.0
  Zn  Zn279  1  0.30758857  0.21027229  0.88465429  1.0
  Zn  Zn280  1  0.30758857  0.54360562  0.88465429  1.0
  Zn  Zn281  1  0.30758857  0.87693895  0.88465429  1.0
  Zn  Zn282  1  0.64092190  0.21027229  0.88465429  1.0
  Zn  Zn283  1  0.64092190  0.54360562  0.88465429  1.0
  Zn  Zn284  1  0.64092190  0.87693895  0.88465429  1.0
  Zn  Zn285  1  0.97425524  0.21027229  0.88465429  1.0
  Zn  Zn286  1  0.97425524  0.54360562  0.88465429  1.0
  Zn  Zn287  1  0.97425524  0.87693895  0.88465429  1.0
  Zn  Zn288  1  0.26384000  0.07544200  0.90106000  1.0
  Zn  Zn289  1  0.26384000  0.40877533  0.90106000  1.0
  Zn  Zn290  1  0.26384000  0.74210867  0.90106000  1.0
  Zn  Zn291  1  0.59717333  0.07544200  0.90106000  1.0
  Zn  Zn292  1  0.59717333  0.40877533  0.90106000  1.0
  Zn  Zn293  1  0.59717333  0.74210867  0.90106000  1.0
  Zn  Zn294  1  0.93050667  0.07544200  0.90106000  1.0
  Zn  Zn295  1  0.93050667  0.40877533  0.90106000  1.0
  Zn  Zn296  1  0.93050667  0.74210867  0.90106000  1.0
  Zn  Zn297  1  0.07336381  0.31353724  0.97248857  1.0
  Zn  Zn298  1  0.07336381  0.64687057  0.97248857  1.0
  Zn  Zn299  1  0.07336381  0.98020390  0.97248857  1.0
  Zn  Zn300  1  0.40669714  0.31353724  0.97248857  1.0
  Zn  Zn301  1  0.40669714  0.64687057  0.97248857  1.0
  Zn  Zn302  1  0.40669714  0.98020390  0.97248857  1.0
  Zn  Zn303  1  0.74003048  0.31353724  0.97248857  1.0
  Zn  Zn304  1  0.74003048  0.64687057  0.97248857  1.0
  Zn  Zn305  1  0.74003048  0.98020390  0.97248857  1.0
  Zn  Zn306  1  0.02905029  0.02244648  0.98910614  1.0
  Zn  Zn307  1  0.02905029  0.35577981  0.98910614  1.0
  Zn  Zn308  1  0.02905029  0.68911314  0.98910614  1.0
  Zn  Zn309  1  0.36238362  0.02244648  0.98910614  1.0
  Zn  Zn310  1  0.36238362  0.35577981  0.98910614  1.0
  Zn  Zn311  1  0.36238362  0.68911314  0.98910614  1.0
  Zn  Zn312  1  0.69571695  0.02244648  0.98910614  1.0
  Zn  Zn313  1  0.69571695  0.35577981  0.98910614  1.0
  Zn  Zn314  1  0.69571695  0.68911314  0.98910614  1.0
  Zn  Zn315  1  0.21952648  0.11768457  0.91767757  1.0
  Zn  Zn316  1  0.21952648  0.45101790  0.91767757  1.0
  Zn  Zn317  1  0.21952648  0.78435124  0.91767757  1.0
  Zn  Zn318  1  0.55285981  0.11768457  0.91767757  1.0
  Zn  Zn319  1  0.55285981  0.45101790  0.91767757  1.0
  Zn  Zn320  1  0.55285981  0.78435124  0.91767757  1.0
  Zn  Zn321  1  0.88619314  0.11768457  0.91767757  1.0
  Zn  Zn322  1  0.88619314  0.45101790  0.91767757  1.0
  Zn  Zn323  1  0.88619314  0.78435124  0.91767757  1.0
  Zn  Zn324  1  0.01856876  0.16802971  0.86803671  1.0
  Zn  Zn325  1  0.01856876  0.50136305  0.86803671  1.0
  Zn  Zn326  1  0.01856876  0.83469638  0.86803671  1.0
  Zn  Zn327  1  0.35190210  0.16802971  0.86803671  1.0
  Zn  Zn328  1  0.35190210  0.50136305  0.86803671  1.0
  Zn  Zn329  1  0.35190210  0.83469638  0.86803671  1.0
  Zn  Zn330  1  0.68523543  0.16802971  0.86803671  1.0
  Zn  Zn331  1  0.68523543  0.50136305  0.86803671  1.0
  Zn  Zn332  1  0.68523543  0.83469638  0.86803671  1.0
  Zn  Zn333  1  0.16142590  0.07279162  0.93946529  1.0
  Zn  Zn334  1  0.16142590  0.40612495  0.93946529  1.0
  Zn  Zn335  1  0.16142590  0.73945829  0.93946529  1.0
  Zn  Zn336  1  0.49475924  0.07279162  0.93946529  1.0
  Zn  Zn337  1  0.49475924  0.40612495  0.93946529  1.0
  Zn  Zn338  1  0.49475924  0.73945829  0.93946529  1.0
  Zn  Zn339  1  0.82809257  0.07279162  0.93946529  1.0
  Zn  Zn340  1  0.82809257  0.40612495  0.93946529  1.0
  Zn  Zn341  1  0.82809257  0.73945829  0.93946529  1.0
  Zn  Zn342  1  0.30949200  0.03732333  0.88394050  1.0
  Zn  Zn343  1  0.30949200  0.37065667  0.88394050  1.0
  Zn  Zn344  1  0.30949200  0.70399000  0.88394050  1.0
  Zn  Zn345  1  0.64282533  0.03732333  0.88394050  1.0
  Zn  Zn346  1  0.64282533  0.37065667  0.88394050  1.0
  Zn  Zn347  1  0.64282533  0.70399000  0.88394050  1.0
  Zn  Zn348  1  0.97615867  0.03732333  0.88394050  1.0
  Zn  Zn349  1  0.97615867  0.37065667  0.88394050  1.0
  Zn  Zn350  1  0.97615867  0.70399000  0.88394050  1.0
  Zn  Zn351  1  0.11901581  0.27541857  0.95536907  1.0
  Zn  Zn352  1  0.11901581  0.60875190  0.95536907  1.0
  Zn  Zn353  1  0.11901581  0.94208524  0.95536907  1.0
  Zn  Zn354  1  0.45234914  0.27541857  0.95536907  1.0
  Zn  Zn355  1  0.45234914  0.60875190  0.95536907  1.0
  Zn  Zn356  1  0.45234914  0.94208524  0.95536907  1.0
  Zn  Zn357  1  0.78568248  0.27541857  0.95536907  1.0
  Zn  Zn358  1  0.78568248  0.60875190  0.95536907  1.0
  Zn  Zn359  1  0.78568248  0.94208524  0.95536907  1.0
  Zn  Zn360  1  0.07146038  0.15315286  0.97320236  1.0
  Zn  Zn361  1  0.07146038  0.48648619  0.97320236  1.0
  Zn  Zn362  1  0.07146038  0.81981952  0.97320236  1.0
  Zn  Zn363  1  0.40479371  0.15315286  0.97320236  1.0
  Zn  Zn364  1  0.40479371  0.48648619  0.97320236  1.0
  Zn  Zn365  1  0.40479371  0.81981952  0.97320236  1.0
  Zn  Zn366  1  0.73812705  0.15315286  0.97320236  1.0
  Zn  Zn367  1  0.73812705  0.48648619  0.97320236  1.0
  Zn  Zn368  1  0.73812705  0.81981952  0.97320236  1.0
  Zn  Zn369  1  0.26193657  0.24839095  0.90177379  1.0
  Zn  Zn370  1  0.26193657  0.58172429  0.90177379  1.0
  Zn  Zn371  1  0.26193657  0.91505762  0.90177379  1.0
  Zn  Zn372  1  0.59526990  0.24839095  0.90177379  1.0
  Zn  Zn373  1  0.59526990  0.58172429  0.90177379  1.0
  Zn  Zn374  1  0.59526990  0.91505762  0.90177379  1.0
  Zn  Zn375  1  0.92860324  0.24839095  0.90177379  1.0
  Zn  Zn376  1  0.92860324  0.58172429  0.90177379  1.0
  Zn  Zn377  1  0.92860324  0.91505762  0.90177379  1.0
  Zn  Zn378  1  0.01189200  0.11061933  0.99554050  1.0
  Zn  Zn379  1  0.01189200  0.44395267  0.99554050  1.0
  Zn  Zn380  1  0.01189200  0.77728600  0.99554050  1.0
  Zn  Zn381  1  0.34522533  0.11061933  0.99554050  1.0
  Zn  Zn382  1  0.34522533  0.44395267  0.99554050  1.0
  Zn  Zn383  1  0.34522533  0.77728600  0.99554050  1.0
  Zn  Zn384  1  0.67855867  0.11061933  0.99554050  1.0
  Zn  Zn385  1  0.67855867  0.44395267  0.99554050  1.0
  Zn  Zn386  1  0.67855867  0.77728600  0.99554050  1.0
  Zn  Zn387  1  0.20236819  0.20585743  0.92411193  1.0
  Zn  Zn388  1  0.20236819  0.53919076  0.92411193  1.0
  Zn  Zn389  1  0.20236819  0.87252410  0.92411193  1.0
  Zn  Zn390  1  0.53570152  0.20585743  0.92411193  1.0
  Zn  Zn391  1  0.53570152  0.53919076  0.92411193  1.0
  Zn  Zn392  1  0.53570152  0.87252410  0.92411193  1.0
  Zn  Zn393  1  0.86903486  0.20585743  0.92411193  1.0
  Zn  Zn394  1  0.86903486  0.53919076  0.92411193  1.0
  Zn  Zn395  1  0.86903486  0.87252410  0.92411193  1.0
  Zn  Zn396  1  0.03572705  0.07985686  0.86160236  1.0
  Zn  Zn397  1  0.03572705  0.41319019  0.86160236  1.0
  Zn  Zn398  1  0.03572705  0.74652352  0.86160236  1.0
  Zn  Zn399  1  0.36906038  0.07985686  0.86160236  1.0
  Zn  Zn400  1  0.36906038  0.41319019  0.86160236  1.0
  Zn  Zn401  1  0.36906038  0.74652352  0.86160236  1.0
  Zn  Zn402  1  0.70239371  0.07985686  0.86160236  1.0
  Zn  Zn403  1  0.70239371  0.41319019  0.86160236  1.0
  Zn  Zn404  1  0.70239371  0.74652352  0.86160236  1.0
  Zn  Zn405  1  0.17858419  0.31795210  0.93303093  1.0
  Zn  Zn406  1  0.17858419  0.65128543  0.93303093  1.0
  Zn  Zn407  1  0.17858419  0.98461876  0.93303093  1.0
  Zn  Zn408  1  0.51191752  0.31795210  0.93303093  1.0
  Zn  Zn409  1  0.51191752  0.65128543  0.93303093  1.0
  Zn  Zn410  1  0.51191752  0.98461876  0.93303093  1.0
  Zn  Zn411  1  0.84525086  0.31795210  0.93303093  1.0
  Zn  Zn412  1  0.84525086  0.65128543  0.93303093  1.0
  Zn  Zn413  1  0.84525086  0.98461876  0.93303093  1.0
  Zn  Zn414  1  0.26582238  0.18524752  0.94550086  1.0
  Zn  Zn415  1  0.26582238  0.51858086  0.94550086  1.0
  Zn  Zn416  1  0.26582238  0.85191419  0.94550086  1.0
  Zn  Zn417  1  0.59915571  0.18524752  0.94550086  1.0
  Zn  Zn418  1  0.59915571  0.51858086  0.94550086  1.0
  Zn  Zn419  1  0.59915571  0.85191419  0.94550086  1.0
  Zn  Zn420  1  0.93248905  0.18524752  0.94550086  1.0
  Zn  Zn421  1  0.93248905  0.51858086  0.94550086  1.0
  Zn  Zn422  1  0.93248905  0.85191419  0.94550086  1.0
  Zn  Zn423  1  0.12296524  0.28048562  0.87407229  1.0
  Zn  Zn424  1  0.12296524  0.61381895  0.87407229  1.0
  Zn  Zn425  1  0.12296524  0.94715229  0.87407229  1.0
  Zn  Zn426  1  0.45629857  0.28048562  0.87407229  1.0
  Zn  Zn427  1  0.45629857  0.61381895  0.87407229  1.0
  Zn  Zn428  1  0.45629857  0.94715229  0.87407229  1.0
  Zn  Zn429  1  0.78963190  0.28048562  0.87407229  1.0
  Zn  Zn430  1  0.78963190  0.61381895  0.87407229  1.0
  Zn  Zn431  1  0.78963190  0.94715229  0.87407229  1.0
  Zn  Zn432  1  0.11513000  0.00522867  0.91164200  1.0
  Zn  Zn433  1  0.11513000  0.33856200  0.91164200  1.0
  Zn  Zn434  1  0.11513000  0.67189533  0.91164200  1.0
  Zn  Zn435  1  0.44846333  0.00522867  0.91164200  1.0
  Zn  Zn436  1  0.44846333  0.33856200  0.91164200  1.0
  Zn  Zn437  1  0.44846333  0.67189533  0.91164200  1.0
  Zn  Zn438  1  0.78179667  0.00522867  0.91164200  1.0
  Zn  Zn439  1  0.78179667  0.33856200  0.91164200  1.0
  Zn  Zn440  1  0.78179667  0.67189533  0.91164200  1.0
  Zn  Zn441  1  0.25798714  0.24332390  0.98307057  1.0
  Zn  Zn442  1  0.25798714  0.57665724  0.98307057  1.0
  Zn  Zn443  1  0.25798714  0.90999057  0.98307057  1.0
  Zn  Zn444  1  0.59132048  0.24332390  0.98307057  1.0
  Zn  Zn445  1  0.59132048  0.57665724  0.98307057  1.0
  Zn  Zn446  1  0.59132048  0.90999057  0.98307057  1.0
  Zn  Zn447  1  0.92465381  0.24332390  0.98307057  1.0
  Zn  Zn448  1  0.92465381  0.57665724  0.98307057  1.0
  Zn  Zn449  1  0.92465381  0.90999057  0.98307057  1.0
  Zn  Zn450  1  0.00669895  0.11767981  0.91767214  1.0
  Zn  Zn451  1  0.00669895  0.45101314  0.91767214  1.0
  Zn  Zn452  1  0.00669895  0.78434648  0.91767214  1.0
  Zn  Zn453  1  0.34003229  0.11767981  0.91767214  1.0
  Zn  Zn454  1  0.34003229  0.45101314  0.91767214  1.0
  Zn  Zn455  1  0.34003229  0.78434648  0.91767214  1.0
  Zn  Zn456  1  0.67336562  0.11767981  0.91767214  1.0
  Zn  Zn457  1  0.67336562  0.45101314  0.91767214  1.0
  Zn  Zn458  1  0.67336562  0.78434648  0.91767214  1.0
  Zn  Zn459  1  0.14955610  0.02244171  0.98910071  1.0
  Zn  Zn460  1  0.14955610  0.35577505  0.98910071  1.0
  Zn  Zn461  1  0.14955610  0.68910838  0.98910071  1.0
  Zn  Zn462  1  0.48288943  0.02244171  0.98910071  1.0
  Zn  Zn463  1  0.48288943  0.35577505  0.98910071  1.0
  Zn  Zn464  1  0.48288943  0.68910838  0.98910071  1.0
  Zn  Zn465  1  0.81622276  0.02244171  0.98910071  1.0
  Zn  Zn466  1  0.81622276  0.35577505  0.98910071  1.0
  Zn  Zn467  1  0.81622276  0.68910838  0.98910071  1.0
  Zn  Zn468  1  0.04092010  0.07279638  0.93947071  1.0
  Zn  Zn469  1  0.04092010  0.40612971  0.93947071  1.0
  Zn  Zn470  1  0.04092010  0.73946305  0.93947071  1.0
  Zn  Zn471  1  0.37425343  0.07279638  0.93947071  1.0
  Zn  Zn472  1  0.37425343  0.40612971  0.93947071  1.0
  Zn  Zn473  1  0.37425343  0.73946305  0.93947071  1.0
  Zn  Zn474  1  0.70758676  0.07279638  0.93947071  1.0
  Zn  Zn475  1  0.70758676  0.40612971  0.93947071  1.0
  Zn  Zn476  1  0.70758676  0.73946305  0.93947071  1.0
  Zn  Zn477  1  0.23139629  0.16803448  0.86804214  1.0
  Zn  Zn478  1  0.23139629  0.50136781  0.86804214  1.0
  Zn  Zn479  1  0.23139629  0.83470114  0.86804214  1.0
  Zn  Zn480  1  0.56472962  0.16803448  0.86804214  1.0
  Zn  Zn481  1  0.56472962  0.50136781  0.86804214  1.0
  Zn  Zn482  1  0.56472962  0.83470114  0.86804214  1.0
  Zn  Zn483  1  0.89806295  0.16803448  0.86804214  1.0
  Zn  Zn484  1  0.89806295  0.50136781  0.86804214  1.0
  Zn  Zn485  1  0.89806295  0.83470114  0.86804214  1.0
  Zn  Zn486  1  0.04826938  0.25468086  0.90449236  1.0
  Zn  Zn487  1  0.04826938  0.58801419  0.90449236  1.0
  Zn  Zn488  1  0.04826938  0.92134752  0.90449236  1.0
  Zn  Zn489  1  0.38160271  0.25468086  0.90449236  1.0
  Zn  Zn490  1  0.38160271  0.58801419  0.90449236  1.0
  Zn  Zn491  1  0.38160271  0.92134752  0.90449236  1.0
  Zn  Zn492  1  0.71493605  0.25468086  0.90449236  1.0
  Zn  Zn493  1  0.71493605  0.58801419  0.90449236  1.0
  Zn  Zn494  1  0.71493605  0.92134752  0.90449236  1.0
  Zn  Zn495  1  0.19112652  0.15944276  0.97592093  1.0
  Zn  Zn496  1  0.19112652  0.49277610  0.97592093  1.0
  Zn  Zn497  1  0.19112652  0.82610943  0.97592093  1.0
  Zn  Zn498  1  0.52445986  0.15944276  0.97592093  1.0
  Zn  Zn499  1  0.52445986  0.49277610  0.97592093  1.0
  Zn  Zn500  1  0.52445986  0.82610943  0.97592093  1.0
  Zn  Zn501  1  0.85779319  0.15944276  0.97592093  1.0
  Zn  Zn502  1  0.85779319  0.49277610  0.97592093  1.0
  Zn  Zn503  1  0.85779319  0.82610943  0.97592093  1.0
  Zn  Zn504  1  0.33268300  0.26912867  0.95265050  1.0
  Zn  Zn505  1  0.33268300  0.60246200  0.95265050  1.0
  Zn  Zn506  1  0.33268300  0.93579533  0.95265050  1.0
  Zn  Zn507  1  0.66601633  0.26912867  0.95265050  1.0
  Zn  Zn508  1  0.66601633  0.60246200  0.95265050  1.0
  Zn  Zn509  1  0.66601633  0.93579533  0.95265050  1.0
  Zn  Zn510  1  0.99934967  0.26912867  0.95265050  1.0
  Zn  Zn511  1  0.99934967  0.60246200  0.95265050  1.0
  Zn  Zn512  1  0.99934967  0.93579533  0.95265050  1.0
  Zn  Zn513  1  0.18982586  0.03103343  0.88122193  1.0
  Zn  Zn514  1  0.18982586  0.36436676  0.88122193  1.0
  Zn  Zn515  1  0.18982586  0.69770010  0.88122193  1.0
  Zn  Zn516  1  0.52315919  0.03103343  0.88122193  1.0
  Zn  Zn517  1  0.52315919  0.36436676  0.88122193  1.0
  Zn  Zn518  1  0.52315919  0.69770010  0.88122193  1.0
  Zn  Zn519  1  0.85649252  0.03103343  0.88122193  1.0
  Zn  Zn520  1  0.85649252  0.36436676  0.88122193  1.0
  Zn  Zn521  1  0.85649252  0.69770010  0.88122193  1.0
  Zn  Zn522  1  0.08323033  0.14440233  0.89138200  1.0
  Zn  Zn523  1  0.08323033  0.47773567  0.89138200  1.0
  Zn  Zn524  1  0.08323033  0.81106900  0.89138200  1.0
  Zn  Zn525  1  0.41656367  0.14440233  0.89138200  1.0
  Zn  Zn526  1  0.41656367  0.47773567  0.89138200  1.0
  Zn  Zn527  1  0.41656367  0.81106900  0.89138200  1.0
  Zn  Zn528  1  0.74989700  0.14440233  0.89138200  1.0
  Zn  Zn529  1  0.74989700  0.47773567  0.89138200  1.0
  Zn  Zn530  1  0.74989700  0.81106900  0.89138200  1.0
  Zn  Zn531  1  0.22608748  0.04916424  0.96281057  1.0
  Zn  Zn532  1  0.22608748  0.38249757  0.96281057  1.0
  Zn  Zn533  1  0.22608748  0.71583090  0.96281057  1.0
  Zn  Zn534  1  0.55942081  0.04916424  0.96281057  1.0
  Zn  Zn535  1  0.55942081  0.38249757  0.96281057  1.0
  Zn  Zn536  1  0.55942081  0.71583090  0.96281057  1.0
  Zn  Zn537  1  0.89275414  0.04916424  0.96281057  1.0
  Zn  Zn538  1  0.89275414  0.38249757  0.96281057  1.0
  Zn  Zn539  1  0.89275414  0.71583090  0.96281057  1.0
  Zn  Zn540  1  0.29772205  0.04607386  0.96576086  1.0
  Zn  Zn541  1  0.29772205  0.37940719  0.96576086  1.0
  Zn  Zn542  1  0.29772205  0.71274052  0.96576086  1.0
  Zn  Zn543  1  0.63105538  0.04607386  0.96576086  1.0
  Zn  Zn544  1  0.63105538  0.37940719  0.96576086  1.0
  Zn  Zn545  1  0.63105538  0.71274052  0.96576086  1.0
  Zn  Zn546  1  0.96438871  0.04607386  0.96576086  1.0
  Zn  Zn547  1  0.96438871  0.37940719  0.96576086  1.0
  Zn  Zn548  1  0.96438871  0.71274052  0.96576086  1.0
  Zn  Zn549  1  0.15486490  0.14131195  0.89433229  1.0
  Zn  Zn550  1  0.15486490  0.47464529  0.89433229  1.0
  Zn  Zn551  1  0.15486490  0.80797862  0.89433229  1.0
  Zn  Zn552  1  0.48819824  0.14131195  0.89433229  1.0
  Zn  Zn553  1  0.48819824  0.47464529  0.89433229  1.0
  Zn  Zn554  1  0.48819824  0.80797862  0.89433229  1.0
  Zn  Zn555  1  0.82153157  0.14131195  0.89433229  1.0
  Zn  Zn556  1  0.82153157  0.47464529  0.89433229  1.0
  Zn  Zn557  1  0.82153157  0.80797862  0.89433229  1.0
  Zn  Zn558  1  0.08608167  0.19569800  0.76713800  1.0
  Zn  Zn559  1  0.08608167  0.52903133  0.76713800  1.0
  Zn  Zn560  1  0.08608167  0.86236467  0.76713800  1.0
  Zn  Zn561  1  0.41941500  0.19569800  0.76713800  1.0
  Zn  Zn562  1  0.41941500  0.52903133  0.76713800  1.0
  Zn  Zn563  1  0.41941500  0.86236467  0.76713800  1.0
  Zn  Zn564  1  0.75274833  0.19569800  0.76713800  1.0
  Zn  Zn565  1  0.75274833  0.52903133  0.76713800  1.0
  Zn  Zn566  1  0.75274833  0.86236467  0.76713800  1.0
  Zn  Zn567  1  0.22893881  0.10045990  0.83856657  1.0
  Zn  Zn568  1  0.22893881  0.43379324  0.83856657  1.0
  Zn  Zn569  1  0.22893881  0.76712657  0.83856657  1.0
  Zn  Zn570  1  0.56227214  0.10045990  0.83856657  1.0
  Zn  Zn571  1  0.56227214  0.43379324  0.83856657  1.0
  Zn  Zn572  1  0.56227214  0.76712657  0.83856657  1.0
  Zn  Zn573  1  0.89560548  0.10045990  0.83856657  1.0
  Zn  Zn574  1  0.89560548  0.43379324  0.83856657  1.0
  Zn  Zn575  1  0.89560548  0.76712657  0.83856657  1.0
  Zn  Zn576  1  0.05677548  0.04239724  0.80429057  1.0
  Zn  Zn577  1  0.05677548  0.37573057  0.80429057  1.0
  Zn  Zn578  1  0.05677548  0.70906390  0.80429057  1.0
  Zn  Zn579  1  0.39010881  0.04239724  0.80429057  1.0
  Zn  Zn580  1  0.39010881  0.37573057  0.80429057  1.0
  Zn  Zn581  1  0.39010881  0.70906390  0.80429057  1.0
  Zn  Zn582  1  0.72344214  0.04239724  0.80429057  1.0
  Zn  Zn583  1  0.72344214  0.37573057  0.80429057  1.0
  Zn  Zn584  1  0.72344214  0.70906390  0.80429057  1.0
  Zn  Zn585  1  0.24725167  0.13763533  0.73286200  1.0
  Zn  Zn586  1  0.24725167  0.47096867  0.73286200  1.0
  Zn  Zn587  1  0.24725167  0.80430200  0.73286200  1.0
  Zn  Zn588  1  0.58058500  0.13763533  0.73286200  1.0
  Zn  Zn589  1  0.58058500  0.47096867  0.73286200  1.0
  Zn  Zn590  1  0.58058500  0.80430200  0.73286200  1.0
  Zn  Zn591  1  0.91391833  0.13763533  0.73286200  1.0
  Zn  Zn592  1  0.91391833  0.47096867  0.73286200  1.0
  Zn  Zn593  1  0.91391833  0.80430200  0.73286200  1.0
  Zn  Zn594  1  0.14204681  0.25169957  0.74615107  1.0
  Zn  Zn595  1  0.14204681  0.58503290  0.74615107  1.0
  Zn  Zn596  1  0.14204681  0.91836624  0.74615107  1.0
  Zn  Zn597  1  0.47538014  0.25169957  0.74615107  1.0
  Zn  Zn598  1  0.47538014  0.58503290  0.74615107  1.0
  Zn  Zn599  1  0.47538014  0.91836624  0.74615107  1.0
  Zn  Zn600  1  0.80871348  0.25169957  0.74615107  1.0
  Zn  Zn601  1  0.80871348  0.58503290  0.74615107  1.0
  Zn  Zn602  1  0.80871348  0.91836624  0.74615107  1.0
  Zn  Zn603  1  0.28490395  0.15646148  0.81757964  1.0
  Zn  Zn604  1  0.28490395  0.48979481  0.81757964  1.0
  Zn  Zn605  1  0.28490395  0.82312814  0.81757964  1.0
  Zn  Zn606  1  0.61823729  0.15646148  0.81757964  1.0
  Zn  Zn607  1  0.61823729  0.48979481  0.81757964  1.0
  Zn  Zn608  1  0.61823729  0.82312814  0.81757964  1.0
  Zn  Zn609  1  0.95157062  0.15646148  0.81757964  1.0
  Zn  Zn610  1  0.95157062  0.48979481  0.81757964  1.0
  Zn  Zn611  1  0.95157062  0.82312814  0.81757964  1.0
  Zn  Zn612  1  0.00081033  0.31972900  0.82527750  1.0
  Zn  Zn613  1  0.00081033  0.65306233  0.82527750  1.0
  Zn  Zn614  1  0.00081033  0.98639567  0.82527750  1.0
  Zn  Zn615  1  0.33414367  0.31972900  0.82527750  1.0
  Zn  Zn616  1  0.33414367  0.65306233  0.82527750  1.0
  Zn  Zn617  1  0.33414367  0.98639567  0.82527750  1.0
  Zn  Zn618  1  0.66747700  0.31972900  0.82527750  1.0
  Zn  Zn619  1  0.66747700  0.65306233  0.82527750  1.0
  Zn  Zn620  1  0.66747700  0.98639567  0.82527750  1.0
  Zn  Zn621  1  0.19128652  0.08163376  0.75384893  1.0
  Zn  Zn622  1  0.19128652  0.41496710  0.75384893  1.0
  Zn  Zn623  1  0.19128652  0.74830043  0.75384893  1.0
  Zn  Zn624  1  0.52461986  0.08163376  0.75384893  1.0
  Zn  Zn625  1  0.52461986  0.41496710  0.75384893  1.0
  Zn  Zn626  1  0.52461986  0.74830043  0.75384893  1.0
  Zn  Zn627  1  0.85795319  0.08163376  0.75384893  1.0
  Zn  Zn628  1  0.85795319  0.41496710  0.75384893  1.0
  Zn  Zn629  1  0.85795319  0.74830043  0.75384893  1.0
  Zn  Zn630  1  0.26880371  0.30106852  0.85480836  1.0
  Zn  Zn631  1  0.26880371  0.63440186  0.85480836  1.0
  Zn  Zn632  1  0.26880371  0.96773519  0.85480836  1.0
  Zn  Zn633  1  0.60213705  0.30106852  0.85480836  1.0
  Zn  Zn634  1  0.60213705  0.63440186  0.85480836  1.0
  Zn  Zn635  1  0.60213705  0.96773519  0.85480836  1.0
  Zn  Zn636  1  0.93547038  0.30106852  0.85480836  1.0
  Zn  Zn637  1  0.93547038  0.63440186  0.85480836  1.0
  Zn  Zn638  1  0.93547038  0.96773519  0.85480836  1.0
  Zn  Zn639  1  0.12594657  0.06297329  0.78337979  1.0
  Zn  Zn640  1  0.12594657  0.39630662  0.78337979  1.0
  Zn  Zn641  1  0.12594657  0.72963995  0.78337979  1.0
  Zn  Zn642  1  0.45927990  0.06297329  0.78337979  1.0
  Zn  Zn643  1  0.45927990  0.39630662  0.78337979  1.0
  Zn  Zn644  1  0.45927990  0.72963995  0.78337979  1.0
  Zn  Zn645  1  0.79261324  0.06297329  0.78337979  1.0
  Zn  Zn646  1  0.79261324  0.39630662  0.78337979  1.0
  Zn  Zn647  1  0.79261324  0.72963995  0.78337979  1.0
  Zn  Zn648  1  0.01691057  0.17512195  0.78804879  1.0
  Zn  Zn649  1  0.01691057  0.50845529  0.78804879  1.0
  Zn  Zn650  1  0.01691057  0.84178862  0.78804879  1.0
  Zn  Zn651  1  0.35024390  0.17512195  0.78804879  1.0
  Zn  Zn652  1  0.35024390  0.50845529  0.78804879  1.0
  Zn  Zn653  1  0.35024390  0.84178862  0.78804879  1.0
  Zn  Zn654  1  0.68357724  0.17512195  0.78804879  1.0
  Zn  Zn655  1  0.68357724  0.50845529  0.78804879  1.0
  Zn  Zn656  1  0.68357724  0.84178862  0.78804879  1.0
  Zn  Zn657  1  0.20738676  0.27036005  0.71662021  1.0
  Zn  Zn658  1  0.20738676  0.60369338  0.71662021  1.0
  Zn  Zn659  1  0.20738676  0.93702671  0.71662021  1.0
  Zn  Zn660  1  0.54072010  0.27036005  0.71662021  1.0
  Zn  Zn661  1  0.54072010  0.60369338  0.71662021  1.0
  Zn  Zn662  1  0.54072010  0.93702671  0.71662021  1.0
  Zn  Zn663  1  0.87405343  0.27036005  0.71662021  1.0
  Zn  Zn664  1  0.87405343  0.60369338  0.71662021  1.0
  Zn  Zn665  1  0.87405343  0.93702671  0.71662021  1.0
  Zn  Zn666  1  0.16473143  0.30551038  0.81322571  1.0
  Zn  Zn667  1  0.16473143  0.63884371  0.81322571  1.0
  Zn  Zn668  1  0.16473143  0.97217705  0.81322571  1.0
  Zn  Zn669  1  0.49806476  0.30551038  0.81322571  1.0
  Zn  Zn670  1  0.49806476  0.63884371  0.81322571  1.0
  Zn  Zn671  1  0.49806476  0.97217705  0.81322571  1.0
  Zn  Zn672  1  0.83139810  0.30551038  0.81322571  1.0
  Zn  Zn673  1  0.83139810  0.63884371  0.81322571  1.0
  Zn  Zn674  1  0.83139810  0.97217705  0.81322571  1.0
  Zn  Zn675  1  0.02187429  0.06741514  0.74179714  1.0
  Zn  Zn676  1  0.02187429  0.40074848  0.74179714  1.0
  Zn  Zn677  1  0.02187429  0.73408181  0.74179714  1.0
  Zn  Zn678  1  0.35520762  0.06741514  0.74179714  1.0
  Zn  Zn679  1  0.35520762  0.40074848  0.74179714  1.0
  Zn  Zn680  1  0.35520762  0.73408181  0.74179714  1.0
  Zn  Zn681  1  0.68854095  0.06741514  0.74179714  1.0
  Zn  Zn682  1  0.68854095  0.40074848  0.74179714  1.0
  Zn  Zn683  1  0.68854095  0.73408181  0.74179714  1.0
  Zn  Zn684  1  0.31145905  0.26591819  0.75820286  1.0
  Zn  Zn685  1  0.31145905  0.59925152  0.75820286  1.0
  Zn  Zn686  1  0.31145905  0.93258486  0.75820286  1.0
  Zn  Zn687  1  0.64479238  0.26591819  0.75820286  1.0
  Zn  Zn688  1  0.64479238  0.59925152  0.75820286  1.0
  Zn  Zn689  1  0.64479238  0.93258486  0.75820286  1.0
  Zn  Zn690  1  0.97812571  0.26591819  0.75820286  1.0
  Zn  Zn691  1  0.97812571  0.59925152  0.75820286  1.0
  Zn  Zn692  1  0.97812571  0.93258486  0.75820286  1.0
  Zn  Zn693  1  0.12098286  0.17068010  0.82963143  1.0
  Zn  Zn694  1  0.12098286  0.50401343  0.82963143  1.0
  Zn  Zn695  1  0.12098286  0.83734676  0.82963143  1.0
  Zn  Zn696  1  0.45431619  0.17068010  0.82963143  1.0
  Zn  Zn697  1  0.45431619  0.50401343  0.82963143  1.0
  Zn  Zn698  1  0.45431619  0.83734676  0.82963143  1.0
  Zn  Zn699  1  0.78764952  0.17068010  0.82963143  1.0
  Zn  Zn700  1  0.78764952  0.50401343  0.82963143  1.0
  Zn  Zn701  1  0.78764952  0.83734676  0.82963143  1.0
  Zn  Zn702  1  0.07666933  0.21292267  0.84624900  1.0
  Zn  Zn703  1  0.07666933  0.54625600  0.84624900  1.0
  Zn  Zn704  1  0.07666933  0.87958933  0.84624900  1.0
  Zn  Zn705  1  0.41000267  0.21292267  0.84624900  1.0
  Zn  Zn706  1  0.41000267  0.54625600  0.84624900  1.0
  Zn  Zn707  1  0.41000267  0.87958933  0.84624900  1.0
  Zn  Zn708  1  0.74333600  0.21292267  0.84624900  1.0
  Zn  Zn709  1  0.74333600  0.54625600  0.84624900  1.0
  Zn  Zn710  1  0.74333600  0.87958933  0.84624900  1.0
  Zn  Zn711  1  0.26714552  0.30816076  0.77482043  1.0
  Zn  Zn712  1  0.26714552  0.64149410  0.77482043  1.0
  Zn  Zn713  1  0.26714552  0.97482743  0.77482043  1.0
  Zn  Zn714  1  0.60047886  0.30816076  0.77482043  1.0
  Zn  Zn715  1  0.60047886  0.64149410  0.77482043  1.0
  Zn  Zn716  1  0.60047886  0.97482743  0.77482043  1.0
  Zn  Zn717  1  0.93381219  0.30816076  0.77482043  1.0
  Zn  Zn718  1  0.93381219  0.64149410  0.77482043  1.0
  Zn  Zn719  1  0.93381219  0.97482743  0.77482043  1.0
  Zn  Zn720  1  0.06618781  0.02517257  0.72517957  1.0
  Zn  Zn721  1  0.06618781  0.35850590  0.72517957  1.0
  Zn  Zn722  1  0.06618781  0.69183924  0.72517957  1.0
  Zn  Zn723  1  0.39952114  0.02517257  0.72517957  1.0
  Zn  Zn724  1  0.39952114  0.35850590  0.72517957  1.0
  Zn  Zn725  1  0.39952114  0.69183924  0.72517957  1.0
  Zn  Zn726  1  0.73285448  0.02517257  0.72517957  1.0
  Zn  Zn727  1  0.73285448  0.35850590  0.72517957  1.0
  Zn  Zn728  1  0.73285448  0.69183924  0.72517957  1.0
  Zn  Zn729  1  0.20904495  0.26326781  0.79660814  1.0
  Zn  Zn730  1  0.20904495  0.59660114  0.79660814  1.0
  Zn  Zn731  1  0.20904495  0.92993448  0.79660814  1.0
  Zn  Zn732  1  0.54237829  0.26326781  0.79660814  1.0
  Zn  Zn733  1  0.54237829  0.59660114  0.79660814  1.0
  Zn  Zn734  1  0.54237829  0.92993448  0.79660814  1.0
  Zn  Zn735  1  0.87571162  0.26326781  0.79660814  1.0
  Zn  Zn736  1  0.87571162  0.59660114  0.79660814  1.0
  Zn  Zn737  1  0.87571162  0.92993448  0.79660814  1.0
  Zn  Zn738  1  0.02377771  0.22779952  0.74108336  1.0
  Zn  Zn739  1  0.02377771  0.56113286  0.74108336  1.0
  Zn  Zn740  1  0.02377771  0.89446619  0.74108336  1.0
  Zn  Zn741  1  0.35711105  0.22779952  0.74108336  1.0
  Zn  Zn742  1  0.35711105  0.56113286  0.74108336  1.0
  Zn  Zn743  1  0.35711105  0.89446619  0.74108336  1.0
  Zn  Zn744  1  0.69044438  0.22779952  0.74108336  1.0
  Zn  Zn745  1  0.69044438  0.56113286  0.74108336  1.0
  Zn  Zn746  1  0.69044438  0.89446619  0.74108336  1.0
  Zn  Zn747  1  0.16663486  0.13256143  0.81251193  1.0
  Zn  Zn748  1  0.16663486  0.46589476  0.81251193  1.0
  Zn  Zn749  1  0.16663486  0.79922810  0.81251193  1.0
  Zn  Zn750  1  0.49996819  0.13256143  0.81251193  1.0
  Zn  Zn751  1  0.49996819  0.46589476  0.81251193  1.0
  Zn  Zn752  1  0.49996819  0.79922810  0.81251193  1.0
  Zn  Zn753  1  0.83330152  0.13256143  0.81251193  1.0
  Zn  Zn754  1  0.83330152  0.46589476  0.81251193  1.0
  Zn  Zn755  1  0.83330152  0.79922810  0.81251193  1.0
  Zn  Zn756  1  0.11907943  0.01029571  0.83034521  1.0
  Zn  Zn757  1  0.11907943  0.34362905  0.83034521  1.0
  Zn  Zn758  1  0.11907943  0.67696238  0.83034521  1.0
  Zn  Zn759  1  0.45241276  0.01029571  0.83034521  1.0
  Zn  Zn760  1  0.45241276  0.34362905  0.83034521  1.0
  Zn  Zn761  1  0.45241276  0.67696238  0.83034521  1.0
  Zn  Zn762  1  0.78574610  0.01029571  0.83034521  1.0
  Zn  Zn763  1  0.78574610  0.34362905  0.83034521  1.0
  Zn  Zn764  1  0.78574610  0.67696238  0.83034521  1.0
  Zn  Zn765  1  0.30955562  0.10553381  0.75891664  1.0
  Zn  Zn766  1  0.30955562  0.43886714  0.75891664  1.0
  Zn  Zn767  1  0.30955562  0.77220048  0.75891664  1.0
  Zn  Zn768  1  0.64288895  0.10553381  0.75891664  1.0
  Zn  Zn769  1  0.64288895  0.43886714  0.75891664  1.0
  Zn  Zn770  1  0.64288895  0.77220048  0.75891664  1.0
  Zn  Zn771  1  0.97622229  0.10553381  0.75891664  1.0
  Zn  Zn772  1  0.97622229  0.43886714  0.75891664  1.0
  Zn  Zn773  1  0.97622229  0.77220048  0.75891664  1.0
  Zn  Zn774  1  0.05951105  0.30109552  0.85268336  1.0
  Zn  Zn775  1  0.05951105  0.63442886  0.85268336  1.0
  Zn  Zn776  1  0.05951105  0.96776219  0.85268336  1.0
  Zn  Zn777  1  0.39284438  0.30109552  0.85268336  1.0
  Zn  Zn778  1  0.39284438  0.63442886  0.85268336  1.0
  Zn  Zn779  1  0.39284438  0.96776219  0.85268336  1.0
  Zn  Zn780  1  0.72617771  0.30109552  0.85268336  1.0
  Zn  Zn781  1  0.72617771  0.63442886  0.85268336  1.0
  Zn  Zn782  1  0.72617771  0.96776219  0.85268336  1.0
  Zn  Zn783  1  0.24998724  0.06300029  0.78125479  1.0
  Zn  Zn784  1  0.24998724  0.39633362  0.78125479  1.0
  Zn  Zn785  1  0.24998724  0.72966695  0.78125479  1.0
  Zn  Zn786  1  0.58332057  0.06300029  0.78125479  1.0
  Zn  Zn787  1  0.58332057  0.39633362  0.78125479  1.0
  Zn  Zn788  1  0.58332057  0.72966695  0.78125479  1.0
  Zn  Zn789  1  0.91665390  0.06300029  0.78125479  1.0
  Zn  Zn790  1  0.91665390  0.39633362  0.78125479  1.0
  Zn  Zn791  1  0.91665390  0.72966695  0.78125479  1.0
  Zn  Zn792  1  0.08334610  0.27033305  0.71874521  1.0
  Zn  Zn793  1  0.08334610  0.60366638  0.71874521  1.0
  Zn  Zn794  1  0.08334610  0.93699971  0.71874521  1.0
  Zn  Zn795  1  0.41667943  0.27033305  0.71874521  1.0
  Zn  Zn796  1  0.41667943  0.60366638  0.71874521  1.0
  Zn  Zn797  1  0.41667943  0.93699971  0.71874521  1.0
  Zn  Zn798  1  0.75001276  0.27033305  0.71874521  1.0
  Zn  Zn799  1  0.75001276  0.60366638  0.71874521  1.0
  Zn  Zn800  1  0.75001276  0.93699971  0.71874521  1.0
  Zn  Zn801  1  0.22620324  0.17509495  0.79017379  1.0
  Zn  Zn802  1  0.22620324  0.50842829  0.79017379  1.0
  Zn  Zn803  1  0.22620324  0.84176162  0.79017379  1.0
  Zn  Zn804  1  0.55953657  0.17509495  0.79017379  1.0
  Zn  Zn805  1  0.55953657  0.50842829  0.79017379  1.0
  Zn  Zn806  1  0.55953657  0.84176162  0.79017379  1.0
  Zn  Zn807  1  0.89286990  0.17509495  0.79017379  1.0
  Zn  Zn808  1  0.89286990  0.50842829  0.79017379  1.0
  Zn  Zn809  1  0.89286990  0.84176162  0.79017379  1.0
  Zn  Zn810  1  0.31344143  0.04239038  0.80264371  1.0
  Zn  Zn811  1  0.31344143  0.37572371  0.80264371  1.0
  Zn  Zn812  1  0.31344143  0.70905705  0.80264371  1.0
  Zn  Zn813  1  0.64677476  0.04239038  0.80264371  1.0
  Zn  Zn814  1  0.64677476  0.37572371  0.80264371  1.0
  Zn  Zn815  1  0.64677476  0.70905705  0.80264371  1.0
  Zn  Zn816  1  0.98010810  0.04239038  0.80264371  1.0
  Zn  Zn817  1  0.98010810  0.37572371  0.80264371  1.0
  Zn  Zn818  1  0.98010810  0.70905705  0.80264371  1.0
  Zn  Zn819  1  0.17058429  0.13762848  0.73121514  1.0
  Zn  Zn820  1  0.17058429  0.47096181  0.73121514  1.0
  Zn  Zn821  1  0.17058429  0.80429514  0.73121514  1.0
  Zn  Zn822  1  0.50391762  0.13762848  0.73121514  1.0
  Zn  Zn823  1  0.50391762  0.47096181  0.73121514  1.0
  Zn  Zn824  1  0.50391762  0.80429514  0.73121514  1.0
  Zn  Zn825  1  0.83725095  0.13762848  0.73121514  1.0
  Zn  Zn826  1  0.83725095  0.47096181  0.73121514  1.0
  Zn  Zn827  1  0.83725095  0.80429514  0.73121514  1.0
  Zn  Zn828  1  0.16274905  0.19570486  0.76878486  1.0
  Zn  Zn829  1  0.16274905  0.52903819  0.76878486  1.0
  Zn  Zn830  1  0.16274905  0.86237152  0.76878486  1.0
  Zn  Zn831  1  0.49608238  0.19570486  0.76878486  1.0
  Zn  Zn832  1  0.49608238  0.52903819  0.76878486  1.0
  Zn  Zn833  1  0.49608238  0.86237152  0.76878486  1.0
  Zn  Zn834  1  0.82941571  0.19570486  0.76878486  1.0
  Zn  Zn835  1  0.82941571  0.52903819  0.76878486  1.0
  Zn  Zn836  1  0.82941571  0.86237152  0.76878486  1.0
  Zn  Zn837  1  0.30560619  0.10046676  0.84021343  1.0
  Zn  Zn838  1  0.30560619  0.43380010  0.84021343  1.0
  Zn  Zn839  1  0.30560619  0.76713343  0.84021343  1.0
  Zn  Zn840  1  0.63893952  0.10046676  0.84021343  1.0
  Zn  Zn841  1  0.63893952  0.43380010  0.84021343  1.0
  Zn  Zn842  1  0.63893952  0.76713343  0.84021343  1.0
  Zn  Zn843  1  0.97227286  0.10046676  0.84021343  1.0
  Zn  Zn844  1  0.97227286  0.43380010  0.84021343  1.0
  Zn  Zn845  1  0.97227286  0.76713343  0.84021343  1.0
  Zn  Zn846  1  0.05431800  0.30815600  0.77481500  1.0
  Zn  Zn847  1  0.05431800  0.64148933  0.77481500  1.0
  Zn  Zn848  1  0.05431800  0.97482267  0.77481500  1.0
  Zn  Zn849  1  0.38765133  0.30815600  0.77481500  1.0
  Zn  Zn850  1  0.38765133  0.64148933  0.77481500  1.0
  Zn  Zn851  1  0.38765133  0.97482267  0.77481500  1.0
  Zn  Zn852  1  0.72098467  0.30815600  0.77481500  1.0
  Zn  Zn853  1  0.72098467  0.64148933  0.77481500  1.0
  Zn  Zn854  1  0.72098467  0.97482267  0.77481500  1.0
  Zn  Zn855  1  0.19717514  0.21291790  0.84624357  1.0
  Zn  Zn856  1  0.19717514  0.54625124  0.84624357  1.0
  Zn  Zn857  1  0.19717514  0.87958457  0.84624357  1.0
  Zn  Zn858  1  0.53050848  0.21291790  0.84624357  1.0
  Zn  Zn859  1  0.53050848  0.54625124  0.84624357  1.0
  Zn  Zn860  1  0.53050848  0.87958457  0.84624357  1.0
  Zn  Zn861  1  0.86384181  0.21291790  0.84624357  1.0
  Zn  Zn862  1  0.86384181  0.54625124  0.84624357  1.0
  Zn  Zn863  1  0.86384181  0.87958457  0.84624357  1.0
  Zn  Zn864  1  0.08853914  0.26327257  0.79661357  1.0
  Zn  Zn865  1  0.08853914  0.59660590  0.79661357  1.0
  Zn  Zn866  1  0.08853914  0.92993924  0.79661357  1.0
  Zn  Zn867  1  0.42187248  0.26327257  0.79661357  1.0
  Zn  Zn868  1  0.42187248  0.59660590  0.79661357  1.0
  Zn  Zn869  1  0.42187248  0.92993924  0.79661357  1.0
  Zn  Zn870  1  0.75520581  0.26327257  0.79661357  1.0
  Zn  Zn871  1  0.75520581  0.59660590  0.79661357  1.0
  Zn  Zn872  1  0.75520581  0.92993924  0.79661357  1.0
  Zn  Zn873  1  0.27901533  0.02517733  0.72518500  1.0
  Zn  Zn874  1  0.27901533  0.35851067  0.72518500  1.0
  Zn  Zn875  1  0.27901533  0.69184400  0.72518500  1.0
  Zn  Zn876  1  0.61234867  0.02517733  0.72518500  1.0
  Zn  Zn877  1  0.61234867  0.35851067  0.72518500  1.0
  Zn  Zn878  1  0.61234867  0.69184400  0.72518500  1.0
  Zn  Zn879  1  0.94568200  0.02517733  0.72518500  1.0
  Zn  Zn880  1  0.94568200  0.35851067  0.72518500  1.0
  Zn  Zn881  1  0.94568200  0.69184400  0.72518500  1.0
  Zn  Zn882  1  0.09588843  0.11182371  0.76163521  1.0
  Zn  Zn883  1  0.09588843  0.44515705  0.76163521  1.0
  Zn  Zn884  1  0.09588843  0.77849038  0.76163521  1.0
  Zn  Zn885  1  0.42922176  0.11182371  0.76163521  1.0
  Zn  Zn886  1  0.42922176  0.44515705  0.76163521  1.0
  Zn  Zn887  1  0.42922176  0.77849038  0.76163521  1.0
  Zn  Zn888  1  0.76255510  0.11182371  0.76163521  1.0
  Zn  Zn889  1  0.76255510  0.44515705  0.76163521  1.0
  Zn  Zn890  1  0.76255510  0.77849038  0.76163521  1.0
  Zn  Zn891  1  0.23874557  0.01658562  0.83306379  1.0
  Zn  Zn892  1  0.23874557  0.34991895  0.83306379  1.0
  Zn  Zn893  1  0.23874557  0.68325229  0.83306379  1.0
  Zn  Zn894  1  0.57207890  0.01658562  0.83306379  1.0
  Zn  Zn895  1  0.57207890  0.34991895  0.83306379  1.0
  Zn  Zn896  1  0.57207890  0.68325229  0.83306379  1.0
  Zn  Zn897  1  0.90541224  0.01658562  0.83306379  1.0
  Zn  Zn898  1  0.90541224  0.34991895  0.83306379  1.0
  Zn  Zn899  1  0.90541224  0.68325229  0.83306379  1.0
  Zn  Zn900  1  0.04696871  0.12627152  0.80979336  1.0
  Zn  Zn901  1  0.04696871  0.45960486  0.80979336  1.0
  Zn  Zn902  1  0.04696871  0.79293819  0.80979336  1.0
  Zn  Zn903  1  0.38030205  0.12627152  0.80979336  1.0
  Zn  Zn904  1  0.38030205  0.45960486  0.80979336  1.0
  Zn  Zn905  1  0.38030205  0.79293819  0.80979336  1.0
  Zn  Zn906  1  0.71363538  0.12627152  0.80979336  1.0
  Zn  Zn907  1  0.71363538  0.45960486  0.80979336  1.0
  Zn  Zn908  1  0.71363538  0.79293819  0.80979336  1.0
  Zn  Zn909  1  0.23744490  0.22150962  0.73836479  1.0
  Zn  Zn910  1  0.23744490  0.55484295  0.73836479  1.0
  Zn  Zn911  1  0.23744490  0.88817629  0.73836479  1.0
  Zn  Zn912  1  0.57077824  0.22150962  0.73836479  1.0
  Zn  Zn913  1  0.57077824  0.55484295  0.73836479  1.0
  Zn  Zn914  1  0.57077824  0.88817629  0.73836479  1.0
  Zn  Zn915  1  0.90411157  0.22150962  0.73836479  1.0
  Zn  Zn916  1  0.90411157  0.55484295  0.73836479  1.0
  Zn  Zn917  1  0.90411157  0.88817629  0.73836479  1.0
  Zn  Zn918  1  0.13084938  0.00154519  0.74852486  1.0
  Zn  Zn919  1  0.13084938  0.33487852  0.74852486  1.0
  Zn  Zn920  1  0.13084938  0.66821186  0.74852486  1.0
  Zn  Zn921  1  0.46418271  0.00154519  0.74852486  1.0
  Zn  Zn922  1  0.46418271  0.33487852  0.74852486  1.0
  Zn  Zn923  1  0.46418271  0.66821186  0.74852486  1.0
  Zn  Zn924  1  0.79751605  0.00154519  0.74852486  1.0
  Zn  Zn925  1  0.79751605  0.33487852  0.74852486  1.0
  Zn  Zn926  1  0.79751605  0.66821186  0.74852486  1.0
  Zn  Zn927  1  0.27370652  0.23964043  0.81995343  1.0
  Zn  Zn928  1  0.27370652  0.57297376  0.81995343  1.0
  Zn  Zn929  1  0.27370652  0.90630710  0.81995343  1.0
  Zn  Zn930  1  0.60703986  0.23964043  0.81995343  1.0
  Zn  Zn931  1  0.60703986  0.57297376  0.81995343  1.0
  Zn  Zn932  1  0.60703986  0.90630710  0.81995343  1.0
  Zn  Zn933  1  0.94037319  0.23964043  0.81995343  1.0
  Zn  Zn934  1  0.94037319  0.57297376  0.81995343  1.0
  Zn  Zn935  1  0.94037319  0.90630710  0.81995343  1.0
  Zn  Zn936  1  0.01200776  0.23655005  0.82290371  1.0
  Zn  Zn937  1  0.01200776  0.56988338  0.82290371  1.0
  Zn  Zn938  1  0.01200776  0.90321671  0.82290371  1.0
  Zn  Zn939  1  0.34534110  0.23655005  0.82290371  1.0
  Zn  Zn940  1  0.34534110  0.56988338  0.82290371  1.0
  Zn  Zn941  1  0.34534110  0.90321671  0.82290371  1.0
  Zn  Zn942  1  0.67867443  0.23655005  0.82290371  1.0
  Zn  Zn943  1  0.67867443  0.56988338  0.82290371  1.0
  Zn  Zn944  1  0.67867443  0.90321671  0.82290371  1.0
  Zn  Zn945  1  0.20248395  0.33178814  0.75147514  1.0
  Zn  Zn946  1  0.20248395  0.66512148  0.75147514  1.0
  Zn  Zn947  1  0.20248395  0.99845481  0.75147514  1.0
  Zn  Zn948  1  0.53581729  0.33178814  0.75147514  1.0
  Zn  Zn949  1  0.53581729  0.66512148  0.75147514  1.0
  Zn  Zn950  1  0.53581729  0.99845481  0.75147514  1.0
  Zn  Zn951  1  0.86915062  0.33178814  0.75147514  1.0
  Zn  Zn952  1  0.86915062  0.66512148  0.75147514  1.0
  Zn  Zn953  1  0.86915062  0.99845481  0.75147514  1.0
  Zn  Zn954  1  0.13370071  0.05284086  0.62428086  1.0
  Zn  Zn955  1  0.13370071  0.38617419  0.62428086  1.0
  Zn  Zn956  1  0.13370071  0.71950752  0.62428086  1.0
  Zn  Zn957  1  0.46703405  0.05284086  0.62428086  1.0
  Zn  Zn958  1  0.46703405  0.38617419  0.62428086  1.0
  Zn  Zn959  1  0.46703405  0.71950752  0.62428086  1.0
  Zn  Zn960  1  0.80036738  0.05284086  0.62428086  1.0
  Zn  Zn961  1  0.80036738  0.38617419  0.62428086  1.0
  Zn  Zn962  1  0.80036738  0.71950752  0.62428086  1.0
  Zn  Zn963  1  0.27655786  0.29093610  0.69570943  1.0
  Zn  Zn964  1  0.27655786  0.62426943  0.69570943  1.0
  Zn  Zn965  1  0.27655786  0.95760276  0.69570943  1.0
  Zn  Zn966  1  0.60989119  0.29093610  0.69570943  1.0
  Zn  Zn967  1  0.60989119  0.62426943  0.69570943  1.0
  Zn  Zn968  1  0.60989119  0.95760276  0.69570943  1.0
  Zn  Zn969  1  0.94322452  0.29093610  0.69570943  1.0
  Zn  Zn970  1  0.94322452  0.62426943  0.69570943  1.0
  Zn  Zn971  1  0.94322452  0.95760276  0.69570943  1.0
  Zn  Zn972  1  0.10439452  0.23287343  0.66143343  1.0
  Zn  Zn973  1  0.10439452  0.56620676  0.66143343  1.0
  Zn  Zn974  1  0.10439452  0.89954010  0.66143343  1.0
  Zn  Zn975  1  0.43772786  0.23287343  0.66143343  1.0
  Zn  Zn976  1  0.43772786  0.56620676  0.66143343  1.0
  Zn  Zn977  1  0.43772786  0.89954010  0.66143343  1.0
  Zn  Zn978  1  0.77106119  0.23287343  0.66143343  1.0
  Zn  Zn979  1  0.77106119  0.56620676  0.66143343  1.0
  Zn  Zn980  1  0.77106119  0.89954010  0.66143343  1.0
  Zn  Zn981  1  0.29487071  0.32811152  0.59000486  1.0
  Zn  Zn982  1  0.29487071  0.66144486  0.59000486  1.0
  Zn  Zn983  1  0.29487071  0.99477819  0.59000486  1.0
  Zn  Zn984  1  0.62820405  0.32811152  0.59000486  1.0
  Zn  Zn985  1  0.62820405  0.66144486  0.59000486  1.0
  Zn  Zn986  1  0.62820405  0.99477819  0.59000486  1.0
  Zn  Zn987  1  0.96153738  0.32811152  0.59000486  1.0
  Zn  Zn988  1  0.96153738  0.66144486  0.59000486  1.0
  Zn  Zn989  1  0.96153738  0.99477819  0.59000486  1.0
  Zn  Zn990  1  0.18966586  0.10884243  0.60329393  1.0
  Zn  Zn991  1  0.18966586  0.44217576  0.60329393  1.0
  Zn  Zn992  1  0.18966586  0.77550910  0.60329393  1.0
  Zn  Zn993  1  0.52299919  0.10884243  0.60329393  1.0
  Zn  Zn994  1  0.52299919  0.44217576  0.60329393  1.0
  Zn  Zn995  1  0.52299919  0.77550910  0.60329393  1.0
  Zn  Zn996  1  0.85633252  0.10884243  0.60329393  1.0
  Zn  Zn997  1  0.85633252  0.44217576  0.60329393  1.0
  Zn  Zn998  1  0.85633252  0.77550910  0.60329393  1.0
  Zn  Zn999  1  0.33252300  0.01360433  0.67472250  1.0
  Zn  Zn1000  1  0.33252300  0.34693767  0.67472250  1.0
  Zn  Zn1001  1  0.33252300  0.68027100  0.67472250  1.0
  Zn  Zn1002  1  0.66585633  0.01360433  0.67472250  1.0
  Zn  Zn1003  1  0.66585633  0.34693767  0.67472250  1.0
  Zn  Zn1004  1  0.66585633  0.68027100  0.67472250  1.0
  Zn  Zn1005  1  0.99918967  0.01360433  0.67472250  1.0
  Zn  Zn1006  1  0.99918967  0.34693767  0.67472250  1.0
  Zn  Zn1007  1  0.99918967  0.68027100  0.67472250  1.0
  Zn  Zn1008  1  0.04842938  0.17687186  0.68242036  1.0
  Zn  Zn1009  1  0.04842938  0.51020519  0.68242036  1.0
  Zn  Zn1010  1  0.04842938  0.84353852  0.68242036  1.0
  Zn  Zn1011  1  0.38176271  0.17687186  0.68242036  1.0
  Zn  Zn1012  1  0.38176271  0.51020519  0.68242036  1.0
  Zn  Zn1013  1  0.38176271  0.84353852  0.68242036  1.0
  Zn  Zn1014  1  0.71509605  0.17687186  0.68242036  1.0
  Zn  Zn1015  1  0.71509605  0.51020519  0.68242036  1.0
  Zn  Zn1016  1  0.71509605  0.84353852  0.68242036  1.0
  Zn  Zn1017  1  0.23890557  0.27210995  0.61099179  1.0
  Zn  Zn1018  1  0.23890557  0.60544329  0.61099179  1.0
  Zn  Zn1019  1  0.23890557  0.93877662  0.61099179  1.0
  Zn  Zn1020  1  0.57223890  0.27210995  0.61099179  1.0
  Zn  Zn1021  1  0.57223890  0.60544329  0.61099179  1.0
  Zn  Zn1022  1  0.57223890  0.93877662  0.61099179  1.0
  Zn  Zn1023  1  0.90557224  0.27210995  0.61099179  1.0
  Zn  Zn1024  1  0.90557224  0.60544329  0.61099179  1.0
  Zn  Zn1025  1  0.90557224  0.93877662  0.61099179  1.0
  Zn  Zn1026  1  0.31642276  0.15821138  0.71195121  1.0
  Zn  Zn1027  1  0.31642276  0.49154471  0.71195121  1.0
  Zn  Zn1028  1  0.31642276  0.82487805  0.71195121  1.0
  Zn  Zn1029  1  0.64975610  0.15821138  0.71195121  1.0
  Zn  Zn1030  1  0.64975610  0.49154471  0.71195121  1.0
  Zn  Zn1031  1  0.64975610  0.82487805  0.71195121  1.0
  Zn  Zn1032  1  0.98308943  0.15821138  0.71195121  1.0
  Zn  Zn1033  1  0.98308943  0.49154471  0.71195121  1.0
  Zn  Zn1034  1  0.98308943  0.82487805  0.71195121  1.0
  Zn  Zn1035  1  0.17356562  0.25344948  0.64052264  1.0
  Zn  Zn1036  1  0.17356562  0.58678281  0.64052264  1.0
  Zn  Zn1037  1  0.17356562  0.92011614  0.64052264  1.0
  Zn  Zn1038  1  0.50689895  0.25344948  0.64052264  1.0
  Zn  Zn1039  1  0.50689895  0.58678281  0.64052264  1.0
  Zn  Zn1040  1  0.50689895  0.92011614  0.64052264  1.0
  Zn  Zn1041  1  0.84023229  0.25344948  0.64052264  1.0
  Zn  Zn1042  1  0.84023229  0.58678281  0.64052264  1.0
  Zn  Zn1043  1  0.84023229  0.92011614  0.64052264  1.0
  Zn  Zn1044  1  0.06452962  0.03226481  0.64519164  1.0
  Zn  Zn1045  1  0.06452962  0.36559814  0.64519164  1.0
  Zn  Zn1046  1  0.06452962  0.69893148  0.64519164  1.0
  Zn  Zn1047  1  0.39786295  0.03226481  0.64519164  1.0
  Zn  Zn1048  1  0.39786295  0.36559814  0.64519164  1.0
  Zn  Zn1049  1  0.39786295  0.69893148  0.64519164  1.0
  Zn  Zn1050  1  0.73119629  0.03226481  0.64519164  1.0
  Zn  Zn1051  1  0.73119629  0.36559814  0.64519164  1.0
  Zn  Zn1052  1  0.73119629  0.69893148  0.64519164  1.0
  Zn  Zn1053  1  0.25500581  0.12750290  0.57376307  1.0
  Zn  Zn1054  1  0.25500581  0.46083624  0.57376307  1.0
  Zn  Zn1055  1  0.25500581  0.79416957  0.57376307  1.0
  Zn  Zn1056  1  0.58833914  0.12750290  0.57376307  1.0
  Zn  Zn1057  1  0.58833914  0.46083624  0.57376307  1.0
  Zn  Zn1058  1  0.58833914  0.79416957  0.57376307  1.0
  Zn  Zn1059  1  0.92167248  0.12750290  0.57376307  1.0
  Zn  Zn1060  1  0.92167248  0.46083624  0.57376307  1.0
  Zn  Zn1061  1  0.92167248  0.79416957  0.57376307  1.0
  Zn  Zn1062  1  0.21235048  0.16265324  0.67036857  1.0
  Zn  Zn1063  1  0.21235048  0.49598657  0.67036857  1.0
  Zn  Zn1064  1  0.21235048  0.82931990  0.67036857  1.0
  Zn  Zn1065  1  0.54568381  0.16265324  0.67036857  1.0
  Zn  Zn1066  1  0.54568381  0.49598657  0.67036857  1.0
  Zn  Zn1067  1  0.54568381  0.82931990  0.67036857  1.0
  Zn  Zn1068  1  0.87901714  0.16265324  0.67036857  1.0
  Zn  Zn1069  1  0.87901714  0.49598657  0.67036857  1.0
  Zn  Zn1070  1  0.87901714  0.82931990  0.67036857  1.0
  Zn  Zn1071  1  0.06949333  0.25789133  0.59894000  1.0
  Zn  Zn1072  1  0.06949333  0.59122467  0.59894000  1.0
  Zn  Zn1073  1  0.06949333  0.92455800  0.59894000  1.0
  Zn  Zn1074  1  0.40282667  0.25789133  0.59894000  1.0
  Zn  Zn1075  1  0.40282667  0.59122467  0.59894000  1.0
  Zn  Zn1076  1  0.40282667  0.92455800  0.59894000  1.0
  Zn  Zn1077  1  0.73616000  0.25789133  0.59894000  1.0
  Zn  Zn1078  1  0.73616000  0.59122467  0.59894000  1.0
  Zn  Zn1079  1  0.73616000  0.92455800  0.59894000  1.0
  Zn  Zn1080  1  0.02574476  0.12306105  0.61534571  1.0
  Zn  Zn1081  1  0.02574476  0.45639438  0.61534571  1.0
  Zn  Zn1082  1  0.02574476  0.78972771  0.61534571  1.0
  Zn  Zn1083  1  0.35907810  0.12306105  0.61534571  1.0
  Zn  Zn1084  1  0.35907810  0.45639438  0.61534571  1.0
  Zn  Zn1085  1  0.35907810  0.78972771  0.61534571  1.0
  Zn  Zn1086  1  0.69241143  0.12306105  0.61534571  1.0
  Zn  Zn1087  1  0.69241143  0.45639438  0.61534571  1.0
  Zn  Zn1088  1  0.69241143  0.78972771  0.61534571  1.0
  Zn  Zn1089  1  0.16860190  0.02782295  0.68677429  1.0
  Zn  Zn1090  1  0.16860190  0.36115629  0.68677429  1.0
  Zn  Zn1091  1  0.16860190  0.69448962  0.68677429  1.0
  Zn  Zn1092  1  0.50193524  0.02782295  0.68677429  1.0
  Zn  Zn1093  1  0.50193524  0.36115629  0.68677429  1.0
  Zn  Zn1094  1  0.50193524  0.69448962  0.68677429  1.0
  Zn  Zn1095  1  0.83526857  0.02782295  0.68677429  1.0
  Zn  Zn1096  1  0.83526857  0.36115629  0.68677429  1.0
  Zn  Zn1097  1  0.83526857  0.69448962  0.68677429  1.0
  Zn  Zn1098  1  0.12428838  0.07006552  0.70339186  1.0
  Zn  Zn1099  1  0.12428838  0.40339886  0.70339186  1.0
  Zn  Zn1100  1  0.12428838  0.73673219  0.70339186  1.0
  Zn  Zn1101  1  0.45762171  0.07006552  0.70339186  1.0
  Zn  Zn1102  1  0.45762171  0.40339886  0.70339186  1.0
  Zn  Zn1103  1  0.45762171  0.73673219  0.70339186  1.0
  Zn  Zn1104  1  0.79095505  0.07006552  0.70339186  1.0
  Zn  Zn1105  1  0.79095505  0.40339886  0.70339186  1.0
  Zn  Zn1106  1  0.79095505  0.73673219  0.70339186  1.0
  Zn  Zn1107  1  0.31476457  0.16530362  0.63196329  1.0
  Zn  Zn1108  1  0.31476457  0.49863695  0.63196329  1.0
  Zn  Zn1109  1  0.31476457  0.83197029  0.63196329  1.0
  Zn  Zn1110  1  0.64809790  0.16530362  0.63196329  1.0
  Zn  Zn1111  1  0.64809790  0.49863695  0.63196329  1.0
  Zn  Zn1112  1  0.64809790  0.83197029  0.63196329  1.0
  Zn  Zn1113  1  0.98143124  0.16530362  0.63196329  1.0
  Zn  Zn1114  1  0.98143124  0.49863695  0.63196329  1.0
  Zn  Zn1115  1  0.98143124  0.83197029  0.63196329  1.0
  Zn  Zn1116  1  0.11380686  0.21564876  0.58232243  1.0
  Zn  Zn1117  1  0.11380686  0.54898210  0.58232243  1.0
  Zn  Zn1118  1  0.11380686  0.88231543  0.58232243  1.0
  Zn  Zn1119  1  0.44714019  0.21564876  0.58232243  1.0
  Zn  Zn1120  1  0.44714019  0.54898210  0.58232243  1.0
  Zn  Zn1121  1  0.44714019  0.88231543  0.58232243  1.0
  Zn  Zn1122  1  0.78047352  0.21564876  0.58232243  1.0
  Zn  Zn1123  1  0.78047352  0.54898210  0.58232243  1.0
  Zn  Zn1124  1  0.78047352  0.88231543  0.58232243  1.0
  Zn  Zn1125  1  0.25666400  0.12041067  0.65375100  1.0
  Zn  Zn1126  1  0.25666400  0.45374400  0.65375100  1.0
  Zn  Zn1127  1  0.25666400  0.78707733  0.65375100  1.0
  Zn  Zn1128  1  0.58999733  0.12041067  0.65375100  1.0
  Zn  Zn1129  1  0.58999733  0.45374400  0.65375100  1.0
  Zn  Zn1130  1  0.58999733  0.78707733  0.65375100  1.0
  Zn  Zn1131  1  0.92333067  0.12041067  0.65375100  1.0
  Zn  Zn1132  1  0.92333067  0.45374400  0.65375100  1.0
  Zn  Zn1133  1  0.92333067  0.78707733  0.65375100  1.0
  Zn  Zn1134  1  0.07139676  0.08494238  0.59822621  1.0
  Zn  Zn1135  1  0.07139676  0.41827571  0.59822621  1.0
  Zn  Zn1136  1  0.07139676  0.75160905  0.59822621  1.0
  Zn  Zn1137  1  0.40473010  0.08494238  0.59822621  1.0
  Zn  Zn1138  1  0.40473010  0.41827571  0.59822621  1.0
  Zn  Zn1139  1  0.40473010  0.75160905  0.59822621  1.0
  Zn  Zn1140  1  0.73806343  0.08494238  0.59822621  1.0
  Zn  Zn1141  1  0.73806343  0.41827571  0.59822621  1.0
  Zn  Zn1142  1  0.73806343  0.75160905  0.59822621  1.0
  Zn  Zn1143  1  0.21425390  0.32303762  0.66965479  1.0
  Zn  Zn1144  1  0.21425390  0.65637095  0.66965479  1.0
  Zn  Zn1145  1  0.21425390  0.98970429  0.66965479  1.0
  Zn  Zn1146  1  0.54758724  0.32303762  0.66965479  1.0
  Zn  Zn1147  1  0.54758724  0.65637095  0.66965479  1.0
  Zn  Zn1148  1  0.54758724  0.98970429  0.66965479  1.0
  Zn  Zn1149  1  0.88092057  0.32303762  0.66965479  1.0
  Zn  Zn1150  1  0.88092057  0.65637095  0.66965479  1.0
  Zn  Zn1151  1  0.88092057  0.98970429  0.66965479  1.0
  Zn  Zn1152  1  0.16669848  0.20077190  0.68748807  1.0
  Zn  Zn1153  1  0.16669848  0.53410524  0.68748807  1.0
  Zn  Zn1154  1  0.16669848  0.86743857  0.68748807  1.0
  Zn  Zn1155  1  0.50003181  0.20077190  0.68748807  1.0
  Zn  Zn1156  1  0.50003181  0.53410524  0.68748807  1.0
  Zn  Zn1157  1  0.50003181  0.86743857  0.68748807  1.0
  Zn  Zn1158  1  0.83336514  0.20077190  0.68748807  1.0
  Zn  Zn1159  1  0.83336514  0.53410524  0.68748807  1.0
  Zn  Zn1160  1  0.83336514  0.86743857  0.68748807  1.0
  Zn  Zn1161  1  0.02384133  0.29601000  0.61605950  1.0
  Zn  Zn1162  1  0.02384133  0.62934333  0.61605950  1.0
  Zn  Zn1163  1  0.02384133  0.96267667  0.61605950  1.0
  Zn  Zn1164  1  0.35717467  0.29601000  0.61605950  1.0
  Zn  Zn1165  1  0.35717467  0.62934333  0.61605950  1.0
  Zn  Zn1166  1  0.35717467  0.96267667  0.61605950  1.0
  Zn  Zn1167  1  0.69050800  0.29601000  0.61605950  1.0
  Zn  Zn1168  1  0.69050800  0.62934333  0.61605950  1.0
  Zn  Zn1169  1  0.69050800  0.96267667  0.61605950  1.0
  Zn  Zn1170  1  0.10713010  0.15823838  0.70982621  1.0
  Zn  Zn1171  1  0.10713010  0.49157171  0.70982621  1.0
  Zn  Zn1172  1  0.10713010  0.82490505  0.70982621  1.0
  Zn  Zn1173  1  0.44046343  0.15823838  0.70982621  1.0
  Zn  Zn1174  1  0.44046343  0.49157171  0.70982621  1.0
  Zn  Zn1175  1  0.44046343  0.82490505  0.70982621  1.0
  Zn  Zn1176  1  0.77379676  0.15823838  0.70982621  1.0
  Zn  Zn1177  1  0.77379676  0.49157171  0.70982621  1.0
  Zn  Zn1178  1  0.77379676  0.82490505  0.70982621  1.0
  Zn  Zn1179  1  0.29760629  0.25347648  0.63839764  1.0
  Zn  Zn1180  1  0.29760629  0.58680981  0.63839764  1.0
  Zn  Zn1181  1  0.29760629  0.92014314  0.63839764  1.0
  Zn  Zn1182  1  0.63093962  0.25347648  0.63839764  1.0
  Zn  Zn1183  1  0.63093962  0.58680981  0.63839764  1.0
  Zn  Zn1184  1  0.63093962  0.92014314  0.63839764  1.0
  Zn  Zn1185  1  0.96427295  0.25347648  0.63839764  1.0
  Zn  Zn1186  1  0.96427295  0.58680981  0.63839764  1.0
  Zn  Zn1187  1  0.96427295  0.92014314  0.63839764  1.0
  Zn  Zn1188  1  0.13096514  0.12747590  0.57588807  1.0
  Zn  Zn1189  1  0.13096514  0.46080924  0.57588807  1.0
  Zn  Zn1190  1  0.13096514  0.79414257  0.57588807  1.0
  Zn  Zn1191  1  0.46429848  0.12747590  0.57588807  1.0
  Zn  Zn1192  1  0.46429848  0.46080924  0.57588807  1.0
  Zn  Zn1193  1  0.46429848  0.79414257  0.57588807  1.0
  Zn  Zn1194  1  0.79763181  0.12747590  0.57588807  1.0
  Zn  Zn1195  1  0.79763181  0.46080924  0.57588807  1.0
  Zn  Zn1196  1  0.79763181  0.79414257  0.57588807  1.0
  Zn  Zn1197  1  0.27382229  0.03223781  0.64731664  1.0
  Zn  Zn1198  1  0.27382229  0.36557114  0.64731664  1.0
  Zn  Zn1199  1  0.27382229  0.69890448  0.64731664  1.0
  Zn  Zn1200  1  0.60715562  0.03223781  0.64731664  1.0
  Zn  Zn1201  1  0.60715562  0.36557114  0.64731664  1.0
  Zn  Zn1202  1  0.60715562  0.69890448  0.64731664  1.0
  Zn  Zn1203  1  0.94048895  0.03223781  0.64731664  1.0
  Zn  Zn1204  1  0.94048895  0.36557114  0.64731664  1.0
  Zn  Zn1205  1  0.94048895  0.69890448  0.64731664  1.0
  Zn  Zn1206  1  0.02772714  0.23286657  0.65978657  1.0
  Zn  Zn1207  1  0.02772714  0.56619990  0.65978657  1.0
  Zn  Zn1208  1  0.02772714  0.89953324  0.65978657  1.0
  Zn  Zn1209  1  0.36106048  0.23286657  0.65978657  1.0
  Zn  Zn1210  1  0.36106048  0.56619990  0.65978657  1.0
  Zn  Zn1211  1  0.36106048  0.89953324  0.65978657  1.0
  Zn  Zn1212  1  0.69439381  0.23286657  0.65978657  1.0
  Zn  Zn1213  1  0.69439381  0.56619990  0.65978657  1.0
  Zn  Zn1214  1  0.69439381  0.89953324  0.65978657  1.0
  Zn  Zn1215  1  0.21820333  0.32810467  0.58835800  1.0
  Zn  Zn1216  1  0.21820333  0.66143800  0.58835800  1.0
  Zn  Zn1217  1  0.21820333  0.99477133  0.58835800  1.0
  Zn  Zn1218  1  0.55153667  0.32810467  0.58835800  1.0
  Zn  Zn1219  1  0.55153667  0.66143800  0.58835800  1.0
  Zn  Zn1220  1  0.55153667  0.99477133  0.58835800  1.0
  Zn  Zn1221  1  0.88487000  0.32810467  0.58835800  1.0
  Zn  Zn1222  1  0.88487000  0.66143800  0.58835800  1.0
  Zn  Zn1223  1  0.88487000  0.99477133  0.58835800  1.0
  Zn  Zn1224  1  0.21036810  0.05284771  0.62592771  1.0
  Zn  Zn1225  1  0.21036810  0.38618105  0.62592771  1.0
  Zn  Zn1226  1  0.21036810  0.71951438  0.62592771  1.0
  Zn  Zn1227  1  0.54370143  0.05284771  0.62592771  1.0
  Zn  Zn1228  1  0.54370143  0.38618105  0.62592771  1.0
  Zn  Zn1229  1  0.54370143  0.71951438  0.62592771  1.0
  Zn  Zn1230  1  0.87703476  0.05284771  0.62592771  1.0
  Zn  Zn1231  1  0.87703476  0.38618105  0.62592771  1.0
  Zn  Zn1232  1  0.87703476  0.71951438  0.62592771  1.0
  Zn  Zn1233  1  0.01989190  0.29094295  0.69735629  1.0
  Zn  Zn1234  1  0.01989190  0.62427629  0.69735629  1.0
  Zn  Zn1235  1  0.01989190  0.95760962  0.69735629  1.0
  Zn  Zn1236  1  0.35322524  0.29094295  0.69735629  1.0
  Zn  Zn1237  1  0.35322524  0.62427629  0.69735629  1.0
  Zn  Zn1238  1  0.35322524  0.95760962  0.69735629  1.0
  Zn  Zn1239  1  0.68655857  0.29094295  0.69735629  1.0
  Zn  Zn1240  1  0.68655857  0.62427629  0.69735629  1.0
  Zn  Zn1241  1  0.68655857  0.95760962  0.69735629  1.0
  Zn  Zn1242  1  0.10193705  0.16529886  0.63195786  1.0
  Zn  Zn1243  1  0.10193705  0.49863219  0.63195786  1.0
  Zn  Zn1244  1  0.10193705  0.83196552  0.63195786  1.0
  Zn  Zn1245  1  0.43527038  0.16529886  0.63195786  1.0
  Zn  Zn1246  1  0.43527038  0.49863219  0.63195786  1.0
  Zn  Zn1247  1  0.43527038  0.83196552  0.63195786  1.0
  Zn  Zn1248  1  0.76860371  0.16529886  0.63195786  1.0
  Zn  Zn1249  1  0.76860371  0.49863219  0.63195786  1.0
  Zn  Zn1250  1  0.76860371  0.83196552  0.63195786  1.0
  Zn  Zn1251  1  0.24479419  0.07006076  0.70338643  1.0
  Zn  Zn1252  1  0.24479419  0.40339410  0.70338643  1.0
  Zn  Zn1253  1  0.24479419  0.73672743  0.70338643  1.0
  Zn  Zn1254  1  0.57812752  0.07006076  0.70338643  1.0
  Zn  Zn1255  1  0.57812752  0.40339410  0.70338643  1.0
  Zn  Zn1256  1  0.57812752  0.73672743  0.70338643  1.0
  Zn  Zn1257  1  0.91146086  0.07006076  0.70338643  1.0
  Zn  Zn1258  1  0.91146086  0.40339410  0.70338643  1.0
  Zn  Zn1259  1  0.91146086  0.73672743  0.70338643  1.0
  Zn  Zn1260  1  0.13615819  0.12041543  0.65375643  1.0
  Zn  Zn1261  1  0.13615819  0.45374876  0.65375643  1.0
  Zn  Zn1262  1  0.13615819  0.78708210  0.65375643  1.0
  Zn  Zn1263  1  0.46949152  0.12041543  0.65375643  1.0
  Zn  Zn1264  1  0.46949152  0.45374876  0.65375643  1.0
  Zn  Zn1265  1  0.46949152  0.78708210  0.65375643  1.0
  Zn  Zn1266  1  0.80282486  0.12041543  0.65375643  1.0
  Zn  Zn1267  1  0.80282486  0.45374876  0.65375643  1.0
  Zn  Zn1268  1  0.80282486  0.78708210  0.65375643  1.0
  Zn  Zn1269  1  0.32663438  0.21565352  0.58232786  1.0
  Zn  Zn1270  1  0.32663438  0.54898686  0.58232786  1.0
  Zn  Zn1271  1  0.32663438  0.88232019  0.58232786  1.0
  Zn  Zn1272  1  0.65996771  0.21565352  0.58232786  1.0
  Zn  Zn1273  1  0.65996771  0.54898686  0.58232786  1.0
  Zn  Zn1274  1  0.65996771  0.88232019  0.58232786  1.0
  Zn  Zn1275  1  0.99330105  0.21565352  0.58232786  1.0
  Zn  Zn1276  1  0.99330105  0.54898686  0.58232786  1.0
  Zn  Zn1277  1  0.99330105  0.88232019  0.58232786  1.0
  Zn  Zn1278  1  0.14350748  0.30229990  0.61877807  1.0
  Zn  Zn1279  1  0.14350748  0.63563324  0.61877807  1.0
  Zn  Zn1280  1  0.14350748  0.96896657  0.61877807  1.0
  Zn  Zn1281  1  0.47684081  0.30229990  0.61877807  1.0
  Zn  Zn1282  1  0.47684081  0.63563324  0.61877807  1.0
  Zn  Zn1283  1  0.47684081  0.96896657  0.61877807  1.0
  Zn  Zn1284  1  0.81017414  0.30229990  0.61877807  1.0
  Zn  Zn1285  1  0.81017414  0.63563324  0.61877807  1.0
  Zn  Zn1286  1  0.81017414  0.96896657  0.61877807  1.0
  Zn  Zn1287  1  0.28636462  0.20706181  0.69020664  1.0
  Zn  Zn1288  1  0.28636462  0.54039514  0.69020664  1.0
  Zn  Zn1289  1  0.28636462  0.87372848  0.69020664  1.0
  Zn  Zn1290  1  0.61969795  0.20706181  0.69020664  1.0
  Zn  Zn1291  1  0.61969795  0.54039514  0.69020664  1.0
  Zn  Zn1292  1  0.61969795  0.87372848  0.69020664  1.0
  Zn  Zn1293  1  0.95303129  0.20706181  0.69020664  1.0
  Zn  Zn1294  1  0.95303129  0.54039514  0.69020664  1.0
  Zn  Zn1295  1  0.95303129  0.87372848  0.69020664  1.0
  Zn  Zn1296  1  0.09458776  0.31674771  0.66693621  1.0
  Zn  Zn1297  1  0.09458776  0.65008105  0.66693621  1.0
  Zn  Zn1298  1  0.09458776  0.98341438  0.66693621  1.0
  Zn  Zn1299  1  0.42792110  0.31674771  0.66693621  1.0
  Zn  Zn1300  1  0.42792110  0.65008105  0.66693621  1.0
  Zn  Zn1301  1  0.42792110  0.98341438  0.66693621  1.0
  Zn  Zn1302  1  0.76125443  0.31674771  0.66693621  1.0
  Zn  Zn1303  1  0.76125443  0.65008105  0.66693621  1.0
  Zn  Zn1304  1  0.76125443  0.98341438  0.66693621  1.0
  Zn  Zn1305  1  0.28506395  0.07865248  0.59550764  1.0
  Zn  Zn1306  1  0.28506395  0.41198581  0.59550764  1.0
  Zn  Zn1307  1  0.28506395  0.74531914  0.59550764  1.0
  Zn  Zn1308  1  0.61839729  0.07865248  0.59550764  1.0
  Zn  Zn1309  1  0.61839729  0.41198581  0.59550764  1.0
  Zn  Zn1310  1  0.61839729  0.74531914  0.59550764  1.0
  Zn  Zn1311  1  0.95173062  0.07865248  0.59550764  1.0
  Zn  Zn1312  1  0.95173062  0.41198581  0.59550764  1.0
  Zn  Zn1313  1  0.95173062  0.74531914  0.59550764  1.0
  Zn  Zn1314  1  0.17846843  0.19202138  0.60566771  1.0
  Zn  Zn1315  1  0.17846843  0.52535471  0.60566771  1.0
  Zn  Zn1316  1  0.17846843  0.85868805  0.60566771  1.0
  Zn  Zn1317  1  0.51180176  0.19202138  0.60566771  1.0
  Zn  Zn1318  1  0.51180176  0.52535471  0.60566771  1.0
  Zn  Zn1319  1  0.51180176  0.85868805  0.60566771  1.0
  Zn  Zn1320  1  0.84513510  0.19202138  0.60566771  1.0
  Zn  Zn1321  1  0.84513510  0.52535471  0.60566771  1.0
  Zn  Zn1322  1  0.84513510  0.85868805  0.60566771  1.0
  Zn  Zn1323  1  0.32132557  0.09678329  0.67709629  1.0
  Zn  Zn1324  1  0.32132557  0.43011662  0.67709629  1.0
  Zn  Zn1325  1  0.32132557  0.76344995  0.67709629  1.0
  Zn  Zn1326  1  0.65465890  0.09678329  0.67709629  1.0
  Zn  Zn1327  1  0.65465890  0.43011662  0.67709629  1.0
  Zn  Zn1328  1  0.65465890  0.76344995  0.67709629  1.0
  Zn  Zn1329  1  0.98799224  0.09678329  0.67709629  1.0
  Zn  Zn1330  1  0.98799224  0.43011662  0.67709629  1.0
  Zn  Zn1331  1  0.98799224  0.76344995  0.67709629  1.0
  Zn  Zn1332  1  0.05962681  0.09369290  0.68004657  1.0
  Zn  Zn1333  1  0.05962681  0.42702624  0.68004657  1.0
  Zn  Zn1334  1  0.05962681  0.76035957  0.68004657  1.0
  Zn  Zn1335  1  0.39296014  0.09369290  0.68004657  1.0
  Zn  Zn1336  1  0.39296014  0.42702624  0.68004657  1.0
  Zn  Zn1337  1  0.39296014  0.76035957  0.68004657  1.0
  Zn  Zn1338  1  0.72629348  0.09369290  0.68004657  1.0
  Zn  Zn1339  1  0.72629348  0.42702624  0.68004657  1.0
  Zn  Zn1340  1  0.72629348  0.76035957  0.68004657  1.0
  Zn  Zn1341  1  0.25010300  0.18893100  0.60861800  1.0
  Zn  Zn1342  1  0.25010300  0.52226433  0.60861800  1.0
  Zn  Zn1343  1  0.25010300  0.85559767  0.60861800  1.0
  Zn  Zn1344  1  0.58343633  0.18893100  0.60861800  1.0
  Zn  Zn1345  1  0.58343633  0.52226433  0.60861800  1.0
  Zn  Zn1346  1  0.58343633  0.85559767  0.60861800  1.0
  Zn  Zn1347  1  0.91676967  0.18893100  0.60861800  1.0
  Zn  Zn1348  1  0.91676967  0.52226433  0.60861800  1.0
  Zn  Zn1349  1  0.91676967  0.85559767  0.60861800  1.0
