# generated using pymatgen
data_Zn22Ni3
_symmetry_space_group_name_H-M   'P 1'
_cell_length_a   40.09707601
_cell_length_b   37.09332293
_cell_length_c   68.83080579
_cell_angle_alpha   58.96956686
_cell_angle_beta   29.09457745
_cell_angle_gamma   40.77338223
_symmetry_Int_Tables_number   1
_chemical_formula_structural   Zn22Ni3
_chemical_formula_sum   'Zn792 Ni108'
_cell_volume   28856.80345048
_cell_formula_units_Z   36
loop_
 _symmetry_equiv_pos_site_id
 _symmetry_equiv_pos_as_xyz
  1  'x, y, z'
loop_
 _atom_site_type_symbol
 _atom_site_label
 _atom_site_symmetry_multiplicity
 _atom_site_fract_x
 _atom_site_fract_y
 _atom_site_fract_z
 _atom_site_occupancy
  Zn  Zn0  1  0.01109700  0.10368767  0.06568633  1.0
  Zn  Zn1  1  0.01109700  0.43702100  0.06568633  1.0
  Zn  Zn2  1  0.01109700  0.77035433  0.06568633  1.0
  Zn  Zn3  1  0.34443033  0.10368767  0.06568633  1.0
  Zn  Zn4  1  0.34443033  0.43702100  0.06568633  1.0
  Zn  Zn5  1  0.34443033  0.77035433  0.06568633  1.0
  Zn  Zn6  1  0.67776367  0.10368767  0.06568633  1.0
  Zn  Zn7  1  0.67776367  0.43702100  0.06568633  1.0
  Zn  Zn8  1  0.67776367  0.77035433  0.06568633  1.0
  Zn  Zn9  1  0.32223633  0.22964567  0.01981700  1.0
  Zn  Zn10  1  0.32223633  0.56297900  0.01981700  1.0
  Zn  Zn11  1  0.32223633  0.89631233  0.01981700  1.0
  Zn  Zn12  1  0.65556967  0.22964567  0.01981700  1.0
  Zn  Zn13  1  0.65556967  0.56297900  0.01981700  1.0
  Zn  Zn14  1  0.65556967  0.89631233  0.01981700  1.0
  Zn  Zn15  1  0.98890300  0.22964567  0.01981700  1.0
  Zn  Zn16  1  0.98890300  0.56297900  0.01981700  1.0
  Zn  Zn17  1  0.98890300  0.89631233  0.01981700  1.0
  Zn  Zn18  1  0.19045333  0.22964567  0.10767233  1.0
  Zn  Zn19  1  0.19045333  0.56297900  0.10767233  1.0
  Zn  Zn20  1  0.19045333  0.89631233  0.10767233  1.0
  Zn  Zn21  1  0.52378667  0.22964567  0.10767233  1.0
  Zn  Zn22  1  0.52378667  0.56297900  0.10767233  1.0
  Zn  Zn23  1  0.52378667  0.89631233  0.10767233  1.0
  Zn  Zn24  1  0.85712000  0.22964567  0.10767233  1.0
  Zn  Zn25  1  0.85712000  0.56297900  0.10767233  1.0
  Zn  Zn26  1  0.85712000  0.89631233  0.10767233  1.0
  Zn  Zn27  1  0.14288000  0.10368767  0.08894211  1.0
  Zn  Zn28  1  0.14288000  0.43702100  0.08894211  1.0
  Zn  Zn29  1  0.14288000  0.77035433  0.08894211  1.0
  Zn  Zn30  1  0.47621333  0.10368767  0.08894211  1.0
  Zn  Zn31  1  0.47621333  0.43702100  0.08894211  1.0
  Zn  Zn32  1  0.47621333  0.77035433  0.08894211  1.0
  Zn  Zn33  1  0.80954667  0.10368767  0.08894211  1.0
  Zn  Zn34  1  0.80954667  0.43702100  0.08894211  1.0
  Zn  Zn35  1  0.80954667  0.77035433  0.08894211  1.0
  Zn  Zn36  1  0.22585367  0.00000000  0.05884922  1.0
  Zn  Zn37  1  0.22585367  0.33333333  0.05884922  1.0
  Zn  Zn38  1  0.22585367  0.66666667  0.05884922  1.0
  Zn  Zn39  1  0.55918700  0.00000000  0.05884922  1.0
  Zn  Zn40  1  0.55918700  0.33333333  0.05884922  1.0
  Zn  Zn41  1  0.55918700  0.66666667  0.05884922  1.0
  Zn  Zn42  1  0.89252033  0.00000000  0.05884922  1.0
  Zn  Zn43  1  0.89252033  0.33333333  0.05884922  1.0
  Zn  Zn44  1  0.89252033  0.66666667  0.05884922  1.0
  Zn  Zn45  1  0.10747967  0.00000000  0.02665411  1.0
  Zn  Zn46  1  0.10747967  0.33333333  0.02665411  1.0
  Zn  Zn47  1  0.10747967  0.66666667  0.02665411  1.0
  Zn  Zn48  1  0.44081300  0.00000000  0.02665411  1.0
  Zn  Zn49  1  0.44081300  0.33333333  0.02665411  1.0
  Zn  Zn50  1  0.44081300  0.66666667  0.02665411  1.0
  Zn  Zn51  1  0.77414633  0.00000000  0.02665411  1.0
  Zn  Zn52  1  0.77414633  0.33333333  0.02665411  1.0
  Zn  Zn53  1  0.77414633  0.66666667  0.02665411  1.0
  Zn  Zn54  1  0.01543067  0.26142467  0.07433767  1.0
  Zn  Zn55  1  0.01543067  0.59475800  0.07433767  1.0
  Zn  Zn56  1  0.01543067  0.92809133  0.07433767  1.0
  Zn  Zn57  1  0.34876400  0.26142467  0.07433767  1.0
  Zn  Zn58  1  0.34876400  0.59475800  0.07433767  1.0
  Zn  Zn59  1  0.34876400  0.92809133  0.07433767  1.0
  Zn  Zn60  1  0.68209733  0.26142467  0.07433767  1.0
  Zn  Zn61  1  0.68209733  0.59475800  0.07433767  1.0
  Zn  Zn62  1  0.68209733  0.92809133  0.07433767  1.0
  Zn  Zn63  1  0.31790267  0.07190867  0.01116567  1.0
  Zn  Zn64  1  0.31790267  0.40524200  0.01116567  1.0
  Zn  Zn65  1  0.31790267  0.73857533  0.01116567  1.0
  Zn  Zn66  1  0.65123600  0.07190867  0.01116567  1.0
  Zn  Zn67  1  0.65123600  0.40524200  0.01116567  1.0
  Zn  Zn68  1  0.65123600  0.73857533  0.01116567  1.0
  Zn  Zn69  1  0.98456933  0.07190867  0.01116567  1.0
  Zn  Zn70  1  0.98456933  0.40524200  0.01116567  1.0
  Zn  Zn71  1  0.98456933  0.73857533  0.01116567  1.0
  Zn  Zn72  1  0.26665267  0.05875933  0.00678256  1.0
  Zn  Zn73  1  0.26665267  0.39209267  0.00678256  1.0
  Zn  Zn74  1  0.26665267  0.72542600  0.00678256  1.0
  Zn  Zn75  1  0.59998600  0.05875933  0.00678256  1.0
  Zn  Zn76  1  0.59998600  0.39209267  0.00678256  1.0
  Zn  Zn77  1  0.59998600  0.72542600  0.00678256  1.0
  Zn  Zn78  1  0.93331933  0.05875933  0.00678256  1.0
  Zn  Zn79  1  0.93331933  0.39209267  0.00678256  1.0
  Zn  Zn80  1  0.93331933  0.72542600  0.00678256  1.0
  Zn  Zn81  1  0.06668067  0.27457400  0.07872078  1.0
  Zn  Zn82  1  0.06668067  0.60790733  0.07872078  1.0
  Zn  Zn83  1  0.06668067  0.94124067  0.07872078  1.0
  Zn  Zn84  1  0.40001400  0.27457400  0.07872078  1.0
  Zn  Zn85  1  0.40001400  0.60790733  0.07872078  1.0
  Zn  Zn86  1  0.40001400  0.94124067  0.07872078  1.0
  Zn  Zn87  1  0.73334733  0.27457400  0.07872078  1.0
  Zn  Zn88  1  0.73334733  0.60790733  0.07872078  1.0
  Zn  Zn89  1  0.73334733  0.94124067  0.07872078  1.0
  Zn  Zn90  1  0.02656767  0.09085500  0.01748111  1.0
  Zn  Zn91  1  0.02656767  0.42418833  0.01748111  1.0
  Zn  Zn92  1  0.02656767  0.75752167  0.01748111  1.0
  Zn  Zn93  1  0.35990100  0.09085500  0.01748111  1.0
  Zn  Zn94  1  0.35990100  0.42418833  0.01748111  1.0
  Zn  Zn95  1  0.35990100  0.75752167  0.01748111  1.0
  Zn  Zn96  1  0.69323433  0.09085500  0.01748111  1.0
  Zn  Zn97  1  0.69323433  0.42418833  0.01748111  1.0
  Zn  Zn98  1  0.69323433  0.75752167  0.01748111  1.0
  Zn  Zn99  1  0.30676567  0.24247833  0.06802222  1.0
  Zn  Zn100  1  0.30676567  0.57581167  0.06802222  1.0
  Zn  Zn101  1  0.30676567  0.90914500  0.06802222  1.0
  Zn  Zn102  1  0.64009900  0.24247833  0.06802222  1.0
  Zn  Zn103  1  0.64009900  0.57581167  0.06802222  1.0
  Zn  Zn104  1  0.64009900  0.90914500  0.06802222  1.0
  Zn  Zn105  1  0.97343233  0.24247833  0.06802222  1.0
  Zn  Zn106  1  0.97343233  0.57581167  0.06802222  1.0
  Zn  Zn107  1  0.97343233  0.90914500  0.06802222  1.0
  Zn  Zn108  1  0.10317567  0.12548433  0.02902422  1.0
  Zn  Zn109  1  0.10317567  0.45881767  0.02902422  1.0
  Zn  Zn110  1  0.10317567  0.79215100  0.02902422  1.0
  Zn  Zn111  1  0.43650900  0.12548433  0.02902422  1.0
  Zn  Zn112  1  0.43650900  0.45881767  0.02902422  1.0
  Zn  Zn113  1  0.43650900  0.79215100  0.02902422  1.0
  Zn  Zn114  1  0.76984233  0.12548433  0.02902422  1.0
  Zn  Zn115  1  0.76984233  0.45881767  0.02902422  1.0
  Zn  Zn116  1  0.76984233  0.79215100  0.02902422  1.0
  Zn  Zn117  1  0.23015767  0.20784900  0.05647911  1.0
  Zn  Zn118  1  0.23015767  0.54118233  0.05647911  1.0
  Zn  Zn119  1  0.23015767  0.87451567  0.05647911  1.0
  Zn  Zn120  1  0.56349100  0.20784900  0.05647911  1.0
  Zn  Zn121  1  0.56349100  0.54118233  0.05647911  1.0
  Zn  Zn122  1  0.56349100  0.87451567  0.05647911  1.0
  Zn  Zn123  1  0.89682433  0.20784900  0.05647911  1.0
  Zn  Zn124  1  0.89682433  0.54118233  0.05647911  1.0
  Zn  Zn125  1  0.89682433  0.87451567  0.05647911  1.0
  Zn  Zn126  1  0.06668200  0.15406933  0.07871633  1.0
  Zn  Zn127  1  0.06668200  0.48740267  0.07871633  1.0
  Zn  Zn128  1  0.06668200  0.82073600  0.07871633  1.0
  Zn  Zn129  1  0.40001533  0.15406933  0.07871633  1.0
  Zn  Zn130  1  0.40001533  0.48740267  0.07871633  1.0
  Zn  Zn131  1  0.40001533  0.82073600  0.07871633  1.0
  Zn  Zn132  1  0.73334867  0.15406933  0.07871633  1.0
  Zn  Zn133  1  0.73334867  0.48740267  0.07871633  1.0
  Zn  Zn134  1  0.73334867  0.82073600  0.07871633  1.0
  Zn  Zn135  1  0.26665133  0.17926400  0.00678700  1.0
  Zn  Zn136  1  0.26665133  0.51259733  0.00678700  1.0
  Zn  Zn137  1  0.26665133  0.84593067  0.00678700  1.0
  Zn  Zn138  1  0.59998467  0.17926400  0.00678700  1.0
  Zn  Zn139  1  0.59998467  0.51259733  0.00678700  1.0
  Zn  Zn140  1  0.59998467  0.84593067  0.00678700  1.0
  Zn  Zn141  1  0.93331800  0.17926400  0.00678700  1.0
  Zn  Zn142  1  0.93331800  0.51259733  0.00678700  1.0
  Zn  Zn143  1  0.93331800  0.84593067  0.00678700  1.0
  Zn  Zn144  1  0.14616000  0.17926400  0.08711456  1.0
  Zn  Zn145  1  0.14616000  0.51259733  0.08711456  1.0
  Zn  Zn146  1  0.14616000  0.84593067  0.08711456  1.0
  Zn  Zn147  1  0.47949333  0.17926400  0.08711456  1.0
  Zn  Zn148  1  0.47949333  0.51259733  0.08711456  1.0
  Zn  Zn149  1  0.47949333  0.84593067  0.08711456  1.0
  Zn  Zn150  1  0.81282667  0.17926400  0.08711456  1.0
  Zn  Zn151  1  0.81282667  0.51259733  0.08711456  1.0
  Zn  Zn152  1  0.81282667  0.84593067  0.08711456  1.0
  Zn  Zn153  1  0.18717333  0.15406933  0.10949989  1.0
  Zn  Zn154  1  0.18717333  0.48740267  0.10949989  1.0
  Zn  Zn155  1  0.18717333  0.82073600  0.10949989  1.0
  Zn  Zn156  1  0.52050667  0.15406933  0.10949989  1.0
  Zn  Zn157  1  0.52050667  0.48740267  0.10949989  1.0
  Zn  Zn158  1  0.52050667  0.82073600  0.10949989  1.0
  Zn  Zn159  1  0.85384000  0.15406933  0.10949989  1.0
  Zn  Zn160  1  0.85384000  0.48740267  0.10949989  1.0
  Zn  Zn161  1  0.85384000  0.82073600  0.10949989  1.0
  Zn  Zn162  1  0.17270733  0.03328867  0.04059756  1.0
  Zn  Zn163  1  0.17270733  0.36662200  0.04059756  1.0
  Zn  Zn164  1  0.17270733  0.69995533  0.04059756  1.0
  Zn  Zn165  1  0.50604067  0.03328867  0.04059756  1.0
  Zn  Zn166  1  0.50604067  0.36662200  0.04059756  1.0
  Zn  Zn167  1  0.50604067  0.69995533  0.04059756  1.0
  Zn  Zn168  1  0.83937400  0.03328867  0.04059756  1.0
  Zn  Zn169  1  0.83937400  0.36662200  0.04059756  1.0
  Zn  Zn170  1  0.83937400  0.69995533  0.04059756  1.0
  Zn  Zn171  1  0.16062600  0.30004467  0.04490578  1.0
  Zn  Zn172  1  0.16062600  0.63337800  0.04490578  1.0
  Zn  Zn173  1  0.16062600  0.96671133  0.04490578  1.0
  Zn  Zn174  1  0.49395933  0.30004467  0.04490578  1.0
  Zn  Zn175  1  0.49395933  0.63337800  0.04490578  1.0
  Zn  Zn176  1  0.49395933  0.96671133  0.04490578  1.0
  Zn  Zn177  1  0.82729267  0.30004467  0.04490578  1.0
  Zn  Zn178  1  0.82729267  0.63337800  0.04490578  1.0
  Zn  Zn179  1  0.82729267  0.96671133  0.04490578  1.0
  Zn  Zn180  1  0.03371033  0.30004467  0.01840511  1.0
  Zn  Zn181  1  0.03371033  0.63337800  0.01840511  1.0
  Zn  Zn182  1  0.03371033  0.96671133  0.01840511  1.0
  Zn  Zn183  1  0.36704367  0.30004467  0.01840511  1.0
  Zn  Zn184  1  0.36704367  0.63337800  0.01840511  1.0
  Zn  Zn185  1  0.36704367  0.96671133  0.01840511  1.0
  Zn  Zn186  1  0.70037700  0.30004467  0.01840511  1.0
  Zn  Zn187  1  0.70037700  0.63337800  0.01840511  1.0
  Zn  Zn188  1  0.70037700  0.96671133  0.01840511  1.0
  Zn  Zn189  1  0.29962300  0.03328867  0.06709822  1.0
  Zn  Zn190  1  0.29962300  0.36662200  0.06709822  1.0
  Zn  Zn191  1  0.29962300  0.69995533  0.06709822  1.0
  Zn  Zn192  1  0.63295633  0.03328867  0.06709822  1.0
  Zn  Zn193  1  0.63295633  0.36662200  0.06709822  1.0
  Zn  Zn194  1  0.63295633  0.69995533  0.06709822  1.0
  Zn  Zn195  1  0.96628967  0.03328867  0.06709822  1.0
  Zn  Zn196  1  0.96628967  0.36662200  0.06709822  1.0
  Zn  Zn197  1  0.96628967  0.69995533  0.06709822  1.0
  Ni  Ni198  1  0.20120167  0.01805067  0.10432411  1.0
  Ni  Ni199  1  0.20120167  0.35138400  0.10432411  1.0
  Ni  Ni200  1  0.20120167  0.68471733  0.10432411  1.0
  Ni  Ni201  1  0.53453500  0.01805067  0.10432411  1.0
  Ni  Ni202  1  0.53453500  0.35138400  0.10432411  1.0
  Ni  Ni203  1  0.53453500  0.68471733  0.10432411  1.0
  Ni  Ni204  1  0.86786833  0.01805067  0.10432411  1.0
  Ni  Ni205  1  0.86786833  0.35138400  0.10432411  1.0
  Ni  Ni206  1  0.86786833  0.68471733  0.10432411  1.0
  Ni  Ni207  1  0.13213167  0.31528267  0.09229033  1.0
  Ni  Ni208  1  0.13213167  0.64861600  0.09229033  1.0
  Ni  Ni209  1  0.13213167  0.98194933  0.09229033  1.0
  Ni  Ni210  1  0.46546500  0.31528267  0.09229033  1.0
  Ni  Ni211  1  0.46546500  0.64861600  0.09229033  1.0
  Ni  Ni212  1  0.46546500  0.98194933  0.09229033  1.0
  Ni  Ni213  1  0.79879833  0.31528267  0.09229033  1.0
  Ni  Ni214  1  0.79879833  0.64861600  0.09229033  1.0
  Ni  Ni215  1  0.79879833  0.98194933  0.09229033  1.0
  Ni  Ni216  1  0.16666667  0.16666667  0.04275167  1.0
  Ni  Ni217  1  0.16666667  0.50000000  0.04275167  1.0
  Ni  Ni218  1  0.16666667  0.83333333  0.04275167  1.0
  Ni  Ni219  1  0.50000000  0.16666667  0.04275167  1.0
  Ni  Ni220  1  0.50000000  0.50000000  0.04275167  1.0
  Ni  Ni221  1  0.50000000  0.83333333  0.04275167  1.0
  Ni  Ni222  1  0.83333333  0.16666667  0.04275167  1.0
  Ni  Ni223  1  0.83333333  0.50000000  0.04275167  1.0
  Ni  Ni224  1  0.83333333  0.83333333  0.04275167  1.0
  Zn  Zn225  1  0.01109700  0.10368767  0.17679744  1.0
  Zn  Zn226  1  0.01109700  0.43702100  0.17679744  1.0
  Zn  Zn227  1  0.01109700  0.77035433  0.17679744  1.0
  Zn  Zn228  1  0.34443033  0.10368767  0.17679744  1.0
  Zn  Zn229  1  0.34443033  0.43702100  0.17679744  1.0
  Zn  Zn230  1  0.34443033  0.77035433  0.17679744  1.0
  Zn  Zn231  1  0.67776367  0.10368767  0.17679744  1.0
  Zn  Zn232  1  0.67776367  0.43702100  0.17679744  1.0
  Zn  Zn233  1  0.67776367  0.77035433  0.17679744  1.0
  Zn  Zn234  1  0.32223633  0.22964567  0.13092811  1.0
  Zn  Zn235  1  0.32223633  0.56297900  0.13092811  1.0
  Zn  Zn236  1  0.32223633  0.89631233  0.13092811  1.0
  Zn  Zn237  1  0.65556967  0.22964567  0.13092811  1.0
  Zn  Zn238  1  0.65556967  0.56297900  0.13092811  1.0
  Zn  Zn239  1  0.65556967  0.89631233  0.13092811  1.0
  Zn  Zn240  1  0.98890300  0.22964567  0.13092811  1.0
  Zn  Zn241  1  0.98890300  0.56297900  0.13092811  1.0
  Zn  Zn242  1  0.98890300  0.89631233  0.13092811  1.0
  Zn  Zn243  1  0.19045333  0.22964567  0.21878344  1.0
  Zn  Zn244  1  0.19045333  0.56297900  0.21878344  1.0
  Zn  Zn245  1  0.19045333  0.89631233  0.21878344  1.0
  Zn  Zn246  1  0.52378667  0.22964567  0.21878344  1.0
  Zn  Zn247  1  0.52378667  0.56297900  0.21878344  1.0
  Zn  Zn248  1  0.52378667  0.89631233  0.21878344  1.0
  Zn  Zn249  1  0.85712000  0.22964567  0.21878344  1.0
  Zn  Zn250  1  0.85712000  0.56297900  0.21878344  1.0
  Zn  Zn251  1  0.85712000  0.89631233  0.21878344  1.0
  Zn  Zn252  1  0.14288000  0.10368767  0.20005322  1.0
  Zn  Zn253  1  0.14288000  0.43702100  0.20005322  1.0
  Zn  Zn254  1  0.14288000  0.77035433  0.20005322  1.0
  Zn  Zn255  1  0.47621333  0.10368767  0.20005322  1.0
  Zn  Zn256  1  0.47621333  0.43702100  0.20005322  1.0
  Zn  Zn257  1  0.47621333  0.77035433  0.20005322  1.0
  Zn  Zn258  1  0.80954667  0.10368767  0.20005322  1.0
  Zn  Zn259  1  0.80954667  0.43702100  0.20005322  1.0
  Zn  Zn260  1  0.80954667  0.77035433  0.20005322  1.0
  Zn  Zn261  1  0.22585367  0.00000000  0.16996033  1.0
  Zn  Zn262  1  0.22585367  0.33333333  0.16996033  1.0
  Zn  Zn263  1  0.22585367  0.66666667  0.16996033  1.0
  Zn  Zn264  1  0.55918700  0.00000000  0.16996033  1.0
  Zn  Zn265  1  0.55918700  0.33333333  0.16996033  1.0
  Zn  Zn266  1  0.55918700  0.66666667  0.16996033  1.0
  Zn  Zn267  1  0.89252033  0.00000000  0.16996033  1.0
  Zn  Zn268  1  0.89252033  0.33333333  0.16996033  1.0
  Zn  Zn269  1  0.89252033  0.66666667  0.16996033  1.0
  Zn  Zn270  1  0.10747967  0.00000000  0.13776522  1.0
  Zn  Zn271  1  0.10747967  0.33333333  0.13776522  1.0
  Zn  Zn272  1  0.10747967  0.66666667  0.13776522  1.0
  Zn  Zn273  1  0.44081300  0.00000000  0.13776522  1.0
  Zn  Zn274  1  0.44081300  0.33333333  0.13776522  1.0
  Zn  Zn275  1  0.44081300  0.66666667  0.13776522  1.0
  Zn  Zn276  1  0.77414633  0.00000000  0.13776522  1.0
  Zn  Zn277  1  0.77414633  0.33333333  0.13776522  1.0
  Zn  Zn278  1  0.77414633  0.66666667  0.13776522  1.0
  Zn  Zn279  1  0.01543067  0.26142467  0.18544878  1.0
  Zn  Zn280  1  0.01543067  0.59475800  0.18544878  1.0
  Zn  Zn281  1  0.01543067  0.92809133  0.18544878  1.0
  Zn  Zn282  1  0.34876400  0.26142467  0.18544878  1.0
  Zn  Zn283  1  0.34876400  0.59475800  0.18544878  1.0
  Zn  Zn284  1  0.34876400  0.92809133  0.18544878  1.0
  Zn  Zn285  1  0.68209733  0.26142467  0.18544878  1.0
  Zn  Zn286  1  0.68209733  0.59475800  0.18544878  1.0
  Zn  Zn287  1  0.68209733  0.92809133  0.18544878  1.0
  Zn  Zn288  1  0.31790267  0.07190867  0.12227678  1.0
  Zn  Zn289  1  0.31790267  0.40524200  0.12227678  1.0
  Zn  Zn290  1  0.31790267  0.73857533  0.12227678  1.0
  Zn  Zn291  1  0.65123600  0.07190867  0.12227678  1.0
  Zn  Zn292  1  0.65123600  0.40524200  0.12227678  1.0
  Zn  Zn293  1  0.65123600  0.73857533  0.12227678  1.0
  Zn  Zn294  1  0.98456933  0.07190867  0.12227678  1.0
  Zn  Zn295  1  0.98456933  0.40524200  0.12227678  1.0
  Zn  Zn296  1  0.98456933  0.73857533  0.12227678  1.0
  Zn  Zn297  1  0.26665267  0.05875933  0.11789367  1.0
  Zn  Zn298  1  0.26665267  0.39209267  0.11789367  1.0
  Zn  Zn299  1  0.26665267  0.72542600  0.11789367  1.0
  Zn  Zn300  1  0.59998600  0.05875933  0.11789367  1.0
  Zn  Zn301  1  0.59998600  0.39209267  0.11789367  1.0
  Zn  Zn302  1  0.59998600  0.72542600  0.11789367  1.0
  Zn  Zn303  1  0.93331933  0.05875933  0.11789367  1.0
  Zn  Zn304  1  0.93331933  0.39209267  0.11789367  1.0
  Zn  Zn305  1  0.93331933  0.72542600  0.11789367  1.0
  Zn  Zn306  1  0.06668067  0.27457400  0.18983189  1.0
  Zn  Zn307  1  0.06668067  0.60790733  0.18983189  1.0
  Zn  Zn308  1  0.06668067  0.94124067  0.18983189  1.0
  Zn  Zn309  1  0.40001400  0.27457400  0.18983189  1.0
  Zn  Zn310  1  0.40001400  0.60790733  0.18983189  1.0
  Zn  Zn311  1  0.40001400  0.94124067  0.18983189  1.0
  Zn  Zn312  1  0.73334733  0.27457400  0.18983189  1.0
  Zn  Zn313  1  0.73334733  0.60790733  0.18983189  1.0
  Zn  Zn314  1  0.73334733  0.94124067  0.18983189  1.0
  Zn  Zn315  1  0.02656767  0.09085500  0.12859222  1.0
  Zn  Zn316  1  0.02656767  0.42418833  0.12859222  1.0
  Zn  Zn317  1  0.02656767  0.75752167  0.12859222  1.0
  Zn  Zn318  1  0.35990100  0.09085500  0.12859222  1.0
  Zn  Zn319  1  0.35990100  0.42418833  0.12859222  1.0
  Zn  Zn320  1  0.35990100  0.75752167  0.12859222  1.0
  Zn  Zn321  1  0.69323433  0.09085500  0.12859222  1.0
  Zn  Zn322  1  0.69323433  0.42418833  0.12859222  1.0
  Zn  Zn323  1  0.69323433  0.75752167  0.12859222  1.0
  Zn  Zn324  1  0.30676567  0.24247833  0.17913333  1.0
  Zn  Zn325  1  0.30676567  0.57581167  0.17913333  1.0
  Zn  Zn326  1  0.30676567  0.90914500  0.17913333  1.0
  Zn  Zn327  1  0.64009900  0.24247833  0.17913333  1.0
  Zn  Zn328  1  0.64009900  0.57581167  0.17913333  1.0
  Zn  Zn329  1  0.64009900  0.90914500  0.17913333  1.0
  Zn  Zn330  1  0.97343233  0.24247833  0.17913333  1.0
  Zn  Zn331  1  0.97343233  0.57581167  0.17913333  1.0
  Zn  Zn332  1  0.97343233  0.90914500  0.17913333  1.0
  Zn  Zn333  1  0.10317567  0.12548433  0.14013533  1.0
  Zn  Zn334  1  0.10317567  0.45881767  0.14013533  1.0
  Zn  Zn335  1  0.10317567  0.79215100  0.14013533  1.0
  Zn  Zn336  1  0.43650900  0.12548433  0.14013533  1.0
  Zn  Zn337  1  0.43650900  0.45881767  0.14013533  1.0
  Zn  Zn338  1  0.43650900  0.79215100  0.14013533  1.0
  Zn  Zn339  1  0.76984233  0.12548433  0.14013533  1.0
  Zn  Zn340  1  0.76984233  0.45881767  0.14013533  1.0
  Zn  Zn341  1  0.76984233  0.79215100  0.14013533  1.0
  Zn  Zn342  1  0.23015767  0.20784900  0.16759022  1.0
  Zn  Zn343  1  0.23015767  0.54118233  0.16759022  1.0
  Zn  Zn344  1  0.23015767  0.87451567  0.16759022  1.0
  Zn  Zn345  1  0.56349100  0.20784900  0.16759022  1.0
  Zn  Zn346  1  0.56349100  0.54118233  0.16759022  1.0
  Zn  Zn347  1  0.56349100  0.87451567  0.16759022  1.0
  Zn  Zn348  1  0.89682433  0.20784900  0.16759022  1.0
  Zn  Zn349  1  0.89682433  0.54118233  0.16759022  1.0
  Zn  Zn350  1  0.89682433  0.87451567  0.16759022  1.0
  Zn  Zn351  1  0.06668200  0.15406933  0.18982744  1.0
  Zn  Zn352  1  0.06668200  0.48740267  0.18982744  1.0
  Zn  Zn353  1  0.06668200  0.82073600  0.18982744  1.0
  Zn  Zn354  1  0.40001533  0.15406933  0.18982744  1.0
  Zn  Zn355  1  0.40001533  0.48740267  0.18982744  1.0
  Zn  Zn356  1  0.40001533  0.82073600  0.18982744  1.0
  Zn  Zn357  1  0.73334867  0.15406933  0.18982744  1.0
  Zn  Zn358  1  0.73334867  0.48740267  0.18982744  1.0
  Zn  Zn359  1  0.73334867  0.82073600  0.18982744  1.0
  Zn  Zn360  1  0.26665133  0.17926400  0.11789811  1.0
  Zn  Zn361  1  0.26665133  0.51259733  0.11789811  1.0
  Zn  Zn362  1  0.26665133  0.84593067  0.11789811  1.0
  Zn  Zn363  1  0.59998467  0.17926400  0.11789811  1.0
  Zn  Zn364  1  0.59998467  0.51259733  0.11789811  1.0
  Zn  Zn365  1  0.59998467  0.84593067  0.11789811  1.0
  Zn  Zn366  1  0.93331800  0.17926400  0.11789811  1.0
  Zn  Zn367  1  0.93331800  0.51259733  0.11789811  1.0
  Zn  Zn368  1  0.93331800  0.84593067  0.11789811  1.0
  Zn  Zn369  1  0.14616000  0.17926400  0.19822567  1.0
  Zn  Zn370  1  0.14616000  0.51259733  0.19822567  1.0
  Zn  Zn371  1  0.14616000  0.84593067  0.19822567  1.0
  Zn  Zn372  1  0.47949333  0.17926400  0.19822567  1.0
  Zn  Zn373  1  0.47949333  0.51259733  0.19822567  1.0
  Zn  Zn374  1  0.47949333  0.84593067  0.19822567  1.0
  Zn  Zn375  1  0.81282667  0.17926400  0.19822567  1.0
  Zn  Zn376  1  0.81282667  0.51259733  0.19822567  1.0
  Zn  Zn377  1  0.81282667  0.84593067  0.19822567  1.0
  Zn  Zn378  1  0.18717333  0.15406933  0.22061100  1.0
  Zn  Zn379  1  0.18717333  0.48740267  0.22061100  1.0
  Zn  Zn380  1  0.18717333  0.82073600  0.22061100  1.0
  Zn  Zn381  1  0.52050667  0.15406933  0.22061100  1.0
  Zn  Zn382  1  0.52050667  0.48740267  0.22061100  1.0
  Zn  Zn383  1  0.52050667  0.82073600  0.22061100  1.0
  Zn  Zn384  1  0.85384000  0.15406933  0.22061100  1.0
  Zn  Zn385  1  0.85384000  0.48740267  0.22061100  1.0
  Zn  Zn386  1  0.85384000  0.82073600  0.22061100  1.0
  Zn  Zn387  1  0.17270733  0.03328867  0.15170867  1.0
  Zn  Zn388  1  0.17270733  0.36662200  0.15170867  1.0
  Zn  Zn389  1  0.17270733  0.69995533  0.15170867  1.0
  Zn  Zn390  1  0.50604067  0.03328867  0.15170867  1.0
  Zn  Zn391  1  0.50604067  0.36662200  0.15170867  1.0
  Zn  Zn392  1  0.50604067  0.69995533  0.15170867  1.0
  Zn  Zn393  1  0.83937400  0.03328867  0.15170867  1.0
  Zn  Zn394  1  0.83937400  0.36662200  0.15170867  1.0
  Zn  Zn395  1  0.83937400  0.69995533  0.15170867  1.0
  Zn  Zn396  1  0.16062600  0.30004467  0.15601689  1.0
  Zn  Zn397  1  0.16062600  0.63337800  0.15601689  1.0
  Zn  Zn398  1  0.16062600  0.96671133  0.15601689  1.0
  Zn  Zn399  1  0.49395933  0.30004467  0.15601689  1.0
  Zn  Zn400  1  0.49395933  0.63337800  0.15601689  1.0
  Zn  Zn401  1  0.49395933  0.96671133  0.15601689  1.0
  Zn  Zn402  1  0.82729267  0.30004467  0.15601689  1.0
  Zn  Zn403  1  0.82729267  0.63337800  0.15601689  1.0
  Zn  Zn404  1  0.82729267  0.96671133  0.15601689  1.0
  Zn  Zn405  1  0.03371033  0.30004467  0.12951622  1.0
  Zn  Zn406  1  0.03371033  0.63337800  0.12951622  1.0
  Zn  Zn407  1  0.03371033  0.96671133  0.12951622  1.0
  Zn  Zn408  1  0.36704367  0.30004467  0.12951622  1.0
  Zn  Zn409  1  0.36704367  0.63337800  0.12951622  1.0
  Zn  Zn410  1  0.36704367  0.96671133  0.12951622  1.0
  Zn  Zn411  1  0.70037700  0.30004467  0.12951622  1.0
  Zn  Zn412  1  0.70037700  0.63337800  0.12951622  1.0
  Zn  Zn413  1  0.70037700  0.96671133  0.12951622  1.0
  Zn  Zn414  1  0.29962300  0.03328867  0.17820933  1.0
  Zn  Zn415  1  0.29962300  0.36662200  0.17820933  1.0
  Zn  Zn416  1  0.29962300  0.69995533  0.17820933  1.0
  Zn  Zn417  1  0.63295633  0.03328867  0.17820933  1.0
  Zn  Zn418  1  0.63295633  0.36662200  0.17820933  1.0
  Zn  Zn419  1  0.63295633  0.69995533  0.17820933  1.0
  Zn  Zn420  1  0.96628967  0.03328867  0.17820933  1.0
  Zn  Zn421  1  0.96628967  0.36662200  0.17820933  1.0
  Zn  Zn422  1  0.96628967  0.69995533  0.17820933  1.0
  Ni  Ni423  1  0.20120167  0.01805067  0.21543522  1.0
  Ni  Ni424  1  0.20120167  0.35138400  0.21543522  1.0
  Ni  Ni425  1  0.20120167  0.68471733  0.21543522  1.0
  Ni  Ni426  1  0.53453500  0.01805067  0.21543522  1.0
  Ni  Ni427  1  0.53453500  0.35138400  0.21543522  1.0
  Ni  Ni428  1  0.53453500  0.68471733  0.21543522  1.0
  Ni  Ni429  1  0.86786833  0.01805067  0.21543522  1.0
  Ni  Ni430  1  0.86786833  0.35138400  0.21543522  1.0
  Ni  Ni431  1  0.86786833  0.68471733  0.21543522  1.0
  Ni  Ni432  1  0.13213167  0.31528267  0.20340144  1.0
  Ni  Ni433  1  0.13213167  0.64861600  0.20340144  1.0
  Ni  Ni434  1  0.13213167  0.98194933  0.20340144  1.0
  Ni  Ni435  1  0.46546500  0.31528267  0.20340144  1.0
  Ni  Ni436  1  0.46546500  0.64861600  0.20340144  1.0
  Ni  Ni437  1  0.46546500  0.98194933  0.20340144  1.0
  Ni  Ni438  1  0.79879833  0.31528267  0.20340144  1.0
  Ni  Ni439  1  0.79879833  0.64861600  0.20340144  1.0
  Ni  Ni440  1  0.79879833  0.98194933  0.20340144  1.0
  Ni  Ni441  1  0.16666667  0.16666667  0.15386278  1.0
  Ni  Ni442  1  0.16666667  0.50000000  0.15386278  1.0
  Ni  Ni443  1  0.16666667  0.83333333  0.15386278  1.0
  Ni  Ni444  1  0.50000000  0.16666667  0.15386278  1.0
  Ni  Ni445  1  0.50000000  0.50000000  0.15386278  1.0
  Ni  Ni446  1  0.50000000  0.83333333  0.15386278  1.0
  Ni  Ni447  1  0.83333333  0.16666667  0.15386278  1.0
  Ni  Ni448  1  0.83333333  0.50000000  0.15386278  1.0
  Ni  Ni449  1  0.83333333  0.83333333  0.15386278  1.0
  Zn  Zn450  1  0.01109700  0.10368767  0.28790856  1.0
  Zn  Zn451  1  0.01109700  0.43702100  0.28790856  1.0
  Zn  Zn452  1  0.01109700  0.77035433  0.28790856  1.0
  Zn  Zn453  1  0.34443033  0.10368767  0.28790856  1.0
  Zn  Zn454  1  0.34443033  0.43702100  0.28790856  1.0
  Zn  Zn455  1  0.34443033  0.77035433  0.28790856  1.0
  Zn  Zn456  1  0.67776367  0.10368767  0.28790856  1.0
  Zn  Zn457  1  0.67776367  0.43702100  0.28790856  1.0
  Zn  Zn458  1  0.67776367  0.77035433  0.28790856  1.0
  Zn  Zn459  1  0.32223633  0.22964567  0.24203922  1.0
  Zn  Zn460  1  0.32223633  0.56297900  0.24203922  1.0
  Zn  Zn461  1  0.32223633  0.89631233  0.24203922  1.0
  Zn  Zn462  1  0.65556967  0.22964567  0.24203922  1.0
  Zn  Zn463  1  0.65556967  0.56297900  0.24203922  1.0
  Zn  Zn464  1  0.65556967  0.89631233  0.24203922  1.0
  Zn  Zn465  1  0.98890300  0.22964567  0.24203922  1.0
  Zn  Zn466  1  0.98890300  0.56297900  0.24203922  1.0
  Zn  Zn467  1  0.98890300  0.89631233  0.24203922  1.0
  Zn  Zn468  1  0.19045333  0.22964567  0.32989456  1.0
  Zn  Zn469  1  0.19045333  0.56297900  0.32989456  1.0
  Zn  Zn470  1  0.19045333  0.89631233  0.32989456  1.0
  Zn  Zn471  1  0.52378667  0.22964567  0.32989456  1.0
  Zn  Zn472  1  0.52378667  0.56297900  0.32989456  1.0
  Zn  Zn473  1  0.52378667  0.89631233  0.32989456  1.0
  Zn  Zn474  1  0.85712000  0.22964567  0.32989456  1.0
  Zn  Zn475  1  0.85712000  0.56297900  0.32989456  1.0
  Zn  Zn476  1  0.85712000  0.89631233  0.32989456  1.0
  Zn  Zn477  1  0.14288000  0.10368767  0.31116433  1.0
  Zn  Zn478  1  0.14288000  0.43702100  0.31116433  1.0
  Zn  Zn479  1  0.14288000  0.77035433  0.31116433  1.0
  Zn  Zn480  1  0.47621333  0.10368767  0.31116433  1.0
  Zn  Zn481  1  0.47621333  0.43702100  0.31116433  1.0
  Zn  Zn482  1  0.47621333  0.77035433  0.31116433  1.0
  Zn  Zn483  1  0.80954667  0.10368767  0.31116433  1.0
  Zn  Zn484  1  0.80954667  0.43702100  0.31116433  1.0
  Zn  Zn485  1  0.80954667  0.77035433  0.31116433  1.0
  Zn  Zn486  1  0.22585367  0.00000000  0.28107144  1.0
  Zn  Zn487  1  0.22585367  0.33333333  0.28107144  1.0
  Zn  Zn488  1  0.22585367  0.66666667  0.28107144  1.0
  Zn  Zn489  1  0.55918700  0.00000000  0.28107144  1.0
  Zn  Zn490  1  0.55918700  0.33333333  0.28107144  1.0
  Zn  Zn491  1  0.55918700  0.66666667  0.28107144  1.0
  Zn  Zn492  1  0.89252033  0.00000000  0.28107144  1.0
  Zn  Zn493  1  0.89252033  0.33333333  0.28107144  1.0
  Zn  Zn494  1  0.89252033  0.66666667  0.28107144  1.0
  Zn  Zn495  1  0.10747967  0.00000000  0.24887633  1.0
  Zn  Zn496  1  0.10747967  0.33333333  0.24887633  1.0
  Zn  Zn497  1  0.10747967  0.66666667  0.24887633  1.0
  Zn  Zn498  1  0.44081300  0.00000000  0.24887633  1.0
  Zn  Zn499  1  0.44081300  0.33333333  0.24887633  1.0
  Zn  Zn500  1  0.44081300  0.66666667  0.24887633  1.0
  Zn  Zn501  1  0.77414633  0.00000000  0.24887633  1.0
  Zn  Zn502  1  0.77414633  0.33333333  0.24887633  1.0
  Zn  Zn503  1  0.77414633  0.66666667  0.24887633  1.0
  Zn  Zn504  1  0.01543067  0.26142467  0.29655989  1.0
  Zn  Zn505  1  0.01543067  0.59475800  0.29655989  1.0
  Zn  Zn506  1  0.01543067  0.92809133  0.29655989  1.0
  Zn  Zn507  1  0.34876400  0.26142467  0.29655989  1.0
  Zn  Zn508  1  0.34876400  0.59475800  0.29655989  1.0
  Zn  Zn509  1  0.34876400  0.92809133  0.29655989  1.0
  Zn  Zn510  1  0.68209733  0.26142467  0.29655989  1.0
  Zn  Zn511  1  0.68209733  0.59475800  0.29655989  1.0
  Zn  Zn512  1  0.68209733  0.92809133  0.29655989  1.0
  Zn  Zn513  1  0.31790267  0.07190867  0.23338789  1.0
  Zn  Zn514  1  0.31790267  0.40524200  0.23338789  1.0
  Zn  Zn515  1  0.31790267  0.73857533  0.23338789  1.0
  Zn  Zn516  1  0.65123600  0.07190867  0.23338789  1.0
  Zn  Zn517  1  0.65123600  0.40524200  0.23338789  1.0
  Zn  Zn518  1  0.65123600  0.73857533  0.23338789  1.0
  Zn  Zn519  1  0.98456933  0.07190867  0.23338789  1.0
  Zn  Zn520  1  0.98456933  0.40524200  0.23338789  1.0
  Zn  Zn521  1  0.98456933  0.73857533  0.23338789  1.0
  Zn  Zn522  1  0.26665267  0.05875933  0.22900478  1.0
  Zn  Zn523  1  0.26665267  0.39209267  0.22900478  1.0
  Zn  Zn524  1  0.26665267  0.72542600  0.22900478  1.0
  Zn  Zn525  1  0.59998600  0.05875933  0.22900478  1.0
  Zn  Zn526  1  0.59998600  0.39209267  0.22900478  1.0
  Zn  Zn527  1  0.59998600  0.72542600  0.22900478  1.0
  Zn  Zn528  1  0.93331933  0.05875933  0.22900478  1.0
  Zn  Zn529  1  0.93331933  0.39209267  0.22900478  1.0
  Zn  Zn530  1  0.93331933  0.72542600  0.22900478  1.0
  Zn  Zn531  1  0.06668067  0.27457400  0.30094300  1.0
  Zn  Zn532  1  0.06668067  0.60790733  0.30094300  1.0
  Zn  Zn533  1  0.06668067  0.94124067  0.30094300  1.0
  Zn  Zn534  1  0.40001400  0.27457400  0.30094300  1.0
  Zn  Zn535  1  0.40001400  0.60790733  0.30094300  1.0
  Zn  Zn536  1  0.40001400  0.94124067  0.30094300  1.0
  Zn  Zn537  1  0.73334733  0.27457400  0.30094300  1.0
  Zn  Zn538  1  0.73334733  0.60790733  0.30094300  1.0
  Zn  Zn539  1  0.73334733  0.94124067  0.30094300  1.0
  Zn  Zn540  1  0.02656767  0.09085500  0.23970333  1.0
  Zn  Zn541  1  0.02656767  0.42418833  0.23970333  1.0
  Zn  Zn542  1  0.02656767  0.75752167  0.23970333  1.0
  Zn  Zn543  1  0.35990100  0.09085500  0.23970333  1.0
  Zn  Zn544  1  0.35990100  0.42418833  0.23970333  1.0
  Zn  Zn545  1  0.35990100  0.75752167  0.23970333  1.0
  Zn  Zn546  1  0.69323433  0.09085500  0.23970333  1.0
  Zn  Zn547  1  0.69323433  0.42418833  0.23970333  1.0
  Zn  Zn548  1  0.69323433  0.75752167  0.23970333  1.0
  Zn  Zn549  1  0.30676567  0.24247833  0.29024444  1.0
  Zn  Zn550  1  0.30676567  0.57581167  0.29024444  1.0
  Zn  Zn551  1  0.30676567  0.90914500  0.29024444  1.0
  Zn  Zn552  1  0.64009900  0.24247833  0.29024444  1.0
  Zn  Zn553  1  0.64009900  0.57581167  0.29024444  1.0
  Zn  Zn554  1  0.64009900  0.90914500  0.29024444  1.0
  Zn  Zn555  1  0.97343233  0.24247833  0.29024444  1.0
  Zn  Zn556  1  0.97343233  0.57581167  0.29024444  1.0
  Zn  Zn557  1  0.97343233  0.90914500  0.29024444  1.0
  Zn  Zn558  1  0.10317567  0.12548433  0.25124644  1.0
  Zn  Zn559  1  0.10317567  0.45881767  0.25124644  1.0
  Zn  Zn560  1  0.10317567  0.79215100  0.25124644  1.0
  Zn  Zn561  1  0.43650900  0.12548433  0.25124644  1.0
  Zn  Zn562  1  0.43650900  0.45881767  0.25124644  1.0
  Zn  Zn563  1  0.43650900  0.79215100  0.25124644  1.0
  Zn  Zn564  1  0.76984233  0.12548433  0.25124644  1.0
  Zn  Zn565  1  0.76984233  0.45881767  0.25124644  1.0
  Zn  Zn566  1  0.76984233  0.79215100  0.25124644  1.0
  Zn  Zn567  1  0.23015767  0.20784900  0.27870133  1.0
  Zn  Zn568  1  0.23015767  0.54118233  0.27870133  1.0
  Zn  Zn569  1  0.23015767  0.87451567  0.27870133  1.0
  Zn  Zn570  1  0.56349100  0.20784900  0.27870133  1.0
  Zn  Zn571  1  0.56349100  0.54118233  0.27870133  1.0
  Zn  Zn572  1  0.56349100  0.87451567  0.27870133  1.0
  Zn  Zn573  1  0.89682433  0.20784900  0.27870133  1.0
  Zn  Zn574  1  0.89682433  0.54118233  0.27870133  1.0
  Zn  Zn575  1  0.89682433  0.87451567  0.27870133  1.0
  Zn  Zn576  1  0.06668200  0.15406933  0.30093856  1.0
  Zn  Zn577  1  0.06668200  0.48740267  0.30093856  1.0
  Zn  Zn578  1  0.06668200  0.82073600  0.30093856  1.0
  Zn  Zn579  1  0.40001533  0.15406933  0.30093856  1.0
  Zn  Zn580  1  0.40001533  0.48740267  0.30093856  1.0
  Zn  Zn581  1  0.40001533  0.82073600  0.30093856  1.0
  Zn  Zn582  1  0.73334867  0.15406933  0.30093856  1.0
  Zn  Zn583  1  0.73334867  0.48740267  0.30093856  1.0
  Zn  Zn584  1  0.73334867  0.82073600  0.30093856  1.0
  Zn  Zn585  1  0.26665133  0.17926400  0.22900922  1.0
  Zn  Zn586  1  0.26665133  0.51259733  0.22900922  1.0
  Zn  Zn587  1  0.26665133  0.84593067  0.22900922  1.0
  Zn  Zn588  1  0.59998467  0.17926400  0.22900922  1.0
  Zn  Zn589  1  0.59998467  0.51259733  0.22900922  1.0
  Zn  Zn590  1  0.59998467  0.84593067  0.22900922  1.0
  Zn  Zn591  1  0.93331800  0.17926400  0.22900922  1.0
  Zn  Zn592  1  0.93331800  0.51259733  0.22900922  1.0
  Zn  Zn593  1  0.93331800  0.84593067  0.22900922  1.0
  Zn  Zn594  1  0.14616000  0.17926400  0.30933678  1.0
  Zn  Zn595  1  0.14616000  0.51259733  0.30933678  1.0
  Zn  Zn596  1  0.14616000  0.84593067  0.30933678  1.0
  Zn  Zn597  1  0.47949333  0.17926400  0.30933678  1.0
  Zn  Zn598  1  0.47949333  0.51259733  0.30933678  1.0
  Zn  Zn599  1  0.47949333  0.84593067  0.30933678  1.0
  Zn  Zn600  1  0.81282667  0.17926400  0.30933678  1.0
  Zn  Zn601  1  0.81282667  0.51259733  0.30933678  1.0
  Zn  Zn602  1  0.81282667  0.84593067  0.30933678  1.0
  Zn  Zn603  1  0.18717333  0.15406933  0.33172211  1.0
  Zn  Zn604  1  0.18717333  0.48740267  0.33172211  1.0
  Zn  Zn605  1  0.18717333  0.82073600  0.33172211  1.0
  Zn  Zn606  1  0.52050667  0.15406933  0.33172211  1.0
  Zn  Zn607  1  0.52050667  0.48740267  0.33172211  1.0
  Zn  Zn608  1  0.52050667  0.82073600  0.33172211  1.0
  Zn  Zn609  1  0.85384000  0.15406933  0.33172211  1.0
  Zn  Zn610  1  0.85384000  0.48740267  0.33172211  1.0
  Zn  Zn611  1  0.85384000  0.82073600  0.33172211  1.0
  Zn  Zn612  1  0.17270733  0.03328867  0.26281978  1.0
  Zn  Zn613  1  0.17270733  0.36662200  0.26281978  1.0
  Zn  Zn614  1  0.17270733  0.69995533  0.26281978  1.0
  Zn  Zn615  1  0.50604067  0.03328867  0.26281978  1.0
  Zn  Zn616  1  0.50604067  0.36662200  0.26281978  1.0
  Zn  Zn617  1  0.50604067  0.69995533  0.26281978  1.0
  Zn  Zn618  1  0.83937400  0.03328867  0.26281978  1.0
  Zn  Zn619  1  0.83937400  0.36662200  0.26281978  1.0
  Zn  Zn620  1  0.83937400  0.69995533  0.26281978  1.0
  Zn  Zn621  1  0.16062600  0.30004467  0.26712800  1.0
  Zn  Zn622  1  0.16062600  0.63337800  0.26712800  1.0
  Zn  Zn623  1  0.16062600  0.96671133  0.26712800  1.0
  Zn  Zn624  1  0.49395933  0.30004467  0.26712800  1.0
  Zn  Zn625  1  0.49395933  0.63337800  0.26712800  1.0
  Zn  Zn626  1  0.49395933  0.96671133  0.26712800  1.0
  Zn  Zn627  1  0.82729267  0.30004467  0.26712800  1.0
  Zn  Zn628  1  0.82729267  0.63337800  0.26712800  1.0
  Zn  Zn629  1  0.82729267  0.96671133  0.26712800  1.0
  Zn  Zn630  1  0.03371033  0.30004467  0.24062733  1.0
  Zn  Zn631  1  0.03371033  0.63337800  0.24062733  1.0
  Zn  Zn632  1  0.03371033  0.96671133  0.24062733  1.0
  Zn  Zn633  1  0.36704367  0.30004467  0.24062733  1.0
  Zn  Zn634  1  0.36704367  0.63337800  0.24062733  1.0
  Zn  Zn635  1  0.36704367  0.96671133  0.24062733  1.0
  Zn  Zn636  1  0.70037700  0.30004467  0.24062733  1.0
  Zn  Zn637  1  0.70037700  0.63337800  0.24062733  1.0
  Zn  Zn638  1  0.70037700  0.96671133  0.24062733  1.0
  Zn  Zn639  1  0.29962300  0.03328867  0.28932044  1.0
  Zn  Zn640  1  0.29962300  0.36662200  0.28932044  1.0
  Zn  Zn641  1  0.29962300  0.69995533  0.28932044  1.0
  Zn  Zn642  1  0.63295633  0.03328867  0.28932044  1.0
  Zn  Zn643  1  0.63295633  0.36662200  0.28932044  1.0
  Zn  Zn644  1  0.63295633  0.69995533  0.28932044  1.0
  Zn  Zn645  1  0.96628967  0.03328867  0.28932044  1.0
  Zn  Zn646  1  0.96628967  0.36662200  0.28932044  1.0
  Zn  Zn647  1  0.96628967  0.69995533  0.28932044  1.0
  Ni  Ni648  1  0.20120167  0.01805067  0.32654633  1.0
  Ni  Ni649  1  0.20120167  0.35138400  0.32654633  1.0
  Ni  Ni650  1  0.20120167  0.68471733  0.32654633  1.0
  Ni  Ni651  1  0.53453500  0.01805067  0.32654633  1.0
  Ni  Ni652  1  0.53453500  0.35138400  0.32654633  1.0
  Ni  Ni653  1  0.53453500  0.68471733  0.32654633  1.0
  Ni  Ni654  1  0.86786833  0.01805067  0.32654633  1.0
  Ni  Ni655  1  0.86786833  0.35138400  0.32654633  1.0
  Ni  Ni656  1  0.86786833  0.68471733  0.32654633  1.0
  Ni  Ni657  1  0.13213167  0.31528267  0.31451256  1.0
  Ni  Ni658  1  0.13213167  0.64861600  0.31451256  1.0
  Ni  Ni659  1  0.13213167  0.98194933  0.31451256  1.0
  Ni  Ni660  1  0.46546500  0.31528267  0.31451256  1.0
  Ni  Ni661  1  0.46546500  0.64861600  0.31451256  1.0
  Ni  Ni662  1  0.46546500  0.98194933  0.31451256  1.0
  Ni  Ni663  1  0.79879833  0.31528267  0.31451256  1.0
  Ni  Ni664  1  0.79879833  0.64861600  0.31451256  1.0
  Ni  Ni665  1  0.79879833  0.98194933  0.31451256  1.0
  Ni  Ni666  1  0.16666667  0.16666667  0.26497389  1.0
  Ni  Ni667  1  0.16666667  0.50000000  0.26497389  1.0
  Ni  Ni668  1  0.16666667  0.83333333  0.26497389  1.0
  Ni  Ni669  1  0.50000000  0.16666667  0.26497389  1.0
  Ni  Ni670  1  0.50000000  0.50000000  0.26497389  1.0
  Ni  Ni671  1  0.50000000  0.83333333  0.26497389  1.0
  Ni  Ni672  1  0.83333333  0.16666667  0.26497389  1.0
  Ni  Ni673  1  0.83333333  0.50000000  0.26497389  1.0
  Ni  Ni674  1  0.83333333  0.83333333  0.26497389  1.0
  Zn  Zn675  1  0.01109700  0.10368767  0.39901967  1.0
  Zn  Zn676  1  0.01109700  0.43702100  0.39901967  1.0
  Zn  Zn677  1  0.01109700  0.77035433  0.39901967  1.0
  Zn  Zn678  1  0.34443033  0.10368767  0.39901967  1.0
  Zn  Zn679  1  0.34443033  0.43702100  0.39901967  1.0
  Zn  Zn680  1  0.34443033  0.77035433  0.39901967  1.0
  Zn  Zn681  1  0.67776367  0.10368767  0.39901967  1.0
  Zn  Zn682  1  0.67776367  0.43702100  0.39901967  1.0
  Zn  Zn683  1  0.67776367  0.77035433  0.39901967  1.0
  Zn  Zn684  1  0.32223633  0.22964567  0.35315033  1.0
  Zn  Zn685  1  0.32223633  0.56297900  0.35315033  1.0
  Zn  Zn686  1  0.32223633  0.89631233  0.35315033  1.0
  Zn  Zn687  1  0.65556967  0.22964567  0.35315033  1.0
  Zn  Zn688  1  0.65556967  0.56297900  0.35315033  1.0
  Zn  Zn689  1  0.65556967  0.89631233  0.35315033  1.0
  Zn  Zn690  1  0.98890300  0.22964567  0.35315033  1.0
  Zn  Zn691  1  0.98890300  0.56297900  0.35315033  1.0
  Zn  Zn692  1  0.98890300  0.89631233  0.35315033  1.0
  Zn  Zn693  1  0.19045333  0.22964567  0.44100567  1.0
  Zn  Zn694  1  0.19045333  0.56297900  0.44100567  1.0
  Zn  Zn695  1  0.19045333  0.89631233  0.44100567  1.0
  Zn  Zn696  1  0.52378667  0.22964567  0.44100567  1.0
  Zn  Zn697  1  0.52378667  0.56297900  0.44100567  1.0
  Zn  Zn698  1  0.52378667  0.89631233  0.44100567  1.0
  Zn  Zn699  1  0.85712000  0.22964567  0.44100567  1.0
  Zn  Zn700  1  0.85712000  0.56297900  0.44100567  1.0
  Zn  Zn701  1  0.85712000  0.89631233  0.44100567  1.0
  Zn  Zn702  1  0.14288000  0.10368767  0.42227544  1.0
  Zn  Zn703  1  0.14288000  0.43702100  0.42227544  1.0
  Zn  Zn704  1  0.14288000  0.77035433  0.42227544  1.0
  Zn  Zn705  1  0.47621333  0.10368767  0.42227544  1.0
  Zn  Zn706  1  0.47621333  0.43702100  0.42227544  1.0
  Zn  Zn707  1  0.47621333  0.77035433  0.42227544  1.0
  Zn  Zn708  1  0.80954667  0.10368767  0.42227544  1.0
  Zn  Zn709  1  0.80954667  0.43702100  0.42227544  1.0
  Zn  Zn710  1  0.80954667  0.77035433  0.42227544  1.0
  Zn  Zn711  1  0.22585367  0.00000000  0.39218256  1.0
  Zn  Zn712  1  0.22585367  0.33333333  0.39218256  1.0
  Zn  Zn713  1  0.22585367  0.66666667  0.39218256  1.0
  Zn  Zn714  1  0.55918700  0.00000000  0.39218256  1.0
  Zn  Zn715  1  0.55918700  0.33333333  0.39218256  1.0
  Zn  Zn716  1  0.55918700  0.66666667  0.39218256  1.0
  Zn  Zn717  1  0.89252033  0.00000000  0.39218256  1.0
  Zn  Zn718  1  0.89252033  0.33333333  0.39218256  1.0
  Zn  Zn719  1  0.89252033  0.66666667  0.39218256  1.0
  Zn  Zn720  1  0.10747967  0.00000000  0.35998744  1.0
  Zn  Zn721  1  0.10747967  0.33333333  0.35998744  1.0
  Zn  Zn722  1  0.10747967  0.66666667  0.35998744  1.0
  Zn  Zn723  1  0.44081300  0.00000000  0.35998744  1.0
  Zn  Zn724  1  0.44081300  0.33333333  0.35998744  1.0
  Zn  Zn725  1  0.44081300  0.66666667  0.35998744  1.0
  Zn  Zn726  1  0.77414633  0.00000000  0.35998744  1.0
  Zn  Zn727  1  0.77414633  0.33333333  0.35998744  1.0
  Zn  Zn728  1  0.77414633  0.66666667  0.35998744  1.0
  Zn  Zn729  1  0.01543067  0.26142467  0.40767100  1.0
  Zn  Zn730  1  0.01543067  0.59475800  0.40767100  1.0
  Zn  Zn731  1  0.01543067  0.92809133  0.40767100  1.0
  Zn  Zn732  1  0.34876400  0.26142467  0.40767100  1.0
  Zn  Zn733  1  0.34876400  0.59475800  0.40767100  1.0
  Zn  Zn734  1  0.34876400  0.92809133  0.40767100  1.0
  Zn  Zn735  1  0.68209733  0.26142467  0.40767100  1.0
  Zn  Zn736  1  0.68209733  0.59475800  0.40767100  1.0
  Zn  Zn737  1  0.68209733  0.92809133  0.40767100  1.0
  Zn  Zn738  1  0.31790267  0.07190867  0.34449900  1.0
  Zn  Zn739  1  0.31790267  0.40524200  0.34449900  1.0
  Zn  Zn740  1  0.31790267  0.73857533  0.34449900  1.0
  Zn  Zn741  1  0.65123600  0.07190867  0.34449900  1.0
  Zn  Zn742  1  0.65123600  0.40524200  0.34449900  1.0
  Zn  Zn743  1  0.65123600  0.73857533  0.34449900  1.0
  Zn  Zn744  1  0.98456933  0.07190867  0.34449900  1.0
  Zn  Zn745  1  0.98456933  0.40524200  0.34449900  1.0
  Zn  Zn746  1  0.98456933  0.73857533  0.34449900  1.0
  Zn  Zn747  1  0.26665267  0.05875933  0.34011589  1.0
  Zn  Zn748  1  0.26665267  0.39209267  0.34011589  1.0
  Zn  Zn749  1  0.26665267  0.72542600  0.34011589  1.0
  Zn  Zn750  1  0.59998600  0.05875933  0.34011589  1.0
  Zn  Zn751  1  0.59998600  0.39209267  0.34011589  1.0
  Zn  Zn752  1  0.59998600  0.72542600  0.34011589  1.0
  Zn  Zn753  1  0.93331933  0.05875933  0.34011589  1.0
  Zn  Zn754  1  0.93331933  0.39209267  0.34011589  1.0
  Zn  Zn755  1  0.93331933  0.72542600  0.34011589  1.0
  Zn  Zn756  1  0.06668067  0.27457400  0.41205411  1.0
  Zn  Zn757  1  0.06668067  0.60790733  0.41205411  1.0
  Zn  Zn758  1  0.06668067  0.94124067  0.41205411  1.0
  Zn  Zn759  1  0.40001400  0.27457400  0.41205411  1.0
  Zn  Zn760  1  0.40001400  0.60790733  0.41205411  1.0
  Zn  Zn761  1  0.40001400  0.94124067  0.41205411  1.0
  Zn  Zn762  1  0.73334733  0.27457400  0.41205411  1.0
  Zn  Zn763  1  0.73334733  0.60790733  0.41205411  1.0
  Zn  Zn764  1  0.73334733  0.94124067  0.41205411  1.0
  Zn  Zn765  1  0.02656767  0.09085500  0.35081444  1.0
  Zn  Zn766  1  0.02656767  0.42418833  0.35081444  1.0
  Zn  Zn767  1  0.02656767  0.75752167  0.35081444  1.0
  Zn  Zn768  1  0.35990100  0.09085500  0.35081444  1.0
  Zn  Zn769  1  0.35990100  0.42418833  0.35081444  1.0
  Zn  Zn770  1  0.35990100  0.75752167  0.35081444  1.0
  Zn  Zn771  1  0.69323433  0.09085500  0.35081444  1.0
  Zn  Zn772  1  0.69323433  0.42418833  0.35081444  1.0
  Zn  Zn773  1  0.69323433  0.75752167  0.35081444  1.0
  Zn  Zn774  1  0.30676567  0.24247833  0.40135556  1.0
  Zn  Zn775  1  0.30676567  0.57581167  0.40135556  1.0
  Zn  Zn776  1  0.30676567  0.90914500  0.40135556  1.0
  Zn  Zn777  1  0.64009900  0.24247833  0.40135556  1.0
  Zn  Zn778  1  0.64009900  0.57581167  0.40135556  1.0
  Zn  Zn779  1  0.64009900  0.90914500  0.40135556  1.0
  Zn  Zn780  1  0.97343233  0.24247833  0.40135556  1.0
  Zn  Zn781  1  0.97343233  0.57581167  0.40135556  1.0
  Zn  Zn782  1  0.97343233  0.90914500  0.40135556  1.0
  Zn  Zn783  1  0.10317567  0.12548433  0.36235756  1.0
  Zn  Zn784  1  0.10317567  0.45881767  0.36235756  1.0
  Zn  Zn785  1  0.10317567  0.79215100  0.36235756  1.0
  Zn  Zn786  1  0.43650900  0.12548433  0.36235756  1.0
  Zn  Zn787  1  0.43650900  0.45881767  0.36235756  1.0
  Zn  Zn788  1  0.43650900  0.79215100  0.36235756  1.0
  Zn  Zn789  1  0.76984233  0.12548433  0.36235756  1.0
  Zn  Zn790  1  0.76984233  0.45881767  0.36235756  1.0
  Zn  Zn791  1  0.76984233  0.79215100  0.36235756  1.0
  Zn  Zn792  1  0.23015767  0.20784900  0.38981244  1.0
  Zn  Zn793  1  0.23015767  0.54118233  0.38981244  1.0
  Zn  Zn794  1  0.23015767  0.87451567  0.38981244  1.0
  Zn  Zn795  1  0.56349100  0.20784900  0.38981244  1.0
  Zn  Zn796  1  0.56349100  0.54118233  0.38981244  1.0
  Zn  Zn797  1  0.56349100  0.87451567  0.38981244  1.0
  Zn  Zn798  1  0.89682433  0.20784900  0.38981244  1.0
  Zn  Zn799  1  0.89682433  0.54118233  0.38981244  1.0
  Zn  Zn800  1  0.89682433  0.87451567  0.38981244  1.0
  Zn  Zn801  1  0.06668200  0.15406933  0.41204967  1.0
  Zn  Zn802  1  0.06668200  0.48740267  0.41204967  1.0
  Zn  Zn803  1  0.06668200  0.82073600  0.41204967  1.0
  Zn  Zn804  1  0.40001533  0.15406933  0.41204967  1.0
  Zn  Zn805  1  0.40001533  0.48740267  0.41204967  1.0
  Zn  Zn806  1  0.40001533  0.82073600  0.41204967  1.0
  Zn  Zn807  1  0.73334867  0.15406933  0.41204967  1.0
  Zn  Zn808  1  0.73334867  0.48740267  0.41204967  1.0
  Zn  Zn809  1  0.73334867  0.82073600  0.41204967  1.0
  Zn  Zn810  1  0.26665133  0.17926400  0.34012033  1.0
  Zn  Zn811  1  0.26665133  0.51259733  0.34012033  1.0
  Zn  Zn812  1  0.26665133  0.84593067  0.34012033  1.0
  Zn  Zn813  1  0.59998467  0.17926400  0.34012033  1.0
  Zn  Zn814  1  0.59998467  0.51259733  0.34012033  1.0
  Zn  Zn815  1  0.59998467  0.84593067  0.34012033  1.0
  Zn  Zn816  1  0.93331800  0.17926400  0.34012033  1.0
  Zn  Zn817  1  0.93331800  0.51259733  0.34012033  1.0
  Zn  Zn818  1  0.93331800  0.84593067  0.34012033  1.0
  Zn  Zn819  1  0.14616000  0.17926400  0.42044789  1.0
  Zn  Zn820  1  0.14616000  0.51259733  0.42044789  1.0
  Zn  Zn821  1  0.14616000  0.84593067  0.42044789  1.0
  Zn  Zn822  1  0.47949333  0.17926400  0.42044789  1.0
  Zn  Zn823  1  0.47949333  0.51259733  0.42044789  1.0
  Zn  Zn824  1  0.47949333  0.84593067  0.42044789  1.0
  Zn  Zn825  1  0.81282667  0.17926400  0.42044789  1.0
  Zn  Zn826  1  0.81282667  0.51259733  0.42044789  1.0
  Zn  Zn827  1  0.81282667  0.84593067  0.42044789  1.0
  Zn  Zn828  1  0.18717333  0.15406933  0.44283322  1.0
  Zn  Zn829  1  0.18717333  0.48740267  0.44283322  1.0
  Zn  Zn830  1  0.18717333  0.82073600  0.44283322  1.0
  Zn  Zn831  1  0.52050667  0.15406933  0.44283322  1.0
  Zn  Zn832  1  0.52050667  0.48740267  0.44283322  1.0
  Zn  Zn833  1  0.52050667  0.82073600  0.44283322  1.0
  Zn  Zn834  1  0.85384000  0.15406933  0.44283322  1.0
  Zn  Zn835  1  0.85384000  0.48740267  0.44283322  1.0
  Zn  Zn836  1  0.85384000  0.82073600  0.44283322  1.0
  Zn  Zn837  1  0.17270733  0.03328867  0.37393089  1.0
  Zn  Zn838  1  0.17270733  0.36662200  0.37393089  1.0
  Zn  Zn839  1  0.17270733  0.69995533  0.37393089  1.0
  Zn  Zn840  1  0.50604067  0.03328867  0.37393089  1.0
  Zn  Zn841  1  0.50604067  0.36662200  0.37393089  1.0
  Zn  Zn842  1  0.50604067  0.69995533  0.37393089  1.0
  Zn  Zn843  1  0.83937400  0.03328867  0.37393089  1.0
  Zn  Zn844  1  0.83937400  0.36662200  0.37393089  1.0
  Zn  Zn845  1  0.83937400  0.69995533  0.37393089  1.0
  Zn  Zn846  1  0.16062600  0.30004467  0.37823911  1.0
  Zn  Zn847  1  0.16062600  0.63337800  0.37823911  1.0
  Zn  Zn848  1  0.16062600  0.96671133  0.37823911  1.0
  Zn  Zn849  1  0.49395933  0.30004467  0.37823911  1.0
  Zn  Zn850  1  0.49395933  0.63337800  0.37823911  1.0
  Zn  Zn851  1  0.49395933  0.96671133  0.37823911  1.0
  Zn  Zn852  1  0.82729267  0.30004467  0.37823911  1.0
  Zn  Zn853  1  0.82729267  0.63337800  0.37823911  1.0
  Zn  Zn854  1  0.82729267  0.96671133  0.37823911  1.0
  Zn  Zn855  1  0.03371033  0.30004467  0.35173844  1.0
  Zn  Zn856  1  0.03371033  0.63337800  0.35173844  1.0
  Zn  Zn857  1  0.03371033  0.96671133  0.35173844  1.0
  Zn  Zn858  1  0.36704367  0.30004467  0.35173844  1.0
  Zn  Zn859  1  0.36704367  0.63337800  0.35173844  1.0
  Zn  Zn860  1  0.36704367  0.96671133  0.35173844  1.0
  Zn  Zn861  1  0.70037700  0.30004467  0.35173844  1.0
  Zn  Zn862  1  0.70037700  0.63337800  0.35173844  1.0
  Zn  Zn863  1  0.70037700  0.96671133  0.35173844  1.0
  Zn  Zn864  1  0.29962300  0.03328867  0.40043156  1.0
  Zn  Zn865  1  0.29962300  0.36662200  0.40043156  1.0
  Zn  Zn866  1  0.29962300  0.69995533  0.40043156  1.0
  Zn  Zn867  1  0.63295633  0.03328867  0.40043156  1.0
  Zn  Zn868  1  0.63295633  0.36662200  0.40043156  1.0
  Zn  Zn869  1  0.63295633  0.69995533  0.40043156  1.0
  Zn  Zn870  1  0.96628967  0.03328867  0.40043156  1.0
  Zn  Zn871  1  0.96628967  0.36662200  0.40043156  1.0
  Zn  Zn872  1  0.96628967  0.69995533  0.40043156  1.0
  Ni  Ni873  1  0.20120167  0.01805067  0.43765744  1.0
  Ni  Ni874  1  0.20120167  0.35138400  0.43765744  1.0
  Ni  Ni875  1  0.20120167  0.68471733  0.43765744  1.0
  Ni  Ni876  1  0.53453500  0.01805067  0.43765744  1.0
  Ni  Ni877  1  0.53453500  0.35138400  0.43765744  1.0
  Ni  Ni878  1  0.53453500  0.68471733  0.43765744  1.0
  Ni  Ni879  1  0.86786833  0.01805067  0.43765744  1.0
  Ni  Ni880  1  0.86786833  0.35138400  0.43765744  1.0
  Ni  Ni881  1  0.86786833  0.68471733  0.43765744  1.0
  Ni  Ni882  1  0.13213167  0.31528267  0.42562367  1.0
  Ni  Ni883  1  0.13213167  0.64861600  0.42562367  1.0
  Ni  Ni884  1  0.13213167  0.98194933  0.42562367  1.0
  Ni  Ni885  1  0.46546500  0.31528267  0.42562367  1.0
  Ni  Ni886  1  0.46546500  0.64861600  0.42562367  1.0
  Ni  Ni887  1  0.46546500  0.98194933  0.42562367  1.0
  Ni  Ni888  1  0.79879833  0.31528267  0.42562367  1.0
  Ni  Ni889  1  0.79879833  0.64861600  0.42562367  1.0
  Ni  Ni890  1  0.79879833  0.98194933  0.42562367  1.0
  Ni  Ni891  1  0.16666667  0.16666667  0.37608500  1.0
  Ni  Ni892  1  0.16666667  0.50000000  0.37608500  1.0
  Ni  Ni893  1  0.16666667  0.83333333  0.37608500  1.0
  Ni  Ni894  1  0.50000000  0.16666667  0.37608500  1.0
  Ni  Ni895  1  0.50000000  0.50000000  0.37608500  1.0
  Ni  Ni896  1  0.50000000  0.83333333  0.37608500  1.0
  Ni  Ni897  1  0.83333333  0.16666667  0.37608500  1.0
  Ni  Ni898  1  0.83333333  0.50000000  0.37608500  1.0
  Ni  Ni899  1  0.83333333  0.83333333  0.37608500  1.0
