# generated using pymatgen
data_Zn22Ni3
_symmetry_space_group_name_H-M   'P 1'
_cell_length_a   32.01402453
_cell_length_b   37.09332293
_cell_length_c   29.44427283
_cell_angle_alpha   88.93266443
_cell_angle_beta   81.08331195
_cell_angle_gamma   68.28623392
_symmetry_Int_Tables_number   1
_chemical_formula_structural   Zn22Ni3
_chemical_formula_sum   'Zn792 Ni108'
_cell_volume   32063.11494498
_cell_formula_units_Z   36
loop_
 _symmetry_equiv_pos_site_id
 _symmetry_equiv_pos_as_xyz
  1  'x, y, z'
loop_
 _atom_site_type_symbol
 _atom_site_label
 _atom_site_symmetry_multiplicity
 _atom_site_fract_x
 _atom_site_fract_y
 _atom_site_fract_z
 _atom_site_occupancy
  Ni  Ni0  1  0.20599290  0.01737787  0.09191190  1.0
  Ni  Ni1  1  0.20599290  0.35071120  0.09191190  1.0
  Ni  Ni2  1  0.20599290  0.68404453  0.09191190  1.0
  Ni  Ni3  1  0.53932623  0.01737787  0.09191190  1.0
  Ni  Ni4  1  0.53932623  0.35071120  0.09191190  1.0
  Ni  Ni5  1  0.53932623  0.68404453  0.09191190  1.0
  Ni  Ni6  1  0.87265957  0.01737787  0.09191190  1.0
  Ni  Ni7  1  0.87265957  0.35071120  0.09191190  1.0
  Ni  Ni8  1  0.87265957  0.68404453  0.09191190  1.0
  Ni  Ni9  1  0.30599290  0.15071120  0.19191190  1.0
  Ni  Ni10  1  0.30599290  0.48404453  0.19191190  1.0
  Ni  Ni11  1  0.30599290  0.81737787  0.19191190  1.0
  Ni  Ni12  1  0.63932623  0.15071120  0.19191190  1.0
  Ni  Ni13  1  0.63932623  0.48404453  0.19191190  1.0
  Ni  Ni14  1  0.63932623  0.81737787  0.19191190  1.0
  Ni  Ni15  1  0.97265957  0.15071120  0.19191190  1.0
  Ni  Ni16  1  0.97265957  0.48404453  0.19191190  1.0
  Ni  Ni17  1  0.97265957  0.81737787  0.19191190  1.0
  Ni  Ni18  1  0.32734043  0.24928880  0.10808810  1.0
  Ni  Ni19  1  0.32734043  0.58262213  0.10808810  1.0
  Ni  Ni20  1  0.32734043  0.91595547  0.10808810  1.0
  Ni  Ni21  1  0.66067377  0.24928880  0.10808810  1.0
  Ni  Ni22  1  0.66067377  0.58262213  0.10808810  1.0
  Ni  Ni23  1  0.66067377  0.91595547  0.10808810  1.0
  Ni  Ni24  1  0.99400710  0.24928880  0.10808810  1.0
  Ni  Ni25  1  0.99400710  0.58262213  0.10808810  1.0
  Ni  Ni26  1  0.99400710  0.91595547  0.10808810  1.0
  Ni  Ni27  1  0.22734043  0.11595547  0.00808810  1.0
  Ni  Ni28  1  0.22734043  0.44928880  0.00808810  1.0
  Ni  Ni29  1  0.22734043  0.78262213  0.00808810  1.0
  Ni  Ni30  1  0.56067377  0.11595547  0.00808810  1.0
  Ni  Ni31  1  0.56067377  0.44928880  0.00808810  1.0
  Ni  Ni32  1  0.56067377  0.78262213  0.00808810  1.0
  Ni  Ni33  1  0.89400710  0.11595547  0.00808810  1.0
  Ni  Ni34  1  0.89400710  0.44928880  0.00808810  1.0
  Ni  Ni35  1  0.89400710  0.78262213  0.00808810  1.0
  Ni  Ni36  1  0.05000000  0.06666667  0.05000000  1.0
  Ni  Ni37  1  0.05000000  0.40000000  0.05000000  1.0
  Ni  Ni38  1  0.05000000  0.73333333  0.05000000  1.0
  Ni  Ni39  1  0.38333333  0.06666667  0.05000000  1.0
  Ni  Ni40  1  0.38333333  0.40000000  0.05000000  1.0
  Ni  Ni41  1  0.38333333  0.73333333  0.05000000  1.0
  Ni  Ni42  1  0.71666667  0.06666667  0.05000000  1.0
  Ni  Ni43  1  0.71666667  0.40000000  0.05000000  1.0
  Ni  Ni44  1  0.71666667  0.73333333  0.05000000  1.0
  Ni  Ni45  1  0.15000000  0.20000000  0.15000000  1.0
  Ni  Ni46  1  0.15000000  0.53333333  0.15000000  1.0
  Ni  Ni47  1  0.15000000  0.86666667  0.15000000  1.0
  Ni  Ni48  1  0.48333333  0.20000000  0.15000000  1.0
  Ni  Ni49  1  0.48333333  0.53333333  0.15000000  1.0
  Ni  Ni50  1  0.48333333  0.86666667  0.15000000  1.0
  Ni  Ni51  1  0.81666667  0.20000000  0.15000000  1.0
  Ni  Ni52  1  0.81666667  0.53333333  0.15000000  1.0
  Ni  Ni53  1  0.81666667  0.86666667  0.15000000  1.0
  Ni  Ni54  1  0.07265957  0.28404453  0.29191190  1.0
  Ni  Ni55  1  0.07265957  0.61737787  0.29191190  1.0
  Ni  Ni56  1  0.07265957  0.95071120  0.29191190  1.0
  Ni  Ni57  1  0.40599290  0.28404453  0.29191190  1.0
  Ni  Ni58  1  0.40599290  0.61737787  0.29191190  1.0
  Ni  Ni59  1  0.40599290  0.95071120  0.29191190  1.0
  Ni  Ni60  1  0.73932623  0.28404453  0.29191190  1.0
  Ni  Ni61  1  0.73932623  0.61737787  0.29191190  1.0
  Ni  Ni62  1  0.73932623  0.95071120  0.29191190  1.0
  Ni  Ni63  1  0.17265957  0.08404453  0.39191190  1.0
  Ni  Ni64  1  0.17265957  0.41737787  0.39191190  1.0
  Ni  Ni65  1  0.17265957  0.75071120  0.39191190  1.0
  Ni  Ni66  1  0.50599290  0.08404453  0.39191190  1.0
  Ni  Ni67  1  0.50599290  0.41737787  0.39191190  1.0
  Ni  Ni68  1  0.50599290  0.75071120  0.39191190  1.0
  Ni  Ni69  1  0.83932623  0.08404453  0.39191190  1.0
  Ni  Ni70  1  0.83932623  0.41737787  0.39191190  1.0
  Ni  Ni71  1  0.83932623  0.75071120  0.39191190  1.0
  Ni  Ni72  1  0.19400710  0.18262213  0.30808810  1.0
  Ni  Ni73  1  0.19400710  0.51595547  0.30808810  1.0
  Ni  Ni74  1  0.19400710  0.84928880  0.30808810  1.0
  Ni  Ni75  1  0.52734043  0.18262213  0.30808810  1.0
  Ni  Ni76  1  0.52734043  0.51595547  0.30808810  1.0
  Ni  Ni77  1  0.52734043  0.84928880  0.30808810  1.0
  Ni  Ni78  1  0.86067377  0.18262213  0.30808810  1.0
  Ni  Ni79  1  0.86067377  0.51595547  0.30808810  1.0
  Ni  Ni80  1  0.86067377  0.84928880  0.30808810  1.0
  Ni  Ni81  1  0.09400710  0.04928880  0.20808810  1.0
  Ni  Ni82  1  0.09400710  0.38262213  0.20808810  1.0
  Ni  Ni83  1  0.09400710  0.71595547  0.20808810  1.0
  Ni  Ni84  1  0.42734043  0.04928880  0.20808810  1.0
  Ni  Ni85  1  0.42734043  0.38262213  0.20808810  1.0
  Ni  Ni86  1  0.42734043  0.71595547  0.20808810  1.0
  Ni  Ni87  1  0.76067377  0.04928880  0.20808810  1.0
  Ni  Ni88  1  0.76067377  0.38262213  0.20808810  1.0
  Ni  Ni89  1  0.76067377  0.71595547  0.20808810  1.0
  Ni  Ni90  1  0.25000000  0.00000000  0.25000000  1.0
  Ni  Ni91  1  0.25000000  0.33333333  0.25000000  1.0
  Ni  Ni92  1  0.25000000  0.66666667  0.25000000  1.0
  Ni  Ni93  1  0.58333333  0.00000000  0.25000000  1.0
  Ni  Ni94  1  0.58333333  0.33333333  0.25000000  1.0
  Ni  Ni95  1  0.58333333  0.66666667  0.25000000  1.0
  Ni  Ni96  1  0.91666667  0.00000000  0.25000000  1.0
  Ni  Ni97  1  0.91666667  0.33333333  0.25000000  1.0
  Ni  Ni98  1  0.91666667  0.66666667  0.25000000  1.0
  Ni  Ni99  1  0.01666667  0.13333333  0.35000000  1.0
  Ni  Ni100  1  0.01666667  0.46666667  0.35000000  1.0
  Ni  Ni101  1  0.01666667  0.80000000  0.35000000  1.0
  Ni  Ni102  1  0.35000000  0.13333333  0.35000000  1.0
  Ni  Ni103  1  0.35000000  0.46666667  0.35000000  1.0
  Ni  Ni104  1  0.35000000  0.80000000  0.35000000  1.0
  Ni  Ni105  1  0.68333333  0.13333333  0.35000000  1.0
  Ni  Ni106  1  0.68333333  0.46666667  0.35000000  1.0
  Ni  Ni107  1  0.68333333  0.80000000  0.35000000  1.0
  Zn  Zn108  1  0.23028347  0.32096073  0.01173480  1.0
  Zn  Zn109  1  0.23028347  0.65429407  0.01173480  1.0
  Zn  Zn110  1  0.23028347  0.98762740  0.01173480  1.0
  Zn  Zn111  1  0.56361680  0.32096073  0.01173480  1.0
  Zn  Zn112  1  0.56361680  0.65429407  0.01173480  1.0
  Zn  Zn113  1  0.56361680  0.98762740  0.01173480  1.0
  Zn  Zn114  1  0.89695013  0.32096073  0.01173480  1.0
  Zn  Zn115  1  0.89695013  0.65429407  0.01173480  1.0
  Zn  Zn116  1  0.89695013  0.98762740  0.01173480  1.0
  Zn  Zn117  1  0.33028347  0.12096073  0.11173480  1.0
  Zn  Zn118  1  0.33028347  0.45429407  0.11173480  1.0
  Zn  Zn119  1  0.33028347  0.78762740  0.11173480  1.0
  Zn  Zn120  1  0.66361680  0.12096073  0.11173480  1.0
  Zn  Zn121  1  0.66361680  0.45429407  0.11173480  1.0
  Zn  Zn122  1  0.66361680  0.78762740  0.11173480  1.0
  Zn  Zn123  1  0.99695013  0.12096073  0.11173480  1.0
  Zn  Zn124  1  0.99695013  0.45429407  0.11173480  1.0
  Zn  Zn125  1  0.99695013  0.78762740  0.11173480  1.0
  Zn  Zn126  1  0.30304987  0.27903927  0.18826520  1.0
  Zn  Zn127  1  0.30304987  0.61237260  0.18826520  1.0
  Zn  Zn128  1  0.30304987  0.94570593  0.18826520  1.0
  Zn  Zn129  1  0.63638320  0.27903927  0.18826520  1.0
  Zn  Zn130  1  0.63638320  0.61237260  0.18826520  1.0
  Zn  Zn131  1  0.63638320  0.94570593  0.18826520  1.0
  Zn  Zn132  1  0.96971653  0.27903927  0.18826520  1.0
  Zn  Zn133  1  0.96971653  0.61237260  0.18826520  1.0
  Zn  Zn134  1  0.96971653  0.94570593  0.18826520  1.0
  Zn  Zn135  1  0.20304987  0.14570593  0.08826520  1.0
  Zn  Zn136  1  0.20304987  0.47903927  0.08826520  1.0
  Zn  Zn137  1  0.20304987  0.81237260  0.08826520  1.0
  Zn  Zn138  1  0.53638320  0.14570593  0.08826520  1.0
  Zn  Zn139  1  0.53638320  0.47903927  0.08826520  1.0
  Zn  Zn140  1  0.53638320  0.81237260  0.08826520  1.0
  Zn  Zn141  1  0.86971653  0.14570593  0.08826520  1.0
  Zn  Zn142  1  0.86971653  0.47903927  0.08826520  1.0
  Zn  Zn143  1  0.86971653  0.81237260  0.08826520  1.0
  Zn  Zn144  1  0.06196463  0.22632607  0.14873030  1.0
  Zn  Zn145  1  0.06196463  0.55965940  0.14873030  1.0
  Zn  Zn146  1  0.06196463  0.89299273  0.14873030  1.0
  Zn  Zn147  1  0.39529797  0.22632607  0.14873030  1.0
  Zn  Zn148  1  0.39529797  0.55965940  0.14873030  1.0
  Zn  Zn149  1  0.39529797  0.89299273  0.14873030  1.0
  Zn  Zn150  1  0.72863130  0.22632607  0.14873030  1.0
  Zn  Zn151  1  0.72863130  0.55965940  0.14873030  1.0
  Zn  Zn152  1  0.72863130  0.89299273  0.14873030  1.0
  Zn  Zn153  1  0.29529797  0.09299273  0.04873030  1.0
  Zn  Zn154  1  0.29529797  0.42632607  0.04873030  1.0
  Zn  Zn155  1  0.29529797  0.75965940  0.04873030  1.0
  Zn  Zn156  1  0.62863130  0.09299273  0.04873030  1.0
  Zn  Zn157  1  0.62863130  0.42632607  0.04873030  1.0
  Zn  Zn158  1  0.62863130  0.75965940  0.04873030  1.0
  Zn  Zn159  1  0.96196463  0.09299273  0.04873030  1.0
  Zn  Zn160  1  0.96196463  0.42632607  0.04873030  1.0
  Zn  Zn161  1  0.96196463  0.75965940  0.04873030  1.0
  Zn  Zn162  1  0.13803537  0.04034060  0.05126970  1.0
  Zn  Zn163  1  0.13803537  0.37367393  0.05126970  1.0
  Zn  Zn164  1  0.13803537  0.70700727  0.05126970  1.0
  Zn  Zn165  1  0.47136870  0.04034060  0.05126970  1.0
  Zn  Zn166  1  0.47136870  0.37367393  0.05126970  1.0
  Zn  Zn167  1  0.47136870  0.70700727  0.05126970  1.0
  Zn  Zn168  1  0.80470203  0.04034060  0.05126970  1.0
  Zn  Zn169  1  0.80470203  0.37367393  0.05126970  1.0
  Zn  Zn170  1  0.80470203  0.70700727  0.05126970  1.0
  Zn  Zn171  1  0.23803537  0.17367393  0.15126970  1.0
  Zn  Zn172  1  0.23803537  0.50700727  0.15126970  1.0
  Zn  Zn173  1  0.23803537  0.84034060  0.15126970  1.0
  Zn  Zn174  1  0.57136870  0.17367393  0.15126970  1.0
  Zn  Zn175  1  0.57136870  0.50700727  0.15126970  1.0
  Zn  Zn176  1  0.57136870  0.84034060  0.15126970  1.0
  Zn  Zn177  1  0.90470203  0.17367393  0.15126970  1.0
  Zn  Zn178  1  0.90470203  0.50700727  0.15126970  1.0
  Zn  Zn179  1  0.90470203  0.84034060  0.15126970  1.0
  Zn  Zn180  1  0.17523577  0.09034147  0.06775610  1.0
  Zn  Zn181  1  0.17523577  0.42367480  0.06775610  1.0
  Zn  Zn182  1  0.17523577  0.75700813  0.06775610  1.0
  Zn  Zn183  1  0.50856910  0.09034147  0.06775610  1.0
  Zn  Zn184  1  0.50856910  0.42367480  0.06775610  1.0
  Zn  Zn185  1  0.50856910  0.75700813  0.06775610  1.0
  Zn  Zn186  1  0.84190243  0.09034147  0.06775610  1.0
  Zn  Zn187  1  0.84190243  0.42367480  0.06775610  1.0
  Zn  Zn188  1  0.84190243  0.75700813  0.06775610  1.0
  Zn  Zn189  1  0.27523577  0.22367480  0.16775610  1.0
  Zn  Zn190  1  0.27523577  0.55700813  0.16775610  1.0
  Zn  Zn191  1  0.27523577  0.89034147  0.16775610  1.0
  Zn  Zn192  1  0.60856910  0.22367480  0.16775610  1.0
  Zn  Zn193  1  0.60856910  0.55700813  0.16775610  1.0
  Zn  Zn194  1  0.60856910  0.89034147  0.16775610  1.0
  Zn  Zn195  1  0.94190243  0.22367480  0.16775610  1.0
  Zn  Zn196  1  0.94190243  0.55700813  0.16775610  1.0
  Zn  Zn197  1  0.94190243  0.89034147  0.16775610  1.0
  Zn  Zn198  1  0.25809757  0.04299187  0.03224390  1.0
  Zn  Zn199  1  0.25809757  0.37632520  0.03224390  1.0
  Zn  Zn200  1  0.25809757  0.70965853  0.03224390  1.0
  Zn  Zn201  1  0.59143090  0.04299187  0.03224390  1.0
  Zn  Zn202  1  0.59143090  0.37632520  0.03224390  1.0
  Zn  Zn203  1  0.59143090  0.70965853  0.03224390  1.0
  Zn  Zn204  1  0.92476423  0.04299187  0.03224390  1.0
  Zn  Zn205  1  0.92476423  0.37632520  0.03224390  1.0
  Zn  Zn206  1  0.92476423  0.70965853  0.03224390  1.0
  Zn  Zn207  1  0.02476423  0.17632520  0.13224390  1.0
  Zn  Zn208  1  0.02476423  0.50965853  0.13224390  1.0
  Zn  Zn209  1  0.02476423  0.84299187  0.13224390  1.0
  Zn  Zn210  1  0.35809757  0.17632520  0.13224390  1.0
  Zn  Zn211  1  0.35809757  0.50965853  0.13224390  1.0
  Zn  Zn212  1  0.35809757  0.84299187  0.13224390  1.0
  Zn  Zn213  1  0.69143090  0.17632520  0.13224390  1.0
  Zn  Zn214  1  0.69143090  0.50965853  0.13224390  1.0
  Zn  Zn215  1  0.69143090  0.84299187  0.13224390  1.0
  Zn  Zn216  1  0.12722040  0.20727920  0.07074240  1.0
  Zn  Zn217  1  0.12722040  0.54061253  0.07074240  1.0
  Zn  Zn218  1  0.12722040  0.87394587  0.07074240  1.0
  Zn  Zn219  1  0.46055373  0.20727920  0.07074240  1.0
  Zn  Zn220  1  0.46055373  0.54061253  0.07074240  1.0
  Zn  Zn221  1  0.46055373  0.87394587  0.07074240  1.0
  Zn  Zn222  1  0.79388707  0.20727920  0.07074240  1.0
  Zn  Zn223  1  0.79388707  0.54061253  0.07074240  1.0
  Zn  Zn224  1  0.79388707  0.87394587  0.07074240  1.0
  Zn  Zn225  1  0.22722040  0.00727920  0.17074240  1.0
  Zn  Zn226  1  0.22722040  0.34061253  0.17074240  1.0
  Zn  Zn227  1  0.22722040  0.67394587  0.17074240  1.0
  Zn  Zn228  1  0.56055373  0.00727920  0.17074240  1.0
  Zn  Zn229  1  0.56055373  0.34061253  0.17074240  1.0
  Zn  Zn230  1  0.56055373  0.67394587  0.17074240  1.0
  Zn  Zn231  1  0.89388707  0.00727920  0.17074240  1.0
  Zn  Zn232  1  0.89388707  0.34061253  0.17074240  1.0
  Zn  Zn233  1  0.89388707  0.67394587  0.17074240  1.0
  Zn  Zn234  1  0.07277960  0.05938747  0.12925760  1.0
  Zn  Zn235  1  0.07277960  0.39272080  0.12925760  1.0
  Zn  Zn236  1  0.07277960  0.72605413  0.12925760  1.0
  Zn  Zn237  1  0.40611293  0.05938747  0.12925760  1.0
  Zn  Zn238  1  0.40611293  0.39272080  0.12925760  1.0
  Zn  Zn239  1  0.40611293  0.72605413  0.12925760  1.0
  Zn  Zn240  1  0.73944627  0.05938747  0.12925760  1.0
  Zn  Zn241  1  0.73944627  0.39272080  0.12925760  1.0
  Zn  Zn242  1  0.73944627  0.72605413  0.12925760  1.0
  Zn  Zn243  1  0.30611293  0.25938747  0.02925760  1.0
  Zn  Zn244  1  0.30611293  0.59272080  0.02925760  1.0
  Zn  Zn245  1  0.30611293  0.92605413  0.02925760  1.0
  Zn  Zn246  1  0.63944627  0.25938747  0.02925760  1.0
  Zn  Zn247  1  0.63944627  0.59272080  0.02925760  1.0
  Zn  Zn248  1  0.63944627  0.92605413  0.02925760  1.0
  Zn  Zn249  1  0.97277960  0.25938747  0.02925760  1.0
  Zn  Zn250  1  0.97277960  0.59272080  0.02925760  1.0
  Zn  Zn251  1  0.97277960  0.92605413  0.02925760  1.0
  Zn  Zn252  1  0.18316433  0.24950000  0.17524300  1.0
  Zn  Zn253  1  0.18316433  0.58283333  0.17524300  1.0
  Zn  Zn254  1  0.18316433  0.91616667  0.17524300  1.0
  Zn  Zn255  1  0.51649767  0.24950000  0.17524300  1.0
  Zn  Zn256  1  0.51649767  0.58283333  0.17524300  1.0
  Zn  Zn257  1  0.51649767  0.91616667  0.17524300  1.0
  Zn  Zn258  1  0.84983100  0.24950000  0.17524300  1.0
  Zn  Zn259  1  0.84983100  0.58283333  0.17524300  1.0
  Zn  Zn260  1  0.84983100  0.91616667  0.17524300  1.0
  Zn  Zn261  1  0.08316433  0.11616667  0.07524300  1.0
  Zn  Zn262  1  0.08316433  0.44950000  0.07524300  1.0
  Zn  Zn263  1  0.08316433  0.78283333  0.07524300  1.0
  Zn  Zn264  1  0.41649767  0.11616667  0.07524300  1.0
  Zn  Zn265  1  0.41649767  0.44950000  0.07524300  1.0
  Zn  Zn266  1  0.41649767  0.78283333  0.07524300  1.0
  Zn  Zn267  1  0.74983100  0.11616667  0.07524300  1.0
  Zn  Zn268  1  0.74983100  0.44950000  0.07524300  1.0
  Zn  Zn269  1  0.74983100  0.78283333  0.07524300  1.0
  Zn  Zn270  1  0.01683567  0.01716667  0.02475700  1.0
  Zn  Zn271  1  0.01683567  0.35050000  0.02475700  1.0
  Zn  Zn272  1  0.01683567  0.68383333  0.02475700  1.0
  Zn  Zn273  1  0.35016900  0.01716667  0.02475700  1.0
  Zn  Zn274  1  0.35016900  0.35050000  0.02475700  1.0
  Zn  Zn275  1  0.35016900  0.68383333  0.02475700  1.0
  Zn  Zn276  1  0.68350233  0.01716667  0.02475700  1.0
  Zn  Zn277  1  0.68350233  0.35050000  0.02475700  1.0
  Zn  Zn278  1  0.68350233  0.68383333  0.02475700  1.0
  Zn  Zn279  1  0.11683567  0.15050000  0.12475700  1.0
  Zn  Zn280  1  0.11683567  0.48383333  0.12475700  1.0
  Zn  Zn281  1  0.11683567  0.81716667  0.12475700  1.0
  Zn  Zn282  1  0.45016900  0.15050000  0.12475700  1.0
  Zn  Zn283  1  0.45016900  0.48383333  0.12475700  1.0
  Zn  Zn284  1  0.45016900  0.81716667  0.12475700  1.0
  Zn  Zn285  1  0.78350233  0.15050000  0.12475700  1.0
  Zn  Zn286  1  0.78350233  0.48383333  0.12475700  1.0
  Zn  Zn287  1  0.78350233  0.81716667  0.12475700  1.0
  Zn  Zn288  1  0.06100123  0.00305320  0.17842390  1.0
  Zn  Zn289  1  0.06100123  0.33638653  0.17842390  1.0
  Zn  Zn290  1  0.06100123  0.66971987  0.17842390  1.0
  Zn  Zn291  1  0.39433457  0.00305320  0.17842390  1.0
  Zn  Zn292  1  0.39433457  0.33638653  0.17842390  1.0
  Zn  Zn293  1  0.39433457  0.66971987  0.17842390  1.0
  Zn  Zn294  1  0.72766790  0.00305320  0.17842390  1.0
  Zn  Zn295  1  0.72766790  0.33638653  0.17842390  1.0
  Zn  Zn296  1  0.72766790  0.66971987  0.17842390  1.0
  Zn  Zn297  1  0.29433457  0.20305320  0.07842390  1.0
  Zn  Zn298  1  0.29433457  0.53638653  0.07842390  1.0
  Zn  Zn299  1  0.29433457  0.86971987  0.07842390  1.0
  Zn  Zn300  1  0.62766790  0.20305320  0.07842390  1.0
  Zn  Zn301  1  0.62766790  0.53638653  0.07842390  1.0
  Zn  Zn302  1  0.62766790  0.86971987  0.07842390  1.0
  Zn  Zn303  1  0.96100123  0.20305320  0.07842390  1.0
  Zn  Zn304  1  0.96100123  0.53638653  0.07842390  1.0
  Zn  Zn305  1  0.96100123  0.86971987  0.07842390  1.0
  Zn  Zn306  1  0.13899877  0.26361347  0.02157610  1.0
  Zn  Zn307  1  0.13899877  0.59694680  0.02157610  1.0
  Zn  Zn308  1  0.13899877  0.93028013  0.02157610  1.0
  Zn  Zn309  1  0.47233210  0.26361347  0.02157610  1.0
  Zn  Zn310  1  0.47233210  0.59694680  0.02157610  1.0
  Zn  Zn311  1  0.47233210  0.93028013  0.02157610  1.0
  Zn  Zn312  1  0.80566543  0.26361347  0.02157610  1.0
  Zn  Zn313  1  0.80566543  0.59694680  0.02157610  1.0
  Zn  Zn314  1  0.80566543  0.93028013  0.02157610  1.0
  Zn  Zn315  1  0.23899877  0.06361347  0.12157610  1.0
  Zn  Zn316  1  0.23899877  0.39694680  0.12157610  1.0
  Zn  Zn317  1  0.23899877  0.73028013  0.12157610  1.0
  Zn  Zn318  1  0.57233210  0.06361347  0.12157610  1.0
  Zn  Zn319  1  0.57233210  0.39694680  0.12157610  1.0
  Zn  Zn320  1  0.57233210  0.73028013  0.12157610  1.0
  Zn  Zn321  1  0.90566543  0.06361347  0.12157610  1.0
  Zn  Zn322  1  0.90566543  0.39694680  0.12157610  1.0
  Zn  Zn323  1  0.90566543  0.73028013  0.12157610  1.0
  Zn  Zn324  1  0.17282203  0.30021160  0.06814870  1.0
  Zn  Zn325  1  0.17282203  0.63354493  0.06814870  1.0
  Zn  Zn326  1  0.17282203  0.96687827  0.06814870  1.0
  Zn  Zn327  1  0.50615537  0.30021160  0.06814870  1.0
  Zn  Zn328  1  0.50615537  0.63354493  0.06814870  1.0
  Zn  Zn329  1  0.50615537  0.96687827  0.06814870  1.0
  Zn  Zn330  1  0.83948870  0.30021160  0.06814870  1.0
  Zn  Zn331  1  0.83948870  0.63354493  0.06814870  1.0
  Zn  Zn332  1  0.83948870  0.96687827  0.06814870  1.0
  Zn  Zn333  1  0.27282203  0.10021160  0.16814870  1.0
  Zn  Zn334  1  0.27282203  0.43354493  0.16814870  1.0
  Zn  Zn335  1  0.27282203  0.76687827  0.16814870  1.0
  Zn  Zn336  1  0.60615537  0.10021160  0.16814870  1.0
  Zn  Zn337  1  0.60615537  0.43354493  0.16814870  1.0
  Zn  Zn338  1  0.60615537  0.76687827  0.16814870  1.0
  Zn  Zn339  1  0.93948870  0.10021160  0.16814870  1.0
  Zn  Zn340  1  0.93948870  0.43354493  0.16814870  1.0
  Zn  Zn341  1  0.93948870  0.76687827  0.16814870  1.0
  Zn  Zn342  1  0.02717797  0.29978840  0.13185130  1.0
  Zn  Zn343  1  0.02717797  0.63312173  0.13185130  1.0
  Zn  Zn344  1  0.02717797  0.96645507  0.13185130  1.0
  Zn  Zn345  1  0.36051130  0.29978840  0.13185130  1.0
  Zn  Zn346  1  0.36051130  0.63312173  0.13185130  1.0
  Zn  Zn347  1  0.36051130  0.96645507  0.13185130  1.0
  Zn  Zn348  1  0.69384463  0.29978840  0.13185130  1.0
  Zn  Zn349  1  0.69384463  0.63312173  0.13185130  1.0
  Zn  Zn350  1  0.69384463  0.96645507  0.13185130  1.0
  Zn  Zn351  1  0.26051130  0.16645507  0.03185130  1.0
  Zn  Zn352  1  0.26051130  0.49978840  0.03185130  1.0
  Zn  Zn353  1  0.26051130  0.83312173  0.03185130  1.0
  Zn  Zn354  1  0.59384463  0.16645507  0.03185130  1.0
  Zn  Zn355  1  0.59384463  0.49978840  0.03185130  1.0
  Zn  Zn356  1  0.59384463  0.83312173  0.03185130  1.0
  Zn  Zn357  1  0.92717797  0.16645507  0.03185130  1.0
  Zn  Zn358  1  0.92717797  0.49978840  0.03185130  1.0
  Zn  Zn359  1  0.92717797  0.83312173  0.03185130  1.0
  Zn  Zn360  1  0.30118480  0.02280973  0.18860280  1.0
  Zn  Zn361  1  0.30118480  0.35614307  0.18860280  1.0
  Zn  Zn362  1  0.30118480  0.68947640  0.18860280  1.0
  Zn  Zn363  1  0.63451813  0.02280973  0.18860280  1.0
  Zn  Zn364  1  0.63451813  0.35614307  0.18860280  1.0
  Zn  Zn365  1  0.63451813  0.68947640  0.18860280  1.0
  Zn  Zn366  1  0.96785147  0.02280973  0.18860280  1.0
  Zn  Zn367  1  0.96785147  0.35614307  0.18860280  1.0
  Zn  Zn368  1  0.96785147  0.68947640  0.18860280  1.0
  Zn  Zn369  1  0.20118480  0.22280973  0.08860280  1.0
  Zn  Zn370  1  0.20118480  0.55614307  0.08860280  1.0
  Zn  Zn371  1  0.20118480  0.88947640  0.08860280  1.0
  Zn  Zn372  1  0.53451813  0.22280973  0.08860280  1.0
  Zn  Zn373  1  0.53451813  0.55614307  0.08860280  1.0
  Zn  Zn374  1  0.53451813  0.88947640  0.08860280  1.0
  Zn  Zn375  1  0.86785147  0.22280973  0.08860280  1.0
  Zn  Zn376  1  0.86785147  0.55614307  0.08860280  1.0
  Zn  Zn377  1  0.86785147  0.88947640  0.08860280  1.0
  Zn  Zn378  1  0.23214853  0.24385693  0.01139720  1.0
  Zn  Zn379  1  0.23214853  0.57719027  0.01139720  1.0
  Zn  Zn380  1  0.23214853  0.91052360  0.01139720  1.0
  Zn  Zn381  1  0.56548187  0.24385693  0.01139720  1.0
  Zn  Zn382  1  0.56548187  0.57719027  0.01139720  1.0
  Zn  Zn383  1  0.56548187  0.91052360  0.01139720  1.0
  Zn  Zn384  1  0.89881520  0.24385693  0.01139720  1.0
  Zn  Zn385  1  0.89881520  0.57719027  0.01139720  1.0
  Zn  Zn386  1  0.89881520  0.91052360  0.01139720  1.0
  Zn  Zn387  1  0.33214853  0.04385693  0.11139720  1.0
  Zn  Zn388  1  0.33214853  0.37719027  0.11139720  1.0
  Zn  Zn389  1  0.33214853  0.71052360  0.11139720  1.0
  Zn  Zn390  1  0.66548187  0.04385693  0.11139720  1.0
  Zn  Zn391  1  0.66548187  0.37719027  0.11139720  1.0
  Zn  Zn392  1  0.66548187  0.71052360  0.11139720  1.0
  Zn  Zn393  1  0.99881520  0.04385693  0.11139720  1.0
  Zn  Zn394  1  0.99881520  0.37719027  0.11139720  1.0
  Zn  Zn395  1  0.99881520  0.71052360  0.11139720  1.0
  Zn  Zn396  1  0.08315913  0.32899373  0.07524980  1.0
  Zn  Zn397  1  0.08315913  0.66232707  0.07524980  1.0
  Zn  Zn398  1  0.08315913  0.99566040  0.07524980  1.0
  Zn  Zn399  1  0.41649247  0.32899373  0.07524980  1.0
  Zn  Zn400  1  0.41649247  0.66232707  0.07524980  1.0
  Zn  Zn401  1  0.41649247  0.99566040  0.07524980  1.0
  Zn  Zn402  1  0.74982580  0.32899373  0.07524980  1.0
  Zn  Zn403  1  0.74982580  0.66232707  0.07524980  1.0
  Zn  Zn404  1  0.74982580  0.99566040  0.07524980  1.0
  Zn  Zn405  1  0.18315913  0.12899373  0.17524980  1.0
  Zn  Zn406  1  0.18315913  0.46232707  0.17524980  1.0
  Zn  Zn407  1  0.18315913  0.79566040  0.17524980  1.0
  Zn  Zn408  1  0.51649247  0.12899373  0.17524980  1.0
  Zn  Zn409  1  0.51649247  0.46232707  0.17524980  1.0
  Zn  Zn410  1  0.51649247  0.79566040  0.17524980  1.0
  Zn  Zn411  1  0.84982580  0.12899373  0.17524980  1.0
  Zn  Zn412  1  0.84982580  0.46232707  0.17524980  1.0
  Zn  Zn413  1  0.84982580  0.79566040  0.17524980  1.0
  Zn  Zn414  1  0.11684087  0.27100627  0.12475020  1.0
  Zn  Zn415  1  0.11684087  0.60433960  0.12475020  1.0
  Zn  Zn416  1  0.11684087  0.93767293  0.12475020  1.0
  Zn  Zn417  1  0.45017420  0.27100627  0.12475020  1.0
  Zn  Zn418  1  0.45017420  0.60433960  0.12475020  1.0
  Zn  Zn419  1  0.45017420  0.93767293  0.12475020  1.0
  Zn  Zn420  1  0.78350753  0.27100627  0.12475020  1.0
  Zn  Zn421  1  0.78350753  0.60433960  0.12475020  1.0
  Zn  Zn422  1  0.78350753  0.93767293  0.12475020  1.0
  Zn  Zn423  1  0.01684087  0.13767293  0.02475020  1.0
  Zn  Zn424  1  0.01684087  0.47100627  0.02475020  1.0
  Zn  Zn425  1  0.01684087  0.80433960  0.02475020  1.0
  Zn  Zn426  1  0.35017420  0.13767293  0.02475020  1.0
  Zn  Zn427  1  0.35017420  0.47100627  0.02475020  1.0
  Zn  Zn428  1  0.35017420  0.80433960  0.02475020  1.0
  Zn  Zn429  1  0.68350753  0.13767293  0.02475020  1.0
  Zn  Zn430  1  0.68350753  0.47100627  0.02475020  1.0
  Zn  Zn431  1  0.68350753  0.80433960  0.02475020  1.0
  Zn  Zn432  1  0.24082183  0.27907167  0.11348450  1.0
  Zn  Zn433  1  0.24082183  0.61240500  0.11348450  1.0
  Zn  Zn434  1  0.24082183  0.94573833  0.11348450  1.0
  Zn  Zn435  1  0.57415517  0.27907167  0.11348450  1.0
  Zn  Zn436  1  0.57415517  0.61240500  0.11348450  1.0
  Zn  Zn437  1  0.57415517  0.94573833  0.11348450  1.0
  Zn  Zn438  1  0.90748850  0.27907167  0.11348450  1.0
  Zn  Zn439  1  0.90748850  0.61240500  0.11348450  1.0
  Zn  Zn440  1  0.90748850  0.94573833  0.11348450  1.0
  Zn  Zn441  1  0.14082183  0.14573833  0.01348450  1.0
  Zn  Zn442  1  0.14082183  0.47907167  0.01348450  1.0
  Zn  Zn443  1  0.14082183  0.81240500  0.01348450  1.0
  Zn  Zn444  1  0.47415517  0.14573833  0.01348450  1.0
  Zn  Zn445  1  0.47415517  0.47907167  0.01348450  1.0
  Zn  Zn446  1  0.47415517  0.81240500  0.01348450  1.0
  Zn  Zn447  1  0.80748850  0.14573833  0.01348450  1.0
  Zn  Zn448  1  0.80748850  0.47907167  0.01348450  1.0
  Zn  Zn449  1  0.80748850  0.81240500  0.01348450  1.0
  Zn  Zn450  1  0.29251150  0.32092833  0.08651550  1.0
  Zn  Zn451  1  0.29251150  0.65426167  0.08651550  1.0
  Zn  Zn452  1  0.29251150  0.98759500  0.08651550  1.0
  Zn  Zn453  1  0.62584483  0.32092833  0.08651550  1.0
  Zn  Zn454  1  0.62584483  0.65426167  0.08651550  1.0
  Zn  Zn455  1  0.62584483  0.98759500  0.08651550  1.0
  Zn  Zn456  1  0.95917817  0.32092833  0.08651550  1.0
  Zn  Zn457  1  0.95917817  0.65426167  0.08651550  1.0
  Zn  Zn458  1  0.95917817  0.98759500  0.08651550  1.0
  Zn  Zn459  1  0.05917817  0.12092833  0.18651550  1.0
  Zn  Zn460  1  0.05917817  0.45426167  0.18651550  1.0
  Zn  Zn461  1  0.05917817  0.78759500  0.18651550  1.0
  Zn  Zn462  1  0.39251150  0.12092833  0.18651550  1.0
  Zn  Zn463  1  0.39251150  0.45426167  0.18651550  1.0
  Zn  Zn464  1  0.39251150  0.78759500  0.18651550  1.0
  Zn  Zn465  1  0.72584483  0.12092833  0.18651550  1.0
  Zn  Zn466  1  0.72584483  0.45426167  0.18651550  1.0
  Zn  Zn467  1  0.72584483  0.78759500  0.18651550  1.0
  Zn  Zn468  1  0.04801913  0.27016207  0.04844080  1.0
  Zn  Zn469  1  0.04801913  0.60349540  0.04844080  1.0
  Zn  Zn470  1  0.04801913  0.93682873  0.04844080  1.0
  Zn  Zn471  1  0.38135247  0.27016207  0.04844080  1.0
  Zn  Zn472  1  0.38135247  0.60349540  0.04844080  1.0
  Zn  Zn473  1  0.38135247  0.93682873  0.04844080  1.0
  Zn  Zn474  1  0.71468580  0.27016207  0.04844080  1.0
  Zn  Zn475  1  0.71468580  0.60349540  0.04844080  1.0
  Zn  Zn476  1  0.71468580  0.93682873  0.04844080  1.0
  Zn  Zn477  1  0.14801913  0.07016207  0.14844080  1.0
  Zn  Zn478  1  0.14801913  0.40349540  0.14844080  1.0
  Zn  Zn479  1  0.14801913  0.73682873  0.14844080  1.0
  Zn  Zn480  1  0.48135247  0.07016207  0.14844080  1.0
  Zn  Zn481  1  0.48135247  0.40349540  0.14844080  1.0
  Zn  Zn482  1  0.48135247  0.73682873  0.14844080  1.0
  Zn  Zn483  1  0.81468580  0.07016207  0.14844080  1.0
  Zn  Zn484  1  0.81468580  0.40349540  0.14844080  1.0
  Zn  Zn485  1  0.81468580  0.73682873  0.14844080  1.0
  Zn  Zn486  1  0.15198087  0.32983793  0.15155920  1.0
  Zn  Zn487  1  0.15198087  0.66317127  0.15155920  1.0
  Zn  Zn488  1  0.15198087  0.99650460  0.15155920  1.0
  Zn  Zn489  1  0.48531420  0.32983793  0.15155920  1.0
  Zn  Zn490  1  0.48531420  0.66317127  0.15155920  1.0
  Zn  Zn491  1  0.48531420  0.99650460  0.15155920  1.0
  Zn  Zn492  1  0.81864753  0.32983793  0.15155920  1.0
  Zn  Zn493  1  0.81864753  0.66317127  0.15155920  1.0
  Zn  Zn494  1  0.81864753  0.99650460  0.15155920  1.0
  Zn  Zn495  1  0.05198087  0.19650460  0.05155920  1.0
  Zn  Zn496  1  0.05198087  0.52983793  0.05155920  1.0
  Zn  Zn497  1  0.05198087  0.86317127  0.05155920  1.0
  Zn  Zn498  1  0.38531420  0.19650460  0.05155920  1.0
  Zn  Zn499  1  0.38531420  0.52983793  0.05155920  1.0
  Zn  Zn500  1  0.38531420  0.86317127  0.05155920  1.0
  Zn  Zn501  1  0.71864753  0.19650460  0.05155920  1.0
  Zn  Zn502  1  0.71864753  0.52983793  0.05155920  1.0
  Zn  Zn503  1  0.71864753  0.86317127  0.05155920  1.0
  Zn  Zn504  1  0.09695013  0.25429407  0.21173480  1.0
  Zn  Zn505  1  0.09695013  0.58762740  0.21173480  1.0
  Zn  Zn506  1  0.09695013  0.92096073  0.21173480  1.0
  Zn  Zn507  1  0.43028347  0.25429407  0.21173480  1.0
  Zn  Zn508  1  0.43028347  0.58762740  0.21173480  1.0
  Zn  Zn509  1  0.43028347  0.92096073  0.21173480  1.0
  Zn  Zn510  1  0.76361680  0.25429407  0.21173480  1.0
  Zn  Zn511  1  0.76361680  0.58762740  0.21173480  1.0
  Zn  Zn512  1  0.76361680  0.92096073  0.21173480  1.0
  Zn  Zn513  1  0.19695013  0.05429407  0.31173480  1.0
  Zn  Zn514  1  0.19695013  0.38762740  0.31173480  1.0
  Zn  Zn515  1  0.19695013  0.72096073  0.31173480  1.0
  Zn  Zn516  1  0.53028347  0.05429407  0.31173480  1.0
  Zn  Zn517  1  0.53028347  0.38762740  0.31173480  1.0
  Zn  Zn518  1  0.53028347  0.72096073  0.31173480  1.0
  Zn  Zn519  1  0.86361680  0.05429407  0.31173480  1.0
  Zn  Zn520  1  0.86361680  0.38762740  0.31173480  1.0
  Zn  Zn521  1  0.86361680  0.72096073  0.31173480  1.0
  Zn  Zn522  1  0.16971653  0.21237260  0.38826520  1.0
  Zn  Zn523  1  0.16971653  0.54570593  0.38826520  1.0
  Zn  Zn524  1  0.16971653  0.87903927  0.38826520  1.0
  Zn  Zn525  1  0.50304987  0.21237260  0.38826520  1.0
  Zn  Zn526  1  0.50304987  0.54570593  0.38826520  1.0
  Zn  Zn527  1  0.50304987  0.87903927  0.38826520  1.0
  Zn  Zn528  1  0.83638320  0.21237260  0.38826520  1.0
  Zn  Zn529  1  0.83638320  0.54570593  0.38826520  1.0
  Zn  Zn530  1  0.83638320  0.87903927  0.38826520  1.0
  Zn  Zn531  1  0.06971653  0.07903927  0.28826520  1.0
  Zn  Zn532  1  0.06971653  0.41237260  0.28826520  1.0
  Zn  Zn533  1  0.06971653  0.74570593  0.28826520  1.0
  Zn  Zn534  1  0.40304987  0.07903927  0.28826520  1.0
  Zn  Zn535  1  0.40304987  0.41237260  0.28826520  1.0
  Zn  Zn536  1  0.40304987  0.74570593  0.28826520  1.0
  Zn  Zn537  1  0.73638320  0.07903927  0.28826520  1.0
  Zn  Zn538  1  0.73638320  0.41237260  0.28826520  1.0
  Zn  Zn539  1  0.73638320  0.74570593  0.28826520  1.0
  Zn  Zn540  1  0.26196463  0.15965940  0.34873030  1.0
  Zn  Zn541  1  0.26196463  0.49299273  0.34873030  1.0
  Zn  Zn542  1  0.26196463  0.82632607  0.34873030  1.0
  Zn  Zn543  1  0.59529797  0.15965940  0.34873030  1.0
  Zn  Zn544  1  0.59529797  0.49299273  0.34873030  1.0
  Zn  Zn545  1  0.59529797  0.82632607  0.34873030  1.0
  Zn  Zn546  1  0.92863130  0.15965940  0.34873030  1.0
  Zn  Zn547  1  0.92863130  0.49299273  0.34873030  1.0
  Zn  Zn548  1  0.92863130  0.82632607  0.34873030  1.0
  Zn  Zn549  1  0.16196463  0.02632607  0.24873030  1.0
  Zn  Zn550  1  0.16196463  0.35965940  0.24873030  1.0
  Zn  Zn551  1  0.16196463  0.69299273  0.24873030  1.0
  Zn  Zn552  1  0.49529797  0.02632607  0.24873030  1.0
  Zn  Zn553  1  0.49529797  0.35965940  0.24873030  1.0
  Zn  Zn554  1  0.49529797  0.69299273  0.24873030  1.0
  Zn  Zn555  1  0.82863130  0.02632607  0.24873030  1.0
  Zn  Zn556  1  0.82863130  0.35965940  0.24873030  1.0
  Zn  Zn557  1  0.82863130  0.69299273  0.24873030  1.0
  Zn  Zn558  1  0.00470203  0.30700727  0.25126970  1.0
  Zn  Zn559  1  0.00470203  0.64034060  0.25126970  1.0
  Zn  Zn560  1  0.00470203  0.97367393  0.25126970  1.0
  Zn  Zn561  1  0.33803537  0.30700727  0.25126970  1.0
  Zn  Zn562  1  0.33803537  0.64034060  0.25126970  1.0
  Zn  Zn563  1  0.33803537  0.97367393  0.25126970  1.0
  Zn  Zn564  1  0.67136870  0.30700727  0.25126970  1.0
  Zn  Zn565  1  0.67136870  0.64034060  0.25126970  1.0
  Zn  Zn566  1  0.67136870  0.97367393  0.25126970  1.0
  Zn  Zn567  1  0.10470203  0.10700727  0.35126970  1.0
  Zn  Zn568  1  0.10470203  0.44034060  0.35126970  1.0
  Zn  Zn569  1  0.10470203  0.77367393  0.35126970  1.0
  Zn  Zn570  1  0.43803537  0.10700727  0.35126970  1.0
  Zn  Zn571  1  0.43803537  0.44034060  0.35126970  1.0
  Zn  Zn572  1  0.43803537  0.77367393  0.35126970  1.0
  Zn  Zn573  1  0.77136870  0.10700727  0.35126970  1.0
  Zn  Zn574  1  0.77136870  0.44034060  0.35126970  1.0
  Zn  Zn575  1  0.77136870  0.77367393  0.35126970  1.0
  Zn  Zn576  1  0.04190243  0.02367480  0.26775610  1.0
  Zn  Zn577  1  0.04190243  0.35700813  0.26775610  1.0
  Zn  Zn578  1  0.04190243  0.69034147  0.26775610  1.0
  Zn  Zn579  1  0.37523577  0.02367480  0.26775610  1.0
  Zn  Zn580  1  0.37523577  0.35700813  0.26775610  1.0
  Zn  Zn581  1  0.37523577  0.69034147  0.26775610  1.0
  Zn  Zn582  1  0.70856910  0.02367480  0.26775610  1.0
  Zn  Zn583  1  0.70856910  0.35700813  0.26775610  1.0
  Zn  Zn584  1  0.70856910  0.69034147  0.26775610  1.0
  Zn  Zn585  1  0.14190243  0.15700813  0.36775610  1.0
  Zn  Zn586  1  0.14190243  0.49034147  0.36775610  1.0
  Zn  Zn587  1  0.14190243  0.82367480  0.36775610  1.0
  Zn  Zn588  1  0.47523577  0.15700813  0.36775610  1.0
  Zn  Zn589  1  0.47523577  0.49034147  0.36775610  1.0
  Zn  Zn590  1  0.47523577  0.82367480  0.36775610  1.0
  Zn  Zn591  1  0.80856910  0.15700813  0.36775610  1.0
  Zn  Zn592  1  0.80856910  0.49034147  0.36775610  1.0
  Zn  Zn593  1  0.80856910  0.82367480  0.36775610  1.0
  Zn  Zn594  1  0.12476423  0.30965853  0.23224390  1.0
  Zn  Zn595  1  0.12476423  0.64299187  0.23224390  1.0
  Zn  Zn596  1  0.12476423  0.97632520  0.23224390  1.0
  Zn  Zn597  1  0.45809757  0.30965853  0.23224390  1.0
  Zn  Zn598  1  0.45809757  0.64299187  0.23224390  1.0
  Zn  Zn599  1  0.45809757  0.97632520  0.23224390  1.0
  Zn  Zn600  1  0.79143090  0.30965853  0.23224390  1.0
  Zn  Zn601  1  0.79143090  0.64299187  0.23224390  1.0
  Zn  Zn602  1  0.79143090  0.97632520  0.23224390  1.0
  Zn  Zn603  1  0.22476423  0.10965853  0.33224390  1.0
  Zn  Zn604  1  0.22476423  0.44299187  0.33224390  1.0
  Zn  Zn605  1  0.22476423  0.77632520  0.33224390  1.0
  Zn  Zn606  1  0.55809757  0.10965853  0.33224390  1.0
  Zn  Zn607  1  0.55809757  0.44299187  0.33224390  1.0
  Zn  Zn608  1  0.55809757  0.77632520  0.33224390  1.0
  Zn  Zn609  1  0.89143090  0.10965853  0.33224390  1.0
  Zn  Zn610  1  0.89143090  0.44299187  0.33224390  1.0
  Zn  Zn611  1  0.89143090  0.77632520  0.33224390  1.0
  Zn  Zn612  1  0.32722040  0.14061253  0.27074240  1.0
  Zn  Zn613  1  0.32722040  0.47394587  0.27074240  1.0
  Zn  Zn614  1  0.32722040  0.80727920  0.27074240  1.0
  Zn  Zn615  1  0.66055373  0.14061253  0.27074240  1.0
  Zn  Zn616  1  0.66055373  0.47394587  0.27074240  1.0
  Zn  Zn617  1  0.66055373  0.80727920  0.27074240  1.0
  Zn  Zn618  1  0.99388707  0.14061253  0.27074240  1.0
  Zn  Zn619  1  0.99388707  0.47394587  0.27074240  1.0
  Zn  Zn620  1  0.99388707  0.80727920  0.27074240  1.0
  Zn  Zn621  1  0.09388707  0.27394587  0.37074240  1.0
  Zn  Zn622  1  0.09388707  0.60727920  0.37074240  1.0
  Zn  Zn623  1  0.09388707  0.94061253  0.37074240  1.0
  Zn  Zn624  1  0.42722040  0.27394587  0.37074240  1.0
  Zn  Zn625  1  0.42722040  0.60727920  0.37074240  1.0
  Zn  Zn626  1  0.42722040  0.94061253  0.37074240  1.0
  Zn  Zn627  1  0.76055373  0.27394587  0.37074240  1.0
  Zn  Zn628  1  0.76055373  0.60727920  0.37074240  1.0
  Zn  Zn629  1  0.76055373  0.94061253  0.37074240  1.0
  Zn  Zn630  1  0.27277960  0.32605413  0.32925760  1.0
  Zn  Zn631  1  0.27277960  0.65938747  0.32925760  1.0
  Zn  Zn632  1  0.27277960  0.99272080  0.32925760  1.0
  Zn  Zn633  1  0.60611293  0.32605413  0.32925760  1.0
  Zn  Zn634  1  0.60611293  0.65938747  0.32925760  1.0
  Zn  Zn635  1  0.60611293  0.99272080  0.32925760  1.0
  Zn  Zn636  1  0.93944627  0.32605413  0.32925760  1.0
  Zn  Zn637  1  0.93944627  0.65938747  0.32925760  1.0
  Zn  Zn638  1  0.93944627  0.99272080  0.32925760  1.0
  Zn  Zn639  1  0.17277960  0.19272080  0.22925760  1.0
  Zn  Zn640  1  0.17277960  0.52605413  0.22925760  1.0
  Zn  Zn641  1  0.17277960  0.85938747  0.22925760  1.0
  Zn  Zn642  1  0.50611293  0.19272080  0.22925760  1.0
  Zn  Zn643  1  0.50611293  0.52605413  0.22925760  1.0
  Zn  Zn644  1  0.50611293  0.85938747  0.22925760  1.0
  Zn  Zn645  1  0.83944627  0.19272080  0.22925760  1.0
  Zn  Zn646  1  0.83944627  0.52605413  0.22925760  1.0
  Zn  Zn647  1  0.83944627  0.85938747  0.22925760  1.0
  Zn  Zn648  1  0.04983100  0.18283333  0.37524300  1.0
  Zn  Zn649  1  0.04983100  0.51616667  0.37524300  1.0
  Zn  Zn650  1  0.04983100  0.84950000  0.37524300  1.0
  Zn  Zn651  1  0.38316433  0.18283333  0.37524300  1.0
  Zn  Zn652  1  0.38316433  0.51616667  0.37524300  1.0
  Zn  Zn653  1  0.38316433  0.84950000  0.37524300  1.0
  Zn  Zn654  1  0.71649767  0.18283333  0.37524300  1.0
  Zn  Zn655  1  0.71649767  0.51616667  0.37524300  1.0
  Zn  Zn656  1  0.71649767  0.84950000  0.37524300  1.0
  Zn  Zn657  1  0.28316433  0.04950000  0.27524300  1.0
  Zn  Zn658  1  0.28316433  0.38283333  0.27524300  1.0
  Zn  Zn659  1  0.28316433  0.71616667  0.27524300  1.0
  Zn  Zn660  1  0.61649767  0.04950000  0.27524300  1.0
  Zn  Zn661  1  0.61649767  0.38283333  0.27524300  1.0
  Zn  Zn662  1  0.61649767  0.71616667  0.27524300  1.0
  Zn  Zn663  1  0.94983100  0.04950000  0.27524300  1.0
  Zn  Zn664  1  0.94983100  0.38283333  0.27524300  1.0
  Zn  Zn665  1  0.94983100  0.71616667  0.27524300  1.0
  Zn  Zn666  1  0.21683567  0.28383333  0.22475700  1.0
  Zn  Zn667  1  0.21683567  0.61716667  0.22475700  1.0
  Zn  Zn668  1  0.21683567  0.95050000  0.22475700  1.0
  Zn  Zn669  1  0.55016900  0.28383333  0.22475700  1.0
  Zn  Zn670  1  0.55016900  0.61716667  0.22475700  1.0
  Zn  Zn671  1  0.55016900  0.95050000  0.22475700  1.0
  Zn  Zn672  1  0.88350233  0.28383333  0.22475700  1.0
  Zn  Zn673  1  0.88350233  0.61716667  0.22475700  1.0
  Zn  Zn674  1  0.88350233  0.95050000  0.22475700  1.0
  Zn  Zn675  1  0.31683567  0.08383333  0.32475700  1.0
  Zn  Zn676  1  0.31683567  0.41716667  0.32475700  1.0
  Zn  Zn677  1  0.31683567  0.75050000  0.32475700  1.0
  Zn  Zn678  1  0.65016900  0.08383333  0.32475700  1.0
  Zn  Zn679  1  0.65016900  0.41716667  0.32475700  1.0
  Zn  Zn680  1  0.65016900  0.75050000  0.32475700  1.0
  Zn  Zn681  1  0.98350233  0.08383333  0.32475700  1.0
  Zn  Zn682  1  0.98350233  0.41716667  0.32475700  1.0
  Zn  Zn683  1  0.98350233  0.75050000  0.32475700  1.0
  Zn  Zn684  1  0.26100123  0.26971987  0.37842390  1.0
  Zn  Zn685  1  0.26100123  0.60305320  0.37842390  1.0
  Zn  Zn686  1  0.26100123  0.93638653  0.37842390  1.0
  Zn  Zn687  1  0.59433457  0.26971987  0.37842390  1.0
  Zn  Zn688  1  0.59433457  0.60305320  0.37842390  1.0
  Zn  Zn689  1  0.59433457  0.93638653  0.37842390  1.0
  Zn  Zn690  1  0.92766790  0.26971987  0.37842390  1.0
  Zn  Zn691  1  0.92766790  0.60305320  0.37842390  1.0
  Zn  Zn692  1  0.92766790  0.93638653  0.37842390  1.0
  Zn  Zn693  1  0.16100123  0.13638653  0.27842390  1.0
  Zn  Zn694  1  0.16100123  0.46971987  0.27842390  1.0
  Zn  Zn695  1  0.16100123  0.80305320  0.27842390  1.0
  Zn  Zn696  1  0.49433457  0.13638653  0.27842390  1.0
  Zn  Zn697  1  0.49433457  0.46971987  0.27842390  1.0
  Zn  Zn698  1  0.49433457  0.80305320  0.27842390  1.0
  Zn  Zn699  1  0.82766790  0.13638653  0.27842390  1.0
  Zn  Zn700  1  0.82766790  0.46971987  0.27842390  1.0
  Zn  Zn701  1  0.82766790  0.80305320  0.27842390  1.0
  Zn  Zn702  1  0.00566543  0.19694680  0.22157610  1.0
  Zn  Zn703  1  0.00566543  0.53028013  0.22157610  1.0
  Zn  Zn704  1  0.00566543  0.86361347  0.22157610  1.0
  Zn  Zn705  1  0.33899877  0.19694680  0.22157610  1.0
  Zn  Zn706  1  0.33899877  0.53028013  0.22157610  1.0
  Zn  Zn707  1  0.33899877  0.86361347  0.22157610  1.0
  Zn  Zn708  1  0.67233210  0.19694680  0.22157610  1.0
  Zn  Zn709  1  0.67233210  0.53028013  0.22157610  1.0
  Zn  Zn710  1  0.67233210  0.86361347  0.22157610  1.0
  Zn  Zn711  1  0.10566543  0.33028013  0.32157610  1.0
  Zn  Zn712  1  0.10566543  0.66361347  0.32157610  1.0
  Zn  Zn713  1  0.10566543  0.99694680  0.32157610  1.0
  Zn  Zn714  1  0.43899877  0.33028013  0.32157610  1.0
  Zn  Zn715  1  0.43899877  0.66361347  0.32157610  1.0
  Zn  Zn716  1  0.43899877  0.99694680  0.32157610  1.0
  Zn  Zn717  1  0.77233210  0.33028013  0.32157610  1.0
  Zn  Zn718  1  0.77233210  0.66361347  0.32157610  1.0
  Zn  Zn719  1  0.77233210  0.99694680  0.32157610  1.0
  Zn  Zn720  1  0.03948870  0.23354493  0.26814870  1.0
  Zn  Zn721  1  0.03948870  0.56687827  0.26814870  1.0
  Zn  Zn722  1  0.03948870  0.90021160  0.26814870  1.0
  Zn  Zn723  1  0.37282203  0.23354493  0.26814870  1.0
  Zn  Zn724  1  0.37282203  0.56687827  0.26814870  1.0
  Zn  Zn725  1  0.37282203  0.90021160  0.26814870  1.0
  Zn  Zn726  1  0.70615537  0.23354493  0.26814870  1.0
  Zn  Zn727  1  0.70615537  0.56687827  0.26814870  1.0
  Zn  Zn728  1  0.70615537  0.90021160  0.26814870  1.0
  Zn  Zn729  1  0.13948870  0.03354493  0.36814870  1.0
  Zn  Zn730  1  0.13948870  0.36687827  0.36814870  1.0
  Zn  Zn731  1  0.13948870  0.70021160  0.36814870  1.0
  Zn  Zn732  1  0.47282203  0.03354493  0.36814870  1.0
  Zn  Zn733  1  0.47282203  0.36687827  0.36814870  1.0
  Zn  Zn734  1  0.47282203  0.70021160  0.36814870  1.0
  Zn  Zn735  1  0.80615537  0.03354493  0.36814870  1.0
  Zn  Zn736  1  0.80615537  0.36687827  0.36814870  1.0
  Zn  Zn737  1  0.80615537  0.70021160  0.36814870  1.0
  Zn  Zn738  1  0.22717797  0.23312173  0.33185130  1.0
  Zn  Zn739  1  0.22717797  0.56645507  0.33185130  1.0
  Zn  Zn740  1  0.22717797  0.89978840  0.33185130  1.0
  Zn  Zn741  1  0.56051130  0.23312173  0.33185130  1.0
  Zn  Zn742  1  0.56051130  0.56645507  0.33185130  1.0
  Zn  Zn743  1  0.56051130  0.89978840  0.33185130  1.0
  Zn  Zn744  1  0.89384463  0.23312173  0.33185130  1.0
  Zn  Zn745  1  0.89384463  0.56645507  0.33185130  1.0
  Zn  Zn746  1  0.89384463  0.89978840  0.33185130  1.0
  Zn  Zn747  1  0.12717797  0.09978840  0.23185130  1.0
  Zn  Zn748  1  0.12717797  0.43312173  0.23185130  1.0
  Zn  Zn749  1  0.12717797  0.76645507  0.23185130  1.0
  Zn  Zn750  1  0.46051130  0.09978840  0.23185130  1.0
  Zn  Zn751  1  0.46051130  0.43312173  0.23185130  1.0
  Zn  Zn752  1  0.46051130  0.76645507  0.23185130  1.0
  Zn  Zn753  1  0.79384463  0.09978840  0.23185130  1.0
  Zn  Zn754  1  0.79384463  0.43312173  0.23185130  1.0
  Zn  Zn755  1  0.79384463  0.76645507  0.23185130  1.0
  Zn  Zn756  1  0.16785147  0.28947640  0.38860280  1.0
  Zn  Zn757  1  0.16785147  0.62280973  0.38860280  1.0
  Zn  Zn758  1  0.16785147  0.95614307  0.38860280  1.0
  Zn  Zn759  1  0.50118480  0.28947640  0.38860280  1.0
  Zn  Zn760  1  0.50118480  0.62280973  0.38860280  1.0
  Zn  Zn761  1  0.50118480  0.95614307  0.38860280  1.0
  Zn  Zn762  1  0.83451813  0.28947640  0.38860280  1.0
  Zn  Zn763  1  0.83451813  0.62280973  0.38860280  1.0
  Zn  Zn764  1  0.83451813  0.95614307  0.38860280  1.0
  Zn  Zn765  1  0.06785147  0.15614307  0.28860280  1.0
  Zn  Zn766  1  0.06785147  0.48947640  0.28860280  1.0
  Zn  Zn767  1  0.06785147  0.82280973  0.28860280  1.0
  Zn  Zn768  1  0.40118480  0.15614307  0.28860280  1.0
  Zn  Zn769  1  0.40118480  0.48947640  0.28860280  1.0
  Zn  Zn770  1  0.40118480  0.82280973  0.28860280  1.0
  Zn  Zn771  1  0.73451813  0.15614307  0.28860280  1.0
  Zn  Zn772  1  0.73451813  0.48947640  0.28860280  1.0
  Zn  Zn773  1  0.73451813  0.82280973  0.28860280  1.0
  Zn  Zn774  1  0.09881520  0.17719027  0.21139720  1.0
  Zn  Zn775  1  0.09881520  0.51052360  0.21139720  1.0
  Zn  Zn776  1  0.09881520  0.84385693  0.21139720  1.0
  Zn  Zn777  1  0.43214853  0.17719027  0.21139720  1.0
  Zn  Zn778  1  0.43214853  0.51052360  0.21139720  1.0
  Zn  Zn779  1  0.43214853  0.84385693  0.21139720  1.0
  Zn  Zn780  1  0.76548187  0.17719027  0.21139720  1.0
  Zn  Zn781  1  0.76548187  0.51052360  0.21139720  1.0
  Zn  Zn782  1  0.76548187  0.84385693  0.21139720  1.0
  Zn  Zn783  1  0.19881520  0.31052360  0.31139720  1.0
  Zn  Zn784  1  0.19881520  0.64385693  0.31139720  1.0
  Zn  Zn785  1  0.19881520  0.97719027  0.31139720  1.0
  Zn  Zn786  1  0.53214853  0.31052360  0.31139720  1.0
  Zn  Zn787  1  0.53214853  0.64385693  0.31139720  1.0
  Zn  Zn788  1  0.53214853  0.97719027  0.31139720  1.0
  Zn  Zn789  1  0.86548187  0.31052360  0.31139720  1.0
  Zn  Zn790  1  0.86548187  0.64385693  0.31139720  1.0
  Zn  Zn791  1  0.86548187  0.97719027  0.31139720  1.0
  Zn  Zn792  1  0.28315913  0.26232707  0.27524980  1.0
  Zn  Zn793  1  0.28315913  0.59566040  0.27524980  1.0
  Zn  Zn794  1  0.28315913  0.92899373  0.27524980  1.0
  Zn  Zn795  1  0.61649247  0.26232707  0.27524980  1.0
  Zn  Zn796  1  0.61649247  0.59566040  0.27524980  1.0
  Zn  Zn797  1  0.61649247  0.92899373  0.27524980  1.0
  Zn  Zn798  1  0.94982580  0.26232707  0.27524980  1.0
  Zn  Zn799  1  0.94982580  0.59566040  0.27524980  1.0
  Zn  Zn800  1  0.94982580  0.92899373  0.27524980  1.0
  Zn  Zn801  1  0.04982580  0.06232707  0.37524980  1.0
  Zn  Zn802  1  0.04982580  0.39566040  0.37524980  1.0
  Zn  Zn803  1  0.04982580  0.72899373  0.37524980  1.0
  Zn  Zn804  1  0.38315913  0.06232707  0.37524980  1.0
  Zn  Zn805  1  0.38315913  0.39566040  0.37524980  1.0
  Zn  Zn806  1  0.38315913  0.72899373  0.37524980  1.0
  Zn  Zn807  1  0.71649247  0.06232707  0.37524980  1.0
  Zn  Zn808  1  0.71649247  0.39566040  0.37524980  1.0
  Zn  Zn809  1  0.71649247  0.72899373  0.37524980  1.0
  Zn  Zn810  1  0.31684087  0.20433960  0.32475020  1.0
  Zn  Zn811  1  0.31684087  0.53767293  0.32475020  1.0
  Zn  Zn812  1  0.31684087  0.87100627  0.32475020  1.0
  Zn  Zn813  1  0.65017420  0.20433960  0.32475020  1.0
  Zn  Zn814  1  0.65017420  0.53767293  0.32475020  1.0
  Zn  Zn815  1  0.65017420  0.87100627  0.32475020  1.0
  Zn  Zn816  1  0.98350753  0.20433960  0.32475020  1.0
  Zn  Zn817  1  0.98350753  0.53767293  0.32475020  1.0
  Zn  Zn818  1  0.98350753  0.87100627  0.32475020  1.0
  Zn  Zn819  1  0.21684087  0.07100627  0.22475020  1.0
  Zn  Zn820  1  0.21684087  0.40433960  0.22475020  1.0
  Zn  Zn821  1  0.21684087  0.73767293  0.22475020  1.0
  Zn  Zn822  1  0.55017420  0.07100627  0.22475020  1.0
  Zn  Zn823  1  0.55017420  0.40433960  0.22475020  1.0
  Zn  Zn824  1  0.55017420  0.73767293  0.22475020  1.0
  Zn  Zn825  1  0.88350753  0.07100627  0.22475020  1.0
  Zn  Zn826  1  0.88350753  0.40433960  0.22475020  1.0
  Zn  Zn827  1  0.88350753  0.73767293  0.22475020  1.0
  Zn  Zn828  1  0.10748850  0.21240500  0.31348450  1.0
  Zn  Zn829  1  0.10748850  0.54573833  0.31348450  1.0
  Zn  Zn830  1  0.10748850  0.87907167  0.31348450  1.0
  Zn  Zn831  1  0.44082183  0.21240500  0.31348450  1.0
  Zn  Zn832  1  0.44082183  0.54573833  0.31348450  1.0
  Zn  Zn833  1  0.44082183  0.87907167  0.31348450  1.0
  Zn  Zn834  1  0.77415517  0.21240500  0.31348450  1.0
  Zn  Zn835  1  0.77415517  0.54573833  0.31348450  1.0
  Zn  Zn836  1  0.77415517  0.87907167  0.31348450  1.0
  Zn  Zn837  1  0.00748850  0.07907167  0.21348450  1.0
  Zn  Zn838  1  0.00748850  0.41240500  0.21348450  1.0
  Zn  Zn839  1  0.00748850  0.74573833  0.21348450  1.0
  Zn  Zn840  1  0.34082183  0.07907167  0.21348450  1.0
  Zn  Zn841  1  0.34082183  0.41240500  0.21348450  1.0
  Zn  Zn842  1  0.34082183  0.74573833  0.21348450  1.0
  Zn  Zn843  1  0.67415517  0.07907167  0.21348450  1.0
  Zn  Zn844  1  0.67415517  0.41240500  0.21348450  1.0
  Zn  Zn845  1  0.67415517  0.74573833  0.21348450  1.0
  Zn  Zn846  1  0.15917817  0.25426167  0.28651550  1.0
  Zn  Zn847  1  0.15917817  0.58759500  0.28651550  1.0
  Zn  Zn848  1  0.15917817  0.92092833  0.28651550  1.0
  Zn  Zn849  1  0.49251150  0.25426167  0.28651550  1.0
  Zn  Zn850  1  0.49251150  0.58759500  0.28651550  1.0
  Zn  Zn851  1  0.49251150  0.92092833  0.28651550  1.0
  Zn  Zn852  1  0.82584483  0.25426167  0.28651550  1.0
  Zn  Zn853  1  0.82584483  0.58759500  0.28651550  1.0
  Zn  Zn854  1  0.82584483  0.92092833  0.28651550  1.0
  Zn  Zn855  1  0.25917817  0.05426167  0.38651550  1.0
  Zn  Zn856  1  0.25917817  0.38759500  0.38651550  1.0
  Zn  Zn857  1  0.25917817  0.72092833  0.38651550  1.0
  Zn  Zn858  1  0.59251150  0.05426167  0.38651550  1.0
  Zn  Zn859  1  0.59251150  0.38759500  0.38651550  1.0
  Zn  Zn860  1  0.59251150  0.72092833  0.38651550  1.0
  Zn  Zn861  1  0.92584483  0.05426167  0.38651550  1.0
  Zn  Zn862  1  0.92584483  0.38759500  0.38651550  1.0
  Zn  Zn863  1  0.92584483  0.72092833  0.38651550  1.0
  Zn  Zn864  1  0.24801913  0.20349540  0.24844080  1.0
  Zn  Zn865  1  0.24801913  0.53682873  0.24844080  1.0
  Zn  Zn866  1  0.24801913  0.87016207  0.24844080  1.0
  Zn  Zn867  1  0.58135247  0.20349540  0.24844080  1.0
  Zn  Zn868  1  0.58135247  0.53682873  0.24844080  1.0
  Zn  Zn869  1  0.58135247  0.87016207  0.24844080  1.0
  Zn  Zn870  1  0.91468580  0.20349540  0.24844080  1.0
  Zn  Zn871  1  0.91468580  0.53682873  0.24844080  1.0
  Zn  Zn872  1  0.91468580  0.87016207  0.24844080  1.0
  Zn  Zn873  1  0.01468580  0.00349540  0.34844080  1.0
  Zn  Zn874  1  0.01468580  0.33682873  0.34844080  1.0
  Zn  Zn875  1  0.01468580  0.67016207  0.34844080  1.0
  Zn  Zn876  1  0.34801913  0.00349540  0.34844080  1.0
  Zn  Zn877  1  0.34801913  0.33682873  0.34844080  1.0
  Zn  Zn878  1  0.34801913  0.67016207  0.34844080  1.0
  Zn  Zn879  1  0.68135247  0.00349540  0.34844080  1.0
  Zn  Zn880  1  0.68135247  0.33682873  0.34844080  1.0
  Zn  Zn881  1  0.68135247  0.67016207  0.34844080  1.0
  Zn  Zn882  1  0.01864753  0.26317127  0.35155920  1.0
  Zn  Zn883  1  0.01864753  0.59650460  0.35155920  1.0
  Zn  Zn884  1  0.01864753  0.92983793  0.35155920  1.0
  Zn  Zn885  1  0.35198087  0.26317127  0.35155920  1.0
  Zn  Zn886  1  0.35198087  0.59650460  0.35155920  1.0
  Zn  Zn887  1  0.35198087  0.92983793  0.35155920  1.0
  Zn  Zn888  1  0.68531420  0.26317127  0.35155920  1.0
  Zn  Zn889  1  0.68531420  0.59650460  0.35155920  1.0
  Zn  Zn890  1  0.68531420  0.92983793  0.35155920  1.0
  Zn  Zn891  1  0.25198087  0.12983793  0.25155920  1.0
  Zn  Zn892  1  0.25198087  0.46317127  0.25155920  1.0
  Zn  Zn893  1  0.25198087  0.79650460  0.25155920  1.0
  Zn  Zn894  1  0.58531420  0.12983793  0.25155920  1.0
  Zn  Zn895  1  0.58531420  0.46317127  0.25155920  1.0
  Zn  Zn896  1  0.58531420  0.79650460  0.25155920  1.0
  Zn  Zn897  1  0.91864753  0.12983793  0.25155920  1.0
  Zn  Zn898  1  0.91864753  0.46317127  0.25155920  1.0
  Zn  Zn899  1  0.91864753  0.79650460  0.25155920  1.0
