# generated using pymatgen
data_Zn22Ni3
_symmetry_space_group_name_H-M   'P 1'
_cell_length_a   27.03661814
_cell_length_b   32.01402453
_cell_length_c   37.60725601
_cell_angle_alpha   95.10845383
_cell_angle_beta   92.81404400
_cell_angle_gamma   97.76025377
_symmetry_Int_Tables_number   1
_chemical_formula_structural   Zn22Ni3
_chemical_formula_sum   'Zn792 Ni108'
_cell_volume   32063.11494498
_cell_formula_units_Z   36
loop_
 _symmetry_equiv_pos_site_id
 _symmetry_equiv_pos_as_xyz
  1  'x, y, z'
loop_
 _atom_site_type_symbol
 _atom_site_label
 _atom_site_symmetry_multiplicity
 _atom_site_fract_x
 _atom_site_fract_y
 _atom_site_fract_z
 _atom_site_occupancy
  Ni  Ni0  1  0.29848507  0.21468183  0.19725770  1.0
  Ni  Ni1  1  0.29848507  0.54801517  0.19725770  1.0
  Ni  Ni2  1  0.29848507  0.88134850  0.19725770  1.0
  Ni  Ni3  1  0.63181840  0.21468183  0.19725770  1.0
  Ni  Ni4  1  0.63181840  0.54801517  0.19725770  1.0
  Ni  Ni5  1  0.63181840  0.88134850  0.19725770  1.0
  Ni  Ni6  1  0.96515173  0.21468183  0.19725770  1.0
  Ni  Ni7  1  0.96515173  0.54801517  0.19725770  1.0
  Ni  Ni8  1  0.96515173  0.88134850  0.19725770  1.0
  Ni  Ni9  1  0.09848507  0.04801517  0.09725770  1.0
  Ni  Ni10  1  0.09848507  0.38134850  0.09725770  1.0
  Ni  Ni11  1  0.09848507  0.71468183  0.09725770  1.0
  Ni  Ni12  1  0.43181840  0.04801517  0.09725770  1.0
  Ni  Ni13  1  0.43181840  0.38134850  0.09725770  1.0
  Ni  Ni14  1  0.43181840  0.71468183  0.09725770  1.0
  Ni  Ni15  1  0.76515173  0.04801517  0.09725770  1.0
  Ni  Ni16  1  0.76515173  0.38134850  0.09725770  1.0
  Ni  Ni17  1  0.76515173  0.71468183  0.09725770  1.0
  Ni  Ni18  1  0.10151493  0.11865150  0.00274230  1.0
  Ni  Ni19  1  0.10151493  0.45198483  0.00274230  1.0
  Ni  Ni20  1  0.10151493  0.78531817  0.00274230  1.0
  Ni  Ni21  1  0.43484827  0.11865150  0.00274230  1.0
  Ni  Ni22  1  0.43484827  0.45198483  0.00274230  1.0
  Ni  Ni23  1  0.43484827  0.78531817  0.00274230  1.0
  Ni  Ni24  1  0.76818160  0.11865150  0.00274230  1.0
  Ni  Ni25  1  0.76818160  0.45198483  0.00274230  1.0
  Ni  Ni26  1  0.76818160  0.78531817  0.00274230  1.0
  Ni  Ni27  1  0.30151493  0.28531817  0.10274230  1.0
  Ni  Ni28  1  0.30151493  0.61865150  0.10274230  1.0
  Ni  Ni29  1  0.30151493  0.95198483  0.10274230  1.0
  Ni  Ni30  1  0.63484827  0.28531817  0.10274230  1.0
  Ni  Ni31  1  0.63484827  0.61865150  0.10274230  1.0
  Ni  Ni32  1  0.63484827  0.95198483  0.10274230  1.0
  Ni  Ni33  1  0.96818160  0.28531817  0.10274230  1.0
  Ni  Ni34  1  0.96818160  0.61865150  0.10274230  1.0
  Ni  Ni35  1  0.96818160  0.95198483  0.10274230  1.0
  Ni  Ni36  1  0.13333333  0.25000000  0.15000000  1.0
  Ni  Ni37  1  0.13333333  0.58333333  0.15000000  1.0
  Ni  Ni38  1  0.13333333  0.91666667  0.15000000  1.0
  Ni  Ni39  1  0.46666667  0.25000000  0.15000000  1.0
  Ni  Ni40  1  0.46666667  0.58333333  0.15000000  1.0
  Ni  Ni41  1  0.46666667  0.91666667  0.15000000  1.0
  Ni  Ni42  1  0.80000000  0.25000000  0.15000000  1.0
  Ni  Ni43  1  0.80000000  0.58333333  0.15000000  1.0
  Ni  Ni44  1  0.80000000  0.91666667  0.15000000  1.0
  Ni  Ni45  1  0.26666667  0.08333333  0.05000000  1.0
  Ni  Ni46  1  0.26666667  0.41666667  0.05000000  1.0
  Ni  Ni47  1  0.26666667  0.75000000  0.05000000  1.0
  Ni  Ni48  1  0.60000000  0.08333333  0.05000000  1.0
  Ni  Ni49  1  0.60000000  0.41666667  0.05000000  1.0
  Ni  Ni50  1  0.60000000  0.75000000  0.05000000  1.0
  Ni  Ni51  1  0.93333333  0.08333333  0.05000000  1.0
  Ni  Ni52  1  0.93333333  0.41666667  0.05000000  1.0
  Ni  Ni53  1  0.93333333  0.75000000  0.05000000  1.0
  Ni  Ni54  1  0.03181840  0.21468183  0.39725770  1.0
  Ni  Ni55  1  0.03181840  0.54801517  0.39725770  1.0
  Ni  Ni56  1  0.03181840  0.88134850  0.39725770  1.0
  Ni  Ni57  1  0.36515173  0.21468183  0.39725770  1.0
  Ni  Ni58  1  0.36515173  0.54801517  0.39725770  1.0
  Ni  Ni59  1  0.36515173  0.88134850  0.39725770  1.0
  Ni  Ni60  1  0.69848507  0.21468183  0.39725770  1.0
  Ni  Ni61  1  0.69848507  0.54801517  0.39725770  1.0
  Ni  Ni62  1  0.69848507  0.88134850  0.39725770  1.0
  Ni  Ni63  1  0.16515173  0.04801517  0.29725770  1.0
  Ni  Ni64  1  0.16515173  0.38134850  0.29725770  1.0
  Ni  Ni65  1  0.16515173  0.71468183  0.29725770  1.0
  Ni  Ni66  1  0.49848507  0.04801517  0.29725770  1.0
  Ni  Ni67  1  0.49848507  0.38134850  0.29725770  1.0
  Ni  Ni68  1  0.49848507  0.71468183  0.29725770  1.0
  Ni  Ni69  1  0.83181840  0.04801517  0.29725770  1.0
  Ni  Ni70  1  0.83181840  0.38134850  0.29725770  1.0
  Ni  Ni71  1  0.83181840  0.71468183  0.29725770  1.0
  Ni  Ni72  1  0.16818160  0.11865150  0.20274230  1.0
  Ni  Ni73  1  0.16818160  0.45198483  0.20274230  1.0
  Ni  Ni74  1  0.16818160  0.78531817  0.20274230  1.0
  Ni  Ni75  1  0.50151493  0.11865150  0.20274230  1.0
  Ni  Ni76  1  0.50151493  0.45198483  0.20274230  1.0
  Ni  Ni77  1  0.50151493  0.78531817  0.20274230  1.0
  Ni  Ni78  1  0.83484827  0.11865150  0.20274230  1.0
  Ni  Ni79  1  0.83484827  0.45198483  0.20274230  1.0
  Ni  Ni80  1  0.83484827  0.78531817  0.20274230  1.0
  Ni  Ni81  1  0.03484827  0.28531817  0.30274230  1.0
  Ni  Ni82  1  0.03484827  0.61865150  0.30274230  1.0
  Ni  Ni83  1  0.03484827  0.95198483  0.30274230  1.0
  Ni  Ni84  1  0.36818160  0.28531817  0.30274230  1.0
  Ni  Ni85  1  0.36818160  0.61865150  0.30274230  1.0
  Ni  Ni86  1  0.36818160  0.95198483  0.30274230  1.0
  Ni  Ni87  1  0.70151493  0.28531817  0.30274230  1.0
  Ni  Ni88  1  0.70151493  0.61865150  0.30274230  1.0
  Ni  Ni89  1  0.70151493  0.95198483  0.30274230  1.0
  Ni  Ni90  1  0.20000000  0.25000000  0.35000000  1.0
  Ni  Ni91  1  0.20000000  0.58333333  0.35000000  1.0
  Ni  Ni92  1  0.20000000  0.91666667  0.35000000  1.0
  Ni  Ni93  1  0.53333333  0.25000000  0.35000000  1.0
  Ni  Ni94  1  0.53333333  0.58333333  0.35000000  1.0
  Ni  Ni95  1  0.53333333  0.91666667  0.35000000  1.0
  Ni  Ni96  1  0.86666667  0.25000000  0.35000000  1.0
  Ni  Ni97  1  0.86666667  0.58333333  0.35000000  1.0
  Ni  Ni98  1  0.86666667  0.91666667  0.35000000  1.0
  Ni  Ni99  1  0.00000000  0.08333333  0.25000000  1.0
  Ni  Ni100  1  0.00000000  0.41666667  0.25000000  1.0
  Ni  Ni101  1  0.00000000  0.75000000  0.25000000  1.0
  Ni  Ni102  1  0.33333333  0.08333333  0.25000000  1.0
  Ni  Ni103  1  0.33333333  0.41666667  0.25000000  1.0
  Ni  Ni104  1  0.33333333  0.75000000  0.25000000  1.0
  Ni  Ni105  1  0.66666667  0.08333333  0.25000000  1.0
  Ni  Ni106  1  0.66666667  0.41666667  0.25000000  1.0
  Ni  Ni107  1  0.66666667  0.75000000  0.25000000  1.0
  Zn  Zn108  1  0.27057753  0.15820567  0.02605260  1.0
  Zn  Zn109  1  0.27057753  0.49153900  0.02605260  1.0
  Zn  Zn110  1  0.27057753  0.82487233  0.02605260  1.0
  Zn  Zn111  1  0.60391087  0.15820567  0.02605260  1.0
  Zn  Zn112  1  0.60391087  0.49153900  0.02605260  1.0
  Zn  Zn113  1  0.60391087  0.82487233  0.02605260  1.0
  Zn  Zn114  1  0.93724420  0.15820567  0.02605260  1.0
  Zn  Zn115  1  0.93724420  0.49153900  0.02605260  1.0
  Zn  Zn116  1  0.93724420  0.82487233  0.02605260  1.0
  Zn  Zn117  1  0.13724420  0.32487233  0.12605260  1.0
  Zn  Zn118  1  0.13724420  0.65820567  0.12605260  1.0
  Zn  Zn119  1  0.13724420  0.99153900  0.12605260  1.0
  Zn  Zn120  1  0.47057753  0.32487233  0.12605260  1.0
  Zn  Zn121  1  0.47057753  0.65820567  0.12605260  1.0
  Zn  Zn122  1  0.47057753  0.99153900  0.12605260  1.0
  Zn  Zn123  1  0.80391087  0.32487233  0.12605260  1.0
  Zn  Zn124  1  0.80391087  0.65820567  0.12605260  1.0
  Zn  Zn125  1  0.80391087  0.99153900  0.12605260  1.0
  Zn  Zn126  1  0.12942247  0.17512767  0.17394740  1.0
  Zn  Zn127  1  0.12942247  0.50846100  0.17394740  1.0
  Zn  Zn128  1  0.12942247  0.84179433  0.17394740  1.0
  Zn  Zn129  1  0.46275580  0.17512767  0.17394740  1.0
  Zn  Zn130  1  0.46275580  0.50846100  0.17394740  1.0
  Zn  Zn131  1  0.46275580  0.84179433  0.17394740  1.0
  Zn  Zn132  1  0.79608913  0.17512767  0.17394740  1.0
  Zn  Zn133  1  0.79608913  0.50846100  0.17394740  1.0
  Zn  Zn134  1  0.79608913  0.84179433  0.17394740  1.0
  Zn  Zn135  1  0.26275580  0.00846100  0.07394740  1.0
  Zn  Zn136  1  0.26275580  0.34179433  0.07394740  1.0
  Zn  Zn137  1  0.26275580  0.67512767  0.07394740  1.0
  Zn  Zn138  1  0.59608913  0.00846100  0.07394740  1.0
  Zn  Zn139  1  0.59608913  0.34179433  0.07394740  1.0
  Zn  Zn140  1  0.59608913  0.67512767  0.07394740  1.0
  Zn  Zn141  1  0.92942247  0.00846100  0.07394740  1.0
  Zn  Zn142  1  0.92942247  0.34179433  0.07394740  1.0
  Zn  Zn143  1  0.92942247  0.67512767  0.07394740  1.0
  Zn  Zn144  1  0.01004260  0.10923617  0.01348230  1.0
  Zn  Zn145  1  0.01004260  0.44256950  0.01348230  1.0
  Zn  Zn146  1  0.01004260  0.77590283  0.01348230  1.0
  Zn  Zn147  1  0.34337593  0.10923617  0.01348230  1.0
  Zn  Zn148  1  0.34337593  0.44256950  0.01348230  1.0
  Zn  Zn149  1  0.34337593  0.77590283  0.01348230  1.0
  Zn  Zn150  1  0.67670927  0.10923617  0.01348230  1.0
  Zn  Zn151  1  0.67670927  0.44256950  0.01348230  1.0
  Zn  Zn152  1  0.67670927  0.77590283  0.01348230  1.0
  Zn  Zn153  1  0.21004260  0.27590283  0.11348230  1.0
  Zn  Zn154  1  0.21004260  0.60923617  0.11348230  1.0
  Zn  Zn155  1  0.21004260  0.94256950  0.11348230  1.0
  Zn  Zn156  1  0.54337593  0.27590283  0.11348230  1.0
  Zn  Zn157  1  0.54337593  0.60923617  0.11348230  1.0
  Zn  Zn158  1  0.54337593  0.94256950  0.11348230  1.0
  Zn  Zn159  1  0.87670927  0.27590283  0.11348230  1.0
  Zn  Zn160  1  0.87670927  0.60923617  0.11348230  1.0
  Zn  Zn161  1  0.87670927  0.94256950  0.11348230  1.0
  Zn  Zn162  1  0.05662407  0.22409717  0.18651770  1.0
  Zn  Zn163  1  0.05662407  0.55743050  0.18651770  1.0
  Zn  Zn164  1  0.05662407  0.89076383  0.18651770  1.0
  Zn  Zn165  1  0.38995740  0.22409717  0.18651770  1.0
  Zn  Zn166  1  0.38995740  0.55743050  0.18651770  1.0
  Zn  Zn167  1  0.38995740  0.89076383  0.18651770  1.0
  Zn  Zn168  1  0.72329073  0.22409717  0.18651770  1.0
  Zn  Zn169  1  0.72329073  0.55743050  0.18651770  1.0
  Zn  Zn170  1  0.72329073  0.89076383  0.18651770  1.0
  Zn  Zn171  1  0.18995740  0.05743050  0.08651770  1.0
  Zn  Zn172  1  0.18995740  0.39076383  0.08651770  1.0
  Zn  Zn173  1  0.18995740  0.72409717  0.08651770  1.0
  Zn  Zn174  1  0.52329073  0.05743050  0.08651770  1.0
  Zn  Zn175  1  0.52329073  0.39076383  0.08651770  1.0
  Zn  Zn176  1  0.52329073  0.72409717  0.08651770  1.0
  Zn  Zn177  1  0.85662407  0.05743050  0.08651770  1.0
  Zn  Zn178  1  0.85662407  0.39076383  0.08651770  1.0
  Zn  Zn179  1  0.85662407  0.72409717  0.08651770  1.0
  Zn  Zn180  1  0.29034147  0.27959350  0.03224390  1.0
  Zn  Zn181  1  0.29034147  0.61292683  0.03224390  1.0
  Zn  Zn182  1  0.29034147  0.94626017  0.03224390  1.0
  Zn  Zn183  1  0.62367480  0.27959350  0.03224390  1.0
  Zn  Zn184  1  0.62367480  0.61292683  0.03224390  1.0
  Zn  Zn185  1  0.62367480  0.94626017  0.03224390  1.0
  Zn  Zn186  1  0.95700813  0.27959350  0.03224390  1.0
  Zn  Zn187  1  0.95700813  0.61292683  0.03224390  1.0
  Zn  Zn188  1  0.95700813  0.94626017  0.03224390  1.0
  Zn  Zn189  1  0.15700813  0.11292683  0.13224390  1.0
  Zn  Zn190  1  0.15700813  0.44626017  0.13224390  1.0
  Zn  Zn191  1  0.15700813  0.77959350  0.13224390  1.0
  Zn  Zn192  1  0.49034147  0.11292683  0.13224390  1.0
  Zn  Zn193  1  0.49034147  0.44626017  0.13224390  1.0
  Zn  Zn194  1  0.49034147  0.77959350  0.13224390  1.0
  Zn  Zn195  1  0.82367480  0.11292683  0.13224390  1.0
  Zn  Zn196  1  0.82367480  0.44626017  0.13224390  1.0
  Zn  Zn197  1  0.82367480  0.77959350  0.13224390  1.0
  Zn  Zn198  1  0.24299187  0.22040650  0.06775610  1.0
  Zn  Zn199  1  0.24299187  0.55373983  0.06775610  1.0
  Zn  Zn200  1  0.24299187  0.88707317  0.06775610  1.0
  Zn  Zn201  1  0.57632520  0.22040650  0.06775610  1.0
  Zn  Zn202  1  0.57632520  0.55373983  0.06775610  1.0
  Zn  Zn203  1  0.57632520  0.88707317  0.06775610  1.0
  Zn  Zn204  1  0.90965853  0.22040650  0.06775610  1.0
  Zn  Zn205  1  0.90965853  0.55373983  0.06775610  1.0
  Zn  Zn206  1  0.90965853  0.88707317  0.06775610  1.0
  Zn  Zn207  1  0.10965853  0.05373983  0.16775610  1.0
  Zn  Zn208  1  0.10965853  0.38707317  0.16775610  1.0
  Zn  Zn209  1  0.10965853  0.72040650  0.16775610  1.0
  Zn  Zn210  1  0.44299187  0.05373983  0.16775610  1.0
  Zn  Zn211  1  0.44299187  0.38707317  0.16775610  1.0
  Zn  Zn212  1  0.44299187  0.72040650  0.16775610  1.0
  Zn  Zn213  1  0.77632520  0.05373983  0.16775610  1.0
  Zn  Zn214  1  0.77632520  0.38707317  0.16775610  1.0
  Zn  Zn215  1  0.77632520  0.72040650  0.16775610  1.0
  Zn  Zn216  1  0.01641893  0.06419333  0.07240280  1.0
  Zn  Zn217  1  0.01641893  0.39752667  0.07240280  1.0
  Zn  Zn218  1  0.01641893  0.73086000  0.07240280  1.0
  Zn  Zn219  1  0.34975227  0.06419333  0.07240280  1.0
  Zn  Zn220  1  0.34975227  0.39752667  0.07240280  1.0
  Zn  Zn221  1  0.34975227  0.73086000  0.07240280  1.0
  Zn  Zn222  1  0.68308560  0.06419333  0.07240280  1.0
  Zn  Zn223  1  0.68308560  0.39752667  0.07240280  1.0
  Zn  Zn224  1  0.68308560  0.73086000  0.07240280  1.0
  Zn  Zn225  1  0.21641893  0.23086000  0.17240280  1.0
  Zn  Zn226  1  0.21641893  0.56419333  0.17240280  1.0
  Zn  Zn227  1  0.21641893  0.89752667  0.17240280  1.0
  Zn  Zn228  1  0.54975227  0.23086000  0.17240280  1.0
  Zn  Zn229  1  0.54975227  0.56419333  0.17240280  1.0
  Zn  Zn230  1  0.54975227  0.89752667  0.17240280  1.0
  Zn  Zn231  1  0.88308560  0.23086000  0.17240280  1.0
  Zn  Zn232  1  0.88308560  0.56419333  0.17240280  1.0
  Zn  Zn233  1  0.88308560  0.89752667  0.17240280  1.0
  Zn  Zn234  1  0.05024773  0.26914000  0.12759720  1.0
  Zn  Zn235  1  0.05024773  0.60247333  0.12759720  1.0
  Zn  Zn236  1  0.05024773  0.93580667  0.12759720  1.0
  Zn  Zn237  1  0.38358107  0.26914000  0.12759720  1.0
  Zn  Zn238  1  0.38358107  0.60247333  0.12759720  1.0
  Zn  Zn239  1  0.38358107  0.93580667  0.12759720  1.0
  Zn  Zn240  1  0.71691440  0.26914000  0.12759720  1.0
  Zn  Zn241  1  0.71691440  0.60247333  0.12759720  1.0
  Zn  Zn242  1  0.71691440  0.93580667  0.12759720  1.0
  Zn  Zn243  1  0.18358107  0.10247333  0.02759720  1.0
  Zn  Zn244  1  0.18358107  0.43580667  0.02759720  1.0
  Zn  Zn245  1  0.18358107  0.76914000  0.02759720  1.0
  Zn  Zn246  1  0.51691440  0.10247333  0.02759720  1.0
  Zn  Zn247  1  0.51691440  0.43580667  0.02759720  1.0
  Zn  Zn248  1  0.51691440  0.76914000  0.02759720  1.0
  Zn  Zn249  1  0.85024773  0.10247333  0.02759720  1.0
  Zn  Zn250  1  0.85024773  0.43580667  0.02759720  1.0
  Zn  Zn251  1  0.85024773  0.76914000  0.02759720  1.0
  Zn  Zn252  1  0.22984080  0.14124767  0.08950140  1.0
  Zn  Zn253  1  0.22984080  0.47458100  0.08950140  1.0
  Zn  Zn254  1  0.22984080  0.80791433  0.08950140  1.0
  Zn  Zn255  1  0.56317413  0.14124767  0.08950140  1.0
  Zn  Zn256  1  0.56317413  0.47458100  0.08950140  1.0
  Zn  Zn257  1  0.56317413  0.80791433  0.08950140  1.0
  Zn  Zn258  1  0.89650747  0.14124767  0.08950140  1.0
  Zn  Zn259  1  0.89650747  0.47458100  0.08950140  1.0
  Zn  Zn260  1  0.89650747  0.80791433  0.08950140  1.0
  Zn  Zn261  1  0.09650747  0.30791433  0.18950140  1.0
  Zn  Zn262  1  0.09650747  0.64124767  0.18950140  1.0
  Zn  Zn263  1  0.09650747  0.97458100  0.18950140  1.0
  Zn  Zn264  1  0.42984080  0.30791433  0.18950140  1.0
  Zn  Zn265  1  0.42984080  0.64124767  0.18950140  1.0
  Zn  Zn266  1  0.42984080  0.97458100  0.18950140  1.0
  Zn  Zn267  1  0.76317413  0.30791433  0.18950140  1.0
  Zn  Zn268  1  0.76317413  0.64124767  0.18950140  1.0
  Zn  Zn269  1  0.76317413  0.97458100  0.18950140  1.0
  Zn  Zn270  1  0.17015920  0.19208567  0.11049860  1.0
  Zn  Zn271  1  0.17015920  0.52541900  0.11049860  1.0
  Zn  Zn272  1  0.17015920  0.85875233  0.11049860  1.0
  Zn  Zn273  1  0.50349253  0.19208567  0.11049860  1.0
  Zn  Zn274  1  0.50349253  0.52541900  0.11049860  1.0
  Zn  Zn275  1  0.50349253  0.85875233  0.11049860  1.0
  Zn  Zn276  1  0.83682587  0.19208567  0.11049860  1.0
  Zn  Zn277  1  0.83682587  0.52541900  0.11049860  1.0
  Zn  Zn278  1  0.83682587  0.85875233  0.11049860  1.0
  Zn  Zn279  1  0.30349253  0.02541900  0.01049860  1.0
  Zn  Zn280  1  0.30349253  0.35875233  0.01049860  1.0
  Zn  Zn281  1  0.30349253  0.69208567  0.01049860  1.0
  Zn  Zn282  1  0.63682587  0.02541900  0.01049860  1.0
  Zn  Zn283  1  0.63682587  0.35875233  0.01049860  1.0
  Zn  Zn284  1  0.63682587  0.69208567  0.01049860  1.0
  Zn  Zn285  1  0.97015920  0.02541900  0.01049860  1.0
  Zn  Zn286  1  0.97015920  0.35875233  0.01049860  1.0
  Zn  Zn287  1  0.97015920  0.69208567  0.01049860  1.0
  Zn  Zn288  1  0.00907053  0.22919450  0.06706310  1.0
  Zn  Zn289  1  0.00907053  0.56252783  0.06706310  1.0
  Zn  Zn290  1  0.00907053  0.89586117  0.06706310  1.0
  Zn  Zn291  1  0.34240387  0.22919450  0.06706310  1.0
  Zn  Zn292  1  0.34240387  0.56252783  0.06706310  1.0
  Zn  Zn293  1  0.34240387  0.89586117  0.06706310  1.0
  Zn  Zn294  1  0.67573720  0.22919450  0.06706310  1.0
  Zn  Zn295  1  0.67573720  0.56252783  0.06706310  1.0
  Zn  Zn296  1  0.67573720  0.89586117  0.06706310  1.0
  Zn  Zn297  1  0.20907053  0.06252783  0.16706310  1.0
  Zn  Zn298  1  0.20907053  0.39586117  0.16706310  1.0
  Zn  Zn299  1  0.20907053  0.72919450  0.16706310  1.0
  Zn  Zn300  1  0.54240387  0.06252783  0.16706310  1.0
  Zn  Zn301  1  0.54240387  0.39586117  0.16706310  1.0
  Zn  Zn302  1  0.54240387  0.72919450  0.16706310  1.0
  Zn  Zn303  1  0.87573720  0.06252783  0.16706310  1.0
  Zn  Zn304  1  0.87573720  0.39586117  0.16706310  1.0
  Zn  Zn305  1  0.87573720  0.72919450  0.16706310  1.0
  Zn  Zn306  1  0.05759613  0.10413883  0.13293690  1.0
  Zn  Zn307  1  0.05759613  0.43747217  0.13293690  1.0
  Zn  Zn308  1  0.05759613  0.77080550  0.13293690  1.0
  Zn  Zn309  1  0.39092947  0.10413883  0.13293690  1.0
  Zn  Zn310  1  0.39092947  0.43747217  0.13293690  1.0
  Zn  Zn311  1  0.39092947  0.77080550  0.13293690  1.0
  Zn  Zn312  1  0.72426280  0.10413883  0.13293690  1.0
  Zn  Zn313  1  0.72426280  0.43747217  0.13293690  1.0
  Zn  Zn314  1  0.72426280  0.77080550  0.13293690  1.0
  Zn  Zn315  1  0.19092947  0.27080550  0.03293690  1.0
  Zn  Zn316  1  0.19092947  0.60413883  0.03293690  1.0
  Zn  Zn317  1  0.19092947  0.93747217  0.03293690  1.0
  Zn  Zn318  1  0.52426280  0.27080550  0.03293690  1.0
  Zn  Zn319  1  0.52426280  0.60413883  0.03293690  1.0
  Zn  Zn320  1  0.52426280  0.93747217  0.03293690  1.0
  Zn  Zn321  1  0.85759613  0.27080550  0.03293690  1.0
  Zn  Zn322  1  0.85759613  0.60413883  0.03293690  1.0
  Zn  Zn323  1  0.85759613  0.93747217  0.03293690  1.0
  Zn  Zn324  1  0.00059907  0.15626117  0.15656070  1.0
  Zn  Zn325  1  0.00059907  0.48959450  0.15656070  1.0
  Zn  Zn326  1  0.00059907  0.82292783  0.15656070  1.0
  Zn  Zn327  1  0.33393240  0.15626117  0.15656070  1.0
  Zn  Zn328  1  0.33393240  0.48959450  0.15656070  1.0
  Zn  Zn329  1  0.33393240  0.82292783  0.15656070  1.0
  Zn  Zn330  1  0.66726573  0.15626117  0.15656070  1.0
  Zn  Zn331  1  0.66726573  0.48959450  0.15656070  1.0
  Zn  Zn332  1  0.66726573  0.82292783  0.15656070  1.0
  Zn  Zn333  1  0.13393240  0.32292783  0.05656070  1.0
  Zn  Zn334  1  0.13393240  0.65626117  0.05656070  1.0
  Zn  Zn335  1  0.13393240  0.98959450  0.05656070  1.0
  Zn  Zn336  1  0.46726573  0.32292783  0.05656070  1.0
  Zn  Zn337  1  0.46726573  0.65626117  0.05656070  1.0
  Zn  Zn338  1  0.46726573  0.98959450  0.05656070  1.0
  Zn  Zn339  1  0.80059907  0.32292783  0.05656070  1.0
  Zn  Zn340  1  0.80059907  0.65626117  0.05656070  1.0
  Zn  Zn341  1  0.80059907  0.98959450  0.05656070  1.0
  Zn  Zn342  1  0.06606760  0.17707217  0.04343930  1.0
  Zn  Zn343  1  0.06606760  0.51040550  0.04343930  1.0
  Zn  Zn344  1  0.06606760  0.84373883  0.04343930  1.0
  Zn  Zn345  1  0.39940093  0.17707217  0.04343930  1.0
  Zn  Zn346  1  0.39940093  0.51040550  0.04343930  1.0
  Zn  Zn347  1  0.39940093  0.84373883  0.04343930  1.0
  Zn  Zn348  1  0.73273427  0.17707217  0.04343930  1.0
  Zn  Zn349  1  0.73273427  0.51040550  0.04343930  1.0
  Zn  Zn350  1  0.73273427  0.84373883  0.04343930  1.0
  Zn  Zn351  1  0.26606760  0.01040550  0.14343930  1.0
  Zn  Zn352  1  0.26606760  0.34373883  0.14343930  1.0
  Zn  Zn353  1  0.26606760  0.67707217  0.14343930  1.0
  Zn  Zn354  1  0.59940093  0.01040550  0.14343930  1.0
  Zn  Zn355  1  0.59940093  0.34373883  0.14343930  1.0
  Zn  Zn356  1  0.59940093  0.67707217  0.14343930  1.0
  Zn  Zn357  1  0.93273427  0.01040550  0.14343930  1.0
  Zn  Zn358  1  0.93273427  0.34373883  0.14343930  1.0
  Zn  Zn359  1  0.93273427  0.67707217  0.14343930  1.0
  Zn  Zn360  1  0.07939853  0.25234400  0.01895560  1.0
  Zn  Zn361  1  0.07939853  0.58567733  0.01895560  1.0
  Zn  Zn362  1  0.07939853  0.91901067  0.01895560  1.0
  Zn  Zn363  1  0.41273187  0.25234400  0.01895560  1.0
  Zn  Zn364  1  0.41273187  0.58567733  0.01895560  1.0
  Zn  Zn365  1  0.41273187  0.91901067  0.01895560  1.0
  Zn  Zn366  1  0.74606520  0.25234400  0.01895560  1.0
  Zn  Zn367  1  0.74606520  0.58567733  0.01895560  1.0
  Zn  Zn368  1  0.74606520  0.91901067  0.01895560  1.0
  Zn  Zn369  1  0.27939853  0.08567733  0.11895560  1.0
  Zn  Zn370  1  0.27939853  0.41901067  0.11895560  1.0
  Zn  Zn371  1  0.27939853  0.75234400  0.11895560  1.0
  Zn  Zn372  1  0.61273187  0.08567733  0.11895560  1.0
  Zn  Zn373  1  0.61273187  0.41901067  0.11895560  1.0
  Zn  Zn374  1  0.61273187  0.75234400  0.11895560  1.0
  Zn  Zn375  1  0.94606520  0.08567733  0.11895560  1.0
  Zn  Zn376  1  0.94606520  0.41901067  0.11895560  1.0
  Zn  Zn377  1  0.94606520  0.75234400  0.11895560  1.0
  Zn  Zn378  1  0.32060147  0.08098933  0.18104440  1.0
  Zn  Zn379  1  0.32060147  0.41432267  0.18104440  1.0
  Zn  Zn380  1  0.32060147  0.74765600  0.18104440  1.0
  Zn  Zn381  1  0.65393480  0.08098933  0.18104440  1.0
  Zn  Zn382  1  0.65393480  0.41432267  0.18104440  1.0
  Zn  Zn383  1  0.65393480  0.74765600  0.18104440  1.0
  Zn  Zn384  1  0.98726813  0.08098933  0.18104440  1.0
  Zn  Zn385  1  0.98726813  0.41432267  0.18104440  1.0
  Zn  Zn386  1  0.98726813  0.74765600  0.18104440  1.0
  Zn  Zn387  1  0.12060147  0.24765600  0.08104440  1.0
  Zn  Zn388  1  0.12060147  0.58098933  0.08104440  1.0
  Zn  Zn389  1  0.12060147  0.91432267  0.08104440  1.0
  Zn  Zn390  1  0.45393480  0.24765600  0.08104440  1.0
  Zn  Zn391  1  0.45393480  0.58098933  0.08104440  1.0
  Zn  Zn392  1  0.45393480  0.91432267  0.08104440  1.0
  Zn  Zn393  1  0.78726813  0.24765600  0.08104440  1.0
  Zn  Zn394  1  0.78726813  0.58098933  0.08104440  1.0
  Zn  Zn395  1  0.78726813  0.91432267  0.08104440  1.0
  Zn  Zn396  1  0.07240493  0.18741033  0.11719180  1.0
  Zn  Zn397  1  0.07240493  0.52074367  0.11719180  1.0
  Zn  Zn398  1  0.07240493  0.85407700  0.11719180  1.0
  Zn  Zn399  1  0.40573827  0.18741033  0.11719180  1.0
  Zn  Zn400  1  0.40573827  0.52074367  0.11719180  1.0
  Zn  Zn401  1  0.40573827  0.85407700  0.11719180  1.0
  Zn  Zn402  1  0.73907160  0.18741033  0.11719180  1.0
  Zn  Zn403  1  0.73907160  0.52074367  0.11719180  1.0
  Zn  Zn404  1  0.73907160  0.85407700  0.11719180  1.0
  Zn  Zn405  1  0.20573827  0.02074367  0.01719180  1.0
  Zn  Zn406  1  0.20573827  0.35407700  0.01719180  1.0
  Zn  Zn407  1  0.20573827  0.68741033  0.01719180  1.0
  Zn  Zn408  1  0.53907160  0.02074367  0.01719180  1.0
  Zn  Zn409  1  0.53907160  0.35407700  0.01719180  1.0
  Zn  Zn410  1  0.53907160  0.68741033  0.01719180  1.0
  Zn  Zn411  1  0.87240493  0.02074367  0.01719180  1.0
  Zn  Zn412  1  0.87240493  0.35407700  0.01719180  1.0
  Zn  Zn413  1  0.87240493  0.68741033  0.01719180  1.0
  Zn  Zn414  1  0.32759507  0.14592300  0.08280820  1.0
  Zn  Zn415  1  0.32759507  0.47925633  0.08280820  1.0
  Zn  Zn416  1  0.32759507  0.81258967  0.08280820  1.0
  Zn  Zn417  1  0.66092840  0.14592300  0.08280820  1.0
  Zn  Zn418  1  0.66092840  0.47925633  0.08280820  1.0
  Zn  Zn419  1  0.66092840  0.81258967  0.08280820  1.0
  Zn  Zn420  1  0.99426173  0.14592300  0.08280820  1.0
  Zn  Zn421  1  0.99426173  0.47925633  0.08280820  1.0
  Zn  Zn422  1  0.99426173  0.81258967  0.08280820  1.0
  Zn  Zn423  1  0.19426173  0.31258967  0.18280820  1.0
  Zn  Zn424  1  0.19426173  0.64592300  0.18280820  1.0
  Zn  Zn425  1  0.19426173  0.97925633  0.18280820  1.0
  Zn  Zn426  1  0.52759507  0.31258967  0.18280820  1.0
  Zn  Zn427  1  0.52759507  0.64592300  0.18280820  1.0
  Zn  Zn428  1  0.52759507  0.97925633  0.18280820  1.0
  Zn  Zn429  1  0.86092840  0.31258967  0.18280820  1.0
  Zn  Zn430  1  0.86092840  0.64592300  0.18280820  1.0
  Zn  Zn431  1  0.86092840  0.97925633  0.18280820  1.0
  Zn  Zn432  1  0.23903593  0.15023317  0.16654230  1.0
  Zn  Zn433  1  0.23903593  0.48356650  0.16654230  1.0
  Zn  Zn434  1  0.23903593  0.81689983  0.16654230  1.0
  Zn  Zn435  1  0.57236927  0.15023317  0.16654230  1.0
  Zn  Zn436  1  0.57236927  0.48356650  0.16654230  1.0
  Zn  Zn437  1  0.57236927  0.81689983  0.16654230  1.0
  Zn  Zn438  1  0.90570260  0.15023317  0.16654230  1.0
  Zn  Zn439  1  0.90570260  0.48356650  0.16654230  1.0
  Zn  Zn440  1  0.90570260  0.81689983  0.16654230  1.0
  Zn  Zn441  1  0.03903593  0.31689983  0.06654230  1.0
  Zn  Zn442  1  0.03903593  0.65023317  0.06654230  1.0
  Zn  Zn443  1  0.03903593  0.98356650  0.06654230  1.0
  Zn  Zn444  1  0.37236927  0.31689983  0.06654230  1.0
  Zn  Zn445  1  0.37236927  0.65023317  0.06654230  1.0
  Zn  Zn446  1  0.37236927  0.98356650  0.06654230  1.0
  Zn  Zn447  1  0.70570260  0.31689983  0.06654230  1.0
  Zn  Zn448  1  0.70570260  0.65023317  0.06654230  1.0
  Zn  Zn449  1  0.70570260  0.98356650  0.06654230  1.0
  Zn  Zn450  1  0.16096407  0.18310017  0.03345770  1.0
  Zn  Zn451  1  0.16096407  0.51643350  0.03345770  1.0
  Zn  Zn452  1  0.16096407  0.84976683  0.03345770  1.0
  Zn  Zn453  1  0.49429740  0.18310017  0.03345770  1.0
  Zn  Zn454  1  0.49429740  0.51643350  0.03345770  1.0
  Zn  Zn455  1  0.49429740  0.84976683  0.03345770  1.0
  Zn  Zn456  1  0.82763073  0.18310017  0.03345770  1.0
  Zn  Zn457  1  0.82763073  0.51643350  0.03345770  1.0
  Zn  Zn458  1  0.82763073  0.84976683  0.03345770  1.0
  Zn  Zn459  1  0.02763073  0.01643350  0.13345770  1.0
  Zn  Zn460  1  0.02763073  0.34976683  0.13345770  1.0
  Zn  Zn461  1  0.02763073  0.68310017  0.13345770  1.0
  Zn  Zn462  1  0.36096407  0.01643350  0.13345770  1.0
  Zn  Zn463  1  0.36096407  0.34976683  0.13345770  1.0
  Zn  Zn464  1  0.36096407  0.68310017  0.13345770  1.0
  Zn  Zn465  1  0.69429740  0.01643350  0.13345770  1.0
  Zn  Zn466  1  0.69429740  0.34976683  0.13345770  1.0
  Zn  Zn467  1  0.69429740  0.68310017  0.13345770  1.0
  Zn  Zn468  1  0.11019780  0.11964233  0.07153240  1.0
  Zn  Zn469  1  0.11019780  0.45297567  0.07153240  1.0
  Zn  Zn470  1  0.11019780  0.78630900  0.07153240  1.0
  Zn  Zn471  1  0.44353113  0.11964233  0.07153240  1.0
  Zn  Zn472  1  0.44353113  0.45297567  0.07153240  1.0
  Zn  Zn473  1  0.44353113  0.78630900  0.07153240  1.0
  Zn  Zn474  1  0.77686447  0.11964233  0.07153240  1.0
  Zn  Zn475  1  0.77686447  0.45297567  0.07153240  1.0
  Zn  Zn476  1  0.77686447  0.78630900  0.07153240  1.0
  Zn  Zn477  1  0.31019780  0.28630900  0.17153240  1.0
  Zn  Zn478  1  0.31019780  0.61964233  0.17153240  1.0
  Zn  Zn479  1  0.31019780  0.95297567  0.17153240  1.0
  Zn  Zn480  1  0.64353113  0.28630900  0.17153240  1.0
  Zn  Zn481  1  0.64353113  0.61964233  0.17153240  1.0
  Zn  Zn482  1  0.64353113  0.95297567  0.17153240  1.0
  Zn  Zn483  1  0.97686447  0.28630900  0.17153240  1.0
  Zn  Zn484  1  0.97686447  0.61964233  0.17153240  1.0
  Zn  Zn485  1  0.97686447  0.95297567  0.17153240  1.0
  Zn  Zn486  1  0.28980220  0.21369100  0.12846760  1.0
  Zn  Zn487  1  0.28980220  0.54702433  0.12846760  1.0
  Zn  Zn488  1  0.28980220  0.88035767  0.12846760  1.0
  Zn  Zn489  1  0.62313553  0.21369100  0.12846760  1.0
  Zn  Zn490  1  0.62313553  0.54702433  0.12846760  1.0
  Zn  Zn491  1  0.62313553  0.88035767  0.12846760  1.0
  Zn  Zn492  1  0.95646887  0.21369100  0.12846760  1.0
  Zn  Zn493  1  0.95646887  0.54702433  0.12846760  1.0
  Zn  Zn494  1  0.95646887  0.88035767  0.12846760  1.0
  Zn  Zn495  1  0.08980220  0.04702433  0.02846760  1.0
  Zn  Zn496  1  0.08980220  0.38035767  0.02846760  1.0
  Zn  Zn497  1  0.08980220  0.71369100  0.02846760  1.0
  Zn  Zn498  1  0.42313553  0.04702433  0.02846760  1.0
  Zn  Zn499  1  0.42313553  0.38035767  0.02846760  1.0
  Zn  Zn500  1  0.42313553  0.71369100  0.02846760  1.0
  Zn  Zn501  1  0.75646887  0.04702433  0.02846760  1.0
  Zn  Zn502  1  0.75646887  0.38035767  0.02846760  1.0
  Zn  Zn503  1  0.75646887  0.71369100  0.02846760  1.0
  Zn  Zn504  1  0.00391087  0.15820567  0.22605260  1.0
  Zn  Zn505  1  0.00391087  0.49153900  0.22605260  1.0
  Zn  Zn506  1  0.00391087  0.82487233  0.22605260  1.0
  Zn  Zn507  1  0.33724420  0.15820567  0.22605260  1.0
  Zn  Zn508  1  0.33724420  0.49153900  0.22605260  1.0
  Zn  Zn509  1  0.33724420  0.82487233  0.22605260  1.0
  Zn  Zn510  1  0.67057753  0.15820567  0.22605260  1.0
  Zn  Zn511  1  0.67057753  0.49153900  0.22605260  1.0
  Zn  Zn512  1  0.67057753  0.82487233  0.22605260  1.0
  Zn  Zn513  1  0.20391087  0.32487233  0.32605260  1.0
  Zn  Zn514  1  0.20391087  0.65820567  0.32605260  1.0
  Zn  Zn515  1  0.20391087  0.99153900  0.32605260  1.0
  Zn  Zn516  1  0.53724420  0.32487233  0.32605260  1.0
  Zn  Zn517  1  0.53724420  0.65820567  0.32605260  1.0
  Zn  Zn518  1  0.53724420  0.99153900  0.32605260  1.0
  Zn  Zn519  1  0.87057753  0.32487233  0.32605260  1.0
  Zn  Zn520  1  0.87057753  0.65820567  0.32605260  1.0
  Zn  Zn521  1  0.87057753  0.99153900  0.32605260  1.0
  Zn  Zn522  1  0.19608913  0.17512767  0.37394740  1.0
  Zn  Zn523  1  0.19608913  0.50846100  0.37394740  1.0
  Zn  Zn524  1  0.19608913  0.84179433  0.37394740  1.0
  Zn  Zn525  1  0.52942247  0.17512767  0.37394740  1.0
  Zn  Zn526  1  0.52942247  0.50846100  0.37394740  1.0
  Zn  Zn527  1  0.52942247  0.84179433  0.37394740  1.0
  Zn  Zn528  1  0.86275580  0.17512767  0.37394740  1.0
  Zn  Zn529  1  0.86275580  0.50846100  0.37394740  1.0
  Zn  Zn530  1  0.86275580  0.84179433  0.37394740  1.0
  Zn  Zn531  1  0.32942247  0.00846100  0.27394740  1.0
  Zn  Zn532  1  0.32942247  0.34179433  0.27394740  1.0
  Zn  Zn533  1  0.32942247  0.67512767  0.27394740  1.0
  Zn  Zn534  1  0.66275580  0.00846100  0.27394740  1.0
  Zn  Zn535  1  0.66275580  0.34179433  0.27394740  1.0
  Zn  Zn536  1  0.66275580  0.67512767  0.27394740  1.0
  Zn  Zn537  1  0.99608913  0.00846100  0.27394740  1.0
  Zn  Zn538  1  0.99608913  0.34179433  0.27394740  1.0
  Zn  Zn539  1  0.99608913  0.67512767  0.27394740  1.0
  Zn  Zn540  1  0.07670927  0.10923617  0.21348230  1.0
  Zn  Zn541  1  0.07670927  0.44256950  0.21348230  1.0
  Zn  Zn542  1  0.07670927  0.77590283  0.21348230  1.0
  Zn  Zn543  1  0.41004260  0.10923617  0.21348230  1.0
  Zn  Zn544  1  0.41004260  0.44256950  0.21348230  1.0
  Zn  Zn545  1  0.41004260  0.77590283  0.21348230  1.0
  Zn  Zn546  1  0.74337593  0.10923617  0.21348230  1.0
  Zn  Zn547  1  0.74337593  0.44256950  0.21348230  1.0
  Zn  Zn548  1  0.74337593  0.77590283  0.21348230  1.0
  Zn  Zn549  1  0.27670927  0.27590283  0.31348230  1.0
  Zn  Zn550  1  0.27670927  0.60923617  0.31348230  1.0
  Zn  Zn551  1  0.27670927  0.94256950  0.31348230  1.0
  Zn  Zn552  1  0.61004260  0.27590283  0.31348230  1.0
  Zn  Zn553  1  0.61004260  0.60923617  0.31348230  1.0
  Zn  Zn554  1  0.61004260  0.94256950  0.31348230  1.0
  Zn  Zn555  1  0.94337593  0.27590283  0.31348230  1.0
  Zn  Zn556  1  0.94337593  0.60923617  0.31348230  1.0
  Zn  Zn557  1  0.94337593  0.94256950  0.31348230  1.0
  Zn  Zn558  1  0.12329073  0.22409717  0.38651770  1.0
  Zn  Zn559  1  0.12329073  0.55743050  0.38651770  1.0
  Zn  Zn560  1  0.12329073  0.89076383  0.38651770  1.0
  Zn  Zn561  1  0.45662407  0.22409717  0.38651770  1.0
  Zn  Zn562  1  0.45662407  0.55743050  0.38651770  1.0
  Zn  Zn563  1  0.45662407  0.89076383  0.38651770  1.0
  Zn  Zn564  1  0.78995740  0.22409717  0.38651770  1.0
  Zn  Zn565  1  0.78995740  0.55743050  0.38651770  1.0
  Zn  Zn566  1  0.78995740  0.89076383  0.38651770  1.0
  Zn  Zn567  1  0.25662407  0.05743050  0.28651770  1.0
  Zn  Zn568  1  0.25662407  0.39076383  0.28651770  1.0
  Zn  Zn569  1  0.25662407  0.72409717  0.28651770  1.0
  Zn  Zn570  1  0.58995740  0.05743050  0.28651770  1.0
  Zn  Zn571  1  0.58995740  0.39076383  0.28651770  1.0
  Zn  Zn572  1  0.58995740  0.72409717  0.28651770  1.0
  Zn  Zn573  1  0.92329073  0.05743050  0.28651770  1.0
  Zn  Zn574  1  0.92329073  0.39076383  0.28651770  1.0
  Zn  Zn575  1  0.92329073  0.72409717  0.28651770  1.0
  Zn  Zn576  1  0.02367480  0.27959350  0.23224390  1.0
  Zn  Zn577  1  0.02367480  0.61292683  0.23224390  1.0
  Zn  Zn578  1  0.02367480  0.94626017  0.23224390  1.0
  Zn  Zn579  1  0.35700813  0.27959350  0.23224390  1.0
  Zn  Zn580  1  0.35700813  0.61292683  0.23224390  1.0
  Zn  Zn581  1  0.35700813  0.94626017  0.23224390  1.0
  Zn  Zn582  1  0.69034147  0.27959350  0.23224390  1.0
  Zn  Zn583  1  0.69034147  0.61292683  0.23224390  1.0
  Zn  Zn584  1  0.69034147  0.94626017  0.23224390  1.0
  Zn  Zn585  1  0.22367480  0.11292683  0.33224390  1.0
  Zn  Zn586  1  0.22367480  0.44626017  0.33224390  1.0
  Zn  Zn587  1  0.22367480  0.77959350  0.33224390  1.0
  Zn  Zn588  1  0.55700813  0.11292683  0.33224390  1.0
  Zn  Zn589  1  0.55700813  0.44626017  0.33224390  1.0
  Zn  Zn590  1  0.55700813  0.77959350  0.33224390  1.0
  Zn  Zn591  1  0.89034147  0.11292683  0.33224390  1.0
  Zn  Zn592  1  0.89034147  0.44626017  0.33224390  1.0
  Zn  Zn593  1  0.89034147  0.77959350  0.33224390  1.0
  Zn  Zn594  1  0.30965853  0.22040650  0.26775610  1.0
  Zn  Zn595  1  0.30965853  0.55373983  0.26775610  1.0
  Zn  Zn596  1  0.30965853  0.88707317  0.26775610  1.0
  Zn  Zn597  1  0.64299187  0.22040650  0.26775610  1.0
  Zn  Zn598  1  0.64299187  0.55373983  0.26775610  1.0
  Zn  Zn599  1  0.64299187  0.88707317  0.26775610  1.0
  Zn  Zn600  1  0.97632520  0.22040650  0.26775610  1.0
  Zn  Zn601  1  0.97632520  0.55373983  0.26775610  1.0
  Zn  Zn602  1  0.97632520  0.88707317  0.26775610  1.0
  Zn  Zn603  1  0.17632520  0.05373983  0.36775610  1.0
  Zn  Zn604  1  0.17632520  0.38707317  0.36775610  1.0
  Zn  Zn605  1  0.17632520  0.72040650  0.36775610  1.0
  Zn  Zn606  1  0.50965853  0.05373983  0.36775610  1.0
  Zn  Zn607  1  0.50965853  0.38707317  0.36775610  1.0
  Zn  Zn608  1  0.50965853  0.72040650  0.36775610  1.0
  Zn  Zn609  1  0.84299187  0.05373983  0.36775610  1.0
  Zn  Zn610  1  0.84299187  0.38707317  0.36775610  1.0
  Zn  Zn611  1  0.84299187  0.72040650  0.36775610  1.0
  Zn  Zn612  1  0.08308560  0.06419333  0.27240280  1.0
  Zn  Zn613  1  0.08308560  0.39752667  0.27240280  1.0
  Zn  Zn614  1  0.08308560  0.73086000  0.27240280  1.0
  Zn  Zn615  1  0.41641893  0.06419333  0.27240280  1.0
  Zn  Zn616  1  0.41641893  0.39752667  0.27240280  1.0
  Zn  Zn617  1  0.41641893  0.73086000  0.27240280  1.0
  Zn  Zn618  1  0.74975227  0.06419333  0.27240280  1.0
  Zn  Zn619  1  0.74975227  0.39752667  0.27240280  1.0
  Zn  Zn620  1  0.74975227  0.73086000  0.27240280  1.0
  Zn  Zn621  1  0.28308560  0.23086000  0.37240280  1.0
  Zn  Zn622  1  0.28308560  0.56419333  0.37240280  1.0
  Zn  Zn623  1  0.28308560  0.89752667  0.37240280  1.0
  Zn  Zn624  1  0.61641893  0.23086000  0.37240280  1.0
  Zn  Zn625  1  0.61641893  0.56419333  0.37240280  1.0
  Zn  Zn626  1  0.61641893  0.89752667  0.37240280  1.0
  Zn  Zn627  1  0.94975227  0.23086000  0.37240280  1.0
  Zn  Zn628  1  0.94975227  0.56419333  0.37240280  1.0
  Zn  Zn629  1  0.94975227  0.89752667  0.37240280  1.0
  Zn  Zn630  1  0.11691440  0.26914000  0.32759720  1.0
  Zn  Zn631  1  0.11691440  0.60247333  0.32759720  1.0
  Zn  Zn632  1  0.11691440  0.93580667  0.32759720  1.0
  Zn  Zn633  1  0.45024773  0.26914000  0.32759720  1.0
  Zn  Zn634  1  0.45024773  0.60247333  0.32759720  1.0
  Zn  Zn635  1  0.45024773  0.93580667  0.32759720  1.0
  Zn  Zn636  1  0.78358107  0.26914000  0.32759720  1.0
  Zn  Zn637  1  0.78358107  0.60247333  0.32759720  1.0
  Zn  Zn638  1  0.78358107  0.93580667  0.32759720  1.0
  Zn  Zn639  1  0.25024773  0.10247333  0.22759720  1.0
  Zn  Zn640  1  0.25024773  0.43580667  0.22759720  1.0
  Zn  Zn641  1  0.25024773  0.76914000  0.22759720  1.0
  Zn  Zn642  1  0.58358107  0.10247333  0.22759720  1.0
  Zn  Zn643  1  0.58358107  0.43580667  0.22759720  1.0
  Zn  Zn644  1  0.58358107  0.76914000  0.22759720  1.0
  Zn  Zn645  1  0.91691440  0.10247333  0.22759720  1.0
  Zn  Zn646  1  0.91691440  0.43580667  0.22759720  1.0
  Zn  Zn647  1  0.91691440  0.76914000  0.22759720  1.0
  Zn  Zn648  1  0.29650747  0.14124767  0.28950140  1.0
  Zn  Zn649  1  0.29650747  0.47458100  0.28950140  1.0
  Zn  Zn650  1  0.29650747  0.80791433  0.28950140  1.0
  Zn  Zn651  1  0.62984080  0.14124767  0.28950140  1.0
  Zn  Zn652  1  0.62984080  0.47458100  0.28950140  1.0
  Zn  Zn653  1  0.62984080  0.80791433  0.28950140  1.0
  Zn  Zn654  1  0.96317413  0.14124767  0.28950140  1.0
  Zn  Zn655  1  0.96317413  0.47458100  0.28950140  1.0
  Zn  Zn656  1  0.96317413  0.80791433  0.28950140  1.0
  Zn  Zn657  1  0.16317413  0.30791433  0.38950140  1.0
  Zn  Zn658  1  0.16317413  0.64124767  0.38950140  1.0
  Zn  Zn659  1  0.16317413  0.97458100  0.38950140  1.0
  Zn  Zn660  1  0.49650747  0.30791433  0.38950140  1.0
  Zn  Zn661  1  0.49650747  0.64124767  0.38950140  1.0
  Zn  Zn662  1  0.49650747  0.97458100  0.38950140  1.0
  Zn  Zn663  1  0.82984080  0.30791433  0.38950140  1.0
  Zn  Zn664  1  0.82984080  0.64124767  0.38950140  1.0
  Zn  Zn665  1  0.82984080  0.97458100  0.38950140  1.0
  Zn  Zn666  1  0.23682587  0.19208567  0.31049860  1.0
  Zn  Zn667  1  0.23682587  0.52541900  0.31049860  1.0
  Zn  Zn668  1  0.23682587  0.85875233  0.31049860  1.0
  Zn  Zn669  1  0.57015920  0.19208567  0.31049860  1.0
  Zn  Zn670  1  0.57015920  0.52541900  0.31049860  1.0
  Zn  Zn671  1  0.57015920  0.85875233  0.31049860  1.0
  Zn  Zn672  1  0.90349253  0.19208567  0.31049860  1.0
  Zn  Zn673  1  0.90349253  0.52541900  0.31049860  1.0
  Zn  Zn674  1  0.90349253  0.85875233  0.31049860  1.0
  Zn  Zn675  1  0.03682587  0.02541900  0.21049860  1.0
  Zn  Zn676  1  0.03682587  0.35875233  0.21049860  1.0
  Zn  Zn677  1  0.03682587  0.69208567  0.21049860  1.0
  Zn  Zn678  1  0.37015920  0.02541900  0.21049860  1.0
  Zn  Zn679  1  0.37015920  0.35875233  0.21049860  1.0
  Zn  Zn680  1  0.37015920  0.69208567  0.21049860  1.0
  Zn  Zn681  1  0.70349253  0.02541900  0.21049860  1.0
  Zn  Zn682  1  0.70349253  0.35875233  0.21049860  1.0
  Zn  Zn683  1  0.70349253  0.69208567  0.21049860  1.0
  Zn  Zn684  1  0.07573720  0.22919450  0.26706310  1.0
  Zn  Zn685  1  0.07573720  0.56252783  0.26706310  1.0
  Zn  Zn686  1  0.07573720  0.89586117  0.26706310  1.0
  Zn  Zn687  1  0.40907053  0.22919450  0.26706310  1.0
  Zn  Zn688  1  0.40907053  0.56252783  0.26706310  1.0
  Zn  Zn689  1  0.40907053  0.89586117  0.26706310  1.0
  Zn  Zn690  1  0.74240387  0.22919450  0.26706310  1.0
  Zn  Zn691  1  0.74240387  0.56252783  0.26706310  1.0
  Zn  Zn692  1  0.74240387  0.89586117  0.26706310  1.0
  Zn  Zn693  1  0.27573720  0.06252783  0.36706310  1.0
  Zn  Zn694  1  0.27573720  0.39586117  0.36706310  1.0
  Zn  Zn695  1  0.27573720  0.72919450  0.36706310  1.0
  Zn  Zn696  1  0.60907053  0.06252783  0.36706310  1.0
  Zn  Zn697  1  0.60907053  0.39586117  0.36706310  1.0
  Zn  Zn698  1  0.60907053  0.72919450  0.36706310  1.0
  Zn  Zn699  1  0.94240387  0.06252783  0.36706310  1.0
  Zn  Zn700  1  0.94240387  0.39586117  0.36706310  1.0
  Zn  Zn701  1  0.94240387  0.72919450  0.36706310  1.0
  Zn  Zn702  1  0.12426280  0.10413883  0.33293690  1.0
  Zn  Zn703  1  0.12426280  0.43747217  0.33293690  1.0
  Zn  Zn704  1  0.12426280  0.77080550  0.33293690  1.0
  Zn  Zn705  1  0.45759613  0.10413883  0.33293690  1.0
  Zn  Zn706  1  0.45759613  0.43747217  0.33293690  1.0
  Zn  Zn707  1  0.45759613  0.77080550  0.33293690  1.0
  Zn  Zn708  1  0.79092947  0.10413883  0.33293690  1.0
  Zn  Zn709  1  0.79092947  0.43747217  0.33293690  1.0
  Zn  Zn710  1  0.79092947  0.77080550  0.33293690  1.0
  Zn  Zn711  1  0.25759613  0.27080550  0.23293690  1.0
  Zn  Zn712  1  0.25759613  0.60413883  0.23293690  1.0
  Zn  Zn713  1  0.25759613  0.93747217  0.23293690  1.0
  Zn  Zn714  1  0.59092947  0.27080550  0.23293690  1.0
  Zn  Zn715  1  0.59092947  0.60413883  0.23293690  1.0
  Zn  Zn716  1  0.59092947  0.93747217  0.23293690  1.0
  Zn  Zn717  1  0.92426280  0.27080550  0.23293690  1.0
  Zn  Zn718  1  0.92426280  0.60413883  0.23293690  1.0
  Zn  Zn719  1  0.92426280  0.93747217  0.23293690  1.0
  Zn  Zn720  1  0.06726573  0.15626117  0.35656070  1.0
  Zn  Zn721  1  0.06726573  0.48959450  0.35656070  1.0
  Zn  Zn722  1  0.06726573  0.82292783  0.35656070  1.0
  Zn  Zn723  1  0.40059907  0.15626117  0.35656070  1.0
  Zn  Zn724  1  0.40059907  0.48959450  0.35656070  1.0
  Zn  Zn725  1  0.40059907  0.82292783  0.35656070  1.0
  Zn  Zn726  1  0.73393240  0.15626117  0.35656070  1.0
  Zn  Zn727  1  0.73393240  0.48959450  0.35656070  1.0
  Zn  Zn728  1  0.73393240  0.82292783  0.35656070  1.0
  Zn  Zn729  1  0.20059907  0.32292783  0.25656070  1.0
  Zn  Zn730  1  0.20059907  0.65626117  0.25656070  1.0
  Zn  Zn731  1  0.20059907  0.98959450  0.25656070  1.0
  Zn  Zn732  1  0.53393240  0.32292783  0.25656070  1.0
  Zn  Zn733  1  0.53393240  0.65626117  0.25656070  1.0
  Zn  Zn734  1  0.53393240  0.98959450  0.25656070  1.0
  Zn  Zn735  1  0.86726573  0.32292783  0.25656070  1.0
  Zn  Zn736  1  0.86726573  0.65626117  0.25656070  1.0
  Zn  Zn737  1  0.86726573  0.98959450  0.25656070  1.0
  Zn  Zn738  1  0.13273427  0.17707217  0.24343930  1.0
  Zn  Zn739  1  0.13273427  0.51040550  0.24343930  1.0
  Zn  Zn740  1  0.13273427  0.84373883  0.24343930  1.0
  Zn  Zn741  1  0.46606760  0.17707217  0.24343930  1.0
  Zn  Zn742  1  0.46606760  0.51040550  0.24343930  1.0
  Zn  Zn743  1  0.46606760  0.84373883  0.24343930  1.0
  Zn  Zn744  1  0.79940093  0.17707217  0.24343930  1.0
  Zn  Zn745  1  0.79940093  0.51040550  0.24343930  1.0
  Zn  Zn746  1  0.79940093  0.84373883  0.24343930  1.0
  Zn  Zn747  1  0.33273427  0.01040550  0.34343930  1.0
  Zn  Zn748  1  0.33273427  0.34373883  0.34343930  1.0
  Zn  Zn749  1  0.33273427  0.67707217  0.34343930  1.0
  Zn  Zn750  1  0.66606760  0.01040550  0.34343930  1.0
  Zn  Zn751  1  0.66606760  0.34373883  0.34343930  1.0
  Zn  Zn752  1  0.66606760  0.67707217  0.34343930  1.0
  Zn  Zn753  1  0.99940093  0.01040550  0.34343930  1.0
  Zn  Zn754  1  0.99940093  0.34373883  0.34343930  1.0
  Zn  Zn755  1  0.99940093  0.67707217  0.34343930  1.0
  Zn  Zn756  1  0.14606520  0.25234400  0.21895560  1.0
  Zn  Zn757  1  0.14606520  0.58567733  0.21895560  1.0
  Zn  Zn758  1  0.14606520  0.91901067  0.21895560  1.0
  Zn  Zn759  1  0.47939853  0.25234400  0.21895560  1.0
  Zn  Zn760  1  0.47939853  0.58567733  0.21895560  1.0
  Zn  Zn761  1  0.47939853  0.91901067  0.21895560  1.0
  Zn  Zn762  1  0.81273187  0.25234400  0.21895560  1.0
  Zn  Zn763  1  0.81273187  0.58567733  0.21895560  1.0
  Zn  Zn764  1  0.81273187  0.91901067  0.21895560  1.0
  Zn  Zn765  1  0.01273187  0.08567733  0.31895560  1.0
  Zn  Zn766  1  0.01273187  0.41901067  0.31895560  1.0
  Zn  Zn767  1  0.01273187  0.75234400  0.31895560  1.0
  Zn  Zn768  1  0.34606520  0.08567733  0.31895560  1.0
  Zn  Zn769  1  0.34606520  0.41901067  0.31895560  1.0
  Zn  Zn770  1  0.34606520  0.75234400  0.31895560  1.0
  Zn  Zn771  1  0.67939853  0.08567733  0.31895560  1.0
  Zn  Zn772  1  0.67939853  0.41901067  0.31895560  1.0
  Zn  Zn773  1  0.67939853  0.75234400  0.31895560  1.0
  Zn  Zn774  1  0.05393480  0.08098933  0.38104440  1.0
  Zn  Zn775  1  0.05393480  0.41432267  0.38104440  1.0
  Zn  Zn776  1  0.05393480  0.74765600  0.38104440  1.0
  Zn  Zn777  1  0.38726813  0.08098933  0.38104440  1.0
  Zn  Zn778  1  0.38726813  0.41432267  0.38104440  1.0
  Zn  Zn779  1  0.38726813  0.74765600  0.38104440  1.0
  Zn  Zn780  1  0.72060147  0.08098933  0.38104440  1.0
  Zn  Zn781  1  0.72060147  0.41432267  0.38104440  1.0
  Zn  Zn782  1  0.72060147  0.74765600  0.38104440  1.0
  Zn  Zn783  1  0.18726813  0.24765600  0.28104440  1.0
  Zn  Zn784  1  0.18726813  0.58098933  0.28104440  1.0
  Zn  Zn785  1  0.18726813  0.91432267  0.28104440  1.0
  Zn  Zn786  1  0.52060147  0.24765600  0.28104440  1.0
  Zn  Zn787  1  0.52060147  0.58098933  0.28104440  1.0
  Zn  Zn788  1  0.52060147  0.91432267  0.28104440  1.0
  Zn  Zn789  1  0.85393480  0.24765600  0.28104440  1.0
  Zn  Zn790  1  0.85393480  0.58098933  0.28104440  1.0
  Zn  Zn791  1  0.85393480  0.91432267  0.28104440  1.0
  Zn  Zn792  1  0.13907160  0.18741033  0.31719180  1.0
  Zn  Zn793  1  0.13907160  0.52074367  0.31719180  1.0
  Zn  Zn794  1  0.13907160  0.85407700  0.31719180  1.0
  Zn  Zn795  1  0.47240493  0.18741033  0.31719180  1.0
  Zn  Zn796  1  0.47240493  0.52074367  0.31719180  1.0
  Zn  Zn797  1  0.47240493  0.85407700  0.31719180  1.0
  Zn  Zn798  1  0.80573827  0.18741033  0.31719180  1.0
  Zn  Zn799  1  0.80573827  0.52074367  0.31719180  1.0
  Zn  Zn800  1  0.80573827  0.85407700  0.31719180  1.0
  Zn  Zn801  1  0.27240493  0.02074367  0.21719180  1.0
  Zn  Zn802  1  0.27240493  0.35407700  0.21719180  1.0
  Zn  Zn803  1  0.27240493  0.68741033  0.21719180  1.0
  Zn  Zn804  1  0.60573827  0.02074367  0.21719180  1.0
  Zn  Zn805  1  0.60573827  0.35407700  0.21719180  1.0
  Zn  Zn806  1  0.60573827  0.68741033  0.21719180  1.0
  Zn  Zn807  1  0.93907160  0.02074367  0.21719180  1.0
  Zn  Zn808  1  0.93907160  0.35407700  0.21719180  1.0
  Zn  Zn809  1  0.93907160  0.68741033  0.21719180  1.0
  Zn  Zn810  1  0.06092840  0.14592300  0.28280820  1.0
  Zn  Zn811  1  0.06092840  0.47925633  0.28280820  1.0
  Zn  Zn812  1  0.06092840  0.81258967  0.28280820  1.0
  Zn  Zn813  1  0.39426173  0.14592300  0.28280820  1.0
  Zn  Zn814  1  0.39426173  0.47925633  0.28280820  1.0
  Zn  Zn815  1  0.39426173  0.81258967  0.28280820  1.0
  Zn  Zn816  1  0.72759507  0.14592300  0.28280820  1.0
  Zn  Zn817  1  0.72759507  0.47925633  0.28280820  1.0
  Zn  Zn818  1  0.72759507  0.81258967  0.28280820  1.0
  Zn  Zn819  1  0.26092840  0.31258967  0.38280820  1.0
  Zn  Zn820  1  0.26092840  0.64592300  0.38280820  1.0
  Zn  Zn821  1  0.26092840  0.97925633  0.38280820  1.0
  Zn  Zn822  1  0.59426173  0.31258967  0.38280820  1.0
  Zn  Zn823  1  0.59426173  0.64592300  0.38280820  1.0
  Zn  Zn824  1  0.59426173  0.97925633  0.38280820  1.0
  Zn  Zn825  1  0.92759507  0.31258967  0.38280820  1.0
  Zn  Zn826  1  0.92759507  0.64592300  0.38280820  1.0
  Zn  Zn827  1  0.92759507  0.97925633  0.38280820  1.0
  Zn  Zn828  1  0.30570260  0.15023317  0.36654230  1.0
  Zn  Zn829  1  0.30570260  0.48356650  0.36654230  1.0
  Zn  Zn830  1  0.30570260  0.81689983  0.36654230  1.0
  Zn  Zn831  1  0.63903593  0.15023317  0.36654230  1.0
  Zn  Zn832  1  0.63903593  0.48356650  0.36654230  1.0
  Zn  Zn833  1  0.63903593  0.81689983  0.36654230  1.0
  Zn  Zn834  1  0.97236927  0.15023317  0.36654230  1.0
  Zn  Zn835  1  0.97236927  0.48356650  0.36654230  1.0
  Zn  Zn836  1  0.97236927  0.81689983  0.36654230  1.0
  Zn  Zn837  1  0.10570260  0.31689983  0.26654230  1.0
  Zn  Zn838  1  0.10570260  0.65023317  0.26654230  1.0
  Zn  Zn839  1  0.10570260  0.98356650  0.26654230  1.0
  Zn  Zn840  1  0.43903593  0.31689983  0.26654230  1.0
  Zn  Zn841  1  0.43903593  0.65023317  0.26654230  1.0
  Zn  Zn842  1  0.43903593  0.98356650  0.26654230  1.0
  Zn  Zn843  1  0.77236927  0.31689983  0.26654230  1.0
  Zn  Zn844  1  0.77236927  0.65023317  0.26654230  1.0
  Zn  Zn845  1  0.77236927  0.98356650  0.26654230  1.0
  Zn  Zn846  1  0.22763073  0.18310017  0.23345770  1.0
  Zn  Zn847  1  0.22763073  0.51643350  0.23345770  1.0
  Zn  Zn848  1  0.22763073  0.84976683  0.23345770  1.0
  Zn  Zn849  1  0.56096407  0.18310017  0.23345770  1.0
  Zn  Zn850  1  0.56096407  0.51643350  0.23345770  1.0
  Zn  Zn851  1  0.56096407  0.84976683  0.23345770  1.0
  Zn  Zn852  1  0.89429740  0.18310017  0.23345770  1.0
  Zn  Zn853  1  0.89429740  0.51643350  0.23345770  1.0
  Zn  Zn854  1  0.89429740  0.84976683  0.23345770  1.0
  Zn  Zn855  1  0.09429740  0.01643350  0.33345770  1.0
  Zn  Zn856  1  0.09429740  0.34976683  0.33345770  1.0
  Zn  Zn857  1  0.09429740  0.68310017  0.33345770  1.0
  Zn  Zn858  1  0.42763073  0.01643350  0.33345770  1.0
  Zn  Zn859  1  0.42763073  0.34976683  0.33345770  1.0
  Zn  Zn860  1  0.42763073  0.68310017  0.33345770  1.0
  Zn  Zn861  1  0.76096407  0.01643350  0.33345770  1.0
  Zn  Zn862  1  0.76096407  0.34976683  0.33345770  1.0
  Zn  Zn863  1  0.76096407  0.68310017  0.33345770  1.0
  Zn  Zn864  1  0.17686447  0.11964233  0.27153240  1.0
  Zn  Zn865  1  0.17686447  0.45297567  0.27153240  1.0
  Zn  Zn866  1  0.17686447  0.78630900  0.27153240  1.0
  Zn  Zn867  1  0.51019780  0.11964233  0.27153240  1.0
  Zn  Zn868  1  0.51019780  0.45297567  0.27153240  1.0
  Zn  Zn869  1  0.51019780  0.78630900  0.27153240  1.0
  Zn  Zn870  1  0.84353113  0.11964233  0.27153240  1.0
  Zn  Zn871  1  0.84353113  0.45297567  0.27153240  1.0
  Zn  Zn872  1  0.84353113  0.78630900  0.27153240  1.0
  Zn  Zn873  1  0.04353113  0.28630900  0.37153240  1.0
  Zn  Zn874  1  0.04353113  0.61964233  0.37153240  1.0
  Zn  Zn875  1  0.04353113  0.95297567  0.37153240  1.0
  Zn  Zn876  1  0.37686447  0.28630900  0.37153240  1.0
  Zn  Zn877  1  0.37686447  0.61964233  0.37153240  1.0
  Zn  Zn878  1  0.37686447  0.95297567  0.37153240  1.0
  Zn  Zn879  1  0.71019780  0.28630900  0.37153240  1.0
  Zn  Zn880  1  0.71019780  0.61964233  0.37153240  1.0
  Zn  Zn881  1  0.71019780  0.95297567  0.37153240  1.0
  Zn  Zn882  1  0.02313553  0.21369100  0.32846760  1.0
  Zn  Zn883  1  0.02313553  0.54702433  0.32846760  1.0
  Zn  Zn884  1  0.02313553  0.88035767  0.32846760  1.0
  Zn  Zn885  1  0.35646887  0.21369100  0.32846760  1.0
  Zn  Zn886  1  0.35646887  0.54702433  0.32846760  1.0
  Zn  Zn887  1  0.35646887  0.88035767  0.32846760  1.0
  Zn  Zn888  1  0.68980220  0.21369100  0.32846760  1.0
  Zn  Zn889  1  0.68980220  0.54702433  0.32846760  1.0
  Zn  Zn890  1  0.68980220  0.88035767  0.32846760  1.0
  Zn  Zn891  1  0.15646887  0.04702433  0.22846760  1.0
  Zn  Zn892  1  0.15646887  0.38035767  0.22846760  1.0
  Zn  Zn893  1  0.15646887  0.71369100  0.22846760  1.0
  Zn  Zn894  1  0.48980220  0.04702433  0.22846760  1.0
  Zn  Zn895  1  0.48980220  0.38035767  0.22846760  1.0
  Zn  Zn896  1  0.48980220  0.71369100  0.22846760  1.0
  Zn  Zn897  1  0.82313553  0.04702433  0.22846760  1.0
  Zn  Zn898  1  0.82313553  0.38035767  0.22846760  1.0
  Zn  Zn899  1  0.82313553  0.71369100  0.22846760  1.0
