# generated using pymatgen
data_Zn22Ni3
_symmetry_space_group_name_H-M   'P 1'
_cell_length_a   27.03661814
_cell_length_b   52.72332676
_cell_length_c   32.41336656
_cell_angle_alpha   102.16928103
_cell_angle_beta   93.23796194
_cell_angle_gamma   94.65224600
_symmetry_Int_Tables_number   1
_chemical_formula_structural   Zn22Ni3
_chemical_formula_sum   'Zn1188 Ni162'
_cell_volume   44888.36092297
_cell_formula_units_Z   54
loop_
 _symmetry_equiv_pos_site_id
 _symmetry_equiv_pos_as_xyz
  1  'x, y, z'
loop_
 _atom_site_type_symbol
 _atom_site_label
 _atom_site_symmetry_multiplicity
 _atom_site_fract_x
 _atom_site_fract_y
 _atom_site_fract_z
 _atom_site_occupancy
  Ni  Ni0  1  0.06990549  0.27607252  0.90791396  1.0
  Ni  Ni1  1  0.06990549  0.60940586  0.90791396  1.0
  Ni  Ni2  1  0.06990549  0.94273919  0.90791396  1.0
  Ni  Ni3  1  0.40323882  0.27607252  0.90791396  1.0
  Ni  Ni4  1  0.40323882  0.60940586  0.90791396  1.0
  Ni  Ni5  1  0.40323882  0.94273919  0.90791396  1.0
  Ni  Ni6  1  0.73657215  0.27607252  0.90791396  1.0
  Ni  Ni7  1  0.73657215  0.60940586  0.90791396  1.0
  Ni  Ni8  1  0.73657215  0.94273919  0.90791396  1.0
  Ni  Ni9  1  0.26038168  0.06178681  0.97934254  1.0
  Ni  Ni10  1  0.26038168  0.39512014  0.97934254  1.0
  Ni  Ni11  1  0.26038168  0.72845348  0.97934254  1.0
  Ni  Ni12  1  0.59371501  0.06178681  0.97934254  1.0
  Ni  Ni13  1  0.59371501  0.39512014  0.97934254  1.0
  Ni  Ni14  1  0.59371501  0.72845348  0.97934254  1.0
  Ni  Ni15  1  0.92704835  0.06178681  0.97934254  1.0
  Ni  Ni16  1  0.92704835  0.39512014  0.97934254  1.0
  Ni  Ni17  1  0.92704835  0.72845348  0.97934254  1.0
  Ni  Ni18  1  0.22091311  0.14229029  0.96454182  1.0
  Ni  Ni19  1  0.22091311  0.47562362  0.96454182  1.0
  Ni  Ni20  1  0.22091311  0.80895695  0.96454182  1.0
  Ni  Ni21  1  0.55424644  0.14229029  0.96454182  1.0
  Ni  Ni22  1  0.55424644  0.47562362  0.96454182  1.0
  Ni  Ni23  1  0.55424644  0.80895695  0.96454182  1.0
  Ni  Ni24  1  0.88757977  0.14229029  0.96454182  1.0
  Ni  Ni25  1  0.88757977  0.47562362  0.96454182  1.0
  Ni  Ni26  1  0.88757977  0.80895695  0.96454182  1.0
  Ni  Ni27  1  0.03043692  0.02324267  0.89311325  1.0
  Ni  Ni28  1  0.03043692  0.35657600  0.89311325  1.0
  Ni  Ni29  1  0.03043692  0.68990933  0.89311325  1.0
  Ni  Ni30  1  0.36377025  0.02324267  0.89311325  1.0
  Ni  Ni31  1  0.36377025  0.35657600  0.89311325  1.0
  Ni  Ni32  1  0.36377025  0.68990933  0.89311325  1.0
  Ni  Ni33  1  0.69710358  0.02324267  0.89311325  1.0
  Ni  Ni34  1  0.69710358  0.35657600  0.89311325  1.0
  Ni  Ni35  1  0.69710358  0.68990933  0.89311325  1.0
  Ni  Ni36  1  0.24064739  0.26870521  0.97194218  1.0
  Ni  Ni37  1  0.24064739  0.60203855  0.97194218  1.0
  Ni  Ni38  1  0.24064739  0.93537188  0.97194218  1.0
  Ni  Ni39  1  0.57398073  0.26870521  0.97194218  1.0
  Ni  Ni40  1  0.57398073  0.60203855  0.97194218  1.0
  Ni  Ni41  1  0.57398073  0.93537188  0.97194218  1.0
  Ni  Ni42  1  0.90731406  0.26870521  0.97194218  1.0
  Ni  Ni43  1  0.90731406  0.60203855  0.97194218  1.0
  Ni  Ni44  1  0.90731406  0.93537188  0.97194218  1.0
  Ni  Ni45  1  0.05017120  0.14965760  0.90051361  1.0
  Ni  Ni46  1  0.05017120  0.48299093  0.90051361  1.0
  Ni  Ni47  1  0.05017120  0.81632426  0.90051361  1.0
  Ni  Ni48  1  0.38350454  0.14965760  0.90051361  1.0
  Ni  Ni49  1  0.38350454  0.48299093  0.90051361  1.0
  Ni  Ni50  1  0.38350454  0.81632426  0.90051361  1.0
  Ni  Ni51  1  0.71683787  0.14965760  0.90051361  1.0
  Ni  Ni52  1  0.71683787  0.48299093  0.90051361  1.0
  Ni  Ni53  1  0.71683787  0.81632426  0.90051361  1.0
  Ni  Ni54  1  0.02228644  0.03797729  0.76505682  1.0
  Ni  Ni55  1  0.02228644  0.37131062  0.76505682  1.0
  Ni  Ni56  1  0.02228644  0.70464395  0.76505682  1.0
  Ni  Ni57  1  0.35561977  0.03797729  0.76505682  1.0
  Ni  Ni58  1  0.35561977  0.37131062  0.76505682  1.0
  Ni  Ni59  1  0.35561977  0.70464395  0.76505682  1.0
  Ni  Ni60  1  0.68895311  0.03797729  0.76505682  1.0
  Ni  Ni61  1  0.68895311  0.37131062  0.76505682  1.0
  Ni  Ni62  1  0.68895311  0.70464395  0.76505682  1.0
  Ni  Ni63  1  0.21276263  0.15702490  0.83648539  1.0
  Ni  Ni64  1  0.21276263  0.49035824  0.83648539  1.0
  Ni  Ni65  1  0.21276263  0.82369157  0.83648539  1.0
  Ni  Ni66  1  0.54609596  0.15702490  0.83648539  1.0
  Ni  Ni67  1  0.54609596  0.49035824  0.83648539  1.0
  Ni  Ni68  1  0.54609596  0.82369157  0.83648539  1.0
  Ni  Ni69  1  0.87942930  0.15702490  0.83648539  1.0
  Ni  Ni70  1  0.87942930  0.49035824  0.83648539  1.0
  Ni  Ni71  1  0.87942930  0.82369157  0.83648539  1.0
  Ni  Ni72  1  0.17329406  0.23752838  0.82168468  1.0
  Ni  Ni73  1  0.17329406  0.57086171  0.82168468  1.0
  Ni  Ni74  1  0.17329406  0.90419505  0.82168468  1.0
  Ni  Ni75  1  0.50662739  0.23752838  0.82168468  1.0
  Ni  Ni76  1  0.50662739  0.57086171  0.82168468  1.0
  Ni  Ni77  1  0.50662739  0.90419505  0.82168468  1.0
  Ni  Ni78  1  0.83996073  0.23752838  0.82168468  1.0
  Ni  Ni79  1  0.83996073  0.57086171  0.82168468  1.0
  Ni  Ni80  1  0.83996073  0.90419505  0.82168468  1.0
  Ni  Ni81  1  0.31615120  0.11848076  0.75025611  1.0
  Ni  Ni82  1  0.31615120  0.45181410  0.75025611  1.0
  Ni  Ni83  1  0.31615120  0.78514743  0.75025611  1.0
  Ni  Ni84  1  0.64948454  0.11848076  0.75025611  1.0
  Ni  Ni85  1  0.64948454  0.45181410  0.75025611  1.0
  Ni  Ni86  1  0.64948454  0.78514743  0.75025611  1.0
  Ni  Ni87  1  0.98281787  0.11848076  0.75025611  1.0
  Ni  Ni88  1  0.98281787  0.45181410  0.75025611  1.0
  Ni  Ni89  1  0.98281787  0.78514743  0.75025611  1.0
  Ni  Ni90  1  0.19302835  0.03060998  0.82908504  1.0
  Ni  Ni91  1  0.19302835  0.36394331  0.82908504  1.0
  Ni  Ni92  1  0.19302835  0.69727664  0.82908504  1.0
  Ni  Ni93  1  0.52636168  0.03060998  0.82908504  1.0
  Ni  Ni94  1  0.52636168  0.36394331  0.82908504  1.0
  Ni  Ni95  1  0.52636168  0.69727664  0.82908504  1.0
  Ni  Ni96  1  0.85969501  0.03060998  0.82908504  1.0
  Ni  Ni97  1  0.85969501  0.36394331  0.82908504  1.0
  Ni  Ni98  1  0.85969501  0.69727664  0.82908504  1.0
  Ni  Ni99  1  0.00255215  0.24489569  0.75765646  1.0
  Ni  Ni100  1  0.00255215  0.57822902  0.75765646  1.0
  Ni  Ni101  1  0.00255215  0.91156236  0.75765646  1.0
  Ni  Ni102  1  0.33588549  0.24489569  0.75765646  1.0
  Ni  Ni103  1  0.33588549  0.57822902  0.75765646  1.0
  Ni  Ni104  1  0.33588549  0.91156236  0.75765646  1.0
  Ni  Ni105  1  0.66921882  0.24489569  0.75765646  1.0
  Ni  Ni106  1  0.66921882  0.57822902  0.75765646  1.0
  Ni  Ni107  1  0.66921882  0.91156236  0.75765646  1.0
  Ni  Ni108  1  0.30800073  0.13321538  0.62219968  1.0
  Ni  Ni109  1  0.30800073  0.46654871  0.62219968  1.0
  Ni  Ni110  1  0.30800073  0.79988205  0.62219968  1.0
  Ni  Ni111  1  0.64133406  0.13321538  0.62219968  1.0
  Ni  Ni112  1  0.64133406  0.46654871  0.62219968  1.0
  Ni  Ni113  1  0.64133406  0.79988205  0.62219968  1.0
  Ni  Ni114  1  0.97466739  0.13321538  0.62219968  1.0
  Ni  Ni115  1  0.97466739  0.46654871  0.62219968  1.0
  Ni  Ni116  1  0.97466739  0.79988205  0.62219968  1.0
  Ni  Ni117  1  0.16514358  0.25226300  0.69362825  1.0
  Ni  Ni118  1  0.16514358  0.58559633  0.69362825  1.0
  Ni  Ni119  1  0.16514358  0.91892967  0.69362825  1.0
  Ni  Ni120  1  0.49847692  0.25226300  0.69362825  1.0
  Ni  Ni121  1  0.49847692  0.58559633  0.69362825  1.0
  Ni  Ni122  1  0.49847692  0.91892967  0.69362825  1.0
  Ni  Ni123  1  0.83181025  0.25226300  0.69362825  1.0
  Ni  Ni124  1  0.83181025  0.58559633  0.69362825  1.0
  Ni  Ni125  1  0.83181025  0.91892967  0.69362825  1.0
  Ni  Ni126  1  0.12567501  0.33276648  0.67882754  1.0
  Ni  Ni127  1  0.12567501  0.66609981  0.67882754  1.0
  Ni  Ni128  1  0.12567501  0.99943314  0.67882754  1.0
  Ni  Ni129  1  0.45900835  0.33276648  0.67882754  1.0
  Ni  Ni130  1  0.45900835  0.66609981  0.67882754  1.0
  Ni  Ni131  1  0.45900835  0.99943314  0.67882754  1.0
  Ni  Ni132  1  0.79234168  0.33276648  0.67882754  1.0
  Ni  Ni133  1  0.79234168  0.66609981  0.67882754  1.0
  Ni  Ni134  1  0.79234168  0.99943314  0.67882754  1.0
  Ni  Ni135  1  0.26853215  0.21371886  0.60739896  1.0
  Ni  Ni136  1  0.26853215  0.54705219  0.60739896  1.0
  Ni  Ni137  1  0.26853215  0.88038552  0.60739896  1.0
  Ni  Ni138  1  0.60186549  0.21371886  0.60739896  1.0
  Ni  Ni139  1  0.60186549  0.54705219  0.60739896  1.0
  Ni  Ni140  1  0.60186549  0.88038552  0.60739896  1.0
  Ni  Ni141  1  0.93519882  0.21371886  0.60739896  1.0
  Ni  Ni142  1  0.93519882  0.54705219  0.60739896  1.0
  Ni  Ni143  1  0.93519882  0.88038552  0.60739896  1.0
  Ni  Ni144  1  0.14540930  0.12584807  0.68622789  1.0
  Ni  Ni145  1  0.14540930  0.45918140  0.68622789  1.0
  Ni  Ni146  1  0.14540930  0.79251474  0.68622789  1.0
  Ni  Ni147  1  0.47874263  0.12584807  0.68622789  1.0
  Ni  Ni148  1  0.47874263  0.45918140  0.68622789  1.0
  Ni  Ni149  1  0.47874263  0.79251474  0.68622789  1.0
  Ni  Ni150  1  0.81207596  0.12584807  0.68622789  1.0
  Ni  Ni151  1  0.81207596  0.45918140  0.68622789  1.0
  Ni  Ni152  1  0.81207596  0.79251474  0.68622789  1.0
  Ni  Ni153  1  0.28826644  0.00680045  0.61479932  1.0
  Ni  Ni154  1  0.28826644  0.34013379  0.61479932  1.0
  Ni  Ni155  1  0.28826644  0.67346712  0.61479932  1.0
  Ni  Ni156  1  0.62159977  0.00680045  0.61479932  1.0
  Ni  Ni157  1  0.62159977  0.34013379  0.61479932  1.0
  Ni  Ni158  1  0.62159977  0.67346712  0.61479932  1.0
  Ni  Ni159  1  0.95493311  0.00680045  0.61479932  1.0
  Ni  Ni160  1  0.95493311  0.34013379  0.61479932  1.0
  Ni  Ni161  1  0.95493311  0.67346712  0.61479932  1.0
  Zn  Zn162  1  0.06537173  0.17034221  0.98179518  1.0
  Zn  Zn163  1  0.06537173  0.50367555  0.98179518  1.0
  Zn  Zn164  1  0.06537173  0.83700888  0.98179518  1.0
  Zn  Zn165  1  0.39870506  0.17034221  0.98179518  1.0
  Zn  Zn166  1  0.39870506  0.50367555  0.98179518  1.0
  Zn  Zn167  1  0.39870506  0.83700888  0.98179518  1.0
  Zn  Zn168  1  0.73203839  0.17034221  0.98179518  1.0
  Zn  Zn169  1  0.73203839  0.50367555  0.98179518  1.0
  Zn  Zn170  1  0.73203839  0.83700888  0.98179518  1.0
  Zn  Zn171  1  0.20822887  0.05129460  0.91036661  1.0
  Zn  Zn172  1  0.20822887  0.38462793  0.91036661  1.0
  Zn  Zn173  1  0.20822887  0.71796126  0.91036661  1.0
  Zn  Zn174  1  0.54156220  0.05129460  0.91036661  1.0
  Zn  Zn175  1  0.54156220  0.38462793  0.91036661  1.0
  Zn  Zn176  1  0.54156220  0.71796126  0.91036661  1.0
  Zn  Zn177  1  0.87489554  0.05129460  0.91036661  1.0
  Zn  Zn178  1  0.87489554  0.38462793  0.91036661  1.0
  Zn  Zn179  1  0.87489554  0.71796126  0.91036661  1.0
  Zn  Zn180  1  0.22544687  0.24802060  0.89066061  1.0
  Zn  Zn181  1  0.22544687  0.58135393  0.89066061  1.0
  Zn  Zn182  1  0.22544687  0.91468726  0.89066061  1.0
  Zn  Zn183  1  0.55878020  0.24802060  0.89066061  1.0
  Zn  Zn184  1  0.55878020  0.58135393  0.89066061  1.0
  Zn  Zn185  1  0.55878020  0.91468726  0.89066061  1.0
  Zn  Zn186  1  0.89211354  0.24802060  0.89066061  1.0
  Zn  Zn187  1  0.89211354  0.58135393  0.89066061  1.0
  Zn  Zn188  1  0.89211354  0.91468726  0.89066061  1.0
  Zn  Zn189  1  0.08258973  0.03373488  0.96208918  1.0
  Zn  Zn190  1  0.08258973  0.36706821  0.96208918  1.0
  Zn  Zn191  1  0.08258973  0.70040155  0.96208918  1.0
  Zn  Zn192  1  0.41592306  0.03373488  0.96208918  1.0
  Zn  Zn193  1  0.41592306  0.36706821  0.96208918  1.0
  Zn  Zn194  1  0.41592306  0.70040155  0.96208918  1.0
  Zn  Zn195  1  0.74925639  0.03373488  0.96208918  1.0
  Zn  Zn196  1  0.74925639  0.36706821  0.96208918  1.0
  Zn  Zn197  1  0.74925639  0.70040155  0.96208918  1.0
  Zn  Zn198  1  0.31071820  0.14336943  0.94880011  1.0
  Zn  Zn199  1  0.31071820  0.47670276  0.94880011  1.0
  Zn  Zn200  1  0.31071820  0.81003610  0.94880011  1.0
  Zn  Zn201  1  0.64405154  0.14336943  0.94880011  1.0
  Zn  Zn202  1  0.64405154  0.47670276  0.94880011  1.0
  Zn  Zn203  1  0.64405154  0.81003610  0.94880011  1.0
  Zn  Zn204  1  0.97738487  0.14336943  0.94880011  1.0
  Zn  Zn205  1  0.97738487  0.47670276  0.94880011  1.0
  Zn  Zn206  1  0.97738487  0.81003610  0.94880011  1.0
  Zn  Zn207  1  0.12024201  0.02432181  0.87737154  1.0
  Zn  Zn208  1  0.12024201  0.35765514  0.87737154  1.0
  Zn  Zn209  1  0.12024201  0.69098848  0.87737154  1.0
  Zn  Zn210  1  0.45357535  0.02432181  0.87737154  1.0
  Zn  Zn211  1  0.45357535  0.35765514  0.87737154  1.0
  Zn  Zn212  1  0.45357535  0.69098848  0.87737154  1.0
  Zn  Zn213  1  0.78690868  0.02432181  0.87737154  1.0
  Zn  Zn214  1  0.78690868  0.35765514  0.87737154  1.0
  Zn  Zn215  1  0.78690868  0.69098848  0.87737154  1.0
  Zn  Zn216  1  0.31343373  0.27499338  0.92365568  1.0
  Zn  Zn217  1  0.31343373  0.60832671  0.92365568  1.0
  Zn  Zn218  1  0.31343373  0.94166005  0.92365568  1.0
  Zn  Zn219  1  0.64676706  0.27499338  0.92365568  1.0
  Zn  Zn220  1  0.64676706  0.60832671  0.92365568  1.0
  Zn  Zn221  1  0.64676706  0.94166005  0.92365568  1.0
  Zn  Zn222  1  0.98010039  0.27499338  0.92365568  1.0
  Zn  Zn223  1  0.98010039  0.60832671  0.92365568  1.0
  Zn  Zn224  1  0.98010039  0.94166005  0.92365568  1.0
  Zn  Zn225  1  0.17057658  0.06070767  0.99508425  1.0
  Zn  Zn226  1  0.17057658  0.39404100  0.99508425  1.0
  Zn  Zn227  1  0.17057658  0.72737433  0.99508425  1.0
  Zn  Zn228  1  0.50390992  0.06070767  0.99508425  1.0
  Zn  Zn229  1  0.50390992  0.39404100  0.99508425  1.0
  Zn  Zn230  1  0.50390992  0.72737433  0.99508425  1.0
  Zn  Zn231  1  0.83724325  0.06070767  0.99508425  1.0
  Zn  Zn232  1  0.83724325  0.39404100  0.99508425  1.0
  Zn  Zn233  1  0.83724325  0.72737433  0.99508425  1.0
  Zn  Zn234  1  0.03326063  0.32055190  0.93856239  1.0
  Zn  Zn235  1  0.03326063  0.65388524  0.93856239  1.0
  Zn  Zn236  1  0.03326063  0.98721857  0.93856239  1.0
  Zn  Zn237  1  0.36659396  0.32055190  0.93856239  1.0
  Zn  Zn238  1  0.36659396  0.65388524  0.93856239  1.0
  Zn  Zn239  1  0.36659396  0.98721857  0.93856239  1.0
  Zn  Zn240  1  0.69992730  0.32055190  0.93856239  1.0
  Zn  Zn241  1  0.69992730  0.65388524  0.93856239  1.0
  Zn  Zn242  1  0.69992730  0.98721857  0.93856239  1.0
  Zn  Zn243  1  0.17611777  0.20150429  0.86713382  1.0
  Zn  Zn244  1  0.17611777  0.53483762  0.86713382  1.0
  Zn  Zn245  1  0.17611777  0.86817095  0.86713382  1.0
  Zn  Zn246  1  0.50945111  0.20150429  0.86713382  1.0
  Zn  Zn247  1  0.50945111  0.53483762  0.86713382  1.0
  Zn  Zn248  1  0.50945111  0.86817095  0.86713382  1.0
  Zn  Zn249  1  0.84278444  0.20150429  0.86713382  1.0
  Zn  Zn250  1  0.84278444  0.53483762  0.86713382  1.0
  Zn  Zn251  1  0.84278444  0.86817095  0.86713382  1.0
  Zn  Zn252  1  0.06708177  0.31209662  0.86246482  1.0
  Zn  Zn253  1  0.06708177  0.64542995  0.86246482  1.0
  Zn  Zn254  1  0.06708177  0.97876329  0.86246482  1.0
  Zn  Zn255  1  0.40041511  0.31209662  0.86246482  1.0
  Zn  Zn256  1  0.40041511  0.64542995  0.86246482  1.0
  Zn  Zn257  1  0.40041511  0.97876329  0.86246482  1.0
  Zn  Zn258  1  0.73374844  0.31209662  0.86246482  1.0
  Zn  Zn259  1  0.73374844  0.64542995  0.86246482  1.0
  Zn  Zn260  1  0.73374844  0.97876329  0.86246482  1.0
  Zn  Zn261  1  0.25755796  0.09781090  0.93389339  1.0
  Zn  Zn262  1  0.25755796  0.43114424  0.93389339  1.0
  Zn  Zn263  1  0.25755796  0.76447757  0.93389339  1.0
  Zn  Zn264  1  0.59089130  0.09781090  0.93389339  1.0
  Zn  Zn265  1  0.59089130  0.43114424  0.93389339  1.0
  Zn  Zn266  1  0.59089130  0.76447757  0.93389339  1.0
  Zn  Zn267  1  0.92422463  0.09781090  0.93389339  1.0
  Zn  Zn268  1  0.92422463  0.43114424  0.93389339  1.0
  Zn  Zn269  1  0.92422463  0.76447757  0.93389339  1.0
  Zn  Zn270  1  0.29708396  0.15212274  0.86810589  1.0
  Zn  Zn271  1  0.29708396  0.48545607  0.86810589  1.0
  Zn  Zn272  1  0.29708396  0.81878940  0.86810589  1.0
  Zn  Zn273  1  0.63041730  0.15212274  0.86810589  1.0
  Zn  Zn274  1  0.63041730  0.48545607  0.86810589  1.0
  Zn  Zn275  1  0.63041730  0.81878940  0.86810589  1.0
  Zn  Zn276  1  0.96375063  0.15212274  0.86810589  1.0
  Zn  Zn277  1  0.96375063  0.48545607  0.86810589  1.0
  Zn  Zn278  1  0.96375063  0.81878940  0.86810589  1.0
  Zn  Zn279  1  0.15422682  0.27117036  0.93953446  1.0
  Zn  Zn280  1  0.15422682  0.60450369  0.93953446  1.0
  Zn  Zn281  1  0.15422682  0.93783702  0.93953446  1.0
  Zn  Zn282  1  0.48756015  0.27117036  0.93953446  1.0
  Zn  Zn283  1  0.48756015  0.60450369  0.93953446  1.0
  Zn  Zn284  1  0.48756015  0.93783702  0.93953446  1.0
  Zn  Zn285  1  0.82089349  0.27117036  0.93953446  1.0
  Zn  Zn286  1  0.82089349  0.60450369  0.93953446  1.0
  Zn  Zn287  1  0.82089349  0.93783702  0.93953446  1.0
  Zn  Zn288  1  0.27944892  0.02814483  0.86149275  1.0
  Zn  Zn289  1  0.27944892  0.36147817  0.86149275  1.0
  Zn  Zn290  1  0.27944892  0.69481150  0.86149275  1.0
  Zn  Zn291  1  0.61278225  0.02814483  0.86149275  1.0
  Zn  Zn292  1  0.61278225  0.36147817  0.86149275  1.0
  Zn  Zn293  1  0.61278225  0.69481150  0.86149275  1.0
  Zn  Zn294  1  0.94611558  0.02814483  0.86149275  1.0
  Zn  Zn295  1  0.94611558  0.36147817  0.86149275  1.0
  Zn  Zn296  1  0.94611558  0.69481150  0.86149275  1.0
  Zn  Zn297  1  0.13659177  0.14719245  0.93292132  1.0
  Zn  Zn298  1  0.13659177  0.48052579  0.93292132  1.0
  Zn  Zn299  1  0.13659177  0.81385912  0.93292132  1.0
  Zn  Zn300  1  0.46992511  0.14719245  0.93292132  1.0
  Zn  Zn301  1  0.46992511  0.48052579  0.93292132  1.0
  Zn  Zn302  1  0.46992511  0.81385912  0.93292132  1.0
  Zn  Zn303  1  0.80325844  0.14719245  0.93292132  1.0
  Zn  Zn304  1  0.80325844  0.48052579  0.93292132  1.0
  Zn  Zn305  1  0.80325844  0.81385912  0.93292132  1.0
  Zn  Zn306  1  0.10730606  0.19328821  0.92193918  1.0
  Zn  Zn307  1  0.10730606  0.52662155  0.92193918  1.0
  Zn  Zn308  1  0.10730606  0.85995488  0.92193918  1.0
  Zn  Zn309  1  0.44063939  0.19328821  0.92193918  1.0
  Zn  Zn310  1  0.44063939  0.52662155  0.92193918  1.0
  Zn  Zn311  1  0.44063939  0.85995488  0.92193918  1.0
  Zn  Zn312  1  0.77397273  0.19328821  0.92193918  1.0
  Zn  Zn313  1  0.77397273  0.52662155  0.92193918  1.0
  Zn  Zn314  1  0.77397273  0.85995488  0.92193918  1.0
  Zn  Zn315  1  0.29778225  0.31233583  0.99336775  1.0
  Zn  Zn316  1  0.29778225  0.64566917  0.99336775  1.0
  Zn  Zn317  1  0.29778225  0.97900250  0.99336775  1.0
  Zn  Zn318  1  0.63111558  0.31233583  0.99336775  1.0
  Zn  Zn319  1  0.63111558  0.64566917  0.99336775  1.0
  Zn  Zn320  1  0.63111558  0.97900250  0.99336775  1.0
  Zn  Zn321  1  0.96444892  0.31233583  0.99336775  1.0
  Zn  Zn322  1  0.96444892  0.64566917  0.99336775  1.0
  Zn  Zn323  1  0.96444892  0.97900250  0.99336775  1.0
  Zn  Zn324  1  0.18351254  0.22507460  0.95051661  1.0
  Zn  Zn325  1  0.18351254  0.55840793  0.95051661  1.0
  Zn  Zn326  1  0.18351254  0.89174126  0.95051661  1.0
  Zn  Zn327  1  0.51684587  0.22507460  0.95051661  1.0
  Zn  Zn328  1  0.51684587  0.55840793  0.95051661  1.0
  Zn  Zn329  1  0.51684587  0.89174126  0.95051661  1.0
  Zn  Zn330  1  0.85017920  0.22507460  0.95051661  1.0
  Zn  Zn331  1  0.85017920  0.55840793  0.95051661  1.0
  Zn  Zn332  1  0.85017920  0.89174126  0.95051661  1.0
  Zn  Zn333  1  0.32636968  0.10602698  0.87908804  1.0
  Zn  Zn334  1  0.32636968  0.43936031  0.87908804  1.0
  Zn  Zn335  1  0.32636968  0.77269364  0.87908804  1.0
  Zn  Zn336  1  0.65970301  0.10602698  0.87908804  1.0
  Zn  Zn337  1  0.65970301  0.43936031  0.87908804  1.0
  Zn  Zn338  1  0.65970301  0.77269364  0.87908804  1.0
  Zn  Zn339  1  0.99303635  0.10602698  0.87908804  1.0
  Zn  Zn340  1  0.99303635  0.43936031  0.87908804  1.0
  Zn  Zn341  1  0.99303635  0.77269364  0.87908804  1.0
  Zn  Zn342  1  0.30344796  0.31553290  0.87049239  1.0
  Zn  Zn343  1  0.30344796  0.64886624  0.87049239  1.0
  Zn  Zn344  1  0.30344796  0.98219957  0.87049239  1.0
  Zn  Zn345  1  0.63678130  0.31553290  0.87049239  1.0
  Zn  Zn346  1  0.63678130  0.64886624  0.87049239  1.0
  Zn  Zn347  1  0.63678130  0.98219957  0.87049239  1.0
  Zn  Zn348  1  0.97011463  0.31553290  0.87049239  1.0
  Zn  Zn349  1  0.97011463  0.64886624  0.87049239  1.0
  Zn  Zn350  1  0.97011463  0.98219957  0.87049239  1.0
  Zn  Zn351  1  0.16059082  0.10124719  0.94192096  1.0
  Zn  Zn352  1  0.16059082  0.43458052  0.94192096  1.0
  Zn  Zn353  1  0.16059082  0.76791386  0.94192096  1.0
  Zn  Zn354  1  0.49392415  0.10124719  0.94192096  1.0
  Zn  Zn355  1  0.49392415  0.43458052  0.94192096  1.0
  Zn  Zn356  1  0.49392415  0.76791386  0.94192096  1.0
  Zn  Zn357  1  0.82725749  0.10124719  0.94192096  1.0
  Zn  Zn358  1  0.82725749  0.43458052  0.94192096  1.0
  Zn  Zn359  1  0.82725749  0.76791386  0.94192096  1.0
  Zn  Zn360  1  0.27308492  0.19806800  0.85910625  1.0
  Zn  Zn361  1  0.27308492  0.53140133  0.85910625  1.0
  Zn  Zn362  1  0.27308492  0.86473467  0.85910625  1.0
  Zn  Zn363  1  0.60641825  0.19806800  0.85910625  1.0
  Zn  Zn364  1  0.60641825  0.53140133  0.85910625  1.0
  Zn  Zn365  1  0.60641825  0.86473467  0.85910625  1.0
  Zn  Zn366  1  0.93975158  0.19806800  0.85910625  1.0
  Zn  Zn367  1  0.93975158  0.53140133  0.85910625  1.0
  Zn  Zn368  1  0.93975158  0.86473467  0.85910625  1.0
  Zn  Zn369  1  0.13022777  0.31711562  0.93053482  1.0
  Zn  Zn370  1  0.13022777  0.65044895  0.93053482  1.0
  Zn  Zn371  1  0.13022777  0.98378229  0.93053482  1.0
  Zn  Zn372  1  0.46356111  0.31711562  0.93053482  1.0
  Zn  Zn373  1  0.46356111  0.65044895  0.93053482  1.0
  Zn  Zn374  1  0.46356111  0.98378229  0.93053482  1.0
  Zn  Zn375  1  0.79689444  0.31711562  0.93053482  1.0
  Zn  Zn376  1  0.79689444  0.65044895  0.93053482  1.0
  Zn  Zn377  1  0.79689444  0.98378229  0.93053482  1.0
  Zn  Zn378  1  0.01389063  0.23165557  0.88690839  1.0
  Zn  Zn379  1  0.01389063  0.56498890  0.88690839  1.0
  Zn  Zn380  1  0.01389063  0.89832224  0.88690839  1.0
  Zn  Zn381  1  0.34722396  0.23165557  0.88690839  1.0
  Zn  Zn382  1  0.34722396  0.56498890  0.88690839  1.0
  Zn  Zn383  1  0.34722396  0.89832224  0.88690839  1.0
  Zn  Zn384  1  0.68055730  0.23165557  0.88690839  1.0
  Zn  Zn385  1  0.68055730  0.56498890  0.88690839  1.0
  Zn  Zn386  1  0.68055730  0.89832224  0.88690839  1.0
  Zn  Zn387  1  0.20436682  0.01736986  0.95833696  1.0
  Zn  Zn388  1  0.20436682  0.35070319  0.95833696  1.0
  Zn  Zn389  1  0.20436682  0.68403652  0.95833696  1.0
  Zn  Zn390  1  0.53770015  0.01736986  0.95833696  1.0
  Zn  Zn391  1  0.53770015  0.35070319  0.95833696  1.0
  Zn  Zn392  1  0.53770015  0.68403652  0.95833696  1.0
  Zn  Zn393  1  0.87103349  0.01736986  0.95833696  1.0
  Zn  Zn394  1  0.87103349  0.35070319  0.95833696  1.0
  Zn  Zn395  1  0.87103349  0.68403652  0.95833696  1.0
  Zn  Zn396  1  0.27692796  0.18670724  0.98554739  1.0
  Zn  Zn397  1  0.27692796  0.52004057  0.98554739  1.0
  Zn  Zn398  1  0.27692796  0.85337390  0.98554739  1.0
  Zn  Zn399  1  0.61026130  0.18670724  0.98554739  1.0
  Zn  Zn400  1  0.61026130  0.52004057  0.98554739  1.0
  Zn  Zn401  1  0.61026130  0.85337390  0.98554739  1.0
  Zn  Zn402  1  0.94359463  0.18670724  0.98554739  1.0
  Zn  Zn403  1  0.94359463  0.52004057  0.98554739  1.0
  Zn  Zn404  1  0.94359463  0.85337390  0.98554739  1.0
  Zn  Zn405  1  0.08645177  0.06765962  0.91411882  1.0
  Zn  Zn406  1  0.08645177  0.40099295  0.91411882  1.0
  Zn  Zn407  1  0.08645177  0.73432629  0.91411882  1.0
  Zn  Zn408  1  0.41978511  0.06765962  0.91411882  1.0
  Zn  Zn409  1  0.41978511  0.40099295  0.91411882  1.0
  Zn  Zn410  1  0.41978511  0.73432629  0.91411882  1.0
  Zn  Zn411  1  0.75311844  0.06765962  0.91411882  1.0
  Zn  Zn412  1  0.75311844  0.40099295  0.91411882  1.0
  Zn  Zn413  1  0.75311844  0.73432629  0.91411882  1.0
  Zn  Zn414  1  0.23515244  0.30254579  0.92469732  1.0
  Zn  Zn415  1  0.23515244  0.63587912  0.92469732  1.0
  Zn  Zn416  1  0.23515244  0.96921245  0.92469732  1.0
  Zn  Zn417  1  0.56848577  0.30254579  0.92469732  1.0
  Zn  Zn418  1  0.56848577  0.63587912  0.92469732  1.0
  Zn  Zn419  1  0.56848577  0.96921245  0.92469732  1.0
  Zn  Zn420  1  0.90181911  0.30254579  0.92469732  1.0
  Zn  Zn421  1  0.90181911  0.63587912  0.92469732  1.0
  Zn  Zn422  1  0.90181911  0.96921245  0.92469732  1.0
  Zn  Zn423  1  0.09229530  0.08826007  0.99612589  1.0
  Zn  Zn424  1  0.09229530  0.42159340  0.99612589  1.0
  Zn  Zn425  1  0.09229530  0.75492674  0.99612589  1.0
  Zn  Zn426  1  0.42562863  0.08826007  0.99612589  1.0
  Zn  Zn427  1  0.42562863  0.42159340  0.99612589  1.0
  Zn  Zn428  1  0.42562863  0.75492674  0.99612589  1.0
  Zn  Zn429  1  0.75896196  0.08826007  0.99612589  1.0
  Zn  Zn430  1  0.75896196  0.42159340  0.99612589  1.0
  Zn  Zn431  1  0.75896196  0.75492674  0.99612589  1.0
  Zn  Zn432  1  0.05566615  0.11581702  0.94775846  1.0
  Zn  Zn433  1  0.05566615  0.44915036  0.94775846  1.0
  Zn  Zn434  1  0.05566615  0.78248369  0.94775846  1.0
  Zn  Zn435  1  0.38899949  0.11581702  0.94775846  1.0
  Zn  Zn436  1  0.38899949  0.44915036  0.94775846  1.0
  Zn  Zn437  1  0.38899949  0.78248369  0.94775846  1.0
  Zn  Zn438  1  0.72233282  0.11581702  0.94775846  1.0
  Zn  Zn439  1  0.72233282  0.44915036  0.94775846  1.0
  Zn  Zn440  1  0.72233282  0.78248369  0.94775846  1.0
  Zn  Zn441  1  0.19852330  0.33010274  0.87632989  1.0
  Zn  Zn442  1  0.19852330  0.66343607  0.87632989  1.0
  Zn  Zn443  1  0.19852330  0.99676940  0.87632989  1.0
  Zn  Zn444  1  0.53185663  0.33010274  0.87632989  1.0
  Zn  Zn445  1  0.53185663  0.66343607  0.87632989  1.0
  Zn  Zn446  1  0.53185663  0.99676940  0.87632989  1.0
  Zn  Zn447  1  0.86518996  0.33010274  0.87632989  1.0
  Zn  Zn448  1  0.86518996  0.66343607  0.87632989  1.0
  Zn  Zn449  1  0.86518996  0.99676940  0.87632989  1.0
  Zn  Zn450  1  0.28056844  0.22625812  0.94172832  1.0
  Zn  Zn451  1  0.28056844  0.55959145  0.94172832  1.0
  Zn  Zn452  1  0.28056844  0.89292479  0.94172832  1.0
  Zn  Zn453  1  0.61390177  0.22625812  0.94172832  1.0
  Zn  Zn454  1  0.61390177  0.55959145  0.94172832  1.0
  Zn  Zn455  1  0.61390177  0.89292479  0.94172832  1.0
  Zn  Zn456  1  0.94723511  0.22625812  0.94172832  1.0
  Zn  Zn457  1  0.94723511  0.55959145  0.94172832  1.0
  Zn  Zn458  1  0.94723511  0.89292479  0.94172832  1.0
  Zn  Zn459  1  0.09009225  0.10721050  0.87029975  1.0
  Zn  Zn460  1  0.09009225  0.44054383  0.87029975  1.0
  Zn  Zn461  1  0.09009225  0.77387717  0.87029975  1.0
  Zn  Zn462  1  0.42342558  0.10721050  0.87029975  1.0
  Zn  Zn463  1  0.42342558  0.44054383  0.87029975  1.0
  Zn  Zn464  1  0.42342558  0.77387717  0.87029975  1.0
  Zn  Zn465  1  0.75675892  0.10721050  0.87029975  1.0
  Zn  Zn466  1  0.75675892  0.44054383  0.87029975  1.0
  Zn  Zn467  1  0.75675892  0.77387717  0.87029975  1.0
  Zn  Zn468  1  0.01025015  0.19210469  0.93072746  1.0
  Zn  Zn469  1  0.01025015  0.52543802  0.93072746  1.0
  Zn  Zn470  1  0.01025015  0.85877136  0.93072746  1.0
  Zn  Zn471  1  0.34358349  0.19210469  0.93072746  1.0
  Zn  Zn472  1  0.34358349  0.52543802  0.93072746  1.0
  Zn  Zn473  1  0.34358349  0.85877136  0.93072746  1.0
  Zn  Zn474  1  0.67691682  0.19210469  0.93072746  1.0
  Zn  Zn475  1  0.67691682  0.52543802  0.93072746  1.0
  Zn  Zn476  1  0.67691682  0.85877136  0.93072746  1.0
  Zn  Zn477  1  0.15310730  0.07305707  0.85929889  1.0
  Zn  Zn478  1  0.15310730  0.40639040  0.85929889  1.0
  Zn  Zn479  1  0.15310730  0.73972374  0.85929889  1.0
  Zn  Zn480  1  0.48644063  0.07305707  0.85929889  1.0
  Zn  Zn481  1  0.48644063  0.40639040  0.85929889  1.0
  Zn  Zn482  1  0.48644063  0.73972374  0.85929889  1.0
  Zn  Zn483  1  0.81977396  0.07305707  0.85929889  1.0
  Zn  Zn484  1  0.81977396  0.40639040  0.85929889  1.0
  Zn  Zn485  1  0.81977396  0.73972374  0.85929889  1.0
  Zn  Zn486  1  0.10801544  0.23382529  0.87461182  1.0
  Zn  Zn487  1  0.10801544  0.56715862  0.87461182  1.0
  Zn  Zn488  1  0.10801544  0.90049195  0.87461182  1.0
  Zn  Zn489  1  0.44134877  0.23382529  0.87461182  1.0
  Zn  Zn490  1  0.44134877  0.56715862  0.87461182  1.0
  Zn  Zn491  1  0.44134877  0.90049195  0.87461182  1.0
  Zn  Zn492  1  0.77468211  0.23382529  0.87461182  1.0
  Zn  Zn493  1  0.77468211  0.56715862  0.87461182  1.0
  Zn  Zn494  1  0.77468211  0.90049195  0.87461182  1.0
  Zn  Zn495  1  0.29849163  0.01953957  0.94604039  1.0
  Zn  Zn496  1  0.29849163  0.35287290  0.94604039  1.0
  Zn  Zn497  1  0.29849163  0.68620624  0.94604039  1.0
  Zn  Zn498  1  0.63182496  0.01953957  0.94604039  1.0
  Zn  Zn499  1  0.63182496  0.35287290  0.94604039  1.0
  Zn  Zn500  1  0.63182496  0.68620624  0.94604039  1.0
  Zn  Zn501  1  0.96515830  0.01953957  0.94604039  1.0
  Zn  Zn502  1  0.96515830  0.35287290  0.94604039  1.0
  Zn  Zn503  1  0.96515830  0.68620624  0.94604039  1.0
  Zn  Zn504  1  0.18280315  0.18453752  0.99784396  1.0
  Zn  Zn505  1  0.18280315  0.51787086  0.99784396  1.0
  Zn  Zn506  1  0.18280315  0.85120419  0.99784396  1.0
  Zn  Zn507  1  0.51613649  0.18453752  0.99784396  1.0
  Zn  Zn508  1  0.51613649  0.51787086  0.99784396  1.0
  Zn  Zn509  1  0.51613649  0.85120419  0.99784396  1.0
  Zn  Zn510  1  0.84946982  0.18453752  0.99784396  1.0
  Zn  Zn511  1  0.84946982  0.51787086  0.99784396  1.0
  Zn  Zn512  1  0.84946982  0.85120419  0.99784396  1.0
  Zn  Zn513  1  0.32566030  0.06548990  0.92641539  1.0
  Zn  Zn514  1  0.32566030  0.39882324  0.92641539  1.0
  Zn  Zn515  1  0.32566030  0.73215657  0.92641539  1.0
  Zn  Zn516  1  0.65899363  0.06548990  0.92641539  1.0
  Zn  Zn517  1  0.65899363  0.39882324  0.92641539  1.0
  Zn  Zn518  1  0.65899363  0.73215657  0.92641539  1.0
  Zn  Zn519  1  0.99232696  0.06548990  0.92641539  1.0
  Zn  Zn520  1  0.99232696  0.39882324  0.92641539  1.0
  Zn  Zn521  1  0.99232696  0.73215657  0.92641539  1.0
  Zn  Zn522  1  0.21906477  0.17547212  0.91625532  1.0
  Zn  Zn523  1  0.21906477  0.50880545  0.91625532  1.0
  Zn  Zn524  1  0.21906477  0.84213879  0.91625532  1.0
  Zn  Zn525  1  0.55239811  0.17547212  0.91625532  1.0
  Zn  Zn526  1  0.55239811  0.50880545  0.91625532  1.0
  Zn  Zn527  1  0.55239811  0.84213879  0.91625532  1.0
  Zn  Zn528  1  0.88573144  0.17547212  0.91625532  1.0
  Zn  Zn529  1  0.88573144  0.50880545  0.91625532  1.0
  Zn  Zn530  1  0.88573144  0.84213879  0.91625532  1.0
  Zn  Zn531  1  0.07620763  0.29451974  0.98768389  1.0
  Zn  Zn532  1  0.07620763  0.62785307  0.98768389  1.0
  Zn  Zn533  1  0.07620763  0.96118640  0.98768389  1.0
  Zn  Zn534  1  0.40954096  0.29451974  0.98768389  1.0
  Zn  Zn535  1  0.40954096  0.62785307  0.98768389  1.0
  Zn  Zn536  1  0.40954096  0.96118640  0.98768389  1.0
  Zn  Zn537  1  0.74287430  0.29451974  0.98768389  1.0
  Zn  Zn538  1  0.74287430  0.62785307  0.98768389  1.0
  Zn  Zn539  1  0.74287430  0.96118640  0.98768389  1.0
  Zn  Zn540  1  0.07175382  0.24289069  0.95620046  1.0
  Zn  Zn541  1  0.07175382  0.57622402  0.95620046  1.0
  Zn  Zn542  1  0.07175382  0.90955736  0.95620046  1.0
  Zn  Zn543  1  0.40508715  0.24289069  0.95620046  1.0
  Zn  Zn544  1  0.40508715  0.57622402  0.95620046  1.0
  Zn  Zn545  1  0.40508715  0.90955736  0.95620046  1.0
  Zn  Zn546  1  0.73842049  0.24289069  0.95620046  1.0
  Zn  Zn547  1  0.73842049  0.57622402  0.95620046  1.0
  Zn  Zn548  1  0.73842049  0.90955736  0.95620046  1.0
  Zn  Zn549  1  0.21461096  0.12384307  0.88477189  1.0
  Zn  Zn550  1  0.21461096  0.45717640  0.88477189  1.0
  Zn  Zn551  1  0.21461096  0.79050974  0.88477189  1.0
  Zn  Zn552  1  0.54794430  0.12384307  0.88477189  1.0
  Zn  Zn553  1  0.54794430  0.45717640  0.88477189  1.0
  Zn  Zn554  1  0.54794430  0.79050974  0.88477189  1.0
  Zn  Zn555  1  0.88127763  0.12384307  0.88477189  1.0
  Zn  Zn556  1  0.88127763  0.45717640  0.88477189  1.0
  Zn  Zn557  1  0.88127763  0.79050974  0.88477189  1.0
  Zn  Zn558  1  0.01775268  0.26558031  0.83893804  1.0
  Zn  Zn559  1  0.01775268  0.59891364  0.83893804  1.0
  Zn  Zn560  1  0.01775268  0.93224698  0.83893804  1.0
  Zn  Zn561  1  0.35108601  0.26558031  0.83893804  1.0
  Zn  Zn562  1  0.35108601  0.59891364  0.83893804  1.0
  Zn  Zn563  1  0.35108601  0.93224698  0.83893804  1.0
  Zn  Zn564  1  0.68441935  0.26558031  0.83893804  1.0
  Zn  Zn565  1  0.68441935  0.59891364  0.83893804  1.0
  Zn  Zn566  1  0.68441935  0.93224698  0.83893804  1.0
  Zn  Zn567  1  0.16060982  0.14653269  0.76750946  1.0
  Zn  Zn568  1  0.16060982  0.47986602  0.76750946  1.0
  Zn  Zn569  1  0.16060982  0.81319936  0.76750946  1.0
  Zn  Zn570  1  0.49394315  0.14653269  0.76750946  1.0
  Zn  Zn571  1  0.49394315  0.47986602  0.76750946  1.0
  Zn  Zn572  1  0.49394315  0.81319936  0.76750946  1.0
  Zn  Zn573  1  0.82727649  0.14653269  0.76750946  1.0
  Zn  Zn574  1  0.82727649  0.47986602  0.76750946  1.0
  Zn  Zn575  1  0.82727649  0.81319936  0.76750946  1.0
  Zn  Zn576  1  0.17782782  0.00992536  0.74780346  1.0
  Zn  Zn577  1  0.17782782  0.34325869  0.74780346  1.0
  Zn  Zn578  1  0.17782782  0.67659202  0.74780346  1.0
  Zn  Zn579  1  0.51116115  0.00992536  0.74780346  1.0
  Zn  Zn580  1  0.51116115  0.34325869  0.74780346  1.0
  Zn  Zn581  1  0.51116115  0.67659202  0.74780346  1.0
  Zn  Zn582  1  0.84449449  0.00992536  0.74780346  1.0
  Zn  Zn583  1  0.84449449  0.34325869  0.74780346  1.0
  Zn  Zn584  1  0.84449449  0.67659202  0.74780346  1.0
  Zn  Zn585  1  0.03497068  0.12897298  0.81923204  1.0
  Zn  Zn586  1  0.03497068  0.46230631  0.81923204  1.0
  Zn  Zn587  1  0.03497068  0.79563964  0.81923204  1.0
  Zn  Zn588  1  0.36830401  0.12897298  0.81923204  1.0
  Zn  Zn589  1  0.36830401  0.46230631  0.81923204  1.0
  Zn  Zn590  1  0.36830401  0.79563964  0.81923204  1.0
  Zn  Zn591  1  0.70163735  0.12897298  0.81923204  1.0
  Zn  Zn592  1  0.70163735  0.46230631  0.81923204  1.0
  Zn  Zn593  1  0.70163735  0.79563964  0.81923204  1.0
  Zn  Zn594  1  0.26309915  0.23860752  0.80594296  1.0
  Zn  Zn595  1  0.26309915  0.57194086  0.80594296  1.0
  Zn  Zn596  1  0.26309915  0.90527419  0.80594296  1.0
  Zn  Zn597  1  0.59643249  0.23860752  0.80594296  1.0
  Zn  Zn598  1  0.59643249  0.57194086  0.80594296  1.0
  Zn  Zn599  1  0.59643249  0.90527419  0.80594296  1.0
  Zn  Zn600  1  0.92976582  0.23860752  0.80594296  1.0
  Zn  Zn601  1  0.92976582  0.57194086  0.80594296  1.0
  Zn  Zn602  1  0.92976582  0.90527419  0.80594296  1.0
  Zn  Zn603  1  0.07262296  0.11955990  0.73451439  1.0
  Zn  Zn604  1  0.07262296  0.45289324  0.73451439  1.0
  Zn  Zn605  1  0.07262296  0.78622657  0.73451439  1.0
  Zn  Zn606  1  0.40595630  0.11955990  0.73451439  1.0
  Zn  Zn607  1  0.40595630  0.45289324  0.73451439  1.0
  Zn  Zn608  1  0.40595630  0.78622657  0.73451439  1.0
  Zn  Zn609  1  0.73928963  0.11955990  0.73451439  1.0
  Zn  Zn610  1  0.73928963  0.45289324  0.73451439  1.0
  Zn  Zn611  1  0.73928963  0.78622657  0.73451439  1.0
  Zn  Zn612  1  0.26581468  0.03689814  0.78079854  1.0
  Zn  Zn613  1  0.26581468  0.37023148  0.78079854  1.0
  Zn  Zn614  1  0.26581468  0.70356481  0.78079854  1.0
  Zn  Zn615  1  0.59914801  0.03689814  0.78079854  1.0
  Zn  Zn616  1  0.59914801  0.37023148  0.78079854  1.0
  Zn  Zn617  1  0.59914801  0.70356481  0.78079854  1.0
  Zn  Zn618  1  0.93248135  0.03689814  0.78079854  1.0
  Zn  Zn619  1  0.93248135  0.37023148  0.78079854  1.0
  Zn  Zn620  1  0.93248135  0.70356481  0.78079854  1.0
  Zn  Zn621  1  0.12295754  0.15594576  0.85222711  1.0
  Zn  Zn622  1  0.12295754  0.48927910  0.85222711  1.0
  Zn  Zn623  1  0.12295754  0.82261243  0.85222711  1.0
  Zn  Zn624  1  0.45629087  0.15594576  0.85222711  1.0
  Zn  Zn625  1  0.45629087  0.48927910  0.85222711  1.0
  Zn  Zn626  1  0.45629087  0.82261243  0.85222711  1.0
  Zn  Zn627  1  0.78962420  0.15594576  0.85222711  1.0
  Zn  Zn628  1  0.78962420  0.48927910  0.85222711  1.0
  Zn  Zn629  1  0.78962420  0.82261243  0.85222711  1.0
  Zn  Zn630  1  0.31897492  0.08245667  0.79570525  1.0
  Zn  Zn631  1  0.31897492  0.41579000  0.79570525  1.0
  Zn  Zn632  1  0.31897492  0.74912333  0.79570525  1.0
  Zn  Zn633  1  0.65230825  0.08245667  0.79570525  1.0
  Zn  Zn634  1  0.65230825  0.41579000  0.79570525  1.0
  Zn  Zn635  1  0.65230825  0.74912333  0.79570525  1.0
  Zn  Zn636  1  0.98564158  0.08245667  0.79570525  1.0
  Zn  Zn637  1  0.98564158  0.41579000  0.79570525  1.0
  Zn  Zn638  1  0.98564158  0.74912333  0.79570525  1.0
  Zn  Zn639  1  0.12849873  0.29674238  0.72427668  1.0
  Zn  Zn640  1  0.12849873  0.63007571  0.72427668  1.0
  Zn  Zn641  1  0.12849873  0.96340905  0.72427668  1.0
  Zn  Zn642  1  0.46183206  0.29674238  0.72427668  1.0
  Zn  Zn643  1  0.46183206  0.63007571  0.72427668  1.0
  Zn  Zn644  1  0.46183206  0.96340905  0.72427668  1.0
  Zn  Zn645  1  0.79516539  0.29674238  0.72427668  1.0
  Zn  Zn646  1  0.79516539  0.63007571  0.72427668  1.0
  Zn  Zn647  1  0.79516539  0.96340905  0.72427668  1.0
  Zn  Zn648  1  0.01946273  0.07400138  0.71960768  1.0
  Zn  Zn649  1  0.01946273  0.40733471  0.71960768  1.0
  Zn  Zn650  1  0.01946273  0.74066805  0.71960768  1.0
  Zn  Zn651  1  0.35279606  0.07400138  0.71960768  1.0
  Zn  Zn652  1  0.35279606  0.40733471  0.71960768  1.0
  Zn  Zn653  1  0.35279606  0.74066805  0.71960768  1.0
  Zn  Zn654  1  0.68612939  0.07400138  0.71960768  1.0
  Zn  Zn655  1  0.68612939  0.40733471  0.71960768  1.0
  Zn  Zn656  1  0.68612939  0.74066805  0.71960768  1.0
  Zn  Zn657  1  0.20993892  0.19304900  0.79103625  1.0
  Zn  Zn658  1  0.20993892  0.52638233  0.79103625  1.0
  Zn  Zn659  1  0.20993892  0.85971567  0.79103625  1.0
  Zn  Zn660  1  0.54327225  0.19304900  0.79103625  1.0
  Zn  Zn661  1  0.54327225  0.52638233  0.79103625  1.0
  Zn  Zn662  1  0.54327225  0.85971567  0.79103625  1.0
  Zn  Zn663  1  0.87660558  0.19304900  0.79103625  1.0
  Zn  Zn664  1  0.87660558  0.52638233  0.79103625  1.0
  Zn  Zn665  1  0.87660558  0.85971567  0.79103625  1.0
  Zn  Zn666  1  0.24946492  0.24736083  0.72524875  1.0
  Zn  Zn667  1  0.24946492  0.58069417  0.72524875  1.0
  Zn  Zn668  1  0.24946492  0.91402750  0.72524875  1.0
  Zn  Zn669  1  0.58279825  0.24736083  0.72524875  1.0
  Zn  Zn670  1  0.58279825  0.58069417  0.72524875  1.0
  Zn  Zn671  1  0.58279825  0.91402750  0.72524875  1.0
  Zn  Zn672  1  0.91613158  0.24736083  0.72524875  1.0
  Zn  Zn673  1  0.91613158  0.58069417  0.72524875  1.0
  Zn  Zn674  1  0.91613158  0.91402750  0.72524875  1.0
  Zn  Zn675  1  0.10660777  0.03307512  0.79667732  1.0
  Zn  Zn676  1  0.10660777  0.36640845  0.79667732  1.0
  Zn  Zn677  1  0.10660777  0.69974179  0.79667732  1.0
  Zn  Zn678  1  0.43994111  0.03307512  0.79667732  1.0
  Zn  Zn679  1  0.43994111  0.36640845  0.79667732  1.0
  Zn  Zn680  1  0.43994111  0.69974179  0.79667732  1.0
  Zn  Zn681  1  0.77327444  0.03307512  0.79667732  1.0
  Zn  Zn682  1  0.77327444  0.36640845  0.79667732  1.0
  Zn  Zn683  1  0.77327444  0.69974179  0.79667732  1.0
  Zn  Zn684  1  0.23182987  0.12338293  0.71863561  1.0
  Zn  Zn685  1  0.23182987  0.45671626  0.71863561  1.0
  Zn  Zn686  1  0.23182987  0.79004960  0.71863561  1.0
  Zn  Zn687  1  0.56516320  0.12338293  0.71863561  1.0
  Zn  Zn688  1  0.56516320  0.45671626  0.71863561  1.0
  Zn  Zn689  1  0.56516320  0.79004960  0.71863561  1.0
  Zn  Zn690  1  0.89849654  0.12338293  0.71863561  1.0
  Zn  Zn691  1  0.89849654  0.45671626  0.71863561  1.0
  Zn  Zn692  1  0.89849654  0.79004960  0.71863561  1.0
  Zn  Zn693  1  0.08897273  0.24243055  0.79006418  1.0
  Zn  Zn694  1  0.08897273  0.57576388  0.79006418  1.0
  Zn  Zn695  1  0.08897273  0.90909721  0.79006418  1.0
  Zn  Zn696  1  0.42230606  0.24243055  0.79006418  1.0
  Zn  Zn697  1  0.42230606  0.57576388  0.79006418  1.0
  Zn  Zn698  1  0.42230606  0.90909721  0.79006418  1.0
  Zn  Zn699  1  0.75563939  0.24243055  0.79006418  1.0
  Zn  Zn700  1  0.75563939  0.57576388  0.79006418  1.0
  Zn  Zn701  1  0.75563939  0.90909721  0.79006418  1.0
  Zn  Zn702  1  0.05968701  0.28852631  0.77908204  1.0
  Zn  Zn703  1  0.05968701  0.62185964  0.77908204  1.0
  Zn  Zn704  1  0.05968701  0.95519298  0.77908204  1.0
  Zn  Zn705  1  0.39302035  0.28852631  0.77908204  1.0
  Zn  Zn706  1  0.39302035  0.62185964  0.77908204  1.0
  Zn  Zn707  1  0.39302035  0.95519298  0.77908204  1.0
  Zn  Zn708  1  0.72635368  0.28852631  0.77908204  1.0
  Zn  Zn709  1  0.72635368  0.62185964  0.77908204  1.0
  Zn  Zn710  1  0.72635368  0.95519298  0.77908204  1.0
  Zn  Zn711  1  0.25016320  0.07424060  0.85051061  1.0
  Zn  Zn712  1  0.25016320  0.40757393  0.85051061  1.0
  Zn  Zn713  1  0.25016320  0.74090726  0.85051061  1.0
  Zn  Zn714  1  0.58349654  0.07424060  0.85051061  1.0
  Zn  Zn715  1  0.58349654  0.40757393  0.85051061  1.0
  Zn  Zn716  1  0.58349654  0.74090726  0.85051061  1.0
  Zn  Zn717  1  0.91682987  0.07424060  0.85051061  1.0
  Zn  Zn718  1  0.91682987  0.40757393  0.85051061  1.0
  Zn  Zn719  1  0.91682987  0.74090726  0.85051061  1.0
  Zn  Zn720  1  0.13589349  0.32031269  0.80765946  1.0
  Zn  Zn721  1  0.13589349  0.65364602  0.80765946  1.0
  Zn  Zn722  1  0.13589349  0.98697936  0.80765946  1.0
  Zn  Zn723  1  0.46922682  0.32031269  0.80765946  1.0
  Zn  Zn724  1  0.46922682  0.65364602  0.80765946  1.0
  Zn  Zn725  1  0.46922682  0.98697936  0.80765946  1.0
  Zn  Zn726  1  0.80256015  0.32031269  0.80765946  1.0
  Zn  Zn727  1  0.80256015  0.65364602  0.80765946  1.0
  Zn  Zn728  1  0.80256015  0.98697936  0.80765946  1.0
  Zn  Zn729  1  0.27875063  0.20126507  0.73623089  1.0
  Zn  Zn730  1  0.27875063  0.53459840  0.73623089  1.0
  Zn  Zn731  1  0.27875063  0.86793174  0.73623089  1.0
  Zn  Zn732  1  0.61208396  0.20126507  0.73623089  1.0
  Zn  Zn733  1  0.61208396  0.53459840  0.73623089  1.0
  Zn  Zn734  1  0.61208396  0.86793174  0.73623089  1.0
  Zn  Zn735  1  0.94541730  0.20126507  0.73623089  1.0
  Zn  Zn736  1  0.94541730  0.53459840  0.73623089  1.0
  Zn  Zn737  1  0.94541730  0.86793174  0.73623089  1.0
  Zn  Zn738  1  0.25582892  0.07743767  0.72763525  1.0
  Zn  Zn739  1  0.25582892  0.41077100  0.72763525  1.0
  Zn  Zn740  1  0.25582892  0.74410433  0.72763525  1.0
  Zn  Zn741  1  0.58916225  0.07743767  0.72763525  1.0
  Zn  Zn742  1  0.58916225  0.41077100  0.72763525  1.0
  Zn  Zn743  1  0.58916225  0.74410433  0.72763525  1.0
  Zn  Zn744  1  0.92249558  0.07743767  0.72763525  1.0
  Zn  Zn745  1  0.92249558  0.41077100  0.72763525  1.0
  Zn  Zn746  1  0.92249558  0.74410433  0.72763525  1.0
  Zn  Zn747  1  0.11297177  0.19648529  0.79906382  1.0
  Zn  Zn748  1  0.11297177  0.52981862  0.79906382  1.0
  Zn  Zn749  1  0.11297177  0.86315195  0.79906382  1.0
  Zn  Zn750  1  0.44630511  0.19648529  0.79906382  1.0
  Zn  Zn751  1  0.44630511  0.52981862  0.79906382  1.0
  Zn  Zn752  1  0.44630511  0.86315195  0.79906382  1.0
  Zn  Zn753  1  0.77963844  0.19648529  0.79906382  1.0
  Zn  Zn754  1  0.77963844  0.52981862  0.79906382  1.0
  Zn  Zn755  1  0.77963844  0.86315195  0.79906382  1.0
  Zn  Zn756  1  0.22546587  0.29330610  0.71624911  1.0
  Zn  Zn757  1  0.22546587  0.62663943  0.71624911  1.0
  Zn  Zn758  1  0.22546587  0.95997276  0.71624911  1.0
  Zn  Zn759  1  0.55879920  0.29330610  0.71624911  1.0
  Zn  Zn760  1  0.55879920  0.62663943  0.71624911  1.0
  Zn  Zn761  1  0.55879920  0.95997276  0.71624911  1.0
  Zn  Zn762  1  0.89213254  0.29330610  0.71624911  1.0
  Zn  Zn763  1  0.89213254  0.62663943  0.71624911  1.0
  Zn  Zn764  1  0.89213254  0.95997276  0.71624911  1.0
  Zn  Zn765  1  0.08260873  0.07902038  0.78767768  1.0
  Zn  Zn766  1  0.08260873  0.41235371  0.78767768  1.0
  Zn  Zn767  1  0.08260873  0.74568705  0.78767768  1.0
  Zn  Zn768  1  0.41594206  0.07902038  0.78767768  1.0
  Zn  Zn769  1  0.41594206  0.41235371  0.78767768  1.0
  Zn  Zn770  1  0.41594206  0.74568705  0.78767768  1.0
  Zn  Zn771  1  0.74927539  0.07902038  0.78767768  1.0
  Zn  Zn772  1  0.74927539  0.41235371  0.78767768  1.0
  Zn  Zn773  1  0.74927539  0.74568705  0.78767768  1.0
  Zn  Zn774  1  0.29960492  0.32689367  0.74405125  1.0
  Zn  Zn775  1  0.29960492  0.66022700  0.74405125  1.0
  Zn  Zn776  1  0.29960492  0.99356033  0.74405125  1.0
  Zn  Zn777  1  0.63293825  0.32689367  0.74405125  1.0
  Zn  Zn778  1  0.63293825  0.66022700  0.74405125  1.0
  Zn  Zn779  1  0.63293825  0.99356033  0.74405125  1.0
  Zn  Zn780  1  0.96627158  0.32689367  0.74405125  1.0
  Zn  Zn781  1  0.96627158  0.66022700  0.74405125  1.0
  Zn  Zn782  1  0.96627158  0.99356033  0.74405125  1.0
  Zn  Zn783  1  0.15674777  0.11260795  0.81547982  1.0
  Zn  Zn784  1  0.15674777  0.44594129  0.81547982  1.0
  Zn  Zn785  1  0.15674777  0.77927462  0.81547982  1.0
  Zn  Zn786  1  0.49008111  0.11260795  0.81547982  1.0
  Zn  Zn787  1  0.49008111  0.44594129  0.81547982  1.0
  Zn  Zn788  1  0.49008111  0.77927462  0.81547982  1.0
  Zn  Zn789  1  0.82341444  0.11260795  0.81547982  1.0
  Zn  Zn790  1  0.82341444  0.44594129  0.81547982  1.0
  Zn  Zn791  1  0.82341444  0.77927462  0.81547982  1.0
  Zn  Zn792  1  0.22930892  0.28194533  0.84269025  1.0
  Zn  Zn793  1  0.22930892  0.61527867  0.84269025  1.0
  Zn  Zn794  1  0.22930892  0.94861200  0.84269025  1.0
  Zn  Zn795  1  0.56264225  0.28194533  0.84269025  1.0
  Zn  Zn796  1  0.56264225  0.61527867  0.84269025  1.0
  Zn  Zn797  1  0.56264225  0.94861200  0.84269025  1.0
  Zn  Zn798  1  0.89597558  0.28194533  0.84269025  1.0
  Zn  Zn799  1  0.89597558  0.61527867  0.84269025  1.0
  Zn  Zn800  1  0.89597558  0.94861200  0.84269025  1.0
  Zn  Zn801  1  0.03883273  0.16289771  0.77126168  1.0
  Zn  Zn802  1  0.03883273  0.49623105  0.77126168  1.0
  Zn  Zn803  1  0.03883273  0.82956438  0.77126168  1.0
  Zn  Zn804  1  0.37216606  0.16289771  0.77126168  1.0
  Zn  Zn805  1  0.37216606  0.49623105  0.77126168  1.0
  Zn  Zn806  1  0.37216606  0.82956438  0.77126168  1.0
  Zn  Zn807  1  0.70549939  0.16289771  0.77126168  1.0
  Zn  Zn808  1  0.70549939  0.49623105  0.77126168  1.0
  Zn  Zn809  1  0.70549939  0.82956438  0.77126168  1.0
  Zn  Zn810  1  0.18753339  0.06445055  0.78184018  1.0
  Zn  Zn811  1  0.18753339  0.39778388  0.78184018  1.0
  Zn  Zn812  1  0.18753339  0.73111721  0.78184018  1.0
  Zn  Zn813  1  0.52086673  0.06445055  0.78184018  1.0
  Zn  Zn814  1  0.52086673  0.39778388  0.78184018  1.0
  Zn  Zn815  1  0.52086673  0.73111721  0.78184018  1.0
  Zn  Zn816  1  0.85420006  0.06445055  0.78184018  1.0
  Zn  Zn817  1  0.85420006  0.39778388  0.78184018  1.0
  Zn  Zn818  1  0.85420006  0.73111721  0.78184018  1.0
  Zn  Zn819  1  0.04467625  0.18349817  0.85326875  1.0
  Zn  Zn820  1  0.04467625  0.51683150  0.85326875  1.0
  Zn  Zn821  1  0.04467625  0.85016483  0.85326875  1.0
  Zn  Zn822  1  0.37800958  0.18349817  0.85326875  1.0
  Zn  Zn823  1  0.37800958  0.51683150  0.85326875  1.0
  Zn  Zn824  1  0.37800958  0.85016483  0.85326875  1.0
  Zn  Zn825  1  0.71134292  0.18349817  0.85326875  1.0
  Zn  Zn826  1  0.71134292  0.51683150  0.85326875  1.0
  Zn  Zn827  1  0.71134292  0.85016483  0.85326875  1.0
  Zn  Zn828  1  0.00804711  0.21105512  0.80490132  1.0
  Zn  Zn829  1  0.00804711  0.54438845  0.80490132  1.0
  Zn  Zn830  1  0.00804711  0.87772179  0.80490132  1.0
  Zn  Zn831  1  0.34138044  0.21105512  0.80490132  1.0
  Zn  Zn832  1  0.34138044  0.54438845  0.80490132  1.0
  Zn  Zn833  1  0.34138044  0.87772179  0.80490132  1.0
  Zn  Zn834  1  0.67471377  0.21105512  0.80490132  1.0
  Zn  Zn835  1  0.67471377  0.54438845  0.80490132  1.0
  Zn  Zn836  1  0.67471377  0.87772179  0.80490132  1.0
  Zn  Zn837  1  0.15090425  0.09200750  0.73347275  1.0
  Zn  Zn838  1  0.15090425  0.42534083  0.73347275  1.0
  Zn  Zn839  1  0.15090425  0.75867417  0.73347275  1.0
  Zn  Zn840  1  0.48423758  0.09200750  0.73347275  1.0
  Zn  Zn841  1  0.48423758  0.42534083  0.73347275  1.0
  Zn  Zn842  1  0.48423758  0.75867417  0.73347275  1.0
  Zn  Zn843  1  0.81757092  0.09200750  0.73347275  1.0
  Zn  Zn844  1  0.81757092  0.42534083  0.73347275  1.0
  Zn  Zn845  1  0.81757092  0.75867417  0.73347275  1.0
  Zn  Zn846  1  0.23294939  0.32149621  0.79887118  1.0
  Zn  Zn847  1  0.23294939  0.65482955  0.79887118  1.0
  Zn  Zn848  1  0.23294939  0.98816288  0.79887118  1.0
  Zn  Zn849  1  0.56628273  0.32149621  0.79887118  1.0
  Zn  Zn850  1  0.56628273  0.65482955  0.79887118  1.0
  Zn  Zn851  1  0.56628273  0.98816288  0.79887118  1.0
  Zn  Zn852  1  0.89961606  0.32149621  0.79887118  1.0
  Zn  Zn853  1  0.89961606  0.65482955  0.79887118  1.0
  Zn  Zn854  1  0.89961606  0.98816288  0.79887118  1.0
  Zn  Zn855  1  0.04247320  0.20244860  0.72744261  1.0
  Zn  Zn856  1  0.04247320  0.53578193  0.72744261  1.0
  Zn  Zn857  1  0.04247320  0.86911526  0.72744261  1.0
  Zn  Zn858  1  0.37580654  0.20244860  0.72744261  1.0
  Zn  Zn859  1  0.37580654  0.53578193  0.72744261  1.0
  Zn  Zn860  1  0.37580654  0.86911526  0.72744261  1.0
  Zn  Zn861  1  0.70913987  0.20244860  0.72744261  1.0
  Zn  Zn862  1  0.70913987  0.53578193  0.72744261  1.0
  Zn  Zn863  1  0.70913987  0.86911526  0.72744261  1.0
  Zn  Zn864  1  0.29596444  0.28734279  0.78787032  1.0
  Zn  Zn865  1  0.29596444  0.62067612  0.78787032  1.0
  Zn  Zn866  1  0.29596444  0.95400945  0.78787032  1.0
  Zn  Zn867  1  0.62929777  0.28734279  0.78787032  1.0
  Zn  Zn868  1  0.62929777  0.62067612  0.78787032  1.0
  Zn  Zn869  1  0.62929777  0.95400945  0.78787032  1.0
  Zn  Zn870  1  0.96263111  0.28734279  0.78787032  1.0
  Zn  Zn871  1  0.96263111  0.62067612  0.78787032  1.0
  Zn  Zn872  1  0.96263111  0.95400945  0.78787032  1.0
  Zn  Zn873  1  0.10548825  0.16829517  0.71644175  1.0
  Zn  Zn874  1  0.10548825  0.50162850  0.71644175  1.0
  Zn  Zn875  1  0.10548825  0.83496183  0.71644175  1.0
  Zn  Zn876  1  0.43882158  0.16829517  0.71644175  1.0
  Zn  Zn877  1  0.43882158  0.50162850  0.71644175  1.0
  Zn  Zn878  1  0.43882158  0.83496183  0.71644175  1.0
  Zn  Zn879  1  0.77215492  0.16829517  0.71644175  1.0
  Zn  Zn880  1  0.77215492  0.50162850  0.71644175  1.0
  Zn  Zn881  1  0.77215492  0.83496183  0.71644175  1.0
  Zn  Zn882  1  0.06039639  0.32906338  0.73175468  1.0
  Zn  Zn883  1  0.06039639  0.66239671  0.73175468  1.0
  Zn  Zn884  1  0.06039639  0.99573005  0.73175468  1.0
  Zn  Zn885  1  0.39372973  0.32906338  0.73175468  1.0
  Zn  Zn886  1  0.39372973  0.66239671  0.73175468  1.0
  Zn  Zn887  1  0.39372973  0.99573005  0.73175468  1.0
  Zn  Zn888  1  0.72706306  0.32906338  0.73175468  1.0
  Zn  Zn889  1  0.72706306  0.66239671  0.73175468  1.0
  Zn  Zn890  1  0.72706306  0.99573005  0.73175468  1.0
  Zn  Zn891  1  0.25087258  0.11477767  0.80318325  1.0
  Zn  Zn892  1  0.25087258  0.44811100  0.80318325  1.0
  Zn  Zn893  1  0.25087258  0.78144433  0.80318325  1.0
  Zn  Zn894  1  0.58420592  0.11477767  0.80318325  1.0
  Zn  Zn895  1  0.58420592  0.44811100  0.80318325  1.0
  Zn  Zn896  1  0.58420592  0.78144433  0.80318325  1.0
  Zn  Zn897  1  0.91753925  0.11477767  0.80318325  1.0
  Zn  Zn898  1  0.91753925  0.44811100  0.80318325  1.0
  Zn  Zn899  1  0.91753925  0.78144433  0.80318325  1.0
  Zn  Zn900  1  0.13518411  0.27977562  0.85498682  1.0
  Zn  Zn901  1  0.13518411  0.61310895  0.85498682  1.0
  Zn  Zn902  1  0.13518411  0.94644229  0.85498682  1.0
  Zn  Zn903  1  0.46851744  0.27977562  0.85498682  1.0
  Zn  Zn904  1  0.46851744  0.61310895  0.85498682  1.0
  Zn  Zn905  1  0.46851744  0.94644229  0.85498682  1.0
  Zn  Zn906  1  0.80185077  0.27977562  0.85498682  1.0
  Zn  Zn907  1  0.80185077  0.61310895  0.85498682  1.0
  Zn  Zn908  1  0.80185077  0.94644229  0.85498682  1.0
  Zn  Zn909  1  0.27804125  0.16072800  0.78355825  1.0
  Zn  Zn910  1  0.27804125  0.49406133  0.78355825  1.0
  Zn  Zn911  1  0.27804125  0.82739467  0.78355825  1.0
  Zn  Zn912  1  0.61137458  0.16072800  0.78355825  1.0
  Zn  Zn913  1  0.61137458  0.49406133  0.78355825  1.0
  Zn  Zn914  1  0.61137458  0.82739467  0.78355825  1.0
  Zn  Zn915  1  0.94470792  0.16072800  0.78355825  1.0
  Zn  Zn916  1  0.94470792  0.49406133  0.78355825  1.0
  Zn  Zn917  1  0.94470792  0.82739467  0.78355825  1.0
  Zn  Zn918  1  0.17144573  0.27071021  0.77339818  1.0
  Zn  Zn919  1  0.17144573  0.60404355  0.77339818  1.0
  Zn  Zn920  1  0.17144573  0.93737688  0.77339818  1.0
  Zn  Zn921  1  0.50477906  0.27071021  0.77339818  1.0
  Zn  Zn922  1  0.50477906  0.60404355  0.77339818  1.0
  Zn  Zn923  1  0.50477906  0.93737688  0.77339818  1.0
  Zn  Zn924  1  0.83811239  0.27071021  0.77339818  1.0
  Zn  Zn925  1  0.83811239  0.60404355  0.77339818  1.0
  Zn  Zn926  1  0.83811239  0.93737688  0.77339818  1.0
  Zn  Zn927  1  0.02858858  0.05642450  0.84482675  1.0
  Zn  Zn928  1  0.02858858  0.38975783  0.84482675  1.0
  Zn  Zn929  1  0.02858858  0.72309117  0.84482675  1.0
  Zn  Zn930  1  0.36192192  0.05642450  0.84482675  1.0
  Zn  Zn931  1  0.36192192  0.38975783  0.84482675  1.0
  Zn  Zn932  1  0.36192192  0.72309117  0.84482675  1.0
  Zn  Zn933  1  0.69525525  0.05642450  0.84482675  1.0
  Zn  Zn934  1  0.69525525  0.38975783  0.84482675  1.0
  Zn  Zn935  1  0.69525525  0.72309117  0.84482675  1.0
  Zn  Zn936  1  0.02413477  0.00479545  0.81334332  1.0
  Zn  Zn937  1  0.02413477  0.33812879  0.81334332  1.0
  Zn  Zn938  1  0.02413477  0.67146212  0.81334332  1.0
  Zn  Zn939  1  0.35746811  0.00479545  0.81334332  1.0
  Zn  Zn940  1  0.35746811  0.33812879  0.81334332  1.0
  Zn  Zn941  1  0.35746811  0.67146212  0.81334332  1.0
  Zn  Zn942  1  0.69080144  0.00479545  0.81334332  1.0
  Zn  Zn943  1  0.69080144  0.33812879  0.81334332  1.0
  Zn  Zn944  1  0.69080144  0.67146212  0.81334332  1.0
  Zn  Zn945  1  0.16699192  0.21908117  0.74191475  1.0
  Zn  Zn946  1  0.16699192  0.55241450  0.74191475  1.0
  Zn  Zn947  1  0.16699192  0.88574783  0.74191475  1.0
  Zn  Zn948  1  0.50032525  0.21908117  0.74191475  1.0
  Zn  Zn949  1  0.50032525  0.55241450  0.74191475  1.0
  Zn  Zn950  1  0.50032525  0.88574783  0.74191475  1.0
  Zn  Zn951  1  0.83365858  0.21908117  0.74191475  1.0
  Zn  Zn952  1  0.83365858  0.55241450  0.74191475  1.0
  Zn  Zn953  1  0.83365858  0.88574783  0.74191475  1.0
  Zn  Zn954  1  0.30346696  0.02748507  0.69608089  1.0
  Zn  Zn955  1  0.30346696  0.36081840  0.69608089  1.0
  Zn  Zn956  1  0.30346696  0.69415174  0.69608089  1.0
  Zn  Zn957  1  0.63680030  0.02748507  0.69608089  1.0
  Zn  Zn958  1  0.63680030  0.36081840  0.69608089  1.0
  Zn  Zn959  1  0.63680030  0.69415174  0.69608089  1.0
  Zn  Zn960  1  0.97013363  0.02748507  0.69608089  1.0
  Zn  Zn961  1  0.97013363  0.36081840  0.69608089  1.0
  Zn  Zn962  1  0.97013363  0.69415174  0.69608089  1.0
  Zn  Zn963  1  0.11299077  0.24177079  0.62465232  1.0
  Zn  Zn964  1  0.11299077  0.57510412  0.62465232  1.0
  Zn  Zn965  1  0.11299077  0.90843745  0.62465232  1.0
  Zn  Zn966  1  0.44632411  0.24177079  0.62465232  1.0
  Zn  Zn967  1  0.44632411  0.57510412  0.62465232  1.0
  Zn  Zn968  1  0.44632411  0.90843745  0.62465232  1.0
  Zn  Zn969  1  0.77965744  0.24177079  0.62465232  1.0
  Zn  Zn970  1  0.77965744  0.57510412  0.62465232  1.0
  Zn  Zn971  1  0.77965744  0.90843745  0.62465232  1.0
  Zn  Zn972  1  0.13020877  0.10516345  0.60494632  1.0
  Zn  Zn973  1  0.13020877  0.43849679  0.60494632  1.0
  Zn  Zn974  1  0.13020877  0.77183012  0.60494632  1.0
  Zn  Zn975  1  0.46354211  0.10516345  0.60494632  1.0
  Zn  Zn976  1  0.46354211  0.43849679  0.60494632  1.0
  Zn  Zn977  1  0.46354211  0.77183012  0.60494632  1.0
  Zn  Zn978  1  0.79687544  0.10516345  0.60494632  1.0
  Zn  Zn979  1  0.79687544  0.43849679  0.60494632  1.0
  Zn  Zn980  1  0.79687544  0.77183012  0.60494632  1.0
  Zn  Zn981  1  0.32068496  0.22421107  0.67637489  1.0
  Zn  Zn982  1  0.32068496  0.55754440  0.67637489  1.0
  Zn  Zn983  1  0.32068496  0.89087774  0.67637489  1.0
  Zn  Zn984  1  0.65401830  0.22421107  0.67637489  1.0
  Zn  Zn985  1  0.65401830  0.55754440  0.67637489  1.0
  Zn  Zn986  1  0.65401830  0.89087774  0.67637489  1.0
  Zn  Zn987  1  0.98735163  0.22421107  0.67637489  1.0
  Zn  Zn988  1  0.98735163  0.55754440  0.67637489  1.0
  Zn  Zn989  1  0.98735163  0.89087774  0.67637489  1.0
  Zn  Zn990  1  0.21548011  0.00051229  0.66308582  1.0
  Zn  Zn991  1  0.21548011  0.33384562  0.66308582  1.0
  Zn  Zn992  1  0.21548011  0.66717895  0.66308582  1.0
  Zn  Zn993  1  0.54881344  0.00051229  0.66308582  1.0
  Zn  Zn994  1  0.54881344  0.33384562  0.66308582  1.0
  Zn  Zn995  1  0.54881344  0.66717895  0.66308582  1.0
  Zn  Zn996  1  0.88214677  0.00051229  0.66308582  1.0
  Zn  Zn997  1  0.88214677  0.33384562  0.66308582  1.0
  Zn  Zn998  1  0.88214677  0.66717895  0.66308582  1.0
  Zn  Zn999  1  0.02500392  0.21479800  0.59165725  1.0
  Zn  Zn1000  1  0.02500392  0.54813133  0.59165725  1.0
  Zn  Zn1001  1  0.02500392  0.88146467  0.59165725  1.0
  Zn  Zn1002  1  0.35833725  0.21479800  0.59165725  1.0
  Zn  Zn1003  1  0.35833725  0.54813133  0.59165725  1.0
  Zn  Zn1004  1  0.35833725  0.88146467  0.59165725  1.0
  Zn  Zn1005  1  0.69167058  0.21479800  0.59165725  1.0
  Zn  Zn1006  1  0.69167058  0.54813133  0.59165725  1.0
  Zn  Zn1007  1  0.69167058  0.88146467  0.59165725  1.0
  Zn  Zn1008  1  0.21819563  0.13213624  0.63794139  1.0
  Zn  Zn1009  1  0.21819563  0.46546957  0.63794139  1.0
  Zn  Zn1010  1  0.21819563  0.79880290  0.63794139  1.0
  Zn  Zn1011  1  0.55152896  0.13213624  0.63794139  1.0
  Zn  Zn1012  1  0.55152896  0.46546957  0.63794139  1.0
  Zn  Zn1013  1  0.55152896  0.79880290  0.63794139  1.0
  Zn  Zn1014  1  0.88486230  0.13213624  0.63794139  1.0
  Zn  Zn1015  1  0.88486230  0.46546957  0.63794139  1.0
  Zn  Zn1016  1  0.88486230  0.79880290  0.63794139  1.0
  Zn  Zn1017  1  0.07533849  0.25118386  0.70936996  1.0
  Zn  Zn1018  1  0.07533849  0.58451719  0.70936996  1.0
  Zn  Zn1019  1  0.07533849  0.91785052  0.70936996  1.0
  Zn  Zn1020  1  0.40867182  0.25118386  0.70936996  1.0
  Zn  Zn1021  1  0.40867182  0.58451719  0.70936996  1.0
  Zn  Zn1022  1  0.40867182  0.91785052  0.70936996  1.0
  Zn  Zn1023  1  0.74200515  0.25118386  0.70936996  1.0
  Zn  Zn1024  1  0.74200515  0.58451719  0.70936996  1.0
  Zn  Zn1025  1  0.74200515  0.91785052  0.70936996  1.0
  Zn  Zn1026  1  0.27135587  0.17769476  0.65284811  1.0
  Zn  Zn1027  1  0.27135587  0.51102810  0.65284811  1.0
  Zn  Zn1028  1  0.27135587  0.84436143  0.65284811  1.0
  Zn  Zn1029  1  0.60468920  0.17769476  0.65284811  1.0
  Zn  Zn1030  1  0.60468920  0.51102810  0.65284811  1.0
  Zn  Zn1031  1  0.60468920  0.84436143  0.65284811  1.0
  Zn  Zn1032  1  0.93802254  0.17769476  0.65284811  1.0
  Zn  Zn1033  1  0.93802254  0.51102810  0.65284811  1.0
  Zn  Zn1034  1  0.93802254  0.84436143  0.65284811  1.0
  Zn  Zn1035  1  0.08087968  0.05864714  0.58141954  1.0
  Zn  Zn1036  1  0.08087968  0.39198048  0.58141954  1.0
  Zn  Zn1037  1  0.08087968  0.72531381  0.58141954  1.0
  Zn  Zn1038  1  0.41421301  0.05864714  0.58141954  1.0
  Zn  Zn1039  1  0.41421301  0.39198048  0.58141954  1.0
  Zn  Zn1040  1  0.41421301  0.72531381  0.58141954  1.0
  Zn  Zn1041  1  0.74754635  0.05864714  0.58141954  1.0
  Zn  Zn1042  1  0.74754635  0.39198048  0.58141954  1.0
  Zn  Zn1043  1  0.74754635  0.72531381  0.58141954  1.0
  Zn  Zn1044  1  0.30517701  0.16923948  0.57675054  1.0
  Zn  Zn1045  1  0.30517701  0.50257281  0.57675054  1.0
  Zn  Zn1046  1  0.30517701  0.83590614  0.57675054  1.0
  Zn  Zn1047  1  0.63851035  0.16923948  0.57675054  1.0
  Zn  Zn1048  1  0.63851035  0.50257281  0.57675054  1.0
  Zn  Zn1049  1  0.63851035  0.83590614  0.57675054  1.0
  Zn  Zn1050  1  0.97184368  0.16923948  0.57675054  1.0
  Zn  Zn1051  1  0.97184368  0.50257281  0.57675054  1.0
  Zn  Zn1052  1  0.97184368  0.83590614  0.57675054  1.0
  Zn  Zn1053  1  0.16231987  0.28828710  0.64817911  1.0
  Zn  Zn1054  1  0.16231987  0.62162043  0.64817911  1.0
  Zn  Zn1055  1  0.16231987  0.95495376  0.64817911  1.0
  Zn  Zn1056  1  0.49565320  0.28828710  0.64817911  1.0
  Zn  Zn1057  1  0.49565320  0.62162043  0.64817911  1.0
  Zn  Zn1058  1  0.49565320  0.95495376  0.64817911  1.0
  Zn  Zn1059  1  0.82898654  0.28828710  0.64817911  1.0
  Zn  Zn1060  1  0.82898654  0.62162043  0.64817911  1.0
  Zn  Zn1061  1  0.82898654  0.95495376  0.64817911  1.0
  Zn  Zn1062  1  0.20184587  0.00926560  0.58239161  1.0
  Zn  Zn1063  1  0.20184587  0.34259893  0.58239161  1.0
  Zn  Zn1064  1  0.20184587  0.67593226  0.58239161  1.0
  Zn  Zn1065  1  0.53517920  0.00926560  0.58239161  1.0
  Zn  Zn1066  1  0.53517920  0.34259893  0.58239161  1.0
  Zn  Zn1067  1  0.53517920  0.67593226  0.58239161  1.0
  Zn  Zn1068  1  0.86851254  0.00926560  0.58239161  1.0
  Zn  Zn1069  1  0.86851254  0.34259893  0.58239161  1.0
  Zn  Zn1070  1  0.86851254  0.67593226  0.58239161  1.0
  Zn  Zn1071  1  0.05898873  0.12831321  0.65382018  1.0
  Zn  Zn1072  1  0.05898873  0.46164655  0.65382018  1.0
  Zn  Zn1073  1  0.05898873  0.79497988  0.65382018  1.0
  Zn  Zn1074  1  0.39232206  0.12831321  0.65382018  1.0
  Zn  Zn1075  1  0.39232206  0.46164655  0.65382018  1.0
  Zn  Zn1076  1  0.39232206  0.79497988  0.65382018  1.0
  Zn  Zn1077  1  0.72565539  0.12831321  0.65382018  1.0
  Zn  Zn1078  1  0.72565539  0.46164655  0.65382018  1.0
  Zn  Zn1079  1  0.72565539  0.79497988  0.65382018  1.0
  Zn  Zn1080  1  0.18421082  0.21862102  0.57577846  1.0
  Zn  Zn1081  1  0.18421082  0.55195436  0.57577846  1.0
  Zn  Zn1082  1  0.18421082  0.88528769  0.57577846  1.0
  Zn  Zn1083  1  0.51754415  0.21862102  0.57577846  1.0
  Zn  Zn1084  1  0.51754415  0.55195436  0.57577846  1.0
  Zn  Zn1085  1  0.51754415  0.88528769  0.57577846  1.0
  Zn  Zn1086  1  0.85087749  0.21862102  0.57577846  1.0
  Zn  Zn1087  1  0.85087749  0.55195436  0.57577846  1.0
  Zn  Zn1088  1  0.85087749  0.88528769  0.57577846  1.0
  Zn  Zn1089  1  0.04135368  0.00433531  0.64720704  1.0
  Zn  Zn1090  1  0.04135368  0.33766864  0.64720704  1.0
  Zn  Zn1091  1  0.04135368  0.67100198  0.64720704  1.0
  Zn  Zn1092  1  0.37468701  0.00433531  0.64720704  1.0
  Zn  Zn1093  1  0.37468701  0.33766864  0.64720704  1.0
  Zn  Zn1094  1  0.37468701  0.67100198  0.64720704  1.0
  Zn  Zn1095  1  0.70802035  0.00433531  0.64720704  1.0
  Zn  Zn1096  1  0.70802035  0.33766864  0.64720704  1.0
  Zn  Zn1097  1  0.70802035  0.67100198  0.64720704  1.0
  Zn  Zn1098  1  0.01206796  0.05043107  0.63622489  1.0
  Zn  Zn1099  1  0.01206796  0.38376440  0.63622489  1.0
  Zn  Zn1100  1  0.01206796  0.71709774  0.63622489  1.0
  Zn  Zn1101  1  0.34540130  0.05043107  0.63622489  1.0
  Zn  Zn1102  1  0.34540130  0.38376440  0.63622489  1.0
  Zn  Zn1103  1  0.34540130  0.71709774  0.63622489  1.0
  Zn  Zn1104  1  0.67873463  0.05043107  0.63622489  1.0
  Zn  Zn1105  1  0.67873463  0.38376440  0.63622489  1.0
  Zn  Zn1106  1  0.67873463  0.71709774  0.63622489  1.0
  Zn  Zn1107  1  0.20254415  0.16947869  0.70765346  1.0
  Zn  Zn1108  1  0.20254415  0.50281202  0.70765346  1.0
  Zn  Zn1109  1  0.20254415  0.83614536  0.70765346  1.0
  Zn  Zn1110  1  0.53587749  0.16947869  0.70765346  1.0
  Zn  Zn1111  1  0.53587749  0.50281202  0.70765346  1.0
  Zn  Zn1112  1  0.53587749  0.83614536  0.70765346  1.0
  Zn  Zn1113  1  0.86921082  0.16947869  0.70765346  1.0
  Zn  Zn1114  1  0.86921082  0.50281202  0.70765346  1.0
  Zn  Zn1115  1  0.86921082  0.83614536  0.70765346  1.0
  Zn  Zn1116  1  0.08827444  0.08221745  0.66480232  1.0
  Zn  Zn1117  1  0.08827444  0.41555079  0.66480232  1.0
  Zn  Zn1118  1  0.08827444  0.74888412  0.66480232  1.0
  Zn  Zn1119  1  0.42160777  0.08221745  0.66480232  1.0
  Zn  Zn1120  1  0.42160777  0.41555079  0.66480232  1.0
  Zn  Zn1121  1  0.42160777  0.74888412  0.66480232  1.0
  Zn  Zn1122  1  0.75494111  0.08221745  0.66480232  1.0
  Zn  Zn1123  1  0.75494111  0.41555079  0.66480232  1.0
  Zn  Zn1124  1  0.75494111  0.74888412  0.66480232  1.0
  Zn  Zn1125  1  0.23113158  0.29650317  0.59337375  1.0
  Zn  Zn1126  1  0.23113158  0.62983650  0.59337375  1.0
  Zn  Zn1127  1  0.23113158  0.96316983  0.59337375  1.0
  Zn  Zn1128  1  0.56446492  0.29650317  0.59337375  1.0
  Zn  Zn1129  1  0.56446492  0.62983650  0.59337375  1.0
  Zn  Zn1130  1  0.56446492  0.96316983  0.59337375  1.0
  Zn  Zn1131  1  0.89779825  0.29650317  0.59337375  1.0
  Zn  Zn1132  1  0.89779825  0.62983650  0.59337375  1.0
  Zn  Zn1133  1  0.89779825  0.96316983  0.59337375  1.0
  Zn  Zn1134  1  0.20820987  0.17267576  0.58477811  1.0
  Zn  Zn1135  1  0.20820987  0.50600910  0.58477811  1.0
  Zn  Zn1136  1  0.20820987  0.83934243  0.58477811  1.0
  Zn  Zn1137  1  0.54154320  0.17267576  0.58477811  1.0
  Zn  Zn1138  1  0.54154320  0.50600910  0.58477811  1.0
  Zn  Zn1139  1  0.54154320  0.83934243  0.58477811  1.0
  Zn  Zn1140  1  0.87487654  0.17267576  0.58477811  1.0
  Zn  Zn1141  1  0.87487654  0.50600910  0.58477811  1.0
  Zn  Zn1142  1  0.87487654  0.83934243  0.58477811  1.0
  Zn  Zn1143  1  0.06535273  0.29172338  0.65620668  1.0
  Zn  Zn1144  1  0.06535273  0.62505671  0.65620668  1.0
  Zn  Zn1145  1  0.06535273  0.95839005  0.65620668  1.0
  Zn  Zn1146  1  0.39868606  0.29172338  0.65620668  1.0
  Zn  Zn1147  1  0.39868606  0.62505671  0.65620668  1.0
  Zn  Zn1148  1  0.39868606  0.95839005  0.65620668  1.0
  Zn  Zn1149  1  0.73201939  0.29172338  0.65620668  1.0
  Zn  Zn1150  1  0.73201939  0.62505671  0.65620668  1.0
  Zn  Zn1151  1  0.73201939  0.95839005  0.65620668  1.0
  Zn  Zn1152  1  0.17784682  0.05521086  0.57339196  1.0
  Zn  Zn1153  1  0.17784682  0.38854419  0.57339196  1.0
  Zn  Zn1154  1  0.17784682  0.72187752  0.57339196  1.0
  Zn  Zn1155  1  0.51118015  0.05521086  0.57339196  1.0
  Zn  Zn1156  1  0.51118015  0.38854419  0.57339196  1.0
  Zn  Zn1157  1  0.51118015  0.72187752  0.57339196  1.0
  Zn  Zn1158  1  0.84451349  0.05521086  0.57339196  1.0
  Zn  Zn1159  1  0.84451349  0.38854419  0.57339196  1.0
  Zn  Zn1160  1  0.84451349  0.72187752  0.57339196  1.0
  Zn  Zn1161  1  0.03498968  0.17425848  0.64482054  1.0
  Zn  Zn1162  1  0.03498968  0.50759181  0.64482054  1.0
  Zn  Zn1163  1  0.03498968  0.84092514  0.64482054  1.0
  Zn  Zn1164  1  0.36832301  0.17425848  0.64482054  1.0
  Zn  Zn1165  1  0.36832301  0.50759181  0.64482054  1.0
  Zn  Zn1166  1  0.36832301  0.84092514  0.64482054  1.0
  Zn  Zn1167  1  0.70165635  0.17425848  0.64482054  1.0
  Zn  Zn1168  1  0.70165635  0.50759181  0.64482054  1.0
  Zn  Zn1169  1  0.70165635  0.84092514  0.64482054  1.0
  Zn  Zn1170  1  0.25198587  0.08879843  0.60119411  1.0
  Zn  Zn1171  1  0.25198587  0.42213176  0.60119411  1.0
  Zn  Zn1172  1  0.25198587  0.75546510  0.60119411  1.0
  Zn  Zn1173  1  0.58531920  0.08879843  0.60119411  1.0
  Zn  Zn1174  1  0.58531920  0.42213176  0.60119411  1.0
  Zn  Zn1175  1  0.58531920  0.75546510  0.60119411  1.0
  Zn  Zn1176  1  0.91865254  0.08879843  0.60119411  1.0
  Zn  Zn1177  1  0.91865254  0.42213176  0.60119411  1.0
  Zn  Zn1178  1  0.91865254  0.75546510  0.60119411  1.0
  Zn  Zn1179  1  0.10912873  0.20784605  0.67262268  1.0
  Zn  Zn1180  1  0.10912873  0.54117938  0.67262268  1.0
  Zn  Zn1181  1  0.10912873  0.87451271  0.67262268  1.0
  Zn  Zn1182  1  0.44246206  0.20784605  0.67262268  1.0
  Zn  Zn1183  1  0.44246206  0.54117938  0.67262268  1.0
  Zn  Zn1184  1  0.44246206  0.87451271  0.67262268  1.0
  Zn  Zn1185  1  0.77579539  0.20784605  0.67262268  1.0
  Zn  Zn1186  1  0.77579539  0.54117938  0.67262268  1.0
  Zn  Zn1187  1  0.77579539  0.87451271  0.67262268  1.0
  Zn  Zn1188  1  0.18168987  0.04385010  0.69983311  1.0
  Zn  Zn1189  1  0.18168987  0.37718343  0.69983311  1.0
  Zn  Zn1190  1  0.18168987  0.71051676  0.69983311  1.0
  Zn  Zn1191  1  0.51502320  0.04385010  0.69983311  1.0
  Zn  Zn1192  1  0.51502320  0.37718343  0.69983311  1.0
  Zn  Zn1193  1  0.51502320  0.71051676  0.69983311  1.0
  Zn  Zn1194  1  0.84835654  0.04385010  0.69983311  1.0
  Zn  Zn1195  1  0.84835654  0.37718343  0.69983311  1.0
  Zn  Zn1196  1  0.84835654  0.71051676  0.69983311  1.0
  Zn  Zn1197  1  0.32454701  0.25813581  0.62840454  1.0
  Zn  Zn1198  1  0.32454701  0.59146914  0.62840454  1.0
  Zn  Zn1199  1  0.32454701  0.92480248  0.62840454  1.0
  Zn  Zn1200  1  0.65788035  0.25813581  0.62840454  1.0
  Zn  Zn1201  1  0.65788035  0.59146914  0.62840454  1.0
  Zn  Zn1202  1  0.65788035  0.92480248  0.62840454  1.0
  Zn  Zn1203  1  0.99121368  0.25813581  0.62840454  1.0
  Zn  Zn1204  1  0.99121368  0.59146914  0.62840454  1.0
  Zn  Zn1205  1  0.99121368  0.92480248  0.62840454  1.0
  Zn  Zn1206  1  0.13991435  0.15968864  0.63898304  1.0
  Zn  Zn1207  1  0.13991435  0.49302198  0.63898304  1.0
  Zn  Zn1208  1  0.13991435  0.82635531  0.63898304  1.0
  Zn  Zn1209  1  0.47324768  0.15968864  0.63898304  1.0
  Zn  Zn1210  1  0.47324768  0.49302198  0.63898304  1.0
  Zn  Zn1211  1  0.47324768  0.82635531  0.63898304  1.0
  Zn  Zn1212  1  0.80658101  0.15968864  0.63898304  1.0
  Zn  Zn1213  1  0.80658101  0.49302198  0.63898304  1.0
  Zn  Zn1214  1  0.80658101  0.82635531  0.63898304  1.0
  Zn  Zn1215  1  0.33039054  0.27873626  0.71041161  1.0
  Zn  Zn1216  1  0.33039054  0.61206960  0.71041161  1.0
  Zn  Zn1217  1  0.33039054  0.94540293  0.71041161  1.0
  Zn  Zn1218  1  0.66372387  0.27873626  0.71041161  1.0
  Zn  Zn1219  1  0.66372387  0.61206960  0.71041161  1.0
  Zn  Zn1220  1  0.66372387  0.94540293  0.71041161  1.0
  Zn  Zn1221  1  0.99705720  0.27873626  0.71041161  1.0
  Zn  Zn1222  1  0.99705720  0.61206960  0.71041161  1.0
  Zn  Zn1223  1  0.99705720  0.94540293  0.71041161  1.0
  Zn  Zn1224  1  0.29376139  0.30629321  0.66204418  1.0
  Zn  Zn1225  1  0.29376139  0.63962655  0.66204418  1.0
  Zn  Zn1226  1  0.29376139  0.97295988  0.66204418  1.0
  Zn  Zn1227  1  0.62709473  0.30629321  0.66204418  1.0
  Zn  Zn1228  1  0.62709473  0.63962655  0.66204418  1.0
  Zn  Zn1229  1  0.62709473  0.97295988  0.66204418  1.0
  Zn  Zn1230  1  0.96042806  0.30629321  0.66204418  1.0
  Zn  Zn1231  1  0.96042806  0.63962655  0.66204418  1.0
  Zn  Zn1232  1  0.96042806  0.97295988  0.66204418  1.0
  Zn  Zn1233  1  0.10328520  0.18724560  0.59061561  1.0
  Zn  Zn1234  1  0.10328520  0.52057893  0.59061561  1.0
  Zn  Zn1235  1  0.10328520  0.85391226  0.59061561  1.0
  Zn  Zn1236  1  0.43661854  0.18724560  0.59061561  1.0
  Zn  Zn1237  1  0.43661854  0.52057893  0.59061561  1.0
  Zn  Zn1238  1  0.43661854  0.85391226  0.59061561  1.0
  Zn  Zn1239  1  0.76995187  0.18724560  0.59061561  1.0
  Zn  Zn1240  1  0.76995187  0.52057893  0.59061561  1.0
  Zn  Zn1241  1  0.76995187  0.85391226  0.59061561  1.0
  Zn  Zn1242  1  0.18533035  0.08340098  0.65601404  1.0
  Zn  Zn1243  1  0.18533035  0.41673431  0.65601404  1.0
  Zn  Zn1244  1  0.18533035  0.75006764  0.65601404  1.0
  Zn  Zn1245  1  0.51866368  0.08340098  0.65601404  1.0
  Zn  Zn1246  1  0.51866368  0.41673431  0.65601404  1.0
  Zn  Zn1247  1  0.51866368  0.75006764  0.65601404  1.0
  Zn  Zn1248  1  0.85199701  0.08340098  0.65601404  1.0
  Zn  Zn1249  1  0.85199701  0.41673431  0.65601404  1.0
  Zn  Zn1250  1  0.85199701  0.75006764  0.65601404  1.0
  Zn  Zn1251  1  0.32818749  0.29768669  0.58458546  1.0
  Zn  Zn1252  1  0.32818749  0.63102002  0.58458546  1.0
  Zn  Zn1253  1  0.32818749  0.96435336  0.58458546  1.0
  Zn  Zn1254  1  0.66152082  0.29768669  0.58458546  1.0
  Zn  Zn1255  1  0.66152082  0.63102002  0.58458546  1.0
  Zn  Zn1256  1  0.66152082  0.96435336  0.58458546  1.0
  Zn  Zn1257  1  0.99485415  0.29768669  0.58458546  1.0
  Zn  Zn1258  1  0.99485415  0.63102002  0.58458546  1.0
  Zn  Zn1259  1  0.99485415  0.96435336  0.58458546  1.0
  Zn  Zn1260  1  0.24834539  0.04924755  0.64501318  1.0
  Zn  Zn1261  1  0.24834539  0.38258088  0.64501318  1.0
  Zn  Zn1262  1  0.24834539  0.71591421  0.64501318  1.0
  Zn  Zn1263  1  0.58167873  0.04924755  0.64501318  1.0
  Zn  Zn1264  1  0.58167873  0.38258088  0.64501318  1.0
  Zn  Zn1265  1  0.58167873  0.71591421  0.64501318  1.0
  Zn  Zn1266  1  0.91501206  0.04924755  0.64501318  1.0
  Zn  Zn1267  1  0.91501206  0.38258088  0.64501318  1.0
  Zn  Zn1268  1  0.91501206  0.71591421  0.64501318  1.0
  Zn  Zn1269  1  0.05786920  0.26353326  0.57358461  1.0
  Zn  Zn1270  1  0.05786920  0.59686660  0.57358461  1.0
  Zn  Zn1271  1  0.05786920  0.93019993  0.57358461  1.0
  Zn  Zn1272  1  0.39120254  0.26353326  0.57358461  1.0
  Zn  Zn1273  1  0.39120254  0.59686660  0.57358461  1.0
  Zn  Zn1274  1  0.39120254  0.93019993  0.57358461  1.0
  Zn  Zn1275  1  0.72453587  0.26353326  0.57358461  1.0
  Zn  Zn1276  1  0.72453587  0.59686660  0.57358461  1.0
  Zn  Zn1277  1  0.72453587  0.93019993  0.57358461  1.0
  Zn  Zn1278  1  0.01277735  0.09096814  0.58889754  1.0
  Zn  Zn1279  1  0.01277735  0.42430148  0.58889754  1.0
  Zn  Zn1280  1  0.01277735  0.75763481  0.58889754  1.0
  Zn  Zn1281  1  0.34611068  0.09096814  0.58889754  1.0
  Zn  Zn1282  1  0.34611068  0.42430148  0.58889754  1.0
  Zn  Zn1283  1  0.34611068  0.75763481  0.58889754  1.0
  Zn  Zn1284  1  0.67944401  0.09096814  0.58889754  1.0
  Zn  Zn1285  1  0.67944401  0.42430148  0.58889754  1.0
  Zn  Zn1286  1  0.67944401  0.75763481  0.58889754  1.0
  Zn  Zn1287  1  0.20325354  0.21001576  0.66032611  1.0
  Zn  Zn1288  1  0.20325354  0.54334910  0.66032611  1.0
  Zn  Zn1289  1  0.20325354  0.87668243  0.66032611  1.0
  Zn  Zn1290  1  0.53658687  0.21001576  0.66032611  1.0
  Zn  Zn1291  1  0.53658687  0.54334910  0.66032611  1.0
  Zn  Zn1292  1  0.53658687  0.87668243  0.66032611  1.0
  Zn  Zn1293  1  0.86992020  0.21001576  0.66032611  1.0
  Zn  Zn1294  1  0.86992020  0.54334910  0.66032611  1.0
  Zn  Zn1295  1  0.86992020  0.87668243  0.66032611  1.0
  Zn  Zn1296  1  0.08756506  0.04168038  0.71212968  1.0
  Zn  Zn1297  1  0.08756506  0.37501371  0.71212968  1.0
  Zn  Zn1298  1  0.08756506  0.70834705  0.71212968  1.0
  Zn  Zn1299  1  0.42089839  0.04168038  0.71212968  1.0
  Zn  Zn1300  1  0.42089839  0.37501371  0.71212968  1.0
  Zn  Zn1301  1  0.42089839  0.70834705  0.71212968  1.0
  Zn  Zn1302  1  0.75423173  0.04168038  0.71212968  1.0
  Zn  Zn1303  1  0.75423173  0.37501371  0.71212968  1.0
  Zn  Zn1304  1  0.75423173  0.70834705  0.71212968  1.0
  Zn  Zn1305  1  0.23042220  0.25596610  0.64070111  1.0
  Zn  Zn1306  1  0.23042220  0.58929943  0.64070111  1.0
  Zn  Zn1307  1  0.23042220  0.92263276  0.64070111  1.0
  Zn  Zn1308  1  0.56375554  0.25596610  0.64070111  1.0
  Zn  Zn1309  1  0.56375554  0.58929943  0.64070111  1.0
  Zn  Zn1310  1  0.56375554  0.92263276  0.64070111  1.0
  Zn  Zn1311  1  0.89708887  0.25596610  0.64070111  1.0
  Zn  Zn1312  1  0.89708887  0.58929943  0.64070111  1.0
  Zn  Zn1313  1  0.89708887  0.92263276  0.64070111  1.0
  Zn  Zn1314  1  0.12382668  0.03261498  0.63054104  1.0
  Zn  Zn1315  1  0.12382668  0.36594831  0.63054104  1.0
  Zn  Zn1316  1  0.12382668  0.69928164  0.63054104  1.0
  Zn  Zn1317  1  0.45716001  0.03261498  0.63054104  1.0
  Zn  Zn1318  1  0.45716001  0.36594831  0.63054104  1.0
  Zn  Zn1319  1  0.45716001  0.69928164  0.63054104  1.0
  Zn  Zn1320  1  0.79049335  0.03261498  0.63054104  1.0
  Zn  Zn1321  1  0.79049335  0.36594831  0.63054104  1.0
  Zn  Zn1322  1  0.79049335  0.69928164  0.63054104  1.0
  Zn  Zn1323  1  0.31430287  0.15166260  0.70196961  1.0
  Zn  Zn1324  1  0.31430287  0.48499593  0.70196961  1.0
  Zn  Zn1325  1  0.31430287  0.81832926  0.70196961  1.0
  Zn  Zn1326  1  0.64763620  0.15166260  0.70196961  1.0
  Zn  Zn1327  1  0.64763620  0.48499593  0.70196961  1.0
  Zn  Zn1328  1  0.64763620  0.81832926  0.70196961  1.0
  Zn  Zn1329  1  0.98096954  0.15166260  0.70196961  1.0
  Zn  Zn1330  1  0.98096954  0.48499593  0.70196961  1.0
  Zn  Zn1331  1  0.98096954  0.81832926  0.70196961  1.0
  Zn  Zn1332  1  0.30984906  0.10003355  0.67048618  1.0
  Zn  Zn1333  1  0.30984906  0.43336688  0.67048618  1.0
  Zn  Zn1334  1  0.30984906  0.76670021  0.67048618  1.0
  Zn  Zn1335  1  0.64318239  0.10003355  0.67048618  1.0
  Zn  Zn1336  1  0.64318239  0.43336688  0.67048618  1.0
  Zn  Zn1337  1  0.64318239  0.76670021  0.67048618  1.0
  Zn  Zn1338  1  0.97651573  0.10003355  0.67048618  1.0
  Zn  Zn1339  1  0.97651573  0.43336688  0.67048618  1.0
  Zn  Zn1340  1  0.97651573  0.76670021  0.67048618  1.0
  Zn  Zn1341  1  0.11937287  0.31431926  0.59905761  1.0
  Zn  Zn1342  1  0.11937287  0.64765260  0.59905761  1.0
  Zn  Zn1343  1  0.11937287  0.98098593  0.59905761  1.0
  Zn  Zn1344  1  0.45270620  0.31431926  0.59905761  1.0
  Zn  Zn1345  1  0.45270620  0.64765260  0.59905761  1.0
  Zn  Zn1346  1  0.45270620  0.98098593  0.59905761  1.0
  Zn  Zn1347  1  0.78603954  0.31431926  0.59905761  1.0
  Zn  Zn1348  1  0.78603954  0.64765260  0.59905761  1.0
  Zn  Zn1349  1  0.78603954  0.98098593  0.59905761  1.0
