# generated using pymatgen
data_Zn22Ni3
_symmetry_space_group_name_H-M   'P 1'
_cell_length_a   40.09707601
_cell_length_b   57.25040749
_cell_length_c   38.26217285
_cell_angle_alpha   49.73313103
_cell_angle_beta   69.49370158
_cell_angle_gamma   32.76954762
_symmetry_Int_Tables_number   1
_chemical_formula_structural   Zn22Ni3
_chemical_formula_sum   'Zn792 Ni108'
_cell_volume   32063.11494498
_cell_formula_units_Z   36
loop_
 _symmetry_equiv_pos_site_id
 _symmetry_equiv_pos_as_xyz
  1  'x, y, z'
loop_
 _atom_site_type_symbol
 _atom_site_label
 _atom_site_symmetry_multiplicity
 _atom_site_fract_x
 _atom_site_fract_y
 _atom_site_fract_z
 _atom_site_occupancy
  Zn  Zn0  1  0.24656767  0.26744183  0.09633230  1.0
  Zn  Zn1  1  0.24656767  0.60077517  0.09633230  1.0
  Zn  Zn2  1  0.24656767  0.93410850  0.09633230  1.0
  Zn  Zn3  1  0.57990100  0.26744183  0.09633230  1.0
  Zn  Zn4  1  0.57990100  0.60077517  0.09633230  1.0
  Zn  Zn5  1  0.57990100  0.93410850  0.09633230  1.0
  Zn  Zn6  1  0.91323433  0.26744183  0.09633230  1.0
  Zn  Zn7  1  0.91323433  0.60077517  0.09633230  1.0
  Zn  Zn8  1  0.91323433  0.93410850  0.09633230  1.0
  Zn  Zn9  1  0.24656767  0.10077517  0.19633230  1.0
  Zn  Zn10  1  0.24656767  0.43410850  0.19633230  1.0
  Zn  Zn11  1  0.24656767  0.76744183  0.19633230  1.0
  Zn  Zn12  1  0.57990100  0.10077517  0.19633230  1.0
  Zn  Zn13  1  0.57990100  0.43410850  0.19633230  1.0
  Zn  Zn14  1  0.57990100  0.76744183  0.19633230  1.0
  Zn  Zn15  1  0.91323433  0.10077517  0.19633230  1.0
  Zn  Zn16  1  0.91323433  0.43410850  0.19633230  1.0
  Zn  Zn17  1  0.91323433  0.76744183  0.19633230  1.0
  Zn  Zn18  1  0.08676567  0.06589150  0.09283730  1.0
  Zn  Zn19  1  0.08676567  0.39922483  0.09283730  1.0
  Zn  Zn20  1  0.08676567  0.73255817  0.09283730  1.0
  Zn  Zn21  1  0.42009900  0.06589150  0.09283730  1.0
  Zn  Zn22  1  0.42009900  0.39922483  0.09283730  1.0
  Zn  Zn23  1  0.42009900  0.73255817  0.09283730  1.0
  Zn  Zn24  1  0.75343233  0.06589150  0.09283730  1.0
  Zn  Zn25  1  0.75343233  0.39922483  0.09283730  1.0
  Zn  Zn26  1  0.75343233  0.73255817  0.09283730  1.0
  Zn  Zn27  1  0.08676567  0.23255817  0.19283730  1.0
  Zn  Zn28  1  0.08676567  0.56589150  0.19283730  1.0
  Zn  Zn29  1  0.08676567  0.89922483  0.19283730  1.0
  Zn  Zn30  1  0.42009900  0.23255817  0.19283730  1.0
  Zn  Zn31  1  0.42009900  0.56589150  0.19283730  1.0
  Zn  Zn32  1  0.42009900  0.89922483  0.19283730  1.0
  Zn  Zn33  1  0.75343233  0.23255817  0.19283730  1.0
  Zn  Zn34  1  0.75343233  0.56589150  0.19283730  1.0
  Zn  Zn35  1  0.75343233  0.89922483  0.19283730  1.0
  Zn  Zn36  1  0.21854867  0.26744183  0.17190710  1.0
  Zn  Zn37  1  0.21854867  0.60077517  0.17190710  1.0
  Zn  Zn38  1  0.21854867  0.93410850  0.17190710  1.0
  Zn  Zn39  1  0.55188200  0.26744183  0.17190710  1.0
  Zn  Zn40  1  0.55188200  0.60077517  0.17190710  1.0
  Zn  Zn41  1  0.55188200  0.93410850  0.17190710  1.0
  Zn  Zn42  1  0.88521533  0.26744183  0.17190710  1.0
  Zn  Zn43  1  0.88521533  0.60077517  0.17190710  1.0
  Zn  Zn44  1  0.88521533  0.93410850  0.17190710  1.0
  Zn  Zn45  1  0.21854867  0.10077517  0.07190710  1.0
  Zn  Zn46  1  0.21854867  0.43410850  0.07190710  1.0
  Zn  Zn47  1  0.21854867  0.76744183  0.07190710  1.0
  Zn  Zn48  1  0.55188200  0.10077517  0.07190710  1.0
  Zn  Zn49  1  0.55188200  0.43410850  0.07190710  1.0
  Zn  Zn50  1  0.55188200  0.76744183  0.07190710  1.0
  Zn  Zn51  1  0.88521533  0.10077517  0.07190710  1.0
  Zn  Zn52  1  0.88521533  0.43410850  0.07190710  1.0
  Zn  Zn53  1  0.88521533  0.76744183  0.07190710  1.0
  Zn  Zn54  1  0.11478467  0.06589150  0.01726250  1.0
  Zn  Zn55  1  0.11478467  0.39922483  0.01726250  1.0
  Zn  Zn56  1  0.11478467  0.73255817  0.01726250  1.0
  Zn  Zn57  1  0.44811800  0.06589150  0.01726250  1.0
  Zn  Zn58  1  0.44811800  0.39922483  0.01726250  1.0
  Zn  Zn59  1  0.44811800  0.73255817  0.01726250  1.0
  Zn  Zn60  1  0.78145133  0.06589150  0.01726250  1.0
  Zn  Zn61  1  0.78145133  0.39922483  0.01726250  1.0
  Zn  Zn62  1  0.78145133  0.73255817  0.01726250  1.0
  Zn  Zn63  1  0.11478467  0.23255817  0.11726250  1.0
  Zn  Zn64  1  0.11478467  0.56589150  0.11726250  1.0
  Zn  Zn65  1  0.11478467  0.89922483  0.11726250  1.0
  Zn  Zn66  1  0.44811800  0.23255817  0.11726250  1.0
  Zn  Zn67  1  0.44811800  0.56589150  0.11726250  1.0
  Zn  Zn68  1  0.44811800  0.89922483  0.11726250  1.0
  Zn  Zn69  1  0.78145133  0.23255817  0.11726250  1.0
  Zn  Zn70  1  0.78145133  0.56589150  0.11726250  1.0
  Zn  Zn71  1  0.78145133  0.89922483  0.11726250  1.0
  Zn  Zn72  1  0.10747967  0.05918700  0.15907260  1.0
  Zn  Zn73  1  0.10747967  0.39252033  0.15907260  1.0
  Zn  Zn74  1  0.10747967  0.72585367  0.15907260  1.0
  Zn  Zn75  1  0.44081300  0.05918700  0.15907260  1.0
  Zn  Zn76  1  0.44081300  0.39252033  0.15907260  1.0
  Zn  Zn77  1  0.44081300  0.72585367  0.15907260  1.0
  Zn  Zn78  1  0.77414633  0.05918700  0.15907260  1.0
  Zn  Zn79  1  0.77414633  0.39252033  0.15907260  1.0
  Zn  Zn80  1  0.77414633  0.72585367  0.15907260  1.0
  Zn  Zn81  1  0.10747967  0.22585367  0.05907260  1.0
  Zn  Zn82  1  0.10747967  0.55918700  0.05907260  1.0
  Zn  Zn83  1  0.10747967  0.89252033  0.05907260  1.0
  Zn  Zn84  1  0.44081300  0.22585367  0.05907260  1.0
  Zn  Zn85  1  0.44081300  0.55918700  0.05907260  1.0
  Zn  Zn86  1  0.44081300  0.89252033  0.05907260  1.0
  Zn  Zn87  1  0.77414633  0.22585367  0.05907260  1.0
  Zn  Zn88  1  0.77414633  0.55918700  0.05907260  1.0
  Zn  Zn89  1  0.77414633  0.89252033  0.05907260  1.0
  Zn  Zn90  1  0.22585367  0.27414633  0.03009700  1.0
  Zn  Zn91  1  0.22585367  0.60747967  0.03009700  1.0
  Zn  Zn92  1  0.22585367  0.94081300  0.03009700  1.0
  Zn  Zn93  1  0.55918700  0.27414633  0.03009700  1.0
  Zn  Zn94  1  0.55918700  0.60747967  0.03009700  1.0
  Zn  Zn95  1  0.55918700  0.94081300  0.03009700  1.0
  Zn  Zn96  1  0.89252033  0.27414633  0.03009700  1.0
  Zn  Zn97  1  0.89252033  0.60747967  0.03009700  1.0
  Zn  Zn98  1  0.89252033  0.94081300  0.03009700  1.0
  Zn  Zn99  1  0.22585367  0.10747967  0.13009700  1.0
  Zn  Zn100  1  0.22585367  0.44081300  0.13009700  1.0
  Zn  Zn101  1  0.22585367  0.77414633  0.13009700  1.0
  Zn  Zn102  1  0.55918700  0.10747967  0.13009700  1.0
  Zn  Zn103  1  0.55918700  0.44081300  0.13009700  1.0
  Zn  Zn104  1  0.55918700  0.77414633  0.13009700  1.0
  Zn  Zn105  1  0.89252033  0.10747967  0.13009700  1.0
  Zn  Zn106  1  0.89252033  0.44081300  0.13009700  1.0
  Zn  Zn107  1  0.89252033  0.77414633  0.13009700  1.0
  Zn  Zn108  1  0.27685533  0.00000000  0.15143960  1.0
  Zn  Zn109  1  0.27685533  0.33333333  0.15143960  1.0
  Zn  Zn110  1  0.27685533  0.66666667  0.15143960  1.0
  Zn  Zn111  1  0.61018867  0.00000000  0.15143960  1.0
  Zn  Zn112  1  0.61018867  0.33333333  0.15143960  1.0
  Zn  Zn113  1  0.61018867  0.66666667  0.15143960  1.0
  Zn  Zn114  1  0.94352200  0.00000000  0.15143960  1.0
  Zn  Zn115  1  0.94352200  0.33333333  0.15143960  1.0
  Zn  Zn116  1  0.94352200  0.66666667  0.15143960  1.0
  Zn  Zn117  1  0.27685533  0.16666667  0.05143960  1.0
  Zn  Zn118  1  0.27685533  0.50000000  0.05143960  1.0
  Zn  Zn119  1  0.27685533  0.83333333  0.05143960  1.0
  Zn  Zn120  1  0.61018867  0.16666667  0.05143960  1.0
  Zn  Zn121  1  0.61018867  0.50000000  0.05143960  1.0
  Zn  Zn122  1  0.61018867  0.83333333  0.05143960  1.0
  Zn  Zn123  1  0.94352200  0.16666667  0.05143960  1.0
  Zn  Zn124  1  0.94352200  0.50000000  0.05143960  1.0
  Zn  Zn125  1  0.94352200  0.83333333  0.05143960  1.0
  Zn  Zn126  1  0.05647800  0.00000000  0.03773000  1.0
  Zn  Zn127  1  0.05647800  0.33333333  0.03773000  1.0
  Zn  Zn128  1  0.05647800  0.66666667  0.03773000  1.0
  Zn  Zn129  1  0.38981133  0.00000000  0.03773000  1.0
  Zn  Zn130  1  0.38981133  0.33333333  0.03773000  1.0
  Zn  Zn131  1  0.38981133  0.66666667  0.03773000  1.0
  Zn  Zn132  1  0.72314467  0.00000000  0.03773000  1.0
  Zn  Zn133  1  0.72314467  0.33333333  0.03773000  1.0
  Zn  Zn134  1  0.72314467  0.66666667  0.03773000  1.0
  Zn  Zn135  1  0.05647800  0.16666667  0.13773000  1.0
  Zn  Zn136  1  0.05647800  0.50000000  0.13773000  1.0
  Zn  Zn137  1  0.05647800  0.83333333  0.13773000  1.0
  Zn  Zn138  1  0.38981133  0.16666667  0.13773000  1.0
  Zn  Zn139  1  0.38981133  0.50000000  0.13773000  1.0
  Zn  Zn140  1  0.38981133  0.83333333  0.13773000  1.0
  Zn  Zn141  1  0.72314467  0.16666667  0.13773000  1.0
  Zn  Zn142  1  0.72314467  0.50000000  0.13773000  1.0
  Zn  Zn143  1  0.72314467  0.83333333  0.13773000  1.0
  Zn  Zn144  1  0.32541200  0.00000000  0.02984040  1.0
  Zn  Zn145  1  0.32541200  0.33333333  0.02984040  1.0
  Zn  Zn146  1  0.32541200  0.66666667  0.02984040  1.0
  Zn  Zn147  1  0.65874533  0.00000000  0.02984040  1.0
  Zn  Zn148  1  0.65874533  0.33333333  0.02984040  1.0
  Zn  Zn149  1  0.65874533  0.66666667  0.02984040  1.0
  Zn  Zn150  1  0.99207867  0.00000000  0.02984040  1.0
  Zn  Zn151  1  0.99207867  0.33333333  0.02984040  1.0
  Zn  Zn152  1  0.99207867  0.66666667  0.02984040  1.0
  Zn  Zn153  1  0.32541200  0.16666667  0.12984040  1.0
  Zn  Zn154  1  0.32541200  0.50000000  0.12984040  1.0
  Zn  Zn155  1  0.32541200  0.83333333  0.12984040  1.0
  Zn  Zn156  1  0.65874533  0.16666667  0.12984040  1.0
  Zn  Zn157  1  0.65874533  0.50000000  0.12984040  1.0
  Zn  Zn158  1  0.65874533  0.83333333  0.12984040  1.0
  Zn  Zn159  1  0.99207867  0.16666667  0.12984040  1.0
  Zn  Zn160  1  0.99207867  0.50000000  0.12984040  1.0
  Zn  Zn161  1  0.99207867  0.83333333  0.12984040  1.0
  Zn  Zn162  1  0.00792133  0.00000000  0.15932920  1.0
  Zn  Zn163  1  0.00792133  0.33333333  0.15932920  1.0
  Zn  Zn164  1  0.00792133  0.66666667  0.15932920  1.0
  Zn  Zn165  1  0.34125467  0.00000000  0.15932920  1.0
  Zn  Zn166  1  0.34125467  0.33333333  0.15932920  1.0
  Zn  Zn167  1  0.34125467  0.66666667  0.15932920  1.0
  Zn  Zn168  1  0.67458800  0.00000000  0.15932920  1.0
  Zn  Zn169  1  0.67458800  0.33333333  0.15932920  1.0
  Zn  Zn170  1  0.67458800  0.66666667  0.15932920  1.0
  Zn  Zn171  1  0.00792133  0.16666667  0.05932920  1.0
  Zn  Zn172  1  0.00792133  0.50000000  0.05932920  1.0
  Zn  Zn173  1  0.00792133  0.83333333  0.05932920  1.0
  Zn  Zn174  1  0.34125467  0.16666667  0.05932920  1.0
  Zn  Zn175  1  0.34125467  0.50000000  0.05932920  1.0
  Zn  Zn176  1  0.34125467  0.83333333  0.05932920  1.0
  Zn  Zn177  1  0.67458800  0.16666667  0.05932920  1.0
  Zn  Zn178  1  0.67458800  0.50000000  0.05932920  1.0
  Zn  Zn179  1  0.67458800  0.83333333  0.05932920  1.0
  Zn  Zn180  1  0.11742267  0.00000000  0.04909780  1.0
  Zn  Zn181  1  0.11742267  0.33333333  0.04909780  1.0
  Zn  Zn182  1  0.11742267  0.66666667  0.04909780  1.0
  Zn  Zn183  1  0.45075600  0.00000000  0.04909780  1.0
  Zn  Zn184  1  0.45075600  0.33333333  0.04909780  1.0
  Zn  Zn185  1  0.45075600  0.66666667  0.04909780  1.0
  Zn  Zn186  1  0.78408933  0.00000000  0.04909780  1.0
  Zn  Zn187  1  0.78408933  0.33333333  0.04909780  1.0
  Zn  Zn188  1  0.78408933  0.66666667  0.04909780  1.0
  Zn  Zn189  1  0.11742267  0.16666667  0.14909780  1.0
  Zn  Zn190  1  0.11742267  0.50000000  0.14909780  1.0
  Zn  Zn191  1  0.11742267  0.83333333  0.14909780  1.0
  Zn  Zn192  1  0.45075600  0.16666667  0.14909780  1.0
  Zn  Zn193  1  0.45075600  0.50000000  0.14909780  1.0
  Zn  Zn194  1  0.45075600  0.83333333  0.14909780  1.0
  Zn  Zn195  1  0.78408933  0.16666667  0.14909780  1.0
  Zn  Zn196  1  0.78408933  0.50000000  0.14909780  1.0
  Zn  Zn197  1  0.78408933  0.83333333  0.14909780  1.0
  Zn  Zn198  1  0.21591067  0.00000000  0.14007180  1.0
  Zn  Zn199  1  0.21591067  0.33333333  0.14007180  1.0
  Zn  Zn200  1  0.21591067  0.66666667  0.14007180  1.0
  Zn  Zn201  1  0.54924400  0.00000000  0.14007180  1.0
  Zn  Zn202  1  0.54924400  0.33333333  0.14007180  1.0
  Zn  Zn203  1  0.54924400  0.66666667  0.14007180  1.0
  Zn  Zn204  1  0.88257733  0.00000000  0.14007180  1.0
  Zn  Zn205  1  0.88257733  0.33333333  0.14007180  1.0
  Zn  Zn206  1  0.88257733  0.66666667  0.14007180  1.0
  Zn  Zn207  1  0.21591067  0.16666667  0.04007180  1.0
  Zn  Zn208  1  0.21591067  0.50000000  0.04007180  1.0
  Zn  Zn209  1  0.21591067  0.83333333  0.04007180  1.0
  Zn  Zn210  1  0.54924400  0.16666667  0.04007180  1.0
  Zn  Zn211  1  0.54924400  0.50000000  0.04007180  1.0
  Zn  Zn212  1  0.54924400  0.83333333  0.04007180  1.0
  Zn  Zn213  1  0.88257733  0.16666667  0.04007180  1.0
  Zn  Zn214  1  0.88257733  0.50000000  0.04007180  1.0
  Zn  Zn215  1  0.88257733  0.83333333  0.04007180  1.0
  Zn  Zn216  1  0.22866000  0.00000000  0.06987540  1.0
  Zn  Zn217  1  0.22866000  0.33333333  0.06987540  1.0
  Zn  Zn218  1  0.22866000  0.66666667  0.06987540  1.0
  Zn  Zn219  1  0.56199333  0.00000000  0.06987540  1.0
  Zn  Zn220  1  0.56199333  0.33333333  0.06987540  1.0
  Zn  Zn221  1  0.56199333  0.66666667  0.06987540  1.0
  Zn  Zn222  1  0.89532667  0.00000000  0.06987540  1.0
  Zn  Zn223  1  0.89532667  0.33333333  0.06987540  1.0
  Zn  Zn224  1  0.89532667  0.66666667  0.06987540  1.0
  Zn  Zn225  1  0.22866000  0.16666667  0.16987540  1.0
  Zn  Zn226  1  0.22866000  0.50000000  0.16987540  1.0
  Zn  Zn227  1  0.22866000  0.83333333  0.16987540  1.0
  Zn  Zn228  1  0.56199333  0.16666667  0.16987540  1.0
  Zn  Zn229  1  0.56199333  0.50000000  0.16987540  1.0
  Zn  Zn230  1  0.56199333  0.83333333  0.16987540  1.0
  Zn  Zn231  1  0.89532667  0.16666667  0.16987540  1.0
  Zn  Zn232  1  0.89532667  0.50000000  0.16987540  1.0
  Zn  Zn233  1  0.89532667  0.83333333  0.16987540  1.0
  Zn  Zn234  1  0.10467333  0.00000000  0.11929420  1.0
  Zn  Zn235  1  0.10467333  0.33333333  0.11929420  1.0
  Zn  Zn236  1  0.10467333  0.66666667  0.11929420  1.0
  Zn  Zn237  1  0.43800667  0.00000000  0.11929420  1.0
  Zn  Zn238  1  0.43800667  0.33333333  0.11929420  1.0
  Zn  Zn239  1  0.43800667  0.66666667  0.11929420  1.0
  Zn  Zn240  1  0.77134000  0.00000000  0.11929420  1.0
  Zn  Zn241  1  0.77134000  0.33333333  0.11929420  1.0
  Zn  Zn242  1  0.77134000  0.66666667  0.11929420  1.0
  Zn  Zn243  1  0.10467333  0.16666667  0.01929420  1.0
  Zn  Zn244  1  0.10467333  0.50000000  0.01929420  1.0
  Zn  Zn245  1  0.10467333  0.83333333  0.01929420  1.0
  Zn  Zn246  1  0.43800667  0.16666667  0.01929420  1.0
  Zn  Zn247  1  0.43800667  0.50000000  0.01929420  1.0
  Zn  Zn248  1  0.43800667  0.83333333  0.01929420  1.0
  Zn  Zn249  1  0.77134000  0.16666667  0.01929420  1.0
  Zn  Zn250  1  0.77134000  0.50000000  0.01929420  1.0
  Zn  Zn251  1  0.77134000  0.83333333  0.01929420  1.0
  Zn  Zn252  1  0.00790933  0.10642100  0.02317380  1.0
  Zn  Zn253  1  0.00790933  0.43975433  0.02317380  1.0
  Zn  Zn254  1  0.00790933  0.77308767  0.02317380  1.0
  Zn  Zn255  1  0.34124267  0.10642100  0.02317380  1.0
  Zn  Zn256  1  0.34124267  0.43975433  0.02317380  1.0
  Zn  Zn257  1  0.34124267  0.77308767  0.02317380  1.0
  Zn  Zn258  1  0.67457600  0.10642100  0.02317380  1.0
  Zn  Zn259  1  0.67457600  0.43975433  0.02317380  1.0
  Zn  Zn260  1  0.67457600  0.77308767  0.02317380  1.0
  Zn  Zn261  1  0.00790933  0.27308767  0.12317380  1.0
  Zn  Zn262  1  0.00790933  0.60642100  0.12317380  1.0
  Zn  Zn263  1  0.00790933  0.93975433  0.12317380  1.0
  Zn  Zn264  1  0.34124267  0.27308767  0.12317380  1.0
  Zn  Zn265  1  0.34124267  0.60642100  0.12317380  1.0
  Zn  Zn266  1  0.34124267  0.93975433  0.12317380  1.0
  Zn  Zn267  1  0.67457600  0.27308767  0.12317380  1.0
  Zn  Zn268  1  0.67457600  0.60642100  0.12317380  1.0
  Zn  Zn269  1  0.67457600  0.93975433  0.12317380  1.0
  Zn  Zn270  1  0.32542400  0.22691233  0.16599580  1.0
  Zn  Zn271  1  0.32542400  0.56024567  0.16599580  1.0
  Zn  Zn272  1  0.32542400  0.89357900  0.16599580  1.0
  Zn  Zn273  1  0.65875733  0.22691233  0.16599580  1.0
  Zn  Zn274  1  0.65875733  0.56024567  0.16599580  1.0
  Zn  Zn275  1  0.65875733  0.89357900  0.16599580  1.0
  Zn  Zn276  1  0.99209067  0.22691233  0.16599580  1.0
  Zn  Zn277  1  0.99209067  0.56024567  0.16599580  1.0
  Zn  Zn278  1  0.99209067  0.89357900  0.16599580  1.0
  Zn  Zn279  1  0.32542400  0.06024567  0.06599580  1.0
  Zn  Zn280  1  0.32542400  0.39357900  0.06599580  1.0
  Zn  Zn281  1  0.32542400  0.72691233  0.06599580  1.0
  Zn  Zn282  1  0.65875733  0.06024567  0.06599580  1.0
  Zn  Zn283  1  0.65875733  0.39357900  0.06599580  1.0
  Zn  Zn284  1  0.65875733  0.72691233  0.06599580  1.0
  Zn  Zn285  1  0.99209067  0.06024567  0.06599580  1.0
  Zn  Zn286  1  0.99209067  0.39357900  0.06599580  1.0
  Zn  Zn287  1  0.99209067  0.72691233  0.06599580  1.0
  Zn  Zn288  1  0.11258200  0.10642100  0.03829060  1.0
  Zn  Zn289  1  0.11258200  0.43975433  0.03829060  1.0
  Zn  Zn290  1  0.11258200  0.77308767  0.03829060  1.0
  Zn  Zn291  1  0.44591533  0.10642100  0.03829060  1.0
  Zn  Zn292  1  0.44591533  0.43975433  0.03829060  1.0
  Zn  Zn293  1  0.44591533  0.77308767  0.03829060  1.0
  Zn  Zn294  1  0.77924867  0.10642100  0.03829060  1.0
  Zn  Zn295  1  0.77924867  0.43975433  0.03829060  1.0
  Zn  Zn296  1  0.77924867  0.77308767  0.03829060  1.0
  Zn  Zn297  1  0.11258200  0.27308767  0.13829060  1.0
  Zn  Zn298  1  0.11258200  0.60642100  0.13829060  1.0
  Zn  Zn299  1  0.11258200  0.93975433  0.13829060  1.0
  Zn  Zn300  1  0.44591533  0.27308767  0.13829060  1.0
  Zn  Zn301  1  0.44591533  0.60642100  0.13829060  1.0
  Zn  Zn302  1  0.44591533  0.93975433  0.13829060  1.0
  Zn  Zn303  1  0.77924867  0.27308767  0.13829060  1.0
  Zn  Zn304  1  0.77924867  0.60642100  0.13829060  1.0
  Zn  Zn305  1  0.77924867  0.93975433  0.13829060  1.0
  Zn  Zn306  1  0.22075133  0.22691233  0.15087900  1.0
  Zn  Zn307  1  0.22075133  0.56024567  0.15087900  1.0
  Zn  Zn308  1  0.22075133  0.89357900  0.15087900  1.0
  Zn  Zn309  1  0.55408467  0.22691233  0.15087900  1.0
  Zn  Zn310  1  0.55408467  0.56024567  0.15087900  1.0
  Zn  Zn311  1  0.55408467  0.89357900  0.15087900  1.0
  Zn  Zn312  1  0.88741800  0.22691233  0.15087900  1.0
  Zn  Zn313  1  0.88741800  0.56024567  0.15087900  1.0
  Zn  Zn314  1  0.88741800  0.89357900  0.15087900  1.0
  Zn  Zn315  1  0.22075133  0.06024567  0.05087900  1.0
  Zn  Zn316  1  0.22075133  0.39357900  0.05087900  1.0
  Zn  Zn317  1  0.22075133  0.72691233  0.05087900  1.0
  Zn  Zn318  1  0.55408467  0.06024567  0.05087900  1.0
  Zn  Zn319  1  0.55408467  0.39357900  0.05087900  1.0
  Zn  Zn320  1  0.55408467  0.72691233  0.05087900  1.0
  Zn  Zn321  1  0.88741800  0.06024567  0.05087900  1.0
  Zn  Zn322  1  0.88741800  0.39357900  0.05087900  1.0
  Zn  Zn323  1  0.88741800  0.72691233  0.05087900  1.0
  Zn  Zn324  1  0.33291167  0.26987550  0.05263270  1.0
  Zn  Zn325  1  0.33291167  0.60320883  0.05263270  1.0
  Zn  Zn326  1  0.33291167  0.93654217  0.05263270  1.0
  Zn  Zn327  1  0.66624500  0.26987550  0.05263270  1.0
  Zn  Zn328  1  0.66624500  0.60320883  0.05263270  1.0
  Zn  Zn329  1  0.66624500  0.93654217  0.05263270  1.0
  Zn  Zn330  1  0.99957833  0.26987550  0.05263270  1.0
  Zn  Zn331  1  0.99957833  0.60320883  0.05263270  1.0
  Zn  Zn332  1  0.99957833  0.93654217  0.05263270  1.0
  Zn  Zn333  1  0.33291167  0.10320883  0.15263270  1.0
  Zn  Zn334  1  0.33291167  0.43654217  0.15263270  1.0
  Zn  Zn335  1  0.33291167  0.76987550  0.15263270  1.0
  Zn  Zn336  1  0.66624500  0.10320883  0.15263270  1.0
  Zn  Zn337  1  0.66624500  0.43654217  0.15263270  1.0
  Zn  Zn338  1  0.66624500  0.76987550  0.15263270  1.0
  Zn  Zn339  1  0.99957833  0.10320883  0.15263270  1.0
  Zn  Zn340  1  0.99957833  0.43654217  0.15263270  1.0
  Zn  Zn341  1  0.99957833  0.76987550  0.15263270  1.0
  Zn  Zn342  1  0.00042167  0.06345783  0.13653690  1.0
  Zn  Zn343  1  0.00042167  0.39679117  0.13653690  1.0
  Zn  Zn344  1  0.00042167  0.73012450  0.13653690  1.0
  Zn  Zn345  1  0.33375500  0.06345783  0.13653690  1.0
  Zn  Zn346  1  0.33375500  0.39679117  0.13653690  1.0
  Zn  Zn347  1  0.33375500  0.73012450  0.13653690  1.0
  Zn  Zn348  1  0.66708833  0.06345783  0.13653690  1.0
  Zn  Zn349  1  0.66708833  0.39679117  0.13653690  1.0
  Zn  Zn350  1  0.66708833  0.73012450  0.13653690  1.0
  Zn  Zn351  1  0.00042167  0.23012450  0.03653690  1.0
  Zn  Zn352  1  0.00042167  0.56345783  0.03653690  1.0
  Zn  Zn353  1  0.00042167  0.89679117  0.03653690  1.0
  Zn  Zn354  1  0.33375500  0.23012450  0.03653690  1.0
  Zn  Zn355  1  0.33375500  0.56345783  0.03653690  1.0
  Zn  Zn356  1  0.33375500  0.89679117  0.03653690  1.0
  Zn  Zn357  1  0.66708833  0.23012450  0.03653690  1.0
  Zn  Zn358  1  0.66708833  0.56345783  0.03653690  1.0
  Zn  Zn359  1  0.66708833  0.89679117  0.03653690  1.0
  Zn  Zn360  1  0.12733733  0.26987550  0.01268630  1.0
  Zn  Zn361  1  0.12733733  0.60320883  0.01268630  1.0
  Zn  Zn362  1  0.12733733  0.93654217  0.01268630  1.0
  Zn  Zn363  1  0.46067067  0.26987550  0.01268630  1.0
  Zn  Zn364  1  0.46067067  0.60320883  0.01268630  1.0
  Zn  Zn365  1  0.46067067  0.93654217  0.01268630  1.0
  Zn  Zn366  1  0.79400400  0.26987550  0.01268630  1.0
  Zn  Zn367  1  0.79400400  0.60320883  0.01268630  1.0
  Zn  Zn368  1  0.79400400  0.93654217  0.01268630  1.0
  Zn  Zn369  1  0.12733733  0.10320883  0.11268630  1.0
  Zn  Zn370  1  0.12733733  0.43654217  0.11268630  1.0
  Zn  Zn371  1  0.12733733  0.76987550  0.11268630  1.0
  Zn  Zn372  1  0.46067067  0.10320883  0.11268630  1.0
  Zn  Zn373  1  0.46067067  0.43654217  0.11268630  1.0
  Zn  Zn374  1  0.46067067  0.76987550  0.11268630  1.0
  Zn  Zn375  1  0.79400400  0.10320883  0.11268630  1.0
  Zn  Zn376  1  0.79400400  0.43654217  0.11268630  1.0
  Zn  Zn377  1  0.79400400  0.76987550  0.11268630  1.0
  Zn  Zn378  1  0.20599600  0.06345783  0.17648330  1.0
  Zn  Zn379  1  0.20599600  0.39679117  0.17648330  1.0
  Zn  Zn380  1  0.20599600  0.73012450  0.17648330  1.0
  Zn  Zn381  1  0.53932933  0.06345783  0.17648330  1.0
  Zn  Zn382  1  0.53932933  0.39679117  0.17648330  1.0
  Zn  Zn383  1  0.53932933  0.73012450  0.17648330  1.0
  Zn  Zn384  1  0.87266267  0.06345783  0.17648330  1.0
  Zn  Zn385  1  0.87266267  0.39679117  0.17648330  1.0
  Zn  Zn386  1  0.87266267  0.73012450  0.17648330  1.0
  Zn  Zn387  1  0.20599600  0.23012450  0.07648330  1.0
  Zn  Zn388  1  0.20599600  0.56345783  0.07648330  1.0
  Zn  Zn389  1  0.20599600  0.89679117  0.07648330  1.0
  Zn  Zn390  1  0.53932933  0.23012450  0.07648330  1.0
  Zn  Zn391  1  0.53932933  0.56345783  0.07648330  1.0
  Zn  Zn392  1  0.53932933  0.89679117  0.07648330  1.0
  Zn  Zn393  1  0.87266267  0.23012450  0.07648330  1.0
  Zn  Zn394  1  0.87266267  0.56345783  0.07648330  1.0
  Zn  Zn395  1  0.87266267  0.89679117  0.07648330  1.0
  Ni  Ni396  1  0.21925233  0.00000000  0.00541520  1.0
  Ni  Ni397  1  0.21925233  0.33333333  0.00541520  1.0
  Ni  Ni398  1  0.21925233  0.66666667  0.00541520  1.0
  Ni  Ni399  1  0.55258567  0.00000000  0.00541520  1.0
  Ni  Ni400  1  0.55258567  0.33333333  0.00541520  1.0
  Ni  Ni401  1  0.55258567  0.66666667  0.00541520  1.0
  Ni  Ni402  1  0.88591900  0.00000000  0.00541520  1.0
  Ni  Ni403  1  0.88591900  0.33333333  0.00541520  1.0
  Ni  Ni404  1  0.88591900  0.66666667  0.00541520  1.0
  Ni  Ni405  1  0.21925233  0.16666667  0.10541520  1.0
  Ni  Ni406  1  0.21925233  0.50000000  0.10541520  1.0
  Ni  Ni407  1  0.21925233  0.83333333  0.10541520  1.0
  Ni  Ni408  1  0.55258567  0.16666667  0.10541520  1.0
  Ni  Ni409  1  0.55258567  0.50000000  0.10541520  1.0
  Ni  Ni410  1  0.55258567  0.83333333  0.10541520  1.0
  Ni  Ni411  1  0.88591900  0.16666667  0.10541520  1.0
  Ni  Ni412  1  0.88591900  0.50000000  0.10541520  1.0
  Ni  Ni413  1  0.88591900  0.83333333  0.10541520  1.0
  Ni  Ni414  1  0.11408100  0.00000000  0.18375440  1.0
  Ni  Ni415  1  0.11408100  0.33333333  0.18375440  1.0
  Ni  Ni416  1  0.11408100  0.66666667  0.18375440  1.0
  Ni  Ni417  1  0.44741433  0.00000000  0.18375440  1.0
  Ni  Ni418  1  0.44741433  0.33333333  0.18375440  1.0
  Ni  Ni419  1  0.44741433  0.66666667  0.18375440  1.0
  Ni  Ni420  1  0.78074767  0.00000000  0.18375440  1.0
  Ni  Ni421  1  0.78074767  0.33333333  0.18375440  1.0
  Ni  Ni422  1  0.78074767  0.66666667  0.18375440  1.0
  Ni  Ni423  1  0.11408100  0.16666667  0.08375440  1.0
  Ni  Ni424  1  0.11408100  0.50000000  0.08375440  1.0
  Ni  Ni425  1  0.11408100  0.83333333  0.08375440  1.0
  Ni  Ni426  1  0.44741433  0.16666667  0.08375440  1.0
  Ni  Ni427  1  0.44741433  0.50000000  0.08375440  1.0
  Ni  Ni428  1  0.44741433  0.83333333  0.08375440  1.0
  Ni  Ni429  1  0.78074767  0.16666667  0.08375440  1.0
  Ni  Ni430  1  0.78074767  0.50000000  0.08375440  1.0
  Ni  Ni431  1  0.78074767  0.83333333  0.08375440  1.0
  Ni  Ni432  1  0.00000000  0.16666667  0.19458480  1.0
  Ni  Ni433  1  0.00000000  0.50000000  0.19458480  1.0
  Ni  Ni434  1  0.00000000  0.83333333  0.19458480  1.0
  Ni  Ni435  1  0.33333333  0.16666667  0.19458480  1.0
  Ni  Ni436  1  0.33333333  0.50000000  0.19458480  1.0
  Ni  Ni437  1  0.33333333  0.83333333  0.19458480  1.0
  Ni  Ni438  1  0.66666667  0.16666667  0.19458480  1.0
  Ni  Ni439  1  0.66666667  0.50000000  0.19458480  1.0
  Ni  Ni440  1  0.66666667  0.83333333  0.19458480  1.0
  Ni  Ni441  1  0.00000000  0.00000000  0.09458480  1.0
  Ni  Ni442  1  0.00000000  0.33333333  0.09458480  1.0
  Ni  Ni443  1  0.00000000  0.66666667  0.09458480  1.0
  Ni  Ni444  1  0.33333333  0.00000000  0.09458480  1.0
  Ni  Ni445  1  0.33333333  0.33333333  0.09458480  1.0
  Ni  Ni446  1  0.33333333  0.66666667  0.09458480  1.0
  Ni  Ni447  1  0.66666667  0.00000000  0.09458480  1.0
  Ni  Ni448  1  0.66666667  0.33333333  0.09458480  1.0
  Ni  Ni449  1  0.66666667  0.66666667  0.09458480  1.0
  Zn  Zn450  1  0.24656767  0.26744183  0.29633230  1.0
  Zn  Zn451  1  0.24656767  0.60077517  0.29633230  1.0
  Zn  Zn452  1  0.24656767  0.93410850  0.29633230  1.0
  Zn  Zn453  1  0.57990100  0.26744183  0.29633230  1.0
  Zn  Zn454  1  0.57990100  0.60077517  0.29633230  1.0
  Zn  Zn455  1  0.57990100  0.93410850  0.29633230  1.0
  Zn  Zn456  1  0.91323433  0.26744183  0.29633230  1.0
  Zn  Zn457  1  0.91323433  0.60077517  0.29633230  1.0
  Zn  Zn458  1  0.91323433  0.93410850  0.29633230  1.0
  Zn  Zn459  1  0.24656767  0.10077517  0.39633230  1.0
  Zn  Zn460  1  0.24656767  0.43410850  0.39633230  1.0
  Zn  Zn461  1  0.24656767  0.76744183  0.39633230  1.0
  Zn  Zn462  1  0.57990100  0.10077517  0.39633230  1.0
  Zn  Zn463  1  0.57990100  0.43410850  0.39633230  1.0
  Zn  Zn464  1  0.57990100  0.76744183  0.39633230  1.0
  Zn  Zn465  1  0.91323433  0.10077517  0.39633230  1.0
  Zn  Zn466  1  0.91323433  0.43410850  0.39633230  1.0
  Zn  Zn467  1  0.91323433  0.76744183  0.39633230  1.0
  Zn  Zn468  1  0.08676567  0.06589150  0.29283730  1.0
  Zn  Zn469  1  0.08676567  0.39922483  0.29283730  1.0
  Zn  Zn470  1  0.08676567  0.73255817  0.29283730  1.0
  Zn  Zn471  1  0.42009900  0.06589150  0.29283730  1.0
  Zn  Zn472  1  0.42009900  0.39922483  0.29283730  1.0
  Zn  Zn473  1  0.42009900  0.73255817  0.29283730  1.0
  Zn  Zn474  1  0.75343233  0.06589150  0.29283730  1.0
  Zn  Zn475  1  0.75343233  0.39922483  0.29283730  1.0
  Zn  Zn476  1  0.75343233  0.73255817  0.29283730  1.0
  Zn  Zn477  1  0.08676567  0.23255817  0.39283730  1.0
  Zn  Zn478  1  0.08676567  0.56589150  0.39283730  1.0
  Zn  Zn479  1  0.08676567  0.89922483  0.39283730  1.0
  Zn  Zn480  1  0.42009900  0.23255817  0.39283730  1.0
  Zn  Zn481  1  0.42009900  0.56589150  0.39283730  1.0
  Zn  Zn482  1  0.42009900  0.89922483  0.39283730  1.0
  Zn  Zn483  1  0.75343233  0.23255817  0.39283730  1.0
  Zn  Zn484  1  0.75343233  0.56589150  0.39283730  1.0
  Zn  Zn485  1  0.75343233  0.89922483  0.39283730  1.0
  Zn  Zn486  1  0.21854867  0.26744183  0.37190710  1.0
  Zn  Zn487  1  0.21854867  0.60077517  0.37190710  1.0
  Zn  Zn488  1  0.21854867  0.93410850  0.37190710  1.0
  Zn  Zn489  1  0.55188200  0.26744183  0.37190710  1.0
  Zn  Zn490  1  0.55188200  0.60077517  0.37190710  1.0
  Zn  Zn491  1  0.55188200  0.93410850  0.37190710  1.0
  Zn  Zn492  1  0.88521533  0.26744183  0.37190710  1.0
  Zn  Zn493  1  0.88521533  0.60077517  0.37190710  1.0
  Zn  Zn494  1  0.88521533  0.93410850  0.37190710  1.0
  Zn  Zn495  1  0.21854867  0.10077517  0.27190710  1.0
  Zn  Zn496  1  0.21854867  0.43410850  0.27190710  1.0
  Zn  Zn497  1  0.21854867  0.76744183  0.27190710  1.0
  Zn  Zn498  1  0.55188200  0.10077517  0.27190710  1.0
  Zn  Zn499  1  0.55188200  0.43410850  0.27190710  1.0
  Zn  Zn500  1  0.55188200  0.76744183  0.27190710  1.0
  Zn  Zn501  1  0.88521533  0.10077517  0.27190710  1.0
  Zn  Zn502  1  0.88521533  0.43410850  0.27190710  1.0
  Zn  Zn503  1  0.88521533  0.76744183  0.27190710  1.0
  Zn  Zn504  1  0.11478467  0.06589150  0.21726250  1.0
  Zn  Zn505  1  0.11478467  0.39922483  0.21726250  1.0
  Zn  Zn506  1  0.11478467  0.73255817  0.21726250  1.0
  Zn  Zn507  1  0.44811800  0.06589150  0.21726250  1.0
  Zn  Zn508  1  0.44811800  0.39922483  0.21726250  1.0
  Zn  Zn509  1  0.44811800  0.73255817  0.21726250  1.0
  Zn  Zn510  1  0.78145133  0.06589150  0.21726250  1.0
  Zn  Zn511  1  0.78145133  0.39922483  0.21726250  1.0
  Zn  Zn512  1  0.78145133  0.73255817  0.21726250  1.0
  Zn  Zn513  1  0.11478467  0.23255817  0.31726250  1.0
  Zn  Zn514  1  0.11478467  0.56589150  0.31726250  1.0
  Zn  Zn515  1  0.11478467  0.89922483  0.31726250  1.0
  Zn  Zn516  1  0.44811800  0.23255817  0.31726250  1.0
  Zn  Zn517  1  0.44811800  0.56589150  0.31726250  1.0
  Zn  Zn518  1  0.44811800  0.89922483  0.31726250  1.0
  Zn  Zn519  1  0.78145133  0.23255817  0.31726250  1.0
  Zn  Zn520  1  0.78145133  0.56589150  0.31726250  1.0
  Zn  Zn521  1  0.78145133  0.89922483  0.31726250  1.0
  Zn  Zn522  1  0.10747967  0.05918700  0.35907260  1.0
  Zn  Zn523  1  0.10747967  0.39252033  0.35907260  1.0
  Zn  Zn524  1  0.10747967  0.72585367  0.35907260  1.0
  Zn  Zn525  1  0.44081300  0.05918700  0.35907260  1.0
  Zn  Zn526  1  0.44081300  0.39252033  0.35907260  1.0
  Zn  Zn527  1  0.44081300  0.72585367  0.35907260  1.0
  Zn  Zn528  1  0.77414633  0.05918700  0.35907260  1.0
  Zn  Zn529  1  0.77414633  0.39252033  0.35907260  1.0
  Zn  Zn530  1  0.77414633  0.72585367  0.35907260  1.0
  Zn  Zn531  1  0.10747967  0.22585367  0.25907260  1.0
  Zn  Zn532  1  0.10747967  0.55918700  0.25907260  1.0
  Zn  Zn533  1  0.10747967  0.89252033  0.25907260  1.0
  Zn  Zn534  1  0.44081300  0.22585367  0.25907260  1.0
  Zn  Zn535  1  0.44081300  0.55918700  0.25907260  1.0
  Zn  Zn536  1  0.44081300  0.89252033  0.25907260  1.0
  Zn  Zn537  1  0.77414633  0.22585367  0.25907260  1.0
  Zn  Zn538  1  0.77414633  0.55918700  0.25907260  1.0
  Zn  Zn539  1  0.77414633  0.89252033  0.25907260  1.0
  Zn  Zn540  1  0.22585367  0.27414633  0.23009700  1.0
  Zn  Zn541  1  0.22585367  0.60747967  0.23009700  1.0
  Zn  Zn542  1  0.22585367  0.94081300  0.23009700  1.0
  Zn  Zn543  1  0.55918700  0.27414633  0.23009700  1.0
  Zn  Zn544  1  0.55918700  0.60747967  0.23009700  1.0
  Zn  Zn545  1  0.55918700  0.94081300  0.23009700  1.0
  Zn  Zn546  1  0.89252033  0.27414633  0.23009700  1.0
  Zn  Zn547  1  0.89252033  0.60747967  0.23009700  1.0
  Zn  Zn548  1  0.89252033  0.94081300  0.23009700  1.0
  Zn  Zn549  1  0.22585367  0.10747967  0.33009700  1.0
  Zn  Zn550  1  0.22585367  0.44081300  0.33009700  1.0
  Zn  Zn551  1  0.22585367  0.77414633  0.33009700  1.0
  Zn  Zn552  1  0.55918700  0.10747967  0.33009700  1.0
  Zn  Zn553  1  0.55918700  0.44081300  0.33009700  1.0
  Zn  Zn554  1  0.55918700  0.77414633  0.33009700  1.0
  Zn  Zn555  1  0.89252033  0.10747967  0.33009700  1.0
  Zn  Zn556  1  0.89252033  0.44081300  0.33009700  1.0
  Zn  Zn557  1  0.89252033  0.77414633  0.33009700  1.0
  Zn  Zn558  1  0.27685533  0.00000000  0.35143960  1.0
  Zn  Zn559  1  0.27685533  0.33333333  0.35143960  1.0
  Zn  Zn560  1  0.27685533  0.66666667  0.35143960  1.0
  Zn  Zn561  1  0.61018867  0.00000000  0.35143960  1.0
  Zn  Zn562  1  0.61018867  0.33333333  0.35143960  1.0
  Zn  Zn563  1  0.61018867  0.66666667  0.35143960  1.0
  Zn  Zn564  1  0.94352200  0.00000000  0.35143960  1.0
  Zn  Zn565  1  0.94352200  0.33333333  0.35143960  1.0
  Zn  Zn566  1  0.94352200  0.66666667  0.35143960  1.0
  Zn  Zn567  1  0.27685533  0.16666667  0.25143960  1.0
  Zn  Zn568  1  0.27685533  0.50000000  0.25143960  1.0
  Zn  Zn569  1  0.27685533  0.83333333  0.25143960  1.0
  Zn  Zn570  1  0.61018867  0.16666667  0.25143960  1.0
  Zn  Zn571  1  0.61018867  0.50000000  0.25143960  1.0
  Zn  Zn572  1  0.61018867  0.83333333  0.25143960  1.0
  Zn  Zn573  1  0.94352200  0.16666667  0.25143960  1.0
  Zn  Zn574  1  0.94352200  0.50000000  0.25143960  1.0
  Zn  Zn575  1  0.94352200  0.83333333  0.25143960  1.0
  Zn  Zn576  1  0.05647800  0.00000000  0.23773000  1.0
  Zn  Zn577  1  0.05647800  0.33333333  0.23773000  1.0
  Zn  Zn578  1  0.05647800  0.66666667  0.23773000  1.0
  Zn  Zn579  1  0.38981133  0.00000000  0.23773000  1.0
  Zn  Zn580  1  0.38981133  0.33333333  0.23773000  1.0
  Zn  Zn581  1  0.38981133  0.66666667  0.23773000  1.0
  Zn  Zn582  1  0.72314467  0.00000000  0.23773000  1.0
  Zn  Zn583  1  0.72314467  0.33333333  0.23773000  1.0
  Zn  Zn584  1  0.72314467  0.66666667  0.23773000  1.0
  Zn  Zn585  1  0.05647800  0.16666667  0.33773000  1.0
  Zn  Zn586  1  0.05647800  0.50000000  0.33773000  1.0
  Zn  Zn587  1  0.05647800  0.83333333  0.33773000  1.0
  Zn  Zn588  1  0.38981133  0.16666667  0.33773000  1.0
  Zn  Zn589  1  0.38981133  0.50000000  0.33773000  1.0
  Zn  Zn590  1  0.38981133  0.83333333  0.33773000  1.0
  Zn  Zn591  1  0.72314467  0.16666667  0.33773000  1.0
  Zn  Zn592  1  0.72314467  0.50000000  0.33773000  1.0
  Zn  Zn593  1  0.72314467  0.83333333  0.33773000  1.0
  Zn  Zn594  1  0.32541200  0.00000000  0.22984040  1.0
  Zn  Zn595  1  0.32541200  0.33333333  0.22984040  1.0
  Zn  Zn596  1  0.32541200  0.66666667  0.22984040  1.0
  Zn  Zn597  1  0.65874533  0.00000000  0.22984040  1.0
  Zn  Zn598  1  0.65874533  0.33333333  0.22984040  1.0
  Zn  Zn599  1  0.65874533  0.66666667  0.22984040  1.0
  Zn  Zn600  1  0.99207867  0.00000000  0.22984040  1.0
  Zn  Zn601  1  0.99207867  0.33333333  0.22984040  1.0
  Zn  Zn602  1  0.99207867  0.66666667  0.22984040  1.0
  Zn  Zn603  1  0.32541200  0.16666667  0.32984040  1.0
  Zn  Zn604  1  0.32541200  0.50000000  0.32984040  1.0
  Zn  Zn605  1  0.32541200  0.83333333  0.32984040  1.0
  Zn  Zn606  1  0.65874533  0.16666667  0.32984040  1.0
  Zn  Zn607  1  0.65874533  0.50000000  0.32984040  1.0
  Zn  Zn608  1  0.65874533  0.83333333  0.32984040  1.0
  Zn  Zn609  1  0.99207867  0.16666667  0.32984040  1.0
  Zn  Zn610  1  0.99207867  0.50000000  0.32984040  1.0
  Zn  Zn611  1  0.99207867  0.83333333  0.32984040  1.0
  Zn  Zn612  1  0.00792133  0.00000000  0.35932920  1.0
  Zn  Zn613  1  0.00792133  0.33333333  0.35932920  1.0
  Zn  Zn614  1  0.00792133  0.66666667  0.35932920  1.0
  Zn  Zn615  1  0.34125467  0.00000000  0.35932920  1.0
  Zn  Zn616  1  0.34125467  0.33333333  0.35932920  1.0
  Zn  Zn617  1  0.34125467  0.66666667  0.35932920  1.0
  Zn  Zn618  1  0.67458800  0.00000000  0.35932920  1.0
  Zn  Zn619  1  0.67458800  0.33333333  0.35932920  1.0
  Zn  Zn620  1  0.67458800  0.66666667  0.35932920  1.0
  Zn  Zn621  1  0.00792133  0.16666667  0.25932920  1.0
  Zn  Zn622  1  0.00792133  0.50000000  0.25932920  1.0
  Zn  Zn623  1  0.00792133  0.83333333  0.25932920  1.0
  Zn  Zn624  1  0.34125467  0.16666667  0.25932920  1.0
  Zn  Zn625  1  0.34125467  0.50000000  0.25932920  1.0
  Zn  Zn626  1  0.34125467  0.83333333  0.25932920  1.0
  Zn  Zn627  1  0.67458800  0.16666667  0.25932920  1.0
  Zn  Zn628  1  0.67458800  0.50000000  0.25932920  1.0
  Zn  Zn629  1  0.67458800  0.83333333  0.25932920  1.0
  Zn  Zn630  1  0.11742267  0.00000000  0.24909780  1.0
  Zn  Zn631  1  0.11742267  0.33333333  0.24909780  1.0
  Zn  Zn632  1  0.11742267  0.66666667  0.24909780  1.0
  Zn  Zn633  1  0.45075600  0.00000000  0.24909780  1.0
  Zn  Zn634  1  0.45075600  0.33333333  0.24909780  1.0
  Zn  Zn635  1  0.45075600  0.66666667  0.24909780  1.0
  Zn  Zn636  1  0.78408933  0.00000000  0.24909780  1.0
  Zn  Zn637  1  0.78408933  0.33333333  0.24909780  1.0
  Zn  Zn638  1  0.78408933  0.66666667  0.24909780  1.0
  Zn  Zn639  1  0.11742267  0.16666667  0.34909780  1.0
  Zn  Zn640  1  0.11742267  0.50000000  0.34909780  1.0
  Zn  Zn641  1  0.11742267  0.83333333  0.34909780  1.0
  Zn  Zn642  1  0.45075600  0.16666667  0.34909780  1.0
  Zn  Zn643  1  0.45075600  0.50000000  0.34909780  1.0
  Zn  Zn644  1  0.45075600  0.83333333  0.34909780  1.0
  Zn  Zn645  1  0.78408933  0.16666667  0.34909780  1.0
  Zn  Zn646  1  0.78408933  0.50000000  0.34909780  1.0
  Zn  Zn647  1  0.78408933  0.83333333  0.34909780  1.0
  Zn  Zn648  1  0.21591067  0.00000000  0.34007180  1.0
  Zn  Zn649  1  0.21591067  0.33333333  0.34007180  1.0
  Zn  Zn650  1  0.21591067  0.66666667  0.34007180  1.0
  Zn  Zn651  1  0.54924400  0.00000000  0.34007180  1.0
  Zn  Zn652  1  0.54924400  0.33333333  0.34007180  1.0
  Zn  Zn653  1  0.54924400  0.66666667  0.34007180  1.0
  Zn  Zn654  1  0.88257733  0.00000000  0.34007180  1.0
  Zn  Zn655  1  0.88257733  0.33333333  0.34007180  1.0
  Zn  Zn656  1  0.88257733  0.66666667  0.34007180  1.0
  Zn  Zn657  1  0.21591067  0.16666667  0.24007180  1.0
  Zn  Zn658  1  0.21591067  0.50000000  0.24007180  1.0
  Zn  Zn659  1  0.21591067  0.83333333  0.24007180  1.0
  Zn  Zn660  1  0.54924400  0.16666667  0.24007180  1.0
  Zn  Zn661  1  0.54924400  0.50000000  0.24007180  1.0
  Zn  Zn662  1  0.54924400  0.83333333  0.24007180  1.0
  Zn  Zn663  1  0.88257733  0.16666667  0.24007180  1.0
  Zn  Zn664  1  0.88257733  0.50000000  0.24007180  1.0
  Zn  Zn665  1  0.88257733  0.83333333  0.24007180  1.0
  Zn  Zn666  1  0.22866000  0.00000000  0.26987540  1.0
  Zn  Zn667  1  0.22866000  0.33333333  0.26987540  1.0
  Zn  Zn668  1  0.22866000  0.66666667  0.26987540  1.0
  Zn  Zn669  1  0.56199333  0.00000000  0.26987540  1.0
  Zn  Zn670  1  0.56199333  0.33333333  0.26987540  1.0
  Zn  Zn671  1  0.56199333  0.66666667  0.26987540  1.0
  Zn  Zn672  1  0.89532667  0.00000000  0.26987540  1.0
  Zn  Zn673  1  0.89532667  0.33333333  0.26987540  1.0
  Zn  Zn674  1  0.89532667  0.66666667  0.26987540  1.0
  Zn  Zn675  1  0.22866000  0.16666667  0.36987540  1.0
  Zn  Zn676  1  0.22866000  0.50000000  0.36987540  1.0
  Zn  Zn677  1  0.22866000  0.83333333  0.36987540  1.0
  Zn  Zn678  1  0.56199333  0.16666667  0.36987540  1.0
  Zn  Zn679  1  0.56199333  0.50000000  0.36987540  1.0
  Zn  Zn680  1  0.56199333  0.83333333  0.36987540  1.0
  Zn  Zn681  1  0.89532667  0.16666667  0.36987540  1.0
  Zn  Zn682  1  0.89532667  0.50000000  0.36987540  1.0
  Zn  Zn683  1  0.89532667  0.83333333  0.36987540  1.0
  Zn  Zn684  1  0.10467333  0.00000000  0.31929420  1.0
  Zn  Zn685  1  0.10467333  0.33333333  0.31929420  1.0
  Zn  Zn686  1  0.10467333  0.66666667  0.31929420  1.0
  Zn  Zn687  1  0.43800667  0.00000000  0.31929420  1.0
  Zn  Zn688  1  0.43800667  0.33333333  0.31929420  1.0
  Zn  Zn689  1  0.43800667  0.66666667  0.31929420  1.0
  Zn  Zn690  1  0.77134000  0.00000000  0.31929420  1.0
  Zn  Zn691  1  0.77134000  0.33333333  0.31929420  1.0
  Zn  Zn692  1  0.77134000  0.66666667  0.31929420  1.0
  Zn  Zn693  1  0.10467333  0.16666667  0.21929420  1.0
  Zn  Zn694  1  0.10467333  0.50000000  0.21929420  1.0
  Zn  Zn695  1  0.10467333  0.83333333  0.21929420  1.0
  Zn  Zn696  1  0.43800667  0.16666667  0.21929420  1.0
  Zn  Zn697  1  0.43800667  0.50000000  0.21929420  1.0
  Zn  Zn698  1  0.43800667  0.83333333  0.21929420  1.0
  Zn  Zn699  1  0.77134000  0.16666667  0.21929420  1.0
  Zn  Zn700  1  0.77134000  0.50000000  0.21929420  1.0
  Zn  Zn701  1  0.77134000  0.83333333  0.21929420  1.0
  Zn  Zn702  1  0.00790933  0.10642100  0.22317380  1.0
  Zn  Zn703  1  0.00790933  0.43975433  0.22317380  1.0
  Zn  Zn704  1  0.00790933  0.77308767  0.22317380  1.0
  Zn  Zn705  1  0.34124267  0.10642100  0.22317380  1.0
  Zn  Zn706  1  0.34124267  0.43975433  0.22317380  1.0
  Zn  Zn707  1  0.34124267  0.77308767  0.22317380  1.0
  Zn  Zn708  1  0.67457600  0.10642100  0.22317380  1.0
  Zn  Zn709  1  0.67457600  0.43975433  0.22317380  1.0
  Zn  Zn710  1  0.67457600  0.77308767  0.22317380  1.0
  Zn  Zn711  1  0.00790933  0.27308767  0.32317380  1.0
  Zn  Zn712  1  0.00790933  0.60642100  0.32317380  1.0
  Zn  Zn713  1  0.00790933  0.93975433  0.32317380  1.0
  Zn  Zn714  1  0.34124267  0.27308767  0.32317380  1.0
  Zn  Zn715  1  0.34124267  0.60642100  0.32317380  1.0
  Zn  Zn716  1  0.34124267  0.93975433  0.32317380  1.0
  Zn  Zn717  1  0.67457600  0.27308767  0.32317380  1.0
  Zn  Zn718  1  0.67457600  0.60642100  0.32317380  1.0
  Zn  Zn719  1  0.67457600  0.93975433  0.32317380  1.0
  Zn  Zn720  1  0.32542400  0.22691233  0.36599580  1.0
  Zn  Zn721  1  0.32542400  0.56024567  0.36599580  1.0
  Zn  Zn722  1  0.32542400  0.89357900  0.36599580  1.0
  Zn  Zn723  1  0.65875733  0.22691233  0.36599580  1.0
  Zn  Zn724  1  0.65875733  0.56024567  0.36599580  1.0
  Zn  Zn725  1  0.65875733  0.89357900  0.36599580  1.0
  Zn  Zn726  1  0.99209067  0.22691233  0.36599580  1.0
  Zn  Zn727  1  0.99209067  0.56024567  0.36599580  1.0
  Zn  Zn728  1  0.99209067  0.89357900  0.36599580  1.0
  Zn  Zn729  1  0.32542400  0.06024567  0.26599580  1.0
  Zn  Zn730  1  0.32542400  0.39357900  0.26599580  1.0
  Zn  Zn731  1  0.32542400  0.72691233  0.26599580  1.0
  Zn  Zn732  1  0.65875733  0.06024567  0.26599580  1.0
  Zn  Zn733  1  0.65875733  0.39357900  0.26599580  1.0
  Zn  Zn734  1  0.65875733  0.72691233  0.26599580  1.0
  Zn  Zn735  1  0.99209067  0.06024567  0.26599580  1.0
  Zn  Zn736  1  0.99209067  0.39357900  0.26599580  1.0
  Zn  Zn737  1  0.99209067  0.72691233  0.26599580  1.0
  Zn  Zn738  1  0.11258200  0.10642100  0.23829060  1.0
  Zn  Zn739  1  0.11258200  0.43975433  0.23829060  1.0
  Zn  Zn740  1  0.11258200  0.77308767  0.23829060  1.0
  Zn  Zn741  1  0.44591533  0.10642100  0.23829060  1.0
  Zn  Zn742  1  0.44591533  0.43975433  0.23829060  1.0
  Zn  Zn743  1  0.44591533  0.77308767  0.23829060  1.0
  Zn  Zn744  1  0.77924867  0.10642100  0.23829060  1.0
  Zn  Zn745  1  0.77924867  0.43975433  0.23829060  1.0
  Zn  Zn746  1  0.77924867  0.77308767  0.23829060  1.0
  Zn  Zn747  1  0.11258200  0.27308767  0.33829060  1.0
  Zn  Zn748  1  0.11258200  0.60642100  0.33829060  1.0
  Zn  Zn749  1  0.11258200  0.93975433  0.33829060  1.0
  Zn  Zn750  1  0.44591533  0.27308767  0.33829060  1.0
  Zn  Zn751  1  0.44591533  0.60642100  0.33829060  1.0
  Zn  Zn752  1  0.44591533  0.93975433  0.33829060  1.0
  Zn  Zn753  1  0.77924867  0.27308767  0.33829060  1.0
  Zn  Zn754  1  0.77924867  0.60642100  0.33829060  1.0
  Zn  Zn755  1  0.77924867  0.93975433  0.33829060  1.0
  Zn  Zn756  1  0.22075133  0.22691233  0.35087900  1.0
  Zn  Zn757  1  0.22075133  0.56024567  0.35087900  1.0
  Zn  Zn758  1  0.22075133  0.89357900  0.35087900  1.0
  Zn  Zn759  1  0.55408467  0.22691233  0.35087900  1.0
  Zn  Zn760  1  0.55408467  0.56024567  0.35087900  1.0
  Zn  Zn761  1  0.55408467  0.89357900  0.35087900  1.0
  Zn  Zn762  1  0.88741800  0.22691233  0.35087900  1.0
  Zn  Zn763  1  0.88741800  0.56024567  0.35087900  1.0
  Zn  Zn764  1  0.88741800  0.89357900  0.35087900  1.0
  Zn  Zn765  1  0.22075133  0.06024567  0.25087900  1.0
  Zn  Zn766  1  0.22075133  0.39357900  0.25087900  1.0
  Zn  Zn767  1  0.22075133  0.72691233  0.25087900  1.0
  Zn  Zn768  1  0.55408467  0.06024567  0.25087900  1.0
  Zn  Zn769  1  0.55408467  0.39357900  0.25087900  1.0
  Zn  Zn770  1  0.55408467  0.72691233  0.25087900  1.0
  Zn  Zn771  1  0.88741800  0.06024567  0.25087900  1.0
  Zn  Zn772  1  0.88741800  0.39357900  0.25087900  1.0
  Zn  Zn773  1  0.88741800  0.72691233  0.25087900  1.0
  Zn  Zn774  1  0.33291167  0.26987550  0.25263270  1.0
  Zn  Zn775  1  0.33291167  0.60320883  0.25263270  1.0
  Zn  Zn776  1  0.33291167  0.93654217  0.25263270  1.0
  Zn  Zn777  1  0.66624500  0.26987550  0.25263270  1.0
  Zn  Zn778  1  0.66624500  0.60320883  0.25263270  1.0
  Zn  Zn779  1  0.66624500  0.93654217  0.25263270  1.0
  Zn  Zn780  1  0.99957833  0.26987550  0.25263270  1.0
  Zn  Zn781  1  0.99957833  0.60320883  0.25263270  1.0
  Zn  Zn782  1  0.99957833  0.93654217  0.25263270  1.0
  Zn  Zn783  1  0.33291167  0.10320883  0.35263270  1.0
  Zn  Zn784  1  0.33291167  0.43654217  0.35263270  1.0
  Zn  Zn785  1  0.33291167  0.76987550  0.35263270  1.0
  Zn  Zn786  1  0.66624500  0.10320883  0.35263270  1.0
  Zn  Zn787  1  0.66624500  0.43654217  0.35263270  1.0
  Zn  Zn788  1  0.66624500  0.76987550  0.35263270  1.0
  Zn  Zn789  1  0.99957833  0.10320883  0.35263270  1.0
  Zn  Zn790  1  0.99957833  0.43654217  0.35263270  1.0
  Zn  Zn791  1  0.99957833  0.76987550  0.35263270  1.0
  Zn  Zn792  1  0.00042167  0.06345783  0.33653690  1.0
  Zn  Zn793  1  0.00042167  0.39679117  0.33653690  1.0
  Zn  Zn794  1  0.00042167  0.73012450  0.33653690  1.0
  Zn  Zn795  1  0.33375500  0.06345783  0.33653690  1.0
  Zn  Zn796  1  0.33375500  0.39679117  0.33653690  1.0
  Zn  Zn797  1  0.33375500  0.73012450  0.33653690  1.0
  Zn  Zn798  1  0.66708833  0.06345783  0.33653690  1.0
  Zn  Zn799  1  0.66708833  0.39679117  0.33653690  1.0
  Zn  Zn800  1  0.66708833  0.73012450  0.33653690  1.0
  Zn  Zn801  1  0.00042167  0.23012450  0.23653690  1.0
  Zn  Zn802  1  0.00042167  0.56345783  0.23653690  1.0
  Zn  Zn803  1  0.00042167  0.89679117  0.23653690  1.0
  Zn  Zn804  1  0.33375500  0.23012450  0.23653690  1.0
  Zn  Zn805  1  0.33375500  0.56345783  0.23653690  1.0
  Zn  Zn806  1  0.33375500  0.89679117  0.23653690  1.0
  Zn  Zn807  1  0.66708833  0.23012450  0.23653690  1.0
  Zn  Zn808  1  0.66708833  0.56345783  0.23653690  1.0
  Zn  Zn809  1  0.66708833  0.89679117  0.23653690  1.0
  Zn  Zn810  1  0.12733733  0.26987550  0.21268630  1.0
  Zn  Zn811  1  0.12733733  0.60320883  0.21268630  1.0
  Zn  Zn812  1  0.12733733  0.93654217  0.21268630  1.0
  Zn  Zn813  1  0.46067067  0.26987550  0.21268630  1.0
  Zn  Zn814  1  0.46067067  0.60320883  0.21268630  1.0
  Zn  Zn815  1  0.46067067  0.93654217  0.21268630  1.0
  Zn  Zn816  1  0.79400400  0.26987550  0.21268630  1.0
  Zn  Zn817  1  0.79400400  0.60320883  0.21268630  1.0
  Zn  Zn818  1  0.79400400  0.93654217  0.21268630  1.0
  Zn  Zn819  1  0.12733733  0.10320883  0.31268630  1.0
  Zn  Zn820  1  0.12733733  0.43654217  0.31268630  1.0
  Zn  Zn821  1  0.12733733  0.76987550  0.31268630  1.0
  Zn  Zn822  1  0.46067067  0.10320883  0.31268630  1.0
  Zn  Zn823  1  0.46067067  0.43654217  0.31268630  1.0
  Zn  Zn824  1  0.46067067  0.76987550  0.31268630  1.0
  Zn  Zn825  1  0.79400400  0.10320883  0.31268630  1.0
  Zn  Zn826  1  0.79400400  0.43654217  0.31268630  1.0
  Zn  Zn827  1  0.79400400  0.76987550  0.31268630  1.0
  Zn  Zn828  1  0.20599600  0.06345783  0.37648330  1.0
  Zn  Zn829  1  0.20599600  0.39679117  0.37648330  1.0
  Zn  Zn830  1  0.20599600  0.73012450  0.37648330  1.0
  Zn  Zn831  1  0.53932933  0.06345783  0.37648330  1.0
  Zn  Zn832  1  0.53932933  0.39679117  0.37648330  1.0
  Zn  Zn833  1  0.53932933  0.73012450  0.37648330  1.0
  Zn  Zn834  1  0.87266267  0.06345783  0.37648330  1.0
  Zn  Zn835  1  0.87266267  0.39679117  0.37648330  1.0
  Zn  Zn836  1  0.87266267  0.73012450  0.37648330  1.0
  Zn  Zn837  1  0.20599600  0.23012450  0.27648330  1.0
  Zn  Zn838  1  0.20599600  0.56345783  0.27648330  1.0
  Zn  Zn839  1  0.20599600  0.89679117  0.27648330  1.0
  Zn  Zn840  1  0.53932933  0.23012450  0.27648330  1.0
  Zn  Zn841  1  0.53932933  0.56345783  0.27648330  1.0
  Zn  Zn842  1  0.53932933  0.89679117  0.27648330  1.0
  Zn  Zn843  1  0.87266267  0.23012450  0.27648330  1.0
  Zn  Zn844  1  0.87266267  0.56345783  0.27648330  1.0
  Zn  Zn845  1  0.87266267  0.89679117  0.27648330  1.0
  Ni  Ni846  1  0.21925233  0.00000000  0.20541520  1.0
  Ni  Ni847  1  0.21925233  0.33333333  0.20541520  1.0
  Ni  Ni848  1  0.21925233  0.66666667  0.20541520  1.0
  Ni  Ni849  1  0.55258567  0.00000000  0.20541520  1.0
  Ni  Ni850  1  0.55258567  0.33333333  0.20541520  1.0
  Ni  Ni851  1  0.55258567  0.66666667  0.20541520  1.0
  Ni  Ni852  1  0.88591900  0.00000000  0.20541520  1.0
  Ni  Ni853  1  0.88591900  0.33333333  0.20541520  1.0
  Ni  Ni854  1  0.88591900  0.66666667  0.20541520  1.0
  Ni  Ni855  1  0.21925233  0.16666667  0.30541520  1.0
  Ni  Ni856  1  0.21925233  0.50000000  0.30541520  1.0
  Ni  Ni857  1  0.21925233  0.83333333  0.30541520  1.0
  Ni  Ni858  1  0.55258567  0.16666667  0.30541520  1.0
  Ni  Ni859  1  0.55258567  0.50000000  0.30541520  1.0
  Ni  Ni860  1  0.55258567  0.83333333  0.30541520  1.0
  Ni  Ni861  1  0.88591900  0.16666667  0.30541520  1.0
  Ni  Ni862  1  0.88591900  0.50000000  0.30541520  1.0
  Ni  Ni863  1  0.88591900  0.83333333  0.30541520  1.0
  Ni  Ni864  1  0.11408100  0.00000000  0.38375440  1.0
  Ni  Ni865  1  0.11408100  0.33333333  0.38375440  1.0
  Ni  Ni866  1  0.11408100  0.66666667  0.38375440  1.0
  Ni  Ni867  1  0.44741433  0.00000000  0.38375440  1.0
  Ni  Ni868  1  0.44741433  0.33333333  0.38375440  1.0
  Ni  Ni869  1  0.44741433  0.66666667  0.38375440  1.0
  Ni  Ni870  1  0.78074767  0.00000000  0.38375440  1.0
  Ni  Ni871  1  0.78074767  0.33333333  0.38375440  1.0
  Ni  Ni872  1  0.78074767  0.66666667  0.38375440  1.0
  Ni  Ni873  1  0.11408100  0.16666667  0.28375440  1.0
  Ni  Ni874  1  0.11408100  0.50000000  0.28375440  1.0
  Ni  Ni875  1  0.11408100  0.83333333  0.28375440  1.0
  Ni  Ni876  1  0.44741433  0.16666667  0.28375440  1.0
  Ni  Ni877  1  0.44741433  0.50000000  0.28375440  1.0
  Ni  Ni878  1  0.44741433  0.83333333  0.28375440  1.0
  Ni  Ni879  1  0.78074767  0.16666667  0.28375440  1.0
  Ni  Ni880  1  0.78074767  0.50000000  0.28375440  1.0
  Ni  Ni881  1  0.78074767  0.83333333  0.28375440  1.0
  Ni  Ni882  1  0.00000000  0.16666667  0.39458480  1.0
  Ni  Ni883  1  0.00000000  0.50000000  0.39458480  1.0
  Ni  Ni884  1  0.00000000  0.83333333  0.39458480  1.0
  Ni  Ni885  1  0.33333333  0.16666667  0.39458480  1.0
  Ni  Ni886  1  0.33333333  0.50000000  0.39458480  1.0
  Ni  Ni887  1  0.33333333  0.83333333  0.39458480  1.0
  Ni  Ni888  1  0.66666667  0.16666667  0.39458480  1.0
  Ni  Ni889  1  0.66666667  0.50000000  0.39458480  1.0
  Ni  Ni890  1  0.66666667  0.83333333  0.39458480  1.0
  Ni  Ni891  1  0.00000000  0.00000000  0.29458480  1.0
  Ni  Ni892  1  0.00000000  0.33333333  0.29458480  1.0
  Ni  Ni893  1  0.00000000  0.66666667  0.29458480  1.0
  Ni  Ni894  1  0.33333333  0.00000000  0.29458480  1.0
  Ni  Ni895  1  0.33333333  0.33333333  0.29458480  1.0
  Ni  Ni896  1  0.33333333  0.66666667  0.29458480  1.0
  Ni  Ni897  1  0.66666667  0.00000000  0.29458480  1.0
  Ni  Ni898  1  0.66666667  0.33333333  0.29458480  1.0
  Ni  Ni899  1  0.66666667  0.66666667  0.29458480  1.0
