# generated using pymatgen
data_Zn53Ni16
_symmetry_space_group_name_H-M   'P 1'
_cell_length_a   23.03708391
_cell_length_b   23.03708391
_cell_length_c   66.65395600
_cell_angle_alpha   90.00000000
_cell_angle_beta   90.00000000
_cell_angle_gamma   109.26496491
_symmetry_Int_Tables_number   1
_chemical_formula_structural   Zn53Ni16
_chemical_formula_sum   'Zn954 Ni288'
_cell_volume   33392.90922145
_cell_formula_units_Z   18
loop_
 _symmetry_equiv_pos_site_id
 _symmetry_equiv_pos_as_xyz
  1  'x, y, z'
loop_
 _atom_site_type_symbol
 _atom_site_label
 _atom_site_symmetry_multiplicity
 _atom_site_fract_x
 _atom_site_fract_y
 _atom_site_fract_z
 _atom_site_occupancy
  Zn  Zn0  1  0.30452400  0.08834200  0.10556175  1.0
  Zn  Zn1  1  0.30452400  0.42167533  0.10556175  1.0
  Zn  Zn2  1  0.30452400  0.75500867  0.10556175  1.0
  Zn  Zn3  1  0.63785733  0.08834200  0.10556175  1.0
  Zn  Zn4  1  0.63785733  0.42167533  0.10556175  1.0
  Zn  Zn5  1  0.63785733  0.75500867  0.10556175  1.0
  Zn  Zn6  1  0.97119067  0.08834200  0.10556175  1.0
  Zn  Zn7  1  0.97119067  0.42167533  0.10556175  1.0
  Zn  Zn8  1  0.97119067  0.75500867  0.10556175  1.0
  Zn  Zn9  1  0.09175600  0.30655333  0.29491725  1.0
  Zn  Zn10  1  0.09175600  0.63988667  0.29491725  1.0
  Zn  Zn11  1  0.09175600  0.97322000  0.29491725  1.0
  Zn  Zn12  1  0.42508933  0.30655333  0.29491725  1.0
  Zn  Zn13  1  0.42508933  0.63988667  0.29491725  1.0
  Zn  Zn14  1  0.42508933  0.97322000  0.29491725  1.0
  Zn  Zn15  1  0.75842267  0.30655333  0.29491725  1.0
  Zn  Zn16  1  0.75842267  0.63988667  0.29491725  1.0
  Zn  Zn17  1  0.75842267  0.97322000  0.29491725  1.0
  Zn  Zn18  1  0.17815100  0.17815100  0.03233875  1.0
  Zn  Zn19  1  0.17815100  0.51148433  0.03233875  1.0
  Zn  Zn20  1  0.17815100  0.84481767  0.03233875  1.0
  Zn  Zn21  1  0.51148433  0.17815100  0.03233875  1.0
  Zn  Zn22  1  0.51148433  0.51148433  0.03233875  1.0
  Zn  Zn23  1  0.51148433  0.84481767  0.03233875  1.0
  Zn  Zn24  1  0.84481767  0.17815100  0.03233875  1.0
  Zn  Zn25  1  0.84481767  0.51148433  0.03233875  1.0
  Zn  Zn26  1  0.84481767  0.84481767  0.03233875  1.0
  Zn  Zn27  1  0.32489667  0.32489667  0.05098875  1.0
  Zn  Zn28  1  0.32489667  0.65823000  0.05098875  1.0
  Zn  Zn29  1  0.32489667  0.99156333  0.05098875  1.0
  Zn  Zn30  1  0.65823000  0.32489667  0.05098875  1.0
  Zn  Zn31  1  0.65823000  0.65823000  0.05098875  1.0
  Zn  Zn32  1  0.65823000  0.99156333  0.05098875  1.0
  Zn  Zn33  1  0.99156333  0.32489667  0.05098875  1.0
  Zn  Zn34  1  0.99156333  0.65823000  0.05098875  1.0
  Zn  Zn35  1  0.99156333  0.99156333  0.05098875  1.0
  Zn  Zn36  1  0.31026167  0.09616533  0.34823275  1.0
  Zn  Zn37  1  0.31026167  0.42949867  0.34823275  1.0
  Zn  Zn38  1  0.31026167  0.76283200  0.34823275  1.0
  Zn  Zn39  1  0.64359500  0.09616533  0.34823275  1.0
  Zn  Zn40  1  0.64359500  0.42949867  0.34823275  1.0
  Zn  Zn41  1  0.64359500  0.76283200  0.34823275  1.0
  Zn  Zn42  1  0.97692833  0.09616533  0.34823275  1.0
  Zn  Zn43  1  0.97692833  0.42949867  0.34823275  1.0
  Zn  Zn44  1  0.97692833  0.76283200  0.34823275  1.0
  Zn  Zn45  1  0.31729733  0.31729733  0.16733475  1.0
  Zn  Zn46  1  0.31729733  0.65063067  0.16733475  1.0
  Zn  Zn47  1  0.31729733  0.98396400  0.16733475  1.0
  Zn  Zn48  1  0.65063067  0.31729733  0.16733475  1.0
  Zn  Zn49  1  0.65063067  0.65063067  0.16733475  1.0
  Zn  Zn50  1  0.65063067  0.98396400  0.16733475  1.0
  Zn  Zn51  1  0.98396400  0.31729733  0.16733475  1.0
  Zn  Zn52  1  0.98396400  0.65063067  0.16733475  1.0
  Zn  Zn53  1  0.98396400  0.98396400  0.16733475  1.0
  Zn  Zn54  1  0.32019367  0.32019367  0.35821975  1.0
  Zn  Zn55  1  0.32019367  0.65352700  0.35821975  1.0
  Zn  Zn56  1  0.32019367  0.98686033  0.35821975  1.0
  Zn  Zn57  1  0.65352700  0.32019367  0.35821975  1.0
  Zn  Zn58  1  0.65352700  0.65352700  0.35821975  1.0
  Zn  Zn59  1  0.65352700  0.98686033  0.35821975  1.0
  Zn  Zn60  1  0.98686033  0.32019367  0.35821975  1.0
  Zn  Zn61  1  0.98686033  0.65352700  0.35821975  1.0
  Zn  Zn62  1  0.98686033  0.98686033  0.35821975  1.0
  Zn  Zn63  1  0.06491267  0.18879233  0.23242225  1.0
  Zn  Zn64  1  0.06491267  0.52212567  0.23242225  1.0
  Zn  Zn65  1  0.06491267  0.85545900  0.23242225  1.0
  Zn  Zn66  1  0.39824600  0.18879233  0.23242225  1.0
  Zn  Zn67  1  0.39824600  0.52212567  0.23242225  1.0
  Zn  Zn68  1  0.39824600  0.85545900  0.23242225  1.0
  Zn  Zn69  1  0.73157933  0.18879233  0.23242225  1.0
  Zn  Zn70  1  0.73157933  0.52212567  0.23242225  1.0
  Zn  Zn71  1  0.73157933  0.85545900  0.23242225  1.0
  Zn  Zn72  1  0.05352900  0.13371267  0.13428175  1.0
  Zn  Zn73  1  0.05352900  0.46704600  0.13428175  1.0
  Zn  Zn74  1  0.05352900  0.80037933  0.13428175  1.0
  Zn  Zn75  1  0.38686233  0.13371267  0.13428175  1.0
  Zn  Zn76  1  0.38686233  0.46704600  0.13428175  1.0
  Zn  Zn77  1  0.38686233  0.80037933  0.13428175  1.0
  Zn  Zn78  1  0.72019567  0.13371267  0.13428175  1.0
  Zn  Zn79  1  0.72019567  0.46704600  0.13428175  1.0
  Zn  Zn80  1  0.72019567  0.80037933  0.13428175  1.0
  Zn  Zn81  1  0.13736733  0.06279567  0.32114625  1.0
  Zn  Zn82  1  0.13736733  0.39612900  0.32114625  1.0
  Zn  Zn83  1  0.13736733  0.72946233  0.32114625  1.0
  Zn  Zn84  1  0.47070067  0.06279567  0.32114625  1.0
  Zn  Zn85  1  0.47070067  0.39612900  0.32114625  1.0
  Zn  Zn86  1  0.47070067  0.72946233  0.32114625  1.0
  Zn  Zn87  1  0.80403400  0.06279567  0.32114625  1.0
  Zn  Zn88  1  0.80403400  0.39612900  0.32114625  1.0
  Zn  Zn89  1  0.80403400  0.72946233  0.32114625  1.0
  Zn  Zn90  1  0.24251933  0.02790067  0.45124875  1.0
  Zn  Zn91  1  0.24251933  0.36123400  0.45124875  1.0
  Zn  Zn92  1  0.24251933  0.69456733  0.45124875  1.0
  Zn  Zn93  1  0.57585267  0.02790067  0.45124875  1.0
  Zn  Zn94  1  0.57585267  0.36123400  0.45124875  1.0
  Zn  Zn95  1  0.57585267  0.69456733  0.45124875  1.0
  Zn  Zn96  1  0.90918600  0.02790067  0.45124875  1.0
  Zn  Zn97  1  0.90918600  0.36123400  0.45124875  1.0
  Zn  Zn98  1  0.90918600  0.69456733  0.45124875  1.0
  Zn  Zn99  1  0.02212567  0.23157933  0.00585925  1.0
  Zn  Zn100  1  0.02212567  0.56491267  0.00585925  1.0
  Zn  Zn101  1  0.02212567  0.89824600  0.00585925  1.0
  Zn  Zn102  1  0.35545900  0.23157933  0.00585925  1.0
  Zn  Zn103  1  0.35545900  0.56491267  0.00585925  1.0
  Zn  Zn104  1  0.35545900  0.89824600  0.00585925  1.0
  Zn  Zn105  1  0.68879233  0.23157933  0.00585925  1.0
  Zn  Zn106  1  0.68879233  0.56491267  0.00585925  1.0
  Zn  Zn107  1  0.68879233  0.89824600  0.00585925  1.0
  Zn  Zn108  1  0.00000000  0.00000000  0.24414075  1.0
  Zn  Zn109  1  0.00000000  0.33333333  0.24414075  1.0
  Zn  Zn110  1  0.00000000  0.66666667  0.24414075  1.0
  Zn  Zn111  1  0.33333333  0.00000000  0.24414075  1.0
  Zn  Zn112  1  0.33333333  0.33333333  0.24414075  1.0
  Zn  Zn113  1  0.33333333  0.66666667  0.24414075  1.0
  Zn  Zn114  1  0.66666667  0.00000000  0.24414075  1.0
  Zn  Zn115  1  0.66666667  0.33333333  0.24414075  1.0
  Zn  Zn116  1  0.66666667  0.66666667  0.24414075  1.0
  Zn  Zn117  1  0.27095767  0.14738067  0.07281275  1.0
  Zn  Zn118  1  0.27095767  0.48071400  0.07281275  1.0
  Zn  Zn119  1  0.27095767  0.81404733  0.07281275  1.0
  Zn  Zn120  1  0.60429100  0.14738067  0.07281275  1.0
  Zn  Zn121  1  0.60429100  0.48071400  0.07281275  1.0
  Zn  Zn122  1  0.60429100  0.81404733  0.07281275  1.0
  Zn  Zn123  1  0.93762433  0.14738067  0.07281275  1.0
  Zn  Zn124  1  0.93762433  0.48071400  0.07281275  1.0
  Zn  Zn125  1  0.93762433  0.81404733  0.07281275  1.0
  Zn  Zn126  1  0.07050133  0.18973833  0.09823275  1.0
  Zn  Zn127  1  0.07050133  0.52307167  0.09823275  1.0
  Zn  Zn128  1  0.07050133  0.85640500  0.09823275  1.0
  Zn  Zn129  1  0.40383467  0.18973833  0.09823275  1.0
  Zn  Zn130  1  0.40383467  0.52307167  0.09823275  1.0
  Zn  Zn131  1  0.40383467  0.85640500  0.09823275  1.0
  Zn  Zn132  1  0.73716800  0.18973833  0.09823275  1.0
  Zn  Zn133  1  0.73716800  0.52307167  0.09823275  1.0
  Zn  Zn134  1  0.73716800  0.85640500  0.09823275  1.0
  Zn  Zn135  1  0.29514733  0.21163833  0.04000925  1.0
  Zn  Zn136  1  0.29514733  0.54497167  0.04000925  1.0
  Zn  Zn137  1  0.29514733  0.87830500  0.04000925  1.0
  Zn  Zn138  1  0.62848067  0.21163833  0.04000925  1.0
  Zn  Zn139  1  0.62848067  0.54497167  0.04000925  1.0
  Zn  Zn140  1  0.62848067  0.87830500  0.04000925  1.0
  Zn  Zn141  1  0.96181400  0.21163833  0.04000925  1.0
  Zn  Zn142  1  0.96181400  0.54497167  0.04000925  1.0
  Zn  Zn143  1  0.96181400  0.87830500  0.04000925  1.0
  Zn  Zn144  1  0.01148433  0.01148433  0.20594275  1.0
  Zn  Zn145  1  0.01148433  0.34481767  0.20594275  1.0
  Zn  Zn146  1  0.01148433  0.67815100  0.20594275  1.0
  Zn  Zn147  1  0.34481767  0.01148433  0.20594275  1.0
  Zn  Zn148  1  0.34481767  0.34481767  0.20594275  1.0
  Zn  Zn149  1  0.34481767  0.67815100  0.20594275  1.0
  Zn  Zn150  1  0.67815100  0.01148433  0.20594275  1.0
  Zn  Zn151  1  0.67815100  0.34481767  0.20594275  1.0
  Zn  Zn152  1  0.67815100  0.67815100  0.20594275  1.0
  Zn  Zn153  1  0.07491067  0.19344667  0.04491725  1.0
  Zn  Zn154  1  0.07491067  0.52678000  0.04491725  1.0
  Zn  Zn155  1  0.07491067  0.86011333  0.04491725  1.0
  Zn  Zn156  1  0.40824400  0.19344667  0.04491725  1.0
  Zn  Zn157  1  0.40824400  0.52678000  0.04491725  1.0
  Zn  Zn158  1  0.40824400  0.86011333  0.04491725  1.0
  Zn  Zn159  1  0.74157733  0.19344667  0.04491725  1.0
  Zn  Zn160  1  0.74157733  0.52678000  0.04491725  1.0
  Zn  Zn161  1  0.74157733  0.86011333  0.04491725  1.0
  Zn  Zn162  1  0.24499133  0.02880933  0.38271975  1.0
  Zn  Zn163  1  0.24499133  0.36214267  0.38271975  1.0
  Zn  Zn164  1  0.24499133  0.69547600  0.38271975  1.0
  Zn  Zn165  1  0.57832467  0.02880933  0.38271975  1.0
  Zn  Zn166  1  0.57832467  0.36214267  0.38271975  1.0
  Zn  Zn167  1  0.57832467  0.69547600  0.38271975  1.0
  Zn  Zn168  1  0.91165800  0.02880933  0.38271975  1.0
  Zn  Zn169  1  0.91165800  0.36214267  0.38271975  1.0
  Zn  Zn170  1  0.91165800  0.69547600  0.38271975  1.0
  Zn  Zn171  1  0.30543267  0.09081400  0.03703275  1.0
  Zn  Zn172  1  0.30543267  0.42414733  0.03703275  1.0
  Zn  Zn173  1  0.30543267  0.75748067  0.03703275  1.0
  Zn  Zn174  1  0.63876600  0.09081400  0.03703275  1.0
  Zn  Zn175  1  0.63876600  0.42414733  0.03703275  1.0
  Zn  Zn176  1  0.63876600  0.75748067  0.03703275  1.0
  Zn  Zn177  1  0.97209933  0.09081400  0.03703275  1.0
  Zn  Zn178  1  0.97209933  0.42414733  0.03703275  1.0
  Zn  Zn179  1  0.97209933  0.75748067  0.03703275  1.0
  Zn  Zn180  1  0.10175400  0.31120767  0.48242225  1.0
  Zn  Zn181  1  0.10175400  0.64454100  0.48242225  1.0
  Zn  Zn182  1  0.10175400  0.97787433  0.48242225  1.0
  Zn  Zn183  1  0.43508733  0.31120767  0.48242225  1.0
  Zn  Zn184  1  0.43508733  0.64454100  0.48242225  1.0
  Zn  Zn185  1  0.43508733  0.97787433  0.48242225  1.0
  Zn  Zn186  1  0.76842067  0.31120767  0.48242225  1.0
  Zn  Zn187  1  0.76842067  0.64454100  0.48242225  1.0
  Zn  Zn188  1  0.76842067  0.97787433  0.48242225  1.0
  Zn  Zn189  1  0.14989367  0.14989367  0.26213675  1.0
  Zn  Zn190  1  0.14989367  0.48322700  0.26213675  1.0
  Zn  Zn191  1  0.14989367  0.81656033  0.26213675  1.0
  Zn  Zn192  1  0.48322700  0.14989367  0.26213675  1.0
  Zn  Zn193  1  0.48322700  0.48322700  0.26213675  1.0
  Zn  Zn194  1  0.48322700  0.81656033  0.26213675  1.0
  Zn  Zn195  1  0.81656033  0.14989367  0.26213675  1.0
  Zn  Zn196  1  0.81656033  0.48322700  0.26213675  1.0
  Zn  Zn197  1  0.81656033  0.81656033  0.26213675  1.0
  Zn  Zn198  1  0.01603600  0.01603600  0.32094675  1.0
  Zn  Zn199  1  0.01603600  0.34936933  0.32094675  1.0
  Zn  Zn200  1  0.01603600  0.68270267  0.32094675  1.0
  Zn  Zn201  1  0.34936933  0.01603600  0.32094675  1.0
  Zn  Zn202  1  0.34936933  0.34936933  0.32094675  1.0
  Zn  Zn203  1  0.34936933  0.68270267  0.32094675  1.0
  Zn  Zn204  1  0.68270267  0.01603600  0.32094675  1.0
  Zn  Zn205  1  0.68270267  0.34936933  0.32094675  1.0
  Zn  Zn206  1  0.68270267  0.68270267  0.32094675  1.0
  Zn  Zn207  1  0.13876600  0.25748067  0.20124875  1.0
  Zn  Zn208  1  0.13876600  0.59081400  0.20124875  1.0
  Zn  Zn209  1  0.13876600  0.92414733  0.20124875  1.0
  Zn  Zn210  1  0.47209933  0.25748067  0.20124875  1.0
  Zn  Zn211  1  0.47209933  0.59081400  0.20124875  1.0
  Zn  Zn212  1  0.47209933  0.92414733  0.20124875  1.0
  Zn  Zn213  1  0.80543267  0.25748067  0.20124875  1.0
  Zn  Zn214  1  0.80543267  0.59081400  0.20124875  1.0
  Zn  Zn215  1  0.80543267  0.92414733  0.20124875  1.0
  Zn  Zn216  1  0.17980633  0.17980633  0.10821975  1.0
  Zn  Zn217  1  0.17980633  0.51313967  0.10821975  1.0
  Zn  Zn218  1  0.17980633  0.84647300  0.10821975  1.0
  Zn  Zn219  1  0.51313967  0.17980633  0.10821975  1.0
  Zn  Zn220  1  0.51313967  0.51313967  0.10821975  1.0
  Zn  Zn221  1  0.51313967  0.84647300  0.10821975  1.0
  Zn  Zn222  1  0.84647300  0.17980633  0.10821975  1.0
  Zn  Zn223  1  0.84647300  0.51313967  0.10821975  1.0
  Zn  Zn224  1  0.84647300  0.84647300  0.10821975  1.0
  Zn  Zn225  1  0.13988667  0.25842267  0.44336425  1.0
  Zn  Zn226  1  0.13988667  0.59175600  0.44336425  1.0
  Zn  Zn227  1  0.13988667  0.92508933  0.44336425  1.0
  Zn  Zn228  1  0.47322000  0.25842267  0.44336425  1.0
  Zn  Zn229  1  0.47322000  0.59175600  0.44336425  1.0
  Zn  Zn230  1  0.47322000  0.92508933  0.44336425  1.0
  Zn  Zn231  1  0.80655333  0.25842267  0.44336425  1.0
  Zn  Zn232  1  0.80655333  0.59175600  0.44336425  1.0
  Zn  Zn233  1  0.80655333  0.92508933  0.44336425  1.0
  Zn  Zn234  1  0.09616533  0.31026167  0.34823275  1.0
  Zn  Zn235  1  0.09616533  0.64359500  0.34823275  1.0
  Zn  Zn236  1  0.09616533  0.97692833  0.34823275  1.0
  Zn  Zn237  1  0.42949867  0.31026167  0.34823275  1.0
  Zn  Zn238  1  0.42949867  0.64359500  0.34823275  1.0
  Zn  Zn239  1  0.42949867  0.97692833  0.34823275  1.0
  Zn  Zn240  1  0.76283200  0.31026167  0.34823275  1.0
  Zn  Zn241  1  0.76283200  0.64359500  0.34823275  1.0
  Zn  Zn242  1  0.76283200  0.97692833  0.34823275  1.0
  Zn  Zn243  1  0.31656033  0.31656033  0.47614475  1.0
  Zn  Zn244  1  0.31656033  0.64989367  0.47614475  1.0
  Zn  Zn245  1  0.31656033  0.98322700  0.47614475  1.0
  Zn  Zn246  1  0.64989367  0.31656033  0.47614475  1.0
  Zn  Zn247  1  0.64989367  0.64989367  0.47614475  1.0
  Zn  Zn248  1  0.64989367  0.98322700  0.47614475  1.0
  Zn  Zn249  1  0.98322700  0.31656033  0.47614475  1.0
  Zn  Zn250  1  0.98322700  0.64989367  0.47614475  1.0
  Zn  Zn251  1  0.98322700  0.98322700  0.47614475  1.0
  Zn  Zn252  1  0.30037933  0.22019567  0.10399975  1.0
  Zn  Zn253  1  0.30037933  0.55352900  0.10399975  1.0
  Zn  Zn254  1  0.30037933  0.88686233  0.10399975  1.0
  Zn  Zn255  1  0.63371267  0.22019567  0.10399975  1.0
  Zn  Zn256  1  0.63371267  0.55352900  0.10399975  1.0
  Zn  Zn257  1  0.63371267  0.88686233  0.10399975  1.0
  Zn  Zn258  1  0.96704600  0.22019567  0.10399975  1.0
  Zn  Zn259  1  0.96704600  0.55352900  0.10399975  1.0
  Zn  Zn260  1  0.96704600  0.88686233  0.10399975  1.0
  Zn  Zn261  1  0.18595267  0.06237567  0.41546875  1.0
  Zn  Zn262  1  0.18595267  0.39570900  0.41546875  1.0
  Zn  Zn263  1  0.18595267  0.72904233  0.41546875  1.0
  Zn  Zn264  1  0.51928600  0.06237567  0.41546875  1.0
  Zn  Zn265  1  0.51928600  0.39570900  0.41546875  1.0
  Zn  Zn266  1  0.51928600  0.72904233  0.41546875  1.0
  Zn  Zn267  1  0.85261933  0.06237567  0.41546875  1.0
  Zn  Zn268  1  0.85261933  0.39570900  0.41546875  1.0
  Zn  Zn269  1  0.85261933  0.72904233  0.41546875  1.0
  Zn  Zn270  1  0.18343967  0.18343967  0.22614475  1.0
  Zn  Zn271  1  0.18343967  0.51677300  0.22614475  1.0
  Zn  Zn272  1  0.18343967  0.85010633  0.22614475  1.0
  Zn  Zn273  1  0.51677300  0.18343967  0.22614475  1.0
  Zn  Zn274  1  0.51677300  0.51677300  0.22614475  1.0
  Zn  Zn275  1  0.51677300  0.85010633  0.22614475  1.0
  Zn  Zn276  1  0.85010633  0.18343967  0.22614475  1.0
  Zn  Zn277  1  0.85010633  0.51677300  0.22614475  1.0
  Zn  Zn278  1  0.85010633  0.85010633  0.22614475  1.0
  Zn  Zn279  1  0.12169500  0.03818600  0.44827225  1.0
  Zn  Zn280  1  0.12169500  0.37151933  0.44827225  1.0
  Zn  Zn281  1  0.12169500  0.70485267  0.44827225  1.0
  Zn  Zn282  1  0.45502833  0.03818600  0.44827225  1.0
  Zn  Zn283  1  0.45502833  0.37151933  0.44827225  1.0
  Zn  Zn284  1  0.45502833  0.70485267  0.44827225  1.0
  Zn  Zn285  1  0.78836167  0.03818600  0.44827225  1.0
  Zn  Zn286  1  0.78836167  0.37151933  0.44827225  1.0
  Zn  Zn287  1  0.78836167  0.70485267  0.44827225  1.0
  Zn  Zn288  1  0.06237567  0.18595267  0.41546875  1.0
  Zn  Zn289  1  0.06237567  0.51928600  0.41546875  1.0
  Zn  Zn290  1  0.06237567  0.85261933  0.41546875  1.0
  Zn  Zn291  1  0.39570900  0.18595267  0.41546875  1.0
  Zn  Zn292  1  0.39570900  0.51928600  0.41546875  1.0
  Zn  Zn293  1  0.39570900  0.85261933  0.41546875  1.0
  Zn  Zn294  1  0.72904233  0.18595267  0.41546875  1.0
  Zn  Zn295  1  0.72904233  0.51928600  0.41546875  1.0
  Zn  Zn296  1  0.72904233  0.85261933  0.41546875  1.0
  Zn  Zn297  1  0.10614500  0.02832433  0.26006575  1.0
  Zn  Zn298  1  0.10614500  0.36165767  0.26006575  1.0
  Zn  Zn299  1  0.10614500  0.69499100  0.26006575  1.0
  Zn  Zn300  1  0.43947833  0.02832433  0.26006575  1.0
  Zn  Zn301  1  0.43947833  0.36165767  0.26006575  1.0
  Zn  Zn302  1  0.43947833  0.69499100  0.26006575  1.0
  Zn  Zn303  1  0.77281167  0.02832433  0.26006575  1.0
  Zn  Zn304  1  0.77281167  0.36165767  0.26006575  1.0
  Zn  Zn305  1  0.77281167  0.69499100  0.26006575  1.0
  Zn  Zn306  1  0.27281167  0.19499100  0.47821575  1.0
  Zn  Zn307  1  0.27281167  0.52832433  0.47821575  1.0
  Zn  Zn308  1  0.27281167  0.86165767  0.47821575  1.0
  Zn  Zn309  1  0.60614500  0.19499100  0.47821575  1.0
  Zn  Zn310  1  0.60614500  0.52832433  0.47821575  1.0
  Zn  Zn311  1  0.60614500  0.86165767  0.47821575  1.0
  Zn  Zn312  1  0.93947833  0.19499100  0.47821575  1.0
  Zn  Zn313  1  0.93947833  0.52832433  0.47821575  1.0
  Zn  Zn314  1  0.93947833  0.86165767  0.47821575  1.0
  Zn  Zn315  1  0.14359500  0.26283200  0.39004875  1.0
  Zn  Zn316  1  0.14359500  0.59616533  0.39004875  1.0
  Zn  Zn317  1  0.14359500  0.92949867  0.39004875  1.0
  Zn  Zn318  1  0.47692833  0.26283200  0.39004875  1.0
  Zn  Zn319  1  0.47692833  0.59616533  0.39004875  1.0
  Zn  Zn320  1  0.47692833  0.92949867  0.39004875  1.0
  Zn  Zn321  1  0.81026167  0.26283200  0.39004875  1.0
  Zn  Zn322  1  0.81026167  0.59616533  0.39004875  1.0
  Zn  Zn323  1  0.81026167  0.92949867  0.39004875  1.0
  Zn  Zn324  1  0.06279567  0.13736733  0.32114625  1.0
  Zn  Zn325  1  0.06279567  0.47070067  0.32114625  1.0
  Zn  Zn326  1  0.06279567  0.80403400  0.32114625  1.0
  Zn  Zn327  1  0.39612900  0.13736733  0.32114625  1.0
  Zn  Zn328  1  0.39612900  0.47070067  0.32114625  1.0
  Zn  Zn329  1  0.39612900  0.80403400  0.32114625  1.0
  Zn  Zn330  1  0.72946233  0.13736733  0.32114625  1.0
  Zn  Zn331  1  0.72946233  0.47070067  0.32114625  1.0
  Zn  Zn332  1  0.72946233  0.80403400  0.32114625  1.0
  Zn  Zn333  1  0.03818600  0.12169500  0.44827225  1.0
  Zn  Zn334  1  0.03818600  0.45502833  0.44827225  1.0
  Zn  Zn335  1  0.03818600  0.78836167  0.44827225  1.0
  Zn  Zn336  1  0.37151933  0.12169500  0.44827225  1.0
  Zn  Zn337  1  0.37151933  0.45502833  0.44827225  1.0
  Zn  Zn338  1  0.37151933  0.78836167  0.44827225  1.0
  Zn  Zn339  1  0.70485267  0.12169500  0.44827225  1.0
  Zn  Zn340  1  0.70485267  0.45502833  0.44827225  1.0
  Zn  Zn341  1  0.70485267  0.78836167  0.44827225  1.0
  Zn  Zn342  1  0.16231733  0.16231733  0.14885125  1.0
  Zn  Zn343  1  0.16231733  0.49565067  0.14885125  1.0
  Zn  Zn344  1  0.16231733  0.82898400  0.14885125  1.0
  Zn  Zn345  1  0.49565067  0.16231733  0.14885125  1.0
  Zn  Zn346  1  0.49565067  0.49565067  0.14885125  1.0
  Zn  Zn347  1  0.49565067  0.82898400  0.14885125  1.0
  Zn  Zn348  1  0.82898400  0.16231733  0.14885125  1.0
  Zn  Zn349  1  0.82898400  0.49565067  0.14885125  1.0
  Zn  Zn350  1  0.82898400  0.82898400  0.14885125  1.0
  Zn  Zn351  1  0.27980433  0.19962067  0.35399975  1.0
  Zn  Zn352  1  0.27980433  0.53295400  0.35399975  1.0
  Zn  Zn353  1  0.27980433  0.86628733  0.35399975  1.0
  Zn  Zn354  1  0.61313767  0.19962067  0.35399975  1.0
  Zn  Zn355  1  0.61313767  0.53295400  0.35399975  1.0
  Zn  Zn356  1  0.61313767  0.86628733  0.35399975  1.0
  Zn  Zn357  1  0.94647100  0.19962067  0.35399975  1.0
  Zn  Zn358  1  0.94647100  0.53295400  0.35399975  1.0
  Zn  Zn359  1  0.94647100  0.86628733  0.35399975  1.0
  Zn  Zn360  1  0.13834233  0.06052167  0.01006575  1.0
  Zn  Zn361  1  0.13834233  0.39385500  0.01006575  1.0
  Zn  Zn362  1  0.13834233  0.72718833  0.01006575  1.0
  Zn  Zn363  1  0.47167567  0.06052167  0.01006575  1.0
  Zn  Zn364  1  0.47167567  0.39385500  0.01006575  1.0
  Zn  Zn365  1  0.47167567  0.72718833  0.01006575  1.0
  Zn  Zn366  1  0.80500900  0.06052167  0.01006575  1.0
  Zn  Zn367  1  0.80500900  0.39385500  0.01006575  1.0
  Zn  Zn368  1  0.80500900  0.72718833  0.01006575  1.0
  Zn  Zn369  1  0.01928600  0.22904233  0.32281275  1.0
  Zn  Zn370  1  0.01928600  0.56237567  0.32281275  1.0
  Zn  Zn371  1  0.01928600  0.89570900  0.32281275  1.0
  Zn  Zn372  1  0.35261933  0.22904233  0.32281275  1.0
  Zn  Zn373  1  0.35261933  0.56237567  0.32281275  1.0
  Zn  Zn374  1  0.35261933  0.89570900  0.32281275  1.0
  Zn  Zn375  1  0.68595267  0.22904233  0.32281275  1.0
  Zn  Zn376  1  0.68595267  0.56237567  0.32281275  1.0
  Zn  Zn377  1  0.68595267  0.89570900  0.32281275  1.0
  Zn  Zn378  1  0.02880933  0.24499133  0.38271975  1.0
  Zn  Zn379  1  0.02880933  0.57832467  0.38271975  1.0
  Zn  Zn380  1  0.02880933  0.91165800  0.38271975  1.0
  Zn  Zn381  1  0.36214267  0.24499133  0.38271975  1.0
  Zn  Zn382  1  0.36214267  0.57832467  0.38271975  1.0
  Zn  Zn383  1  0.36214267  0.91165800  0.38271975  1.0
  Zn  Zn384  1  0.69547600  0.24499133  0.38271975  1.0
  Zn  Zn385  1  0.69547600  0.57832467  0.38271975  1.0
  Zn  Zn386  1  0.69547600  0.91165800  0.38271975  1.0
  Zn  Zn387  1  0.22718833  0.30500900  0.22821575  1.0
  Zn  Zn388  1  0.22718833  0.63834233  0.22821575  1.0
  Zn  Zn389  1  0.22718833  0.97167567  0.22821575  1.0
  Zn  Zn390  1  0.56052167  0.30500900  0.22821575  1.0
  Zn  Zn391  1  0.56052167  0.63834233  0.22821575  1.0
  Zn  Zn392  1  0.56052167  0.97167567  0.22821575  1.0
  Zn  Zn393  1  0.89385500  0.30500900  0.22821575  1.0
  Zn  Zn394  1  0.89385500  0.63834233  0.22821575  1.0
  Zn  Zn395  1  0.89385500  0.97167567  0.22821575  1.0
  Zn  Zn396  1  0.07585267  0.19456733  0.28703275  1.0
  Zn  Zn397  1  0.07585267  0.52790067  0.28703275  1.0
  Zn  Zn398  1  0.07585267  0.86123400  0.28703275  1.0
  Zn  Zn399  1  0.40918600  0.19456733  0.28703275  1.0
  Zn  Zn400  1  0.40918600  0.52790067  0.28703275  1.0
  Zn  Zn401  1  0.40918600  0.86123400  0.28703275  1.0
  Zn  Zn402  1  0.74251933  0.19456733  0.28703275  1.0
  Zn  Zn403  1  0.74251933  0.52790067  0.28703275  1.0
  Zn  Zn404  1  0.74251933  0.86123400  0.28703275  1.0
  Zn  Zn405  1  0.26842067  0.14454100  0.25585925  1.0
  Zn  Zn406  1  0.26842067  0.47787433  0.25585925  1.0
  Zn  Zn407  1  0.26842067  0.81120767  0.25585925  1.0
  Zn  Zn408  1  0.60175400  0.14454100  0.25585925  1.0
  Zn  Zn409  1  0.60175400  0.47787433  0.25585925  1.0
  Zn  Zn410  1  0.60175400  0.81120767  0.25585925  1.0
  Zn  Zn411  1  0.93508733  0.14454100  0.25585925  1.0
  Zn  Zn412  1  0.93508733  0.47787433  0.25585925  1.0
  Zn  Zn413  1  0.93508733  0.81120767  0.25585925  1.0
  Zn  Zn414  1  0.13371267  0.05352900  0.13428175  1.0
  Zn  Zn415  1  0.13371267  0.38686233  0.13428175  1.0
  Zn  Zn416  1  0.13371267  0.72019567  0.13428175  1.0
  Zn  Zn417  1  0.46704600  0.05352900  0.13428175  1.0
  Zn  Zn418  1  0.46704600  0.38686233  0.13428175  1.0
  Zn  Zn419  1  0.46704600  0.72019567  0.13428175  1.0
  Zn  Zn420  1  0.80037933  0.05352900  0.13428175  1.0
  Zn  Zn421  1  0.80037933  0.38686233  0.13428175  1.0
  Zn  Zn422  1  0.80037933  0.72019567  0.13428175  1.0
  Zn  Zn423  1  0.15063067  0.15063067  0.07094675  1.0
  Zn  Zn424  1  0.15063067  0.48396400  0.07094675  1.0
  Zn  Zn425  1  0.15063067  0.81729733  0.07094675  1.0
  Zn  Zn426  1  0.48396400  0.15063067  0.07094675  1.0
  Zn  Zn427  1  0.48396400  0.48396400  0.07094675  1.0
  Zn  Zn428  1  0.48396400  0.81729733  0.07094675  1.0
  Zn  Zn429  1  0.81729733  0.15063067  0.07094675  1.0
  Zn  Zn430  1  0.81729733  0.48396400  0.07094675  1.0
  Zn  Zn431  1  0.81729733  0.81729733  0.07094675  1.0
  Zn  Zn432  1  0.15352700  0.15352700  0.38006175  1.0
  Zn  Zn433  1  0.15352700  0.48686033  0.38006175  1.0
  Zn  Zn434  1  0.15352700  0.82019367  0.38006175  1.0
  Zn  Zn435  1  0.48686033  0.15352700  0.38006175  1.0
  Zn  Zn436  1  0.48686033  0.48686033  0.38006175  1.0
  Zn  Zn437  1  0.48686033  0.82019367  0.38006175  1.0
  Zn  Zn438  1  0.82019367  0.15352700  0.38006175  1.0
  Zn  Zn439  1  0.82019367  0.48686033  0.38006175  1.0
  Zn  Zn440  1  0.82019367  0.82019367  0.38006175  1.0
  Zn  Zn441  1  0.07832467  0.19547600  0.35556175  1.0
  Zn  Zn442  1  0.07832467  0.52880933  0.35556175  1.0
  Zn  Zn443  1  0.07832467  0.86214267  0.35556175  1.0
  Zn  Zn444  1  0.41165800  0.19547600  0.35556175  1.0
  Zn  Zn445  1  0.41165800  0.52880933  0.35556175  1.0
  Zn  Zn446  1  0.41165800  0.86214267  0.35556175  1.0
  Zn  Zn447  1  0.74499133  0.19547600  0.35556175  1.0
  Zn  Zn448  1  0.74499133  0.52880933  0.35556175  1.0
  Zn  Zn449  1  0.74499133  0.86214267  0.35556175  1.0
  Zn  Zn450  1  0.30403400  0.22946233  0.41713525  1.0
  Zn  Zn451  1  0.30403400  0.56279567  0.41713525  1.0
  Zn  Zn452  1  0.30403400  0.89612900  0.41713525  1.0
  Zn  Zn453  1  0.63736733  0.22946233  0.41713525  1.0
  Zn  Zn454  1  0.63736733  0.56279567  0.41713525  1.0
  Zn  Zn455  1  0.63736733  0.89612900  0.41713525  1.0
  Zn  Zn456  1  0.97070067  0.22946233  0.41713525  1.0
  Zn  Zn457  1  0.97070067  0.56279567  0.41713525  1.0
  Zn  Zn458  1  0.97070067  0.89612900  0.41713525  1.0
  Zn  Zn459  1  0.25842267  0.13988667  0.44336425  1.0
  Zn  Zn460  1  0.25842267  0.47322000  0.44336425  1.0
  Zn  Zn461  1  0.25842267  0.80655333  0.44336425  1.0
  Zn  Zn462  1  0.59175600  0.13988667  0.44336425  1.0
  Zn  Zn463  1  0.59175600  0.47322000  0.44336425  1.0
  Zn  Zn464  1  0.59175600  0.80655333  0.44336425  1.0
  Zn  Zn465  1  0.92508933  0.13988667  0.44336425  1.0
  Zn  Zn466  1  0.92508933  0.47322000  0.44336425  1.0
  Zn  Zn467  1  0.92508933  0.80655333  0.44336425  1.0
  Zn  Zn468  1  0.00434933  0.00434933  0.39885125  1.0
  Zn  Zn469  1  0.00434933  0.33768267  0.39885125  1.0
  Zn  Zn470  1  0.00434933  0.67101600  0.39885125  1.0
  Zn  Zn471  1  0.33768267  0.00434933  0.39885125  1.0
  Zn  Zn472  1  0.33768267  0.33768267  0.39885125  1.0
  Zn  Zn473  1  0.33768267  0.67101600  0.39885125  1.0
  Zn  Zn474  1  0.67101600  0.00434933  0.39885125  1.0
  Zn  Zn475  1  0.67101600  0.33768267  0.39885125  1.0
  Zn  Zn476  1  0.67101600  0.67101600  0.39885125  1.0
  Zn  Zn477  1  0.19456733  0.07585267  0.28703275  1.0
  Zn  Zn478  1  0.19456733  0.40918600  0.28703275  1.0
  Zn  Zn479  1  0.19456733  0.74251933  0.28703275  1.0
  Zn  Zn480  1  0.52790067  0.07585267  0.28703275  1.0
  Zn  Zn481  1  0.52790067  0.40918600  0.28703275  1.0
  Zn  Zn482  1  0.52790067  0.74251933  0.28703275  1.0
  Zn  Zn483  1  0.86123400  0.07585267  0.28703275  1.0
  Zn  Zn484  1  0.86123400  0.40918600  0.28703275  1.0
  Zn  Zn485  1  0.86123400  0.74251933  0.28703275  1.0
  Zn  Zn486  1  0.22904233  0.01928600  0.32281275  1.0
  Zn  Zn487  1  0.22904233  0.35261933  0.32281275  1.0
  Zn  Zn488  1  0.22904233  0.68595267  0.32281275  1.0
  Zn  Zn489  1  0.56237567  0.01928600  0.32281275  1.0
  Zn  Zn490  1  0.56237567  0.35261933  0.32281275  1.0
  Zn  Zn491  1  0.56237567  0.68595267  0.32281275  1.0
  Zn  Zn492  1  0.89570900  0.01928600  0.32281275  1.0
  Zn  Zn493  1  0.89570900  0.35261933  0.32281275  1.0
  Zn  Zn494  1  0.89570900  0.68595267  0.32281275  1.0
  Zn  Zn495  1  0.32898400  0.32898400  0.08943025  1.0
  Zn  Zn496  1  0.32898400  0.66231733  0.08943025  1.0
  Zn  Zn497  1  0.32898400  0.99565067  0.08943025  1.0
  Zn  Zn498  1  0.66231733  0.32898400  0.08943025  1.0
  Zn  Zn499  1  0.66231733  0.66231733  0.08943025  1.0
  Zn  Zn500  1  0.66231733  0.99565067  0.08943025  1.0
  Zn  Zn501  1  0.99565067  0.32898400  0.08943025  1.0
  Zn  Zn502  1  0.99565067  0.66231733  0.08943025  1.0
  Zn  Zn503  1  0.99565067  0.99565067  0.08943025  1.0
  Zn  Zn504  1  0.22946233  0.30403400  0.41713525  1.0
  Zn  Zn505  1  0.22946233  0.63736733  0.41713525  1.0
  Zn  Zn506  1  0.22946233  0.97070067  0.41713525  1.0
  Zn  Zn507  1  0.56279567  0.30403400  0.41713525  1.0
  Zn  Zn508  1  0.56279567  0.63736733  0.41713525  1.0
  Zn  Zn509  1  0.56279567  0.97070067  0.41713525  1.0
  Zn  Zn510  1  0.89612900  0.30403400  0.41713525  1.0
  Zn  Zn511  1  0.89612900  0.63736733  0.41713525  1.0
  Zn  Zn512  1  0.89612900  0.97070067  0.41713525  1.0
  Zn  Zn513  1  0.27053767  0.19596600  0.16713525  1.0
  Zn  Zn514  1  0.27053767  0.52929933  0.16713525  1.0
  Zn  Zn515  1  0.27053767  0.86263267  0.16713525  1.0
  Zn  Zn516  1  0.60387100  0.19596600  0.16713525  1.0
  Zn  Zn517  1  0.60387100  0.52929933  0.16713525  1.0
  Zn  Zn518  1  0.60387100  0.86263267  0.16713525  1.0
  Zn  Zn519  1  0.93720433  0.19596600  0.16713525  1.0
  Zn  Zn520  1  0.93720433  0.52929933  0.16713525  1.0
  Zn  Zn521  1  0.93720433  0.86263267  0.16713525  1.0
  Zn  Zn522  1  0.10387100  0.02929933  0.07114625  1.0
  Zn  Zn523  1  0.10387100  0.36263267  0.07114625  1.0
  Zn  Zn524  1  0.10387100  0.69596600  0.07114625  1.0
  Zn  Zn525  1  0.43720433  0.02929933  0.07114625  1.0
  Zn  Zn526  1  0.43720433  0.36263267  0.07114625  1.0
  Zn  Zn527  1  0.43720433  0.69596600  0.07114625  1.0
  Zn  Zn528  1  0.77053767  0.02929933  0.07114625  1.0
  Zn  Zn529  1  0.77053767  0.36263267  0.07114625  1.0
  Zn  Zn530  1  0.77053767  0.69596600  0.07114625  1.0
  Zn  Zn531  1  0.01313967  0.01313967  0.13006175  1.0
  Zn  Zn532  1  0.01313967  0.34647300  0.13006175  1.0
  Zn  Zn533  1  0.01313967  0.67980633  0.13006175  1.0
  Zn  Zn534  1  0.34647300  0.01313967  0.13006175  1.0
  Zn  Zn535  1  0.34647300  0.34647300  0.13006175  1.0
  Zn  Zn536  1  0.34647300  0.67980633  0.13006175  1.0
  Zn  Zn537  1  0.67980633  0.01313967  0.13006175  1.0
  Zn  Zn538  1  0.67980633  0.34647300  0.13006175  1.0
  Zn  Zn539  1  0.67980633  0.67980633  0.13006175  1.0
  Zn  Zn540  1  0.19547600  0.07832467  0.35556175  1.0
  Zn  Zn541  1  0.19547600  0.41165800  0.35556175  1.0
  Zn  Zn542  1  0.19547600  0.74499133  0.35556175  1.0
  Zn  Zn543  1  0.52880933  0.07832467  0.35556175  1.0
  Zn  Zn544  1  0.52880933  0.41165800  0.35556175  1.0
  Zn  Zn545  1  0.52880933  0.74499133  0.35556175  1.0
  Zn  Zn546  1  0.86214267  0.07832467  0.35556175  1.0
  Zn  Zn547  1  0.86214267  0.41165800  0.35556175  1.0
  Zn  Zn548  1  0.86214267  0.74499133  0.35556175  1.0
  Zn  Zn549  1  0.11313767  0.03295400  0.38428175  1.0
  Zn  Zn550  1  0.11313767  0.36628733  0.38428175  1.0
  Zn  Zn551  1  0.11313767  0.69962067  0.38428175  1.0
  Zn  Zn552  1  0.44647100  0.03295400  0.38428175  1.0
  Zn  Zn553  1  0.44647100  0.36628733  0.38428175  1.0
  Zn  Zn554  1  0.44647100  0.69962067  0.38428175  1.0
  Zn  Zn555  1  0.77980433  0.03295400  0.38428175  1.0
  Zn  Zn556  1  0.77980433  0.36628733  0.38428175  1.0
  Zn  Zn557  1  0.77980433  0.69962067  0.38428175  1.0
  Zn  Zn558  1  0.31404733  0.10429100  0.16546875  1.0
  Zn  Zn559  1  0.31404733  0.43762433  0.16546875  1.0
  Zn  Zn560  1  0.31404733  0.77095767  0.16546875  1.0
  Zn  Zn561  1  0.64738067  0.10429100  0.16546875  1.0
  Zn  Zn562  1  0.64738067  0.43762433  0.16546875  1.0
  Zn  Zn563  1  0.64738067  0.77095767  0.16546875  1.0
  Zn  Zn564  1  0.98071400  0.10429100  0.16546875  1.0
  Zn  Zn565  1  0.98071400  0.43762433  0.16546875  1.0
  Zn  Zn566  1  0.98071400  0.77095767  0.16546875  1.0
  Zn  Zn567  1  0.10429100  0.31404733  0.16546875  1.0
  Zn  Zn568  1  0.10429100  0.64738067  0.16546875  1.0
  Zn  Zn569  1  0.10429100  0.98071400  0.16546875  1.0
  Zn  Zn570  1  0.43762433  0.31404733  0.16546875  1.0
  Zn  Zn571  1  0.43762433  0.64738067  0.16546875  1.0
  Zn  Zn572  1  0.43762433  0.98071400  0.16546875  1.0
  Zn  Zn573  1  0.77095767  0.31404733  0.16546875  1.0
  Zn  Zn574  1  0.77095767  0.64738067  0.16546875  1.0
  Zn  Zn575  1  0.77095767  0.98071400  0.16546875  1.0
  Zn  Zn576  1  0.32184900  0.32184900  0.28233875  1.0
  Zn  Zn577  1  0.32184900  0.65518233  0.28233875  1.0
  Zn  Zn578  1  0.32184900  0.98851567  0.28233875  1.0
  Zn  Zn579  1  0.65518233  0.32184900  0.28233875  1.0
  Zn  Zn580  1  0.65518233  0.65518233  0.28233875  1.0
  Zn  Zn581  1  0.65518233  0.98851567  0.28233875  1.0
  Zn  Zn582  1  0.98851567  0.32184900  0.28233875  1.0
  Zn  Zn583  1  0.98851567  0.65518233  0.28233875  1.0
  Zn  Zn584  1  0.98851567  0.98851567  0.28233875  1.0
  Zn  Zn585  1  0.00843667  0.00843667  0.43729275  1.0
  Zn  Zn586  1  0.00843667  0.34177000  0.43729275  1.0
  Zn  Zn587  1  0.00843667  0.67510333  0.43729275  1.0
  Zn  Zn588  1  0.34177000  0.00843667  0.43729275  1.0
  Zn  Zn589  1  0.34177000  0.34177000  0.43729275  1.0
  Zn  Zn590  1  0.34177000  0.67510333  0.43729275  1.0
  Zn  Zn591  1  0.67510333  0.00843667  0.43729275  1.0
  Zn  Zn592  1  0.67510333  0.34177000  0.43729275  1.0
  Zn  Zn593  1  0.67510333  0.67510333  0.43729275  1.0
  Zn  Zn594  1  0.18973833  0.07050133  0.09823275  1.0
  Zn  Zn595  1  0.18973833  0.40383467  0.09823275  1.0
  Zn  Zn596  1  0.18973833  0.73716800  0.09823275  1.0
  Zn  Zn597  1  0.52307167  0.07050133  0.09823275  1.0
  Zn  Zn598  1  0.52307167  0.40383467  0.09823275  1.0
  Zn  Zn599  1  0.52307167  0.73716800  0.09823275  1.0
  Zn  Zn600  1  0.85640500  0.07050133  0.09823275  1.0
  Zn  Zn601  1  0.85640500  0.40383467  0.09823275  1.0
  Zn  Zn602  1  0.85640500  0.73716800  0.09823275  1.0
  Zn  Zn603  1  0.17101600  0.17101600  0.33943025  1.0
  Zn  Zn604  1  0.17101600  0.50434933  0.33943025  1.0
  Zn  Zn605  1  0.17101600  0.83768267  0.33943025  1.0
  Zn  Zn606  1  0.50434933  0.17101600  0.33943025  1.0
  Zn  Zn607  1  0.50434933  0.50434933  0.33943025  1.0
  Zn  Zn608  1  0.50434933  0.83768267  0.33943025  1.0
  Zn  Zn609  1  0.83768267  0.17101600  0.33943025  1.0
  Zn  Zn610  1  0.83768267  0.50434933  0.33943025  1.0
  Zn  Zn611  1  0.83768267  0.83768267  0.33943025  1.0
  Zn  Zn612  1  0.26283200  0.14359500  0.39004875  1.0
  Zn  Zn613  1  0.26283200  0.47692833  0.39004875  1.0
  Zn  Zn614  1  0.26283200  0.81026167  0.39004875  1.0
  Zn  Zn615  1  0.59616533  0.14359500  0.39004875  1.0
  Zn  Zn616  1  0.59616533  0.47692833  0.39004875  1.0
  Zn  Zn617  1  0.59616533  0.81026167  0.39004875  1.0
  Zn  Zn618  1  0.92949867  0.14359500  0.39004875  1.0
  Zn  Zn619  1  0.92949867  0.47692833  0.39004875  1.0
  Zn  Zn620  1  0.92949867  0.81026167  0.39004875  1.0
  Zn  Zn621  1  0.08834200  0.30452400  0.10556175  1.0
  Zn  Zn622  1  0.08834200  0.63785733  0.10556175  1.0
  Zn  Zn623  1  0.08834200  0.97119067  0.10556175  1.0
  Zn  Zn624  1  0.42167533  0.30452400  0.10556175  1.0
  Zn  Zn625  1  0.42167533  0.63785733  0.10556175  1.0
  Zn  Zn626  1  0.42167533  0.97119067  0.10556175  1.0
  Zn  Zn627  1  0.75500867  0.30452400  0.10556175  1.0
  Zn  Zn628  1  0.75500867  0.63785733  0.10556175  1.0
  Zn  Zn629  1  0.75500867  0.97119067  0.10556175  1.0
  Zn  Zn630  1  0.01677300  0.01677300  0.01213675  1.0
  Zn  Zn631  1  0.01677300  0.35010633  0.01213675  1.0
  Zn  Zn632  1  0.01677300  0.68343967  0.01213675  1.0
  Zn  Zn633  1  0.35010633  0.01677300  0.01213675  1.0
  Zn  Zn634  1  0.35010633  0.35010633  0.01213675  1.0
  Zn  Zn635  1  0.35010633  0.68343967  0.01213675  1.0
  Zn  Zn636  1  0.68343967  0.01677300  0.01213675  1.0
  Zn  Zn637  1  0.68343967  0.35010633  0.01213675  1.0
  Zn  Zn638  1  0.68343967  0.68343967  0.01213675  1.0
  Zn  Zn639  1  0.13785733  0.25500867  0.13271975  1.0
  Zn  Zn640  1  0.13785733  0.58834200  0.13271975  1.0
  Zn  Zn641  1  0.13785733  0.92167533  0.13271975  1.0
  Zn  Zn642  1  0.47119067  0.25500867  0.13271975  1.0
  Zn  Zn643  1  0.47119067  0.58834200  0.13271975  1.0
  Zn  Zn644  1  0.47119067  0.92167533  0.13271975  1.0
  Zn  Zn645  1  0.80452400  0.25500867  0.13271975  1.0
  Zn  Zn646  1  0.80452400  0.58834200  0.13271975  1.0
  Zn  Zn647  1  0.80452400  0.92167533  0.13271975  1.0
  Zn  Zn648  1  0.04497167  0.12848067  0.19827225  1.0
  Zn  Zn649  1  0.04497167  0.46181400  0.19827225  1.0
  Zn  Zn650  1  0.04497167  0.79514733  0.19827225  1.0
  Zn  Zn651  1  0.37830500  0.12848067  0.19827225  1.0
  Zn  Zn652  1  0.37830500  0.46181400  0.19827225  1.0
  Zn  Zn653  1  0.37830500  0.79514733  0.19827225  1.0
  Zn  Zn654  1  0.71163833  0.12848067  0.19827225  1.0
  Zn  Zn655  1  0.71163833  0.46181400  0.19827225  1.0
  Zn  Zn656  1  0.71163833  0.79514733  0.19827225  1.0
  Zn  Zn657  1  0.18270267  0.18270267  0.41733475  1.0
  Zn  Zn658  1  0.18270267  0.51603600  0.41733475  1.0
  Zn  Zn659  1  0.18270267  0.84936933  0.41733475  1.0
  Zn  Zn660  1  0.51603600  0.18270267  0.41733475  1.0
  Zn  Zn661  1  0.51603600  0.51603600  0.41733475  1.0
  Zn  Zn662  1  0.51603600  0.84936933  0.41733475  1.0
  Zn  Zn663  1  0.84936933  0.18270267  0.41733475  1.0
  Zn  Zn664  1  0.84936933  0.51603600  0.41733475  1.0
  Zn  Zn665  1  0.84936933  0.84936933  0.41733475  1.0
  Zn  Zn666  1  0.02307167  0.23716800  0.14004875  1.0
  Zn  Zn667  1  0.02307167  0.57050133  0.14004875  1.0
  Zn  Zn668  1  0.02307167  0.90383467  0.14004875  1.0
  Zn  Zn669  1  0.35640500  0.23716800  0.14004875  1.0
  Zn  Zn670  1  0.35640500  0.57050133  0.14004875  1.0
  Zn  Zn671  1  0.35640500  0.90383467  0.14004875  1.0
  Zn  Zn672  1  0.68973833  0.23716800  0.14004875  1.0
  Zn  Zn673  1  0.68973833  0.57050133  0.14004875  1.0
  Zn  Zn674  1  0.68973833  0.90383467  0.14004875  1.0
  Zn  Zn675  1  0.12848067  0.04497167  0.19827225  1.0
  Zn  Zn676  1  0.12848067  0.37830500  0.19827225  1.0
  Zn  Zn677  1  0.12848067  0.71163833  0.19827225  1.0
  Zn  Zn678  1  0.46181400  0.04497167  0.19827225  1.0
  Zn  Zn679  1  0.46181400  0.37830500  0.19827225  1.0
  Zn  Zn680  1  0.46181400  0.71163833  0.19827225  1.0
  Zn  Zn681  1  0.79514733  0.04497167  0.19827225  1.0
  Zn  Zn682  1  0.79514733  0.37830500  0.19827225  1.0
  Zn  Zn683  1  0.79514733  0.71163833  0.19827225  1.0
  Zn  Zn684  1  0.02832433  0.10614500  0.26006575  1.0
  Zn  Zn685  1  0.02832433  0.43947833  0.26006575  1.0
  Zn  Zn686  1  0.02832433  0.77281167  0.26006575  1.0
  Zn  Zn687  1  0.36165767  0.10614500  0.26006575  1.0
  Zn  Zn688  1  0.36165767  0.43947833  0.26006575  1.0
  Zn  Zn689  1  0.36165767  0.77281167  0.26006575  1.0
  Zn  Zn690  1  0.69499100  0.10614500  0.26006575  1.0
  Zn  Zn691  1  0.69499100  0.43947833  0.26006575  1.0
  Zn  Zn692  1  0.69499100  0.77281167  0.26006575  1.0
  Zn  Zn693  1  0.30655333  0.09175600  0.29491725  1.0
  Zn  Zn694  1  0.30655333  0.42508933  0.29491725  1.0
  Zn  Zn695  1  0.30655333  0.75842267  0.29491725  1.0
  Zn  Zn696  1  0.63988667  0.09175600  0.29491725  1.0
  Zn  Zn697  1  0.63988667  0.42508933  0.29491725  1.0
  Zn  Zn698  1  0.63988667  0.75842267  0.29491725  1.0
  Zn  Zn699  1  0.97322000  0.09175600  0.29491725  1.0
  Zn  Zn700  1  0.97322000  0.42508933  0.29491725  1.0
  Zn  Zn701  1  0.97322000  0.75842267  0.29491725  1.0
  Zn  Zn702  1  0.23157933  0.02212567  0.00585925  1.0
  Zn  Zn703  1  0.23157933  0.35545900  0.00585925  1.0
  Zn  Zn704  1  0.23157933  0.68879233  0.00585925  1.0
  Zn  Zn705  1  0.56491267  0.02212567  0.00585925  1.0
  Zn  Zn706  1  0.56491267  0.35545900  0.00585925  1.0
  Zn  Zn707  1  0.56491267  0.68879233  0.00585925  1.0
  Zn  Zn708  1  0.89824600  0.02212567  0.00585925  1.0
  Zn  Zn709  1  0.89824600  0.35545900  0.00585925  1.0
  Zn  Zn710  1  0.89824600  0.68879233  0.00585925  1.0
  Zn  Zn711  1  0.24157733  0.02678000  0.19336425  1.0
  Zn  Zn712  1  0.24157733  0.36011333  0.19336425  1.0
  Zn  Zn713  1  0.24157733  0.69344667  0.19336425  1.0
  Zn  Zn714  1  0.57491067  0.02678000  0.19336425  1.0
  Zn  Zn715  1  0.57491067  0.36011333  0.19336425  1.0
  Zn  Zn716  1  0.57491067  0.69344667  0.19336425  1.0
  Zn  Zn717  1  0.90824400  0.02678000  0.19336425  1.0
  Zn  Zn718  1  0.90824400  0.36011333  0.19336425  1.0
  Zn  Zn719  1  0.90824400  0.69344667  0.19336425  1.0
  Zn  Zn720  1  0.19344667  0.07491067  0.04491725  1.0
  Zn  Zn721  1  0.19344667  0.40824400  0.04491725  1.0
  Zn  Zn722  1  0.19344667  0.74157733  0.04491725  1.0
  Zn  Zn723  1  0.52678000  0.07491067  0.04491725  1.0
  Zn  Zn724  1  0.52678000  0.40824400  0.04491725  1.0
  Zn  Zn725  1  0.52678000  0.74157733  0.04491725  1.0
  Zn  Zn726  1  0.86011333  0.07491067  0.04491725  1.0
  Zn  Zn727  1  0.86011333  0.40824400  0.04491725  1.0
  Zn  Zn728  1  0.86011333  0.74157733  0.04491725  1.0
  Zn  Zn729  1  0.30500900  0.22718833  0.22821575  1.0
  Zn  Zn730  1  0.30500900  0.56052167  0.22821575  1.0
  Zn  Zn731  1  0.30500900  0.89385500  0.22821575  1.0
  Zn  Zn732  1  0.63834233  0.22718833  0.22821575  1.0
  Zn  Zn733  1  0.63834233  0.56052167  0.22821575  1.0
  Zn  Zn734  1  0.63834233  0.89385500  0.22821575  1.0
  Zn  Zn735  1  0.97167567  0.22718833  0.22821575  1.0
  Zn  Zn736  1  0.97167567  0.56052167  0.22821575  1.0
  Zn  Zn737  1  0.97167567  0.89385500  0.22821575  1.0
  Zn  Zn738  1  0.15518233  0.15518233  0.45594275  1.0
  Zn  Zn739  1  0.15518233  0.48851567  0.45594275  1.0
  Zn  Zn740  1  0.15518233  0.82184900  0.45594275  1.0
  Zn  Zn741  1  0.48851567  0.15518233  0.45594275  1.0
  Zn  Zn742  1  0.48851567  0.48851567  0.45594275  1.0
  Zn  Zn743  1  0.48851567  0.82184900  0.45594275  1.0
  Zn  Zn744  1  0.82184900  0.15518233  0.45594275  1.0
  Zn  Zn745  1  0.82184900  0.48851567  0.45594275  1.0
  Zn  Zn746  1  0.82184900  0.82184900  0.45594275  1.0
  Zn  Zn747  1  0.23716800  0.02307167  0.14004875  1.0
  Zn  Zn748  1  0.23716800  0.35640500  0.14004875  1.0
  Zn  Zn749  1  0.23716800  0.68973833  0.14004875  1.0
  Zn  Zn750  1  0.57050133  0.02307167  0.14004875  1.0
  Zn  Zn751  1  0.57050133  0.35640500  0.14004875  1.0
  Zn  Zn752  1  0.57050133  0.68973833  0.14004875  1.0
  Zn  Zn753  1  0.90383467  0.02307167  0.14004875  1.0
  Zn  Zn754  1  0.90383467  0.35640500  0.14004875  1.0
  Zn  Zn755  1  0.90383467  0.68973833  0.14004875  1.0
  Zn  Zn756  1  0.14454100  0.26842067  0.25585925  1.0
  Zn  Zn757  1  0.14454100  0.60175400  0.25585925  1.0
  Zn  Zn758  1  0.14454100  0.93508733  0.25585925  1.0
  Zn  Zn759  1  0.47787433  0.26842067  0.25585925  1.0
  Zn  Zn760  1  0.47787433  0.60175400  0.25585925  1.0
  Zn  Zn761  1  0.47787433  0.93508733  0.25585925  1.0
  Zn  Zn762  1  0.81120767  0.26842067  0.25585925  1.0
  Zn  Zn763  1  0.81120767  0.60175400  0.25585925  1.0
  Zn  Zn764  1  0.81120767  0.93508733  0.25585925  1.0
  Zn  Zn765  1  0.28836167  0.20485267  0.29000925  1.0
  Zn  Zn766  1  0.28836167  0.53818600  0.29000925  1.0
  Zn  Zn767  1  0.28836167  0.87151933  0.29000925  1.0
  Zn  Zn768  1  0.62169500  0.20485267  0.29000925  1.0
  Zn  Zn769  1  0.62169500  0.53818600  0.29000925  1.0
  Zn  Zn770  1  0.62169500  0.87151933  0.29000925  1.0
  Zn  Zn771  1  0.95502833  0.20485267  0.29000925  1.0
  Zn  Zn772  1  0.95502833  0.53818600  0.29000925  1.0
  Zn  Zn773  1  0.95502833  0.87151933  0.29000925  1.0
  Zn  Zn774  1  0.02929933  0.10387100  0.07114625  1.0
  Zn  Zn775  1  0.02929933  0.43720433  0.07114625  1.0
  Zn  Zn776  1  0.02929933  0.77053767  0.07114625  1.0
  Zn  Zn777  1  0.36263267  0.10387100  0.07114625  1.0
  Zn  Zn778  1  0.36263267  0.43720433  0.07114625  1.0
  Zn  Zn779  1  0.36263267  0.77053767  0.07114625  1.0
  Zn  Zn780  1  0.69596600  0.10387100  0.07114625  1.0
  Zn  Zn781  1  0.69596600  0.43720433  0.07114625  1.0
  Zn  Zn782  1  0.69596600  0.77053767  0.07114625  1.0
  Zn  Zn783  1  0.20485267  0.28836167  0.29000925  1.0
  Zn  Zn784  1  0.20485267  0.62169500  0.29000925  1.0
  Zn  Zn785  1  0.20485267  0.95502833  0.29000925  1.0
  Zn  Zn786  1  0.53818600  0.28836167  0.29000925  1.0
  Zn  Zn787  1  0.53818600  0.62169500  0.29000925  1.0
  Zn  Zn788  1  0.53818600  0.95502833  0.29000925  1.0
  Zn  Zn789  1  0.87151933  0.28836167  0.29000925  1.0
  Zn  Zn790  1  0.87151933  0.62169500  0.29000925  1.0
  Zn  Zn791  1  0.87151933  0.95502833  0.29000925  1.0
  Zn  Zn792  1  0.06052167  0.13834233  0.01006575  1.0
  Zn  Zn793  1  0.06052167  0.47167567  0.01006575  1.0
  Zn  Zn794  1  0.06052167  0.80500900  0.01006575  1.0
  Zn  Zn795  1  0.39385500  0.13834233  0.01006575  1.0
  Zn  Zn796  1  0.39385500  0.47167567  0.01006575  1.0
  Zn  Zn797  1  0.39385500  0.80500900  0.01006575  1.0
  Zn  Zn798  1  0.72718833  0.13834233  0.01006575  1.0
  Zn  Zn799  1  0.72718833  0.47167567  0.01006575  1.0
  Zn  Zn800  1  0.72718833  0.80500900  0.01006575  1.0
  Zn  Zn801  1  0.17510333  0.17510333  0.30098875  1.0
  Zn  Zn802  1  0.17510333  0.50843667  0.30098875  1.0
  Zn  Zn803  1  0.17510333  0.84177000  0.30098875  1.0
  Zn  Zn804  1  0.50843667  0.17510333  0.30098875  1.0
  Zn  Zn805  1  0.50843667  0.50843667  0.30098875  1.0
  Zn  Zn806  1  0.50843667  0.84177000  0.30098875  1.0
  Zn  Zn807  1  0.84177000  0.17510333  0.30098875  1.0
  Zn  Zn808  1  0.84177000  0.50843667  0.30098875  1.0
  Zn  Zn809  1  0.84177000  0.84177000  0.30098875  1.0
  Zn  Zn810  1  0.16666667  0.16666667  0.49414075  1.0
  Zn  Zn811  1  0.16666667  0.50000000  0.49414075  1.0
  Zn  Zn812  1  0.16666667  0.83333333  0.49414075  1.0
  Zn  Zn813  1  0.50000000  0.16666667  0.49414075  1.0
  Zn  Zn814  1  0.50000000  0.50000000  0.49414075  1.0
  Zn  Zn815  1  0.50000000  0.83333333  0.49414075  1.0
  Zn  Zn816  1  0.83333333  0.16666667  0.49414075  1.0
  Zn  Zn817  1  0.83333333  0.50000000  0.49414075  1.0
  Zn  Zn818  1  0.83333333  0.83333333  0.49414075  1.0
  Zn  Zn819  1  0.22019567  0.30037933  0.10399975  1.0
  Zn  Zn820  1  0.22019567  0.63371267  0.10399975  1.0
  Zn  Zn821  1  0.22019567  0.96704600  0.10399975  1.0
  Zn  Zn822  1  0.55352900  0.30037933  0.10399975  1.0
  Zn  Zn823  1  0.55352900  0.63371267  0.10399975  1.0
  Zn  Zn824  1  0.55352900  0.96704600  0.10399975  1.0
  Zn  Zn825  1  0.88686233  0.30037933  0.10399975  1.0
  Zn  Zn826  1  0.88686233  0.63371267  0.10399975  1.0
  Zn  Zn827  1  0.88686233  0.96704600  0.10399975  1.0
  Zn  Zn828  1  0.03295400  0.11313767  0.38428175  1.0
  Zn  Zn829  1  0.03295400  0.44647100  0.38428175  1.0
  Zn  Zn830  1  0.03295400  0.77980433  0.38428175  1.0
  Zn  Zn831  1  0.36628733  0.11313767  0.38428175  1.0
  Zn  Zn832  1  0.36628733  0.44647100  0.38428175  1.0
  Zn  Zn833  1  0.36628733  0.77980433  0.38428175  1.0
  Zn  Zn834  1  0.69962067  0.11313767  0.38428175  1.0
  Zn  Zn835  1  0.69962067  0.44647100  0.38428175  1.0
  Zn  Zn836  1  0.69962067  0.77980433  0.38428175  1.0
  Zn  Zn837  1  0.09081400  0.30543267  0.03703275  1.0
  Zn  Zn838  1  0.09081400  0.63876600  0.03703275  1.0
  Zn  Zn839  1  0.09081400  0.97209933  0.03703275  1.0
  Zn  Zn840  1  0.42414733  0.30543267  0.03703275  1.0
  Zn  Zn841  1  0.42414733  0.63876600  0.03703275  1.0
  Zn  Zn842  1  0.42414733  0.97209933  0.03703275  1.0
  Zn  Zn843  1  0.75748067  0.30543267  0.03703275  1.0
  Zn  Zn844  1  0.75748067  0.63876600  0.03703275  1.0
  Zn  Zn845  1  0.75748067  0.97209933  0.03703275  1.0
  Zn  Zn846  1  0.21163833  0.29514733  0.04000925  1.0
  Zn  Zn847  1  0.21163833  0.62848067  0.04000925  1.0
  Zn  Zn848  1  0.21163833  0.96181400  0.04000925  1.0
  Zn  Zn849  1  0.54497167  0.29514733  0.04000925  1.0
  Zn  Zn850  1  0.54497167  0.62848067  0.04000925  1.0
  Zn  Zn851  1  0.54497167  0.96181400  0.04000925  1.0
  Zn  Zn852  1  0.87830500  0.29514733  0.04000925  1.0
  Zn  Zn853  1  0.87830500  0.62848067  0.04000925  1.0
  Zn  Zn854  1  0.87830500  0.96181400  0.04000925  1.0
  Zn  Zn855  1  0.25500867  0.13785733  0.13271975  1.0
  Zn  Zn856  1  0.25500867  0.47119067  0.13271975  1.0
  Zn  Zn857  1  0.25500867  0.80452400  0.13271975  1.0
  Zn  Zn858  1  0.58834200  0.13785733  0.13271975  1.0
  Zn  Zn859  1  0.58834200  0.47119067  0.13271975  1.0
  Zn  Zn860  1  0.58834200  0.80452400  0.13271975  1.0
  Zn  Zn861  1  0.92167533  0.13785733  0.13271975  1.0
  Zn  Zn862  1  0.92167533  0.47119067  0.13271975  1.0
  Zn  Zn863  1  0.92167533  0.80452400  0.13271975  1.0
  Zn  Zn864  1  0.15823000  0.15823000  0.18729275  1.0
  Zn  Zn865  1  0.15823000  0.49156333  0.18729275  1.0
  Zn  Zn866  1  0.15823000  0.82489667  0.18729275  1.0
  Zn  Zn867  1  0.49156333  0.15823000  0.18729275  1.0
  Zn  Zn868  1  0.49156333  0.49156333  0.18729275  1.0
  Zn  Zn869  1  0.49156333  0.82489667  0.18729275  1.0
  Zn  Zn870  1  0.82489667  0.15823000  0.18729275  1.0
  Zn  Zn871  1  0.82489667  0.49156333  0.18729275  1.0
  Zn  Zn872  1  0.82489667  0.82489667  0.18729275  1.0
  Zn  Zn873  1  0.14738067  0.27095767  0.07281275  1.0
  Zn  Zn874  1  0.14738067  0.60429100  0.07281275  1.0
  Zn  Zn875  1  0.14738067  0.93762433  0.07281275  1.0
  Zn  Zn876  1  0.48071400  0.27095767  0.07281275  1.0
  Zn  Zn877  1  0.48071400  0.60429100  0.07281275  1.0
  Zn  Zn878  1  0.48071400  0.93762433  0.07281275  1.0
  Zn  Zn879  1  0.81404733  0.27095767  0.07281275  1.0
  Zn  Zn880  1  0.81404733  0.60429100  0.07281275  1.0
  Zn  Zn881  1  0.81404733  0.93762433  0.07281275  1.0
  Zn  Zn882  1  0.19499100  0.27281167  0.47821575  1.0
  Zn  Zn883  1  0.19499100  0.60614500  0.47821575  1.0
  Zn  Zn884  1  0.19499100  0.93947833  0.47821575  1.0
  Zn  Zn885  1  0.52832433  0.27281167  0.47821575  1.0
  Zn  Zn886  1  0.52832433  0.60614500  0.47821575  1.0
  Zn  Zn887  1  0.52832433  0.93947833  0.47821575  1.0
  Zn  Zn888  1  0.86165767  0.27281167  0.47821575  1.0
  Zn  Zn889  1  0.86165767  0.60614500  0.47821575  1.0
  Zn  Zn890  1  0.86165767  0.93947833  0.47821575  1.0
  Zn  Zn891  1  0.02790067  0.24251933  0.45124875  1.0
  Zn  Zn892  1  0.02790067  0.57585267  0.45124875  1.0
  Zn  Zn893  1  0.02790067  0.90918600  0.45124875  1.0
  Zn  Zn894  1  0.36123400  0.24251933  0.45124875  1.0
  Zn  Zn895  1  0.36123400  0.57585267  0.45124875  1.0
  Zn  Zn896  1  0.36123400  0.90918600  0.45124875  1.0
  Zn  Zn897  1  0.69456733  0.24251933  0.45124875  1.0
  Zn  Zn898  1  0.69456733  0.57585267  0.45124875  1.0
  Zn  Zn899  1  0.69456733  0.90918600  0.45124875  1.0
  Zn  Zn900  1  0.19962067  0.27980433  0.35399975  1.0
  Zn  Zn901  1  0.19962067  0.61313767  0.35399975  1.0
  Zn  Zn902  1  0.19962067  0.94647100  0.35399975  1.0
  Zn  Zn903  1  0.53295400  0.27980433  0.35399975  1.0
  Zn  Zn904  1  0.53295400  0.61313767  0.35399975  1.0
  Zn  Zn905  1  0.53295400  0.94647100  0.35399975  1.0
  Zn  Zn906  1  0.86628733  0.27980433  0.35399975  1.0
  Zn  Zn907  1  0.86628733  0.61313767  0.35399975  1.0
  Zn  Zn908  1  0.86628733  0.94647100  0.35399975  1.0
  Zn  Zn909  1  0.25748067  0.13876600  0.20124875  1.0
  Zn  Zn910  1  0.25748067  0.47209933  0.20124875  1.0
  Zn  Zn911  1  0.25748067  0.80543267  0.20124875  1.0
  Zn  Zn912  1  0.59081400  0.13876600  0.20124875  1.0
  Zn  Zn913  1  0.59081400  0.47209933  0.20124875  1.0
  Zn  Zn914  1  0.59081400  0.80543267  0.20124875  1.0
  Zn  Zn915  1  0.92414733  0.13876600  0.20124875  1.0
  Zn  Zn916  1  0.92414733  0.47209933  0.20124875  1.0
  Zn  Zn917  1  0.92414733  0.80543267  0.20124875  1.0
  Zn  Zn918  1  0.18879233  0.06491267  0.23242225  1.0
  Zn  Zn919  1  0.18879233  0.39824600  0.23242225  1.0
  Zn  Zn920  1  0.18879233  0.73157933  0.23242225  1.0
  Zn  Zn921  1  0.52212567  0.06491267  0.23242225  1.0
  Zn  Zn922  1  0.52212567  0.39824600  0.23242225  1.0
  Zn  Zn923  1  0.52212567  0.73157933  0.23242225  1.0
  Zn  Zn924  1  0.85545900  0.06491267  0.23242225  1.0
  Zn  Zn925  1  0.85545900  0.39824600  0.23242225  1.0
  Zn  Zn926  1  0.85545900  0.73157933  0.23242225  1.0
  Zn  Zn927  1  0.31120767  0.10175400  0.48242225  1.0
  Zn  Zn928  1  0.31120767  0.43508733  0.48242225  1.0
  Zn  Zn929  1  0.31120767  0.76842067  0.48242225  1.0
  Zn  Zn930  1  0.64454100  0.10175400  0.48242225  1.0
  Zn  Zn931  1  0.64454100  0.43508733  0.48242225  1.0
  Zn  Zn932  1  0.64454100  0.76842067  0.48242225  1.0
  Zn  Zn933  1  0.97787433  0.10175400  0.48242225  1.0
  Zn  Zn934  1  0.97787433  0.43508733  0.48242225  1.0
  Zn  Zn935  1  0.97787433  0.76842067  0.48242225  1.0
  Zn  Zn936  1  0.02678000  0.24157733  0.19336425  1.0
  Zn  Zn937  1  0.02678000  0.57491067  0.19336425  1.0
  Zn  Zn938  1  0.02678000  0.90824400  0.19336425  1.0
  Zn  Zn939  1  0.36011333  0.24157733  0.19336425  1.0
  Zn  Zn940  1  0.36011333  0.57491067  0.19336425  1.0
  Zn  Zn941  1  0.36011333  0.90824400  0.19336425  1.0
  Zn  Zn942  1  0.69344667  0.24157733  0.19336425  1.0
  Zn  Zn943  1  0.69344667  0.57491067  0.19336425  1.0
  Zn  Zn944  1  0.69344667  0.90824400  0.19336425  1.0
  Zn  Zn945  1  0.19596600  0.27053767  0.16713525  1.0
  Zn  Zn946  1  0.19596600  0.60387100  0.16713525  1.0
  Zn  Zn947  1  0.19596600  0.93720433  0.16713525  1.0
  Zn  Zn948  1  0.52929933  0.27053767  0.16713525  1.0
  Zn  Zn949  1  0.52929933  0.60387100  0.16713525  1.0
  Zn  Zn950  1  0.52929933  0.93720433  0.16713525  1.0
  Zn  Zn951  1  0.86263267  0.27053767  0.16713525  1.0
  Zn  Zn952  1  0.86263267  0.60387100  0.16713525  1.0
  Zn  Zn953  1  0.86263267  0.93720433  0.16713525  1.0
  Ni  Ni954  1  0.24806100  0.24806100  0.38485225  1.0
  Ni  Ni955  1  0.24806100  0.58139433  0.38485225  1.0
  Ni  Ni956  1  0.24806100  0.91472767  0.38485225  1.0
  Ni  Ni957  1  0.58139433  0.24806100  0.38485225  1.0
  Ni  Ni958  1  0.58139433  0.58139433  0.38485225  1.0
  Ni  Ni959  1  0.58139433  0.91472767  0.38485225  1.0
  Ni  Ni960  1  0.91472767  0.24806100  0.38485225  1.0
  Ni  Ni961  1  0.91472767  0.58139433  0.38485225  1.0
  Ni  Ni962  1  0.91472767  0.91472767  0.38485225  1.0
  Ni  Ni963  1  0.24449067  0.24449067  0.07223625  1.0
  Ni  Ni964  1  0.24449067  0.57782400  0.07223625  1.0
  Ni  Ni965  1  0.24449067  0.91115733  0.07223625  1.0
  Ni  Ni966  1  0.57782400  0.24449067  0.07223625  1.0
  Ni  Ni967  1  0.57782400  0.57782400  0.07223625  1.0
  Ni  Ni968  1  0.57782400  0.91115733  0.07223625  1.0
  Ni  Ni969  1  0.91115733  0.24449067  0.07223625  1.0
  Ni  Ni970  1  0.91115733  0.57782400  0.07223625  1.0
  Ni  Ni971  1  0.91115733  0.91115733  0.07223625  1.0
  Ni  Ni972  1  0.08033333  0.19715600  0.47675675  1.0
  Ni  Ni973  1  0.08033333  0.53048933  0.47675675  1.0
  Ni  Ni974  1  0.08033333  0.86382267  0.47675675  1.0
  Ni  Ni975  1  0.41366667  0.19715600  0.47675675  1.0
  Ni  Ni976  1  0.41366667  0.53048933  0.47675675  1.0
  Ni  Ni977  1  0.41366667  0.86382267  0.47675675  1.0
  Ni  Ni978  1  0.74700000  0.19715600  0.47675675  1.0
  Ni  Ni979  1  0.74700000  0.53048933  0.47675675  1.0
  Ni  Ni980  1  0.74700000  0.86382267  0.47675675  1.0
  Ni  Ni981  1  0.25611133  0.25611133  0.00931125  1.0
  Ni  Ni982  1  0.25611133  0.58944467  0.00931125  1.0
  Ni  Ni983  1  0.25611133  0.92277800  0.00931125  1.0
  Ni  Ni984  1  0.58944467  0.25611133  0.00931125  1.0
  Ni  Ni985  1  0.58944467  0.58944467  0.00931125  1.0
  Ni  Ni986  1  0.58944467  0.92277800  0.00931125  1.0
  Ni  Ni987  1  0.92277800  0.25611133  0.00931125  1.0
  Ni  Ni988  1  0.92277800  0.58944467  0.00931125  1.0
  Ni  Ni989  1  0.92277800  0.92277800  0.00931125  1.0
  Ni  Ni990  1  0.19715600  0.08033333  0.47675675  1.0
  Ni  Ni991  1  0.19715600  0.41366667  0.47675675  1.0
  Ni  Ni992  1  0.19715600  0.74700000  0.47675675  1.0
  Ni  Ni993  1  0.53048933  0.08033333  0.47675675  1.0
  Ni  Ni994  1  0.53048933  0.41366667  0.47675675  1.0
  Ni  Ni995  1  0.53048933  0.74700000  0.47675675  1.0
  Ni  Ni996  1  0.86382267  0.08033333  0.47675675  1.0
  Ni  Ni997  1  0.86382267  0.41366667  0.47675675  1.0
  Ni  Ni998  1  0.86382267  0.74700000  0.47675675  1.0
  Ni  Ni999  1  0.30284400  0.08633333  0.22675675  1.0
  Ni  Ni1000  1  0.30284400  0.41966667  0.22675675  1.0
  Ni  Ni1001  1  0.30284400  0.75300000  0.22675675  1.0
  Ni  Ni1002  1  0.63617733  0.08633333  0.22675675  1.0
  Ni  Ni1003  1  0.63617733  0.41966667  0.22675675  1.0
  Ni  Ni1004  1  0.63617733  0.75300000  0.22675675  1.0
  Ni  Ni1005  1  0.96951067  0.08633333  0.22675675  1.0
  Ni  Ni1006  1  0.96951067  0.41966667  0.22675675  1.0
  Ni  Ni1007  1  0.96951067  0.75300000  0.22675675  1.0
  Ni  Ni1008  1  0.08463900  0.08463900  0.04033275  1.0
  Ni  Ni1009  1  0.08463900  0.41797233  0.04033275  1.0
  Ni  Ni1010  1  0.08463900  0.75130567  0.04033275  1.0
  Ni  Ni1011  1  0.41797233  0.08463900  0.04033275  1.0
  Ni  Ni1012  1  0.41797233  0.41797233  0.04033275  1.0
  Ni  Ni1013  1  0.41797233  0.75130567  0.04033275  1.0
  Ni  Ni1014  1  0.75130567  0.08463900  0.04033275  1.0
  Ni  Ni1015  1  0.75130567  0.41797233  0.04033275  1.0
  Ni  Ni1016  1  0.75130567  0.75130567  0.04033275  1.0
  Ni  Ni1017  1  0.08884267  0.08884267  0.41604525  1.0
  Ni  Ni1018  1  0.08884267  0.42217600  0.41604525  1.0
  Ni  Ni1019  1  0.08884267  0.75550933  0.41604525  1.0
  Ni  Ni1020  1  0.42217600  0.08884267  0.41604525  1.0
  Ni  Ni1021  1  0.42217600  0.42217600  0.41604525  1.0
  Ni  Ni1022  1  0.42217600  0.75550933  0.41604525  1.0
  Ni  Ni1023  1  0.75550933  0.08884267  0.41604525  1.0
  Ni  Ni1024  1  0.75550933  0.42217600  0.41604525  1.0
  Ni  Ni1025  1  0.75550933  0.75550933  0.41604525  1.0
  Ni  Ni1026  1  0.08944467  0.08944467  0.22897025  1.0
  Ni  Ni1027  1  0.08944467  0.42277800  0.22897025  1.0
  Ni  Ni1028  1  0.08944467  0.75611133  0.22897025  1.0
  Ni  Ni1029  1  0.42277800  0.08944467  0.22897025  1.0
  Ni  Ni1030  1  0.42277800  0.42277800  0.22897025  1.0
  Ni  Ni1031  1  0.42277800  0.75611133  0.22897025  1.0
  Ni  Ni1032  1  0.75611133  0.08944467  0.22897025  1.0
  Ni  Ni1033  1  0.75611133  0.42277800  0.22897025  1.0
  Ni  Ni1034  1  0.75611133  0.75611133  0.22897025  1.0
  Ni  Ni1035  1  0.08527233  0.08527233  0.10342925  1.0
  Ni  Ni1036  1  0.08527233  0.41860567  0.10342925  1.0
  Ni  Ni1037  1  0.08527233  0.75193900  0.10342925  1.0
  Ni  Ni1038  1  0.41860567  0.08527233  0.10342925  1.0
  Ni  Ni1039  1  0.41860567  0.41860567  0.10342925  1.0
  Ni  Ni1040  1  0.41860567  0.75193900  0.10342925  1.0
  Ni  Ni1041  1  0.75193900  0.08527233  0.10342925  1.0
  Ni  Ni1042  1  0.75193900  0.41860567  0.10342925  1.0
  Ni  Ni1043  1  0.75193900  0.75193900  0.10342925  1.0
  Ni  Ni1044  1  0.07722200  0.07722200  0.47897025  1.0
  Ni  Ni1045  1  0.07722200  0.41055533  0.47897025  1.0
  Ni  Ni1046  1  0.07722200  0.74388867  0.47897025  1.0
  Ni  Ni1047  1  0.41055533  0.07722200  0.47897025  1.0
  Ni  Ni1048  1  0.41055533  0.41055533  0.47897025  1.0
  Ni  Ni1049  1  0.41055533  0.74388867  0.47897025  1.0
  Ni  Ni1050  1  0.74388867  0.07722200  0.47897025  1.0
  Ni  Ni1051  1  0.74388867  0.41055533  0.47897025  1.0
  Ni  Ni1052  1  0.74388867  0.74388867  0.47897025  1.0
  Ni  Ni1053  1  0.24711833  0.03165333  0.07148225  1.0
  Ni  Ni1054  1  0.24711833  0.36498667  0.07148225  1.0
  Ni  Ni1055  1  0.24711833  0.69832000  0.07148225  1.0
  Ni  Ni1056  1  0.58045167  0.03165333  0.07148225  1.0
  Ni  Ni1057  1  0.58045167  0.36498667  0.07148225  1.0
  Ni  Ni1058  1  0.58045167  0.69832000  0.07148225  1.0
  Ni  Ni1059  1  0.91378500  0.03165333  0.07148225  1.0
  Ni  Ni1060  1  0.91378500  0.36498667  0.07148225  1.0
  Ni  Ni1061  1  0.91378500  0.69832000  0.07148225  1.0
  Ni  Ni1062  1  0.25550933  0.25550933  0.32223625  1.0
  Ni  Ni1063  1  0.25550933  0.58884267  0.32223625  1.0
  Ni  Ni1064  1  0.25550933  0.92217600  0.32223625  1.0
  Ni  Ni1065  1  0.58884267  0.25550933  0.32223625  1.0
  Ni  Ni1066  1  0.58884267  0.58884267  0.32223625  1.0
  Ni  Ni1067  1  0.58884267  0.92217600  0.32223625  1.0
  Ni  Ni1068  1  0.92217600  0.25550933  0.32223625  1.0
  Ni  Ni1069  1  0.92217600  0.58884267  0.32223625  1.0
  Ni  Ni1070  1  0.92217600  0.92217600  0.32223625  1.0
  Ni  Ni1071  1  0.30168000  0.08621500  0.41679925  1.0
  Ni  Ni1072  1  0.30168000  0.41954833  0.41679925  1.0
  Ni  Ni1073  1  0.30168000  0.75288167  0.41679925  1.0
  Ni  Ni1074  1  0.63501333  0.08621500  0.41679925  1.0
  Ni  Ni1075  1  0.63501333  0.41954833  0.41679925  1.0
  Ni  Ni1076  1  0.63501333  0.75288167  0.41679925  1.0
  Ni  Ni1077  1  0.96834667  0.08621500  0.41679925  1.0
  Ni  Ni1078  1  0.96834667  0.41954833  0.41679925  1.0
  Ni  Ni1079  1  0.96834667  0.75288167  0.41679925  1.0
  Ni  Ni1080  1  0.08139433  0.08139433  0.35342925  1.0
  Ni  Ni1081  1  0.08139433  0.41472767  0.35342925  1.0
  Ni  Ni1082  1  0.08139433  0.74806100  0.35342925  1.0
  Ni  Ni1083  1  0.41472767  0.08139433  0.35342925  1.0
  Ni  Ni1084  1  0.41472767  0.41472767  0.35342925  1.0
  Ni  Ni1085  1  0.41472767  0.74806100  0.35342925  1.0
  Ni  Ni1086  1  0.74806100  0.08139433  0.35342925  1.0
  Ni  Ni1087  1  0.74806100  0.41472767  0.35342925  1.0
  Ni  Ni1088  1  0.74806100  0.74806100  0.35342925  1.0
  Ni  Ni1089  1  0.03165333  0.24711833  0.07148225  1.0
  Ni  Ni1090  1  0.03165333  0.58045167  0.07148225  1.0
  Ni  Ni1091  1  0.03165333  0.91378500  0.07148225  1.0
  Ni  Ni1092  1  0.36498667  0.24711833  0.07148225  1.0
  Ni  Ni1093  1  0.36498667  0.58045167  0.07148225  1.0
  Ni  Ni1094  1  0.36498667  0.91378500  0.07148225  1.0
  Ni  Ni1095  1  0.69832000  0.24711833  0.07148225  1.0
  Ni  Ni1096  1  0.69832000  0.58045167  0.07148225  1.0
  Ni  Ni1097  1  0.69832000  0.91378500  0.07148225  1.0
  Ni  Ni1098  1  0.25288167  0.13501333  0.32148225  1.0
  Ni  Ni1099  1  0.25288167  0.46834667  0.32148225  1.0
  Ni  Ni1100  1  0.25288167  0.80168000  0.32148225  1.0
  Ni  Ni1101  1  0.58621500  0.13501333  0.32148225  1.0
  Ni  Ni1102  1  0.58621500  0.46834667  0.32148225  1.0
  Ni  Ni1103  1  0.58621500  0.80168000  0.32148225  1.0
  Ni  Ni1104  1  0.91954833  0.13501333  0.32148225  1.0
  Ni  Ni1105  1  0.91954833  0.46834667  0.32148225  1.0
  Ni  Ni1106  1  0.91954833  0.80168000  0.32148225  1.0
  Ni  Ni1107  1  0.24388867  0.24388867  0.25931125  1.0
  Ni  Ni1108  1  0.24388867  0.57722200  0.25931125  1.0
  Ni  Ni1109  1  0.24388867  0.91055533  0.25931125  1.0
  Ni  Ni1110  1  0.57722200  0.24388867  0.25931125  1.0
  Ni  Ni1111  1  0.57722200  0.57722200  0.25931125  1.0
  Ni  Ni1112  1  0.57722200  0.91055533  0.25931125  1.0
  Ni  Ni1113  1  0.91055533  0.24388867  0.25931125  1.0
  Ni  Ni1114  1  0.91055533  0.57722200  0.25931125  1.0
  Ni  Ni1115  1  0.91055533  0.91055533  0.25931125  1.0
  Ni  Ni1116  1  0.08633333  0.30284400  0.22675675  1.0
  Ni  Ni1117  1  0.08633333  0.63617733  0.22675675  1.0
  Ni  Ni1118  1  0.08633333  0.96951067  0.22675675  1.0
  Ni  Ni1119  1  0.41966667  0.30284400  0.22675675  1.0
  Ni  Ni1120  1  0.41966667  0.63617733  0.22675675  1.0
  Ni  Ni1121  1  0.41966667  0.96951067  0.22675675  1.0
  Ni  Ni1122  1  0.75300000  0.30284400  0.22675675  1.0
  Ni  Ni1123  1  0.75300000  0.63617733  0.22675675  1.0
  Ni  Ni1124  1  0.75300000  0.96951067  0.22675675  1.0
  Ni  Ni1125  1  0.13501333  0.25288167  0.32148225  1.0
  Ni  Ni1126  1  0.13501333  0.58621500  0.32148225  1.0
  Ni  Ni1127  1  0.13501333  0.91954833  0.32148225  1.0
  Ni  Ni1128  1  0.46834667  0.25288167  0.32148225  1.0
  Ni  Ni1129  1  0.46834667  0.58621500  0.32148225  1.0
  Ni  Ni1130  1  0.46834667  0.91954833  0.32148225  1.0
  Ni  Ni1131  1  0.80168000  0.25288167  0.32148225  1.0
  Ni  Ni1132  1  0.80168000  0.58621500  0.32148225  1.0
  Ni  Ni1133  1  0.80168000  0.91954833  0.32148225  1.0
  Ni  Ni1134  1  0.24869433  0.24869433  0.44794875  1.0
  Ni  Ni1135  1  0.24869433  0.58202767  0.44794875  1.0
  Ni  Ni1136  1  0.24869433  0.91536100  0.44794875  1.0
  Ni  Ni1137  1  0.58202767  0.24869433  0.44794875  1.0
  Ni  Ni1138  1  0.58202767  0.58202767  0.44794875  1.0
  Ni  Ni1139  1  0.58202767  0.91536100  0.44794875  1.0
  Ni  Ni1140  1  0.91536100  0.24869433  0.44794875  1.0
  Ni  Ni1141  1  0.91536100  0.58202767  0.44794875  1.0
  Ni  Ni1142  1  0.91536100  0.91536100  0.44794875  1.0
  Ni  Ni1143  1  0.03048933  0.24700000  0.26152475  1.0
  Ni  Ni1144  1  0.03048933  0.58033333  0.26152475  1.0
  Ni  Ni1145  1  0.03048933  0.91366667  0.26152475  1.0
  Ni  Ni1146  1  0.36382267  0.24700000  0.26152475  1.0
  Ni  Ni1147  1  0.36382267  0.58033333  0.26152475  1.0
  Ni  Ni1148  1  0.36382267  0.91366667  0.26152475  1.0
  Ni  Ni1149  1  0.69715600  0.24700000  0.26152475  1.0
  Ni  Ni1150  1  0.69715600  0.58033333  0.26152475  1.0
  Ni  Ni1151  1  0.69715600  0.91366667  0.26152475  1.0
  Ni  Ni1152  1  0.08621500  0.30168000  0.41679925  1.0
  Ni  Ni1153  1  0.08621500  0.63501333  0.41679925  1.0
  Ni  Ni1154  1  0.08621500  0.96834667  0.41679925  1.0
  Ni  Ni1155  1  0.41954833  0.30168000  0.41679925  1.0
  Ni  Ni1156  1  0.41954833  0.63501333  0.41679925  1.0
  Ni  Ni1157  1  0.41954833  0.96834667  0.41679925  1.0
  Ni  Ni1158  1  0.75288167  0.30168000  0.41679925  1.0
  Ni  Ni1159  1  0.75288167  0.63501333  0.41679925  1.0
  Ni  Ni1160  1  0.75288167  0.96834667  0.41679925  1.0
  Ni  Ni1161  1  0.08202767  0.08202767  0.29033275  1.0
  Ni  Ni1162  1  0.08202767  0.41536100  0.29033275  1.0
  Ni  Ni1163  1  0.08202767  0.74869433  0.29033275  1.0
  Ni  Ni1164  1  0.41536100  0.08202767  0.29033275  1.0
  Ni  Ni1165  1  0.41536100  0.41536100  0.29033275  1.0
  Ni  Ni1166  1  0.41536100  0.74869433  0.29033275  1.0
  Ni  Ni1167  1  0.74869433  0.08202767  0.29033275  1.0
  Ni  Ni1168  1  0.74869433  0.41536100  0.29033275  1.0
  Ni  Ni1169  1  0.74869433  0.74869433  0.29033275  1.0
  Ni  Ni1170  1  0.19832000  0.08045167  0.16679925  1.0
  Ni  Ni1171  1  0.19832000  0.41378500  0.16679925  1.0
  Ni  Ni1172  1  0.19832000  0.74711833  0.16679925  1.0
  Ni  Ni1173  1  0.53165333  0.08045167  0.16679925  1.0
  Ni  Ni1174  1  0.53165333  0.41378500  0.16679925  1.0
  Ni  Ni1175  1  0.53165333  0.74711833  0.16679925  1.0
  Ni  Ni1176  1  0.86498667  0.08045167  0.16679925  1.0
  Ni  Ni1177  1  0.86498667  0.41378500  0.16679925  1.0
  Ni  Ni1178  1  0.86498667  0.74711833  0.16679925  1.0
  Ni  Ni1179  1  0.13617733  0.25300000  0.01152475  1.0
  Ni  Ni1180  1  0.13617733  0.58633333  0.01152475  1.0
  Ni  Ni1181  1  0.13617733  0.91966667  0.01152475  1.0
  Ni  Ni1182  1  0.46951067  0.25300000  0.01152475  1.0
  Ni  Ni1183  1  0.46951067  0.58633333  0.01152475  1.0
  Ni  Ni1184  1  0.46951067  0.91966667  0.01152475  1.0
  Ni  Ni1185  1  0.80284400  0.25300000  0.01152475  1.0
  Ni  Ni1186  1  0.80284400  0.58633333  0.01152475  1.0
  Ni  Ni1187  1  0.80284400  0.91966667  0.01152475  1.0
  Ni  Ni1188  1  0.25193900  0.25193900  0.13485225  1.0
  Ni  Ni1189  1  0.25193900  0.58527233  0.13485225  1.0
  Ni  Ni1190  1  0.25193900  0.91860567  0.13485225  1.0
  Ni  Ni1191  1  0.58527233  0.25193900  0.13485225  1.0
  Ni  Ni1192  1  0.58527233  0.58527233  0.13485225  1.0
  Ni  Ni1193  1  0.58527233  0.91860567  0.13485225  1.0
  Ni  Ni1194  1  0.91860567  0.25193900  0.13485225  1.0
  Ni  Ni1195  1  0.91860567  0.58527233  0.13485225  1.0
  Ni  Ni1196  1  0.91860567  0.91860567  0.13485225  1.0
  Ni  Ni1197  1  0.24700000  0.03048933  0.26152475  1.0
  Ni  Ni1198  1  0.24700000  0.36382267  0.26152475  1.0
  Ni  Ni1199  1  0.24700000  0.69715600  0.26152475  1.0
  Ni  Ni1200  1  0.58033333  0.03048933  0.26152475  1.0
  Ni  Ni1201  1  0.58033333  0.36382267  0.26152475  1.0
  Ni  Ni1202  1  0.58033333  0.69715600  0.26152475  1.0
  Ni  Ni1203  1  0.91366667  0.03048933  0.26152475  1.0
  Ni  Ni1204  1  0.91366667  0.36382267  0.26152475  1.0
  Ni  Ni1205  1  0.91366667  0.69715600  0.26152475  1.0
  Ni  Ni1206  1  0.07782400  0.07782400  0.16604525  1.0
  Ni  Ni1207  1  0.07782400  0.41115733  0.16604525  1.0
  Ni  Ni1208  1  0.07782400  0.74449067  0.16604525  1.0
  Ni  Ni1209  1  0.41115733  0.07782400  0.16604525  1.0
  Ni  Ni1210  1  0.41115733  0.41115733  0.16604525  1.0
  Ni  Ni1211  1  0.41115733  0.74449067  0.16604525  1.0
  Ni  Ni1212  1  0.74449067  0.07782400  0.16604525  1.0
  Ni  Ni1213  1  0.74449067  0.41115733  0.16604525  1.0
  Ni  Ni1214  1  0.74449067  0.74449067  0.16604525  1.0
  Ni  Ni1215  1  0.08045167  0.19832000  0.16679925  1.0
  Ni  Ni1216  1  0.08045167  0.53165333  0.16679925  1.0
  Ni  Ni1217  1  0.08045167  0.86498667  0.16679925  1.0
  Ni  Ni1218  1  0.41378500  0.19832000  0.16679925  1.0
  Ni  Ni1219  1  0.41378500  0.53165333  0.16679925  1.0
  Ni  Ni1220  1  0.41378500  0.86498667  0.16679925  1.0
  Ni  Ni1221  1  0.74711833  0.19832000  0.16679925  1.0
  Ni  Ni1222  1  0.74711833  0.53165333  0.16679925  1.0
  Ni  Ni1223  1  0.74711833  0.86498667  0.16679925  1.0
  Ni  Ni1224  1  0.25130567  0.25130567  0.19794875  1.0
  Ni  Ni1225  1  0.25130567  0.58463900  0.19794875  1.0
  Ni  Ni1226  1  0.25130567  0.91797233  0.19794875  1.0
  Ni  Ni1227  1  0.58463900  0.25130567  0.19794875  1.0
  Ni  Ni1228  1  0.58463900  0.58463900  0.19794875  1.0
  Ni  Ni1229  1  0.58463900  0.91797233  0.19794875  1.0
  Ni  Ni1230  1  0.91797233  0.25130567  0.19794875  1.0
  Ni  Ni1231  1  0.91797233  0.58463900  0.19794875  1.0
  Ni  Ni1232  1  0.91797233  0.91797233  0.19794875  1.0
  Ni  Ni1233  1  0.25300000  0.13617733  0.01152475  1.0
  Ni  Ni1234  1  0.25300000  0.46951067  0.01152475  1.0
  Ni  Ni1235  1  0.25300000  0.80284400  0.01152475  1.0
  Ni  Ni1236  1  0.58633333  0.13617733  0.01152475  1.0
  Ni  Ni1237  1  0.58633333  0.46951067  0.01152475  1.0
  Ni  Ni1238  1  0.58633333  0.80284400  0.01152475  1.0
  Ni  Ni1239  1  0.91966667  0.13617733  0.01152475  1.0
  Ni  Ni1240  1  0.91966667  0.46951067  0.01152475  1.0
  Ni  Ni1241  1  0.91966667  0.80284400  0.01152475  1.0
