# generated using pymatgen
data_Zn53Ni16
_symmetry_space_group_name_H-M   'P 1'
_cell_length_a   57.91318028
_cell_length_b   88.38859431
_cell_length_c   34.20021832
_cell_angle_alpha   92.28147296
_cell_angle_beta   102.01101933
_cell_angle_gamma   101.84360186
_symmetry_Int_Tables_number   1
_chemical_formula_structural   Zn53Ni16
_chemical_formula_sum   'Zn3816 Ni1152'
_cell_volume   166964.54610724
_cell_formula_units_Z   72
loop_
 _symmetry_equiv_pos_site_id
 _symmetry_equiv_pos_as_xyz
  1  'x, y, z'
loop_
 _atom_site_type_symbol
 _atom_site_label
 _atom_site_symmetry_multiplicity
 _atom_site_fract_x
 _atom_site_fract_y
 _atom_site_fract_z
 _atom_site_occupancy
  Ni  Ni0  1  0.11415473  0.29824427  0.21857700  1.0
  Ni  Ni1  1  0.11415473  0.63157760  0.21857700  1.0
  Ni  Ni2  1  0.11415473  0.96491093  0.21857700  1.0
  Ni  Ni3  1  0.44748807  0.29824427  0.21857700  1.0
  Ni  Ni4  1  0.44748807  0.63157760  0.21857700  1.0
  Ni  Ni5  1  0.44748807  0.96491093  0.21857700  1.0
  Ni  Ni6  1  0.78082140  0.29824427  0.21857700  1.0
  Ni  Ni7  1  0.78082140  0.63157760  0.21857700  1.0
  Ni  Ni8  1  0.78082140  0.96491093  0.21857700  1.0
  Ni  Ni9  1  0.24748807  0.33157760  0.21857700  1.0
  Ni  Ni10  1  0.24748807  0.66491093  0.21857700  1.0
  Ni  Ni11  1  0.24748807  0.99824427  0.21857700  1.0
  Ni  Ni12  1  0.58082140  0.33157760  0.21857700  1.0
  Ni  Ni13  1  0.58082140  0.66491093  0.21857700  1.0
  Ni  Ni14  1  0.58082140  0.99824427  0.21857700  1.0
  Ni  Ni15  1  0.91415473  0.33157760  0.21857700  1.0
  Ni  Ni16  1  0.91415473  0.66491093  0.21857700  1.0
  Ni  Ni17  1  0.91415473  0.99824427  0.21857700  1.0
  Ni  Ni18  1  0.19823307  0.32015643  0.84380900  1.0
  Ni  Ni19  1  0.19823307  0.65348977  0.84380900  1.0
  Ni  Ni20  1  0.19823307  0.98682310  0.84380900  1.0
  Ni  Ni21  1  0.53156640  0.32015643  0.84380900  1.0
  Ni  Ni22  1  0.53156640  0.65348977  0.84380900  1.0
  Ni  Ni23  1  0.53156640  0.98682310  0.84380900  1.0
  Ni  Ni24  1  0.86489973  0.32015643  0.84380900  1.0
  Ni  Ni25  1  0.86489973  0.65348977  0.84380900  1.0
  Ni  Ni26  1  0.86489973  0.98682310  0.84380900  1.0
  Ni  Ni27  1  0.06489973  0.28682310  0.84380900  1.0
  Ni  Ni28  1  0.06489973  0.62015643  0.84380900  1.0
  Ni  Ni29  1  0.06489973  0.95348977  0.84380900  1.0
  Ni  Ni30  1  0.39823307  0.28682310  0.84380900  1.0
  Ni  Ni31  1  0.39823307  0.62015643  0.84380900  1.0
  Ni  Ni32  1  0.39823307  0.95348977  0.84380900  1.0
  Ni  Ni33  1  0.73156640  0.28682310  0.84380900  1.0
  Ni  Ni34  1  0.73156640  0.62015643  0.84380900  1.0
  Ni  Ni35  1  0.73156640  0.95348977  0.84380900  1.0
  Ni  Ni36  1  0.07646333  0.33075333  0.03476800  1.0
  Ni  Ni37  1  0.07646333  0.66408667  0.03476800  1.0
  Ni  Ni38  1  0.07646333  0.99742000  0.03476800  1.0
  Ni  Ni39  1  0.40979667  0.33075333  0.03476800  1.0
  Ni  Ni40  1  0.40979667  0.66408667  0.03476800  1.0
  Ni  Ni41  1  0.40979667  0.99742000  0.03476800  1.0
  Ni  Ni42  1  0.74313000  0.33075333  0.03476800  1.0
  Ni  Ni43  1  0.74313000  0.66408667  0.03476800  1.0
  Ni  Ni44  1  0.74313000  0.99742000  0.03476800  1.0
  Ni  Ni45  1  0.27646333  0.29742000  0.03476800  1.0
  Ni  Ni46  1  0.27646333  0.63075333  0.03476800  1.0
  Ni  Ni47  1  0.27646333  0.96408667  0.03476800  1.0
  Ni  Ni48  1  0.60979667  0.29742000  0.03476800  1.0
  Ni  Ni49  1  0.60979667  0.63075333  0.03476800  1.0
  Ni  Ni50  1  0.60979667  0.96408667  0.03476800  1.0
  Ni  Ni51  1  0.94313000  0.29742000  0.03476800  1.0
  Ni  Ni52  1  0.94313000  0.63075333  0.03476800  1.0
  Ni  Ni53  1  0.94313000  0.96408667  0.03476800  1.0
  Ni  Ni54  1  0.21268893  0.32086523  0.96965900  1.0
  Ni  Ni55  1  0.21268893  0.65419857  0.96965900  1.0
  Ni  Ni56  1  0.21268893  0.98753190  0.96965900  1.0
  Ni  Ni57  1  0.54602227  0.32086523  0.96965900  1.0
  Ni  Ni58  1  0.54602227  0.65419857  0.96965900  1.0
  Ni  Ni59  1  0.54602227  0.98753190  0.96965900  1.0
  Ni  Ni60  1  0.87935560  0.32086523  0.96965900  1.0
  Ni  Ni61  1  0.87935560  0.65419857  0.96965900  1.0
  Ni  Ni62  1  0.87935560  0.98753190  0.96965900  1.0
  Ni  Ni63  1  0.07935560  0.28753190  0.96965900  1.0
  Ni  Ni64  1  0.07935560  0.62086523  0.96965900  1.0
  Ni  Ni65  1  0.07935560  0.95419857  0.96965900  1.0
  Ni  Ni66  1  0.41268893  0.28753190  0.96965900  1.0
  Ni  Ni67  1  0.41268893  0.62086523  0.96965900  1.0
  Ni  Ni68  1  0.41268893  0.95419857  0.96965900  1.0
  Ni  Ni69  1  0.74602227  0.28753190  0.96965900  1.0
  Ni  Ni70  1  0.74602227  0.62086523  0.96965900  1.0
  Ni  Ni71  1  0.74602227  0.95419857  0.96965900  1.0
  Ni  Ni72  1  0.14655693  0.31907107  0.03476800  1.0
  Ni  Ni73  1  0.14655693  0.65240440  0.03476800  1.0
  Ni  Ni74  1  0.14655693  0.98573773  0.03476800  1.0
  Ni  Ni75  1  0.47989027  0.31907107  0.03476800  1.0
  Ni  Ni76  1  0.47989027  0.65240440  0.03476800  1.0
  Ni  Ni77  1  0.47989027  0.98573773  0.03476800  1.0
  Ni  Ni78  1  0.81322360  0.31907107  0.03476800  1.0
  Ni  Ni79  1  0.81322360  0.65240440  0.03476800  1.0
  Ni  Ni80  1  0.81322360  0.98573773  0.03476800  1.0
  Ni  Ni81  1  0.01322360  0.28573773  0.03476800  1.0
  Ni  Ni82  1  0.01322360  0.61907107  0.03476800  1.0
  Ni  Ni83  1  0.01322360  0.95240440  0.03476800  1.0
  Ni  Ni84  1  0.34655693  0.28573773  0.03476800  1.0
  Ni  Ni85  1  0.34655693  0.61907107  0.03476800  1.0
  Ni  Ni86  1  0.34655693  0.95240440  0.03476800  1.0
  Ni  Ni87  1  0.67989027  0.28573773  0.03476800  1.0
  Ni  Ni88  1  0.67989027  0.61907107  0.03476800  1.0
  Ni  Ni89  1  0.67989027  0.95240440  0.03476800  1.0
  Ni  Ni90  1  0.23196120  0.31400013  0.53476800  1.0
  Ni  Ni91  1  0.23196120  0.64733347  0.53476800  1.0
  Ni  Ni92  1  0.23196120  0.98066680  0.53476800  1.0
  Ni  Ni93  1  0.56529453  0.31400013  0.53476800  1.0
  Ni  Ni94  1  0.56529453  0.64733347  0.53476800  1.0
  Ni  Ni95  1  0.56529453  0.98066680  0.53476800  1.0
  Ni  Ni96  1  0.89862787  0.31400013  0.53476800  1.0
  Ni  Ni97  1  0.89862787  0.64733347  0.53476800  1.0
  Ni  Ni98  1  0.89862787  0.98066680  0.53476800  1.0
  Ni  Ni99  1  0.09862787  0.28066680  0.53476800  1.0
  Ni  Ni100  1  0.09862787  0.61400013  0.53476800  1.0
  Ni  Ni101  1  0.09862787  0.94733347  0.53476800  1.0
  Ni  Ni102  1  0.43196120  0.28066680  0.53476800  1.0
  Ni  Ni103  1  0.43196120  0.61400013  0.53476800  1.0
  Ni  Ni104  1  0.43196120  0.94733347  0.53476800  1.0
  Ni  Ni105  1  0.76529453  0.28066680  0.53476800  1.0
  Ni  Ni106  1  0.76529453  0.61400013  0.53476800  1.0
  Ni  Ni107  1  0.76529453  0.94733347  0.53476800  1.0
  Ni  Ni108  1  0.30537767  0.30357217  0.90761600  1.0
  Ni  Ni109  1  0.30537767  0.63690550  0.90761600  1.0
  Ni  Ni110  1  0.30537767  0.97023883  0.90761600  1.0
  Ni  Ni111  1  0.63871100  0.30357217  0.90761600  1.0
  Ni  Ni112  1  0.63871100  0.63690550  0.90761600  1.0
  Ni  Ni113  1  0.63871100  0.97023883  0.90761600  1.0
  Ni  Ni114  1  0.97204433  0.30357217  0.90761600  1.0
  Ni  Ni115  1  0.97204433  0.63690550  0.90761600  1.0
  Ni  Ni116  1  0.97204433  0.97023883  0.90761600  1.0
  Ni  Ni117  1  0.17204433  0.27023883  0.90761600  1.0
  Ni  Ni118  1  0.17204433  0.60357217  0.90761600  1.0
  Ni  Ni119  1  0.17204433  0.93690550  0.90761600  1.0
  Ni  Ni120  1  0.50537767  0.27023883  0.90761600  1.0
  Ni  Ni121  1  0.50537767  0.60357217  0.90761600  1.0
  Ni  Ni122  1  0.50537767  0.93690550  0.90761600  1.0
  Ni  Ni123  1  0.83871100  0.27023883  0.90761600  1.0
  Ni  Ni124  1  0.83871100  0.60357217  0.90761600  1.0
  Ni  Ni125  1  0.83871100  0.93690550  0.90761600  1.0
  Ni  Ni126  1  0.20434693  0.27726357  0.15619100  1.0
  Ni  Ni127  1  0.20434693  0.61059690  0.15619100  1.0
  Ni  Ni128  1  0.20434693  0.94393023  0.15619100  1.0
  Ni  Ni129  1  0.53768027  0.27726357  0.15619100  1.0
  Ni  Ni130  1  0.53768027  0.61059690  0.15619100  1.0
  Ni  Ni131  1  0.53768027  0.94393023  0.15619100  1.0
  Ni  Ni132  1  0.87101360  0.27726357  0.15619100  1.0
  Ni  Ni133  1  0.87101360  0.61059690  0.15619100  1.0
  Ni  Ni134  1  0.87101360  0.94393023  0.15619100  1.0
  Ni  Ni135  1  0.00434693  0.31059690  0.15619100  1.0
  Ni  Ni136  1  0.00434693  0.64393023  0.15619100  1.0
  Ni  Ni137  1  0.00434693  0.97726357  0.15619100  1.0
  Ni  Ni138  1  0.33768027  0.31059690  0.15619100  1.0
  Ni  Ni139  1  0.33768027  0.64393023  0.15619100  1.0
  Ni  Ni140  1  0.33768027  0.97726357  0.15619100  1.0
  Ni  Ni141  1  0.67101360  0.31059690  0.15619100  1.0
  Ni  Ni142  1  0.67101360  0.64393023  0.15619100  1.0
  Ni  Ni143  1  0.67101360  0.97726357  0.15619100  1.0
  Ni  Ni144  1  0.25411320  0.28955463  0.53034100  1.0
  Ni  Ni145  1  0.25411320  0.62288797  0.53034100  1.0
  Ni  Ni146  1  0.25411320  0.95622130  0.53034100  1.0
  Ni  Ni147  1  0.58744653  0.28955463  0.53034100  1.0
  Ni  Ni148  1  0.58744653  0.62288797  0.53034100  1.0
  Ni  Ni149  1  0.58744653  0.95622130  0.53034100  1.0
  Ni  Ni150  1  0.92077987  0.28955463  0.53034100  1.0
  Ni  Ni151  1  0.92077987  0.62288797  0.53034100  1.0
  Ni  Ni152  1  0.92077987  0.95622130  0.53034100  1.0
  Ni  Ni153  1  0.05411320  0.32288797  0.53034100  1.0
  Ni  Ni154  1  0.05411320  0.65622130  0.53034100  1.0
  Ni  Ni155  1  0.05411320  0.98955463  0.53034100  1.0
  Ni  Ni156  1  0.38744653  0.32288797  0.53034100  1.0
  Ni  Ni157  1  0.38744653  0.65622130  0.53034100  1.0
  Ni  Ni158  1  0.38744653  0.98955463  0.53034100  1.0
  Ni  Ni159  1  0.72077987  0.32288797  0.53034100  1.0
  Ni  Ni160  1  0.72077987  0.65622130  0.53034100  1.0
  Ni  Ni161  1  0.72077987  0.98955463  0.53034100  1.0
  Ni  Ni162  1  0.28842527  0.29917573  0.78142300  1.0
  Ni  Ni163  1  0.28842527  0.63250907  0.78142300  1.0
  Ni  Ni164  1  0.28842527  0.96584240  0.78142300  1.0
  Ni  Ni165  1  0.62175860  0.29917573  0.78142300  1.0
  Ni  Ni166  1  0.62175860  0.63250907  0.78142300  1.0
  Ni  Ni167  1  0.62175860  0.96584240  0.78142300  1.0
  Ni  Ni168  1  0.95509193  0.29917573  0.78142300  1.0
  Ni  Ni169  1  0.95509193  0.63250907  0.78142300  1.0
  Ni  Ni170  1  0.95509193  0.96584240  0.78142300  1.0
  Ni  Ni171  1  0.08842527  0.33250907  0.78142300  1.0
  Ni  Ni172  1  0.08842527  0.66584240  0.78142300  1.0
  Ni  Ni173  1  0.08842527  0.99917573  0.78142300  1.0
  Ni  Ni174  1  0.42175860  0.33250907  0.78142300  1.0
  Ni  Ni175  1  0.42175860  0.66584240  0.78142300  1.0
  Ni  Ni176  1  0.42175860  0.99917573  0.78142300  1.0
  Ni  Ni177  1  0.75509193  0.33250907  0.78142300  1.0
  Ni  Ni178  1  0.75509193  0.66584240  0.78142300  1.0
  Ni  Ni179  1  0.75509193  0.99917573  0.78142300  1.0
  Ni  Ni180  1  0.18989107  0.27655477  0.03034100  1.0
  Ni  Ni181  1  0.18989107  0.60988810  0.03034100  1.0
  Ni  Ni182  1  0.18989107  0.94322143  0.03034100  1.0
  Ni  Ni183  1  0.52322440  0.27655477  0.03034100  1.0
  Ni  Ni184  1  0.52322440  0.60988810  0.03034100  1.0
  Ni  Ni185  1  0.52322440  0.94322143  0.03034100  1.0
  Ni  Ni186  1  0.85655773  0.27655477  0.03034100  1.0
  Ni  Ni187  1  0.85655773  0.60988810  0.03034100  1.0
  Ni  Ni188  1  0.85655773  0.94322143  0.03034100  1.0
  Ni  Ni189  1  0.32322440  0.30988810  0.03034100  1.0
  Ni  Ni190  1  0.32322440  0.64322143  0.03034100  1.0
  Ni  Ni191  1  0.32322440  0.97655477  0.03034100  1.0
  Ni  Ni192  1  0.65655773  0.30988810  0.03034100  1.0
  Ni  Ni193  1  0.65655773  0.64322143  0.03034100  1.0
  Ni  Ni194  1  0.65655773  0.97655477  0.03034100  1.0
  Ni  Ni195  1  0.98989107  0.30988810  0.03034100  1.0
  Ni  Ni196  1  0.98989107  0.64322143  0.03034100  1.0
  Ni  Ni197  1  0.98989107  0.97655477  0.03034100  1.0
  Ni  Ni198  1  0.01742793  0.27429823  0.84531700  1.0
  Ni  Ni199  1  0.01742793  0.60763157  0.84531700  1.0
  Ni  Ni200  1  0.01742793  0.94096490  0.84531700  1.0
  Ni  Ni201  1  0.35076127  0.27429823  0.84531700  1.0
  Ni  Ni202  1  0.35076127  0.60763157  0.84531700  1.0
  Ni  Ni203  1  0.35076127  0.94096490  0.84531700  1.0
  Ni  Ni204  1  0.68409460  0.27429823  0.84531700  1.0
  Ni  Ni205  1  0.68409460  0.60763157  0.84531700  1.0
  Ni  Ni206  1  0.68409460  0.94096490  0.84531700  1.0
  Ni  Ni207  1  0.15076127  0.30763157  0.84531700  1.0
  Ni  Ni208  1  0.15076127  0.64096490  0.84531700  1.0
  Ni  Ni209  1  0.15076127  0.97429823  0.84531700  1.0
  Ni  Ni210  1  0.48409460  0.30763157  0.84531700  1.0
  Ni  Ni211  1  0.48409460  0.64096490  0.84531700  1.0
  Ni  Ni212  1  0.48409460  0.97429823  0.84531700  1.0
  Ni  Ni213  1  0.81742793  0.30763157  0.84531700  1.0
  Ni  Ni214  1  0.81742793  0.64096490  0.84531700  1.0
  Ni  Ni215  1  0.81742793  0.97429823  0.84531700  1.0
  Ni  Ni216  1  0.12936267  0.30018417  0.34380900  1.0
  Ni  Ni217  1  0.12936267  0.63351750  0.34380900  1.0
  Ni  Ni218  1  0.12936267  0.96685083  0.34380900  1.0
  Ni  Ni219  1  0.46269600  0.30018417  0.34380900  1.0
  Ni  Ni220  1  0.46269600  0.63351750  0.34380900  1.0
  Ni  Ni221  1  0.46269600  0.96685083  0.34380900  1.0
  Ni  Ni222  1  0.79602933  0.30018417  0.34380900  1.0
  Ni  Ni223  1  0.79602933  0.63351750  0.34380900  1.0
  Ni  Ni224  1  0.79602933  0.96685083  0.34380900  1.0
  Ni  Ni225  1  0.32936267  0.26685083  0.34380900  1.0
  Ni  Ni226  1  0.32936267  0.60018417  0.34380900  1.0
  Ni  Ni227  1  0.32936267  0.93351750  0.34380900  1.0
  Ni  Ni228  1  0.66269600  0.26685083  0.34380900  1.0
  Ni  Ni229  1  0.66269600  0.60018417  0.34380900  1.0
  Ni  Ni230  1  0.66269600  0.93351750  0.34380900  1.0
  Ni  Ni231  1  0.99602933  0.26685083  0.34380900  1.0
  Ni  Ni232  1  0.99602933  0.60018417  0.34380900  1.0
  Ni  Ni233  1  0.99602933  0.93351750  0.34380900  1.0
  Ni  Ni234  1  0.18109773  0.30157527  0.15468300  1.0
  Ni  Ni235  1  0.18109773  0.63490860  0.15468300  1.0
  Ni  Ni236  1  0.18109773  0.96824193  0.15468300  1.0
  Ni  Ni237  1  0.51443107  0.30157527  0.15468300  1.0
  Ni  Ni238  1  0.51443107  0.63490860  0.15468300  1.0
  Ni  Ni239  1  0.51443107  0.96824193  0.15468300  1.0
  Ni  Ni240  1  0.84776440  0.30157527  0.15468300  1.0
  Ni  Ni241  1  0.84776440  0.63490860  0.15468300  1.0
  Ni  Ni242  1  0.84776440  0.96824193  0.15468300  1.0
  Ni  Ni243  1  0.04776440  0.26824193  0.15468300  1.0
  Ni  Ni244  1  0.04776440  0.60157527  0.15468300  1.0
  Ni  Ni245  1  0.04776440  0.93490860  0.15468300  1.0
  Ni  Ni246  1  0.38109773  0.26824193  0.15468300  1.0
  Ni  Ni247  1  0.38109773  0.60157527  0.15468300  1.0
  Ni  Ni248  1  0.38109773  0.93490860  0.15468300  1.0
  Ni  Ni249  1  0.71443107  0.26824193  0.15468300  1.0
  Ni  Ni250  1  0.71443107  0.60157527  0.15468300  1.0
  Ni  Ni251  1  0.71443107  0.93490860  0.15468300  1.0
  Ni  Ni252  1  0.22253420  0.28367247  0.28142300  1.0
  Ni  Ni253  1  0.22253420  0.61700580  0.28142300  1.0
  Ni  Ni254  1  0.22253420  0.95033913  0.28142300  1.0
  Ni  Ni255  1  0.55586753  0.28367247  0.28142300  1.0
  Ni  Ni256  1  0.55586753  0.61700580  0.28142300  1.0
  Ni  Ni257  1  0.55586753  0.95033913  0.28142300  1.0
  Ni  Ni258  1  0.88920087  0.28367247  0.28142300  1.0
  Ni  Ni259  1  0.88920087  0.61700580  0.28142300  1.0
  Ni  Ni260  1  0.88920087  0.95033913  0.28142300  1.0
  Ni  Ni261  1  0.02253420  0.31700580  0.28142300  1.0
  Ni  Ni262  1  0.02253420  0.65033913  0.28142300  1.0
  Ni  Ni263  1  0.02253420  0.98367247  0.28142300  1.0
  Ni  Ni264  1  0.35586753  0.31700580  0.28142300  1.0
  Ni  Ni265  1  0.35586753  0.65033913  0.28142300  1.0
  Ni  Ni266  1  0.35586753  0.98367247  0.28142300  1.0
  Ni  Ni267  1  0.68920087  0.31700580  0.28142300  1.0
  Ni  Ni268  1  0.68920087  0.65033913  0.28142300  1.0
  Ni  Ni269  1  0.68920087  0.98367247  0.28142300  1.0
  Ni  Ni270  1  0.22148227  0.29584473  0.84531700  1.0
  Ni  Ni271  1  0.22148227  0.62917807  0.84531700  1.0
  Ni  Ni272  1  0.22148227  0.96251140  0.84531700  1.0
  Ni  Ni273  1  0.55481560  0.29584473  0.84531700  1.0
  Ni  Ni274  1  0.55481560  0.62917807  0.84531700  1.0
  Ni  Ni275  1  0.55481560  0.96251140  0.84531700  1.0
  Ni  Ni276  1  0.88814893  0.29584473  0.84531700  1.0
  Ni  Ni277  1  0.88814893  0.62917807  0.84531700  1.0
  Ni  Ni278  1  0.88814893  0.96251140  0.84531700  1.0
  Ni  Ni279  1  0.02148227  0.32917807  0.84531700  1.0
  Ni  Ni280  1  0.02148227  0.66251140  0.84531700  1.0
  Ni  Ni281  1  0.02148227  0.99584473  0.84531700  1.0
  Ni  Ni282  1  0.35481560  0.32917807  0.84531700  1.0
  Ni  Ni283  1  0.35481560  0.66251140  0.84531700  1.0
  Ni  Ni284  1  0.35481560  0.99584473  0.84531700  1.0
  Ni  Ni285  1  0.68814893  0.32917807  0.84531700  1.0
  Ni  Ni286  1  0.68814893  0.66251140  0.84531700  1.0
  Ni  Ni287  1  0.68814893  0.99584473  0.84531700  1.0
  Ni  Ni288  1  0.17723660  0.31280957  0.34531700  1.0
  Ni  Ni289  1  0.17723660  0.64614290  0.34531700  1.0
  Ni  Ni290  1  0.17723660  0.97947623  0.34531700  1.0
  Ni  Ni291  1  0.51056993  0.31280957  0.34531700  1.0
  Ni  Ni292  1  0.51056993  0.64614290  0.34531700  1.0
  Ni  Ni293  1  0.51056993  0.97947623  0.34531700  1.0
  Ni  Ni294  1  0.84390327  0.31280957  0.34531700  1.0
  Ni  Ni295  1  0.84390327  0.64614290  0.34531700  1.0
  Ni  Ni296  1  0.84390327  0.97947623  0.34531700  1.0
  Ni  Ni297  1  0.04390327  0.27947623  0.34531700  1.0
  Ni  Ni298  1  0.04390327  0.61280957  0.34531700  1.0
  Ni  Ni299  1  0.04390327  0.94614290  0.34531700  1.0
  Ni  Ni300  1  0.37723660  0.27947623  0.34531700  1.0
  Ni  Ni301  1  0.37723660  0.61280957  0.34531700  1.0
  Ni  Ni302  1  0.37723660  0.94614290  0.34531700  1.0
  Ni  Ni303  1  0.71056993  0.27947623  0.34531700  1.0
  Ni  Ni304  1  0.71056993  0.61280957  0.34531700  1.0
  Ni  Ni305  1  0.71056993  0.94614290  0.34531700  1.0
  Ni  Ni306  1  0.14846680  0.30786537  0.46965900  1.0
  Ni  Ni307  1  0.14846680  0.64119870  0.46965900  1.0
  Ni  Ni308  1  0.14846680  0.97453203  0.46965900  1.0
  Ni  Ni309  1  0.48180013  0.30786537  0.46965900  1.0
  Ni  Ni310  1  0.48180013  0.64119870  0.46965900  1.0
  Ni  Ni311  1  0.48180013  0.97453203  0.46965900  1.0
  Ni  Ni312  1  0.81513347  0.30786537  0.46965900  1.0
  Ni  Ni313  1  0.81513347  0.64119870  0.46965900  1.0
  Ni  Ni314  1  0.81513347  0.97453203  0.46965900  1.0
  Ni  Ni315  1  0.01513347  0.27453203  0.46965900  1.0
  Ni  Ni316  1  0.01513347  0.60786537  0.46965900  1.0
  Ni  Ni317  1  0.01513347  0.94119870  0.46965900  1.0
  Ni  Ni318  1  0.34846680  0.27453203  0.46965900  1.0
  Ni  Ni319  1  0.34846680  0.60786537  0.46965900  1.0
  Ni  Ni320  1  0.34846680  0.94119870  0.46965900  1.0
  Ni  Ni321  1  0.68180013  0.27453203  0.46965900  1.0
  Ni  Ni322  1  0.68180013  0.60786537  0.46965900  1.0
  Ni  Ni323  1  0.68180013  0.94119870  0.46965900  1.0
  Ni  Ni324  1  0.16872147  0.26898453  0.53476800  1.0
  Ni  Ni325  1  0.16872147  0.60231787  0.53476800  1.0
  Ni  Ni326  1  0.16872147  0.93565120  0.53476800  1.0
  Ni  Ni327  1  0.50205480  0.26898453  0.53476800  1.0
  Ni  Ni328  1  0.50205480  0.60231787  0.53476800  1.0
  Ni  Ni329  1  0.50205480  0.93565120  0.53476800  1.0
  Ni  Ni330  1  0.83538813  0.26898453  0.53476800  1.0
  Ni  Ni331  1  0.83538813  0.60231787  0.53476800  1.0
  Ni  Ni332  1  0.83538813  0.93565120  0.53476800  1.0
  Ni  Ni333  1  0.30205480  0.30231787  0.53476800  1.0
  Ni  Ni334  1  0.30205480  0.63565120  0.53476800  1.0
  Ni  Ni335  1  0.30205480  0.96898453  0.53476800  1.0
  Ni  Ni336  1  0.63538813  0.30231787  0.53476800  1.0
  Ni  Ni337  1  0.63538813  0.63565120  0.53476800  1.0
  Ni  Ni338  1  0.63538813  0.96898453  0.53476800  1.0
  Ni  Ni339  1  0.96872147  0.30231787  0.53476800  1.0
  Ni  Ni340  1  0.96872147  0.63565120  0.53476800  1.0
  Ni  Ni341  1  0.96872147  0.96898453  0.53476800  1.0
  Ni  Ni342  1  0.10651560  0.32459640  0.34531700  1.0
  Ni  Ni343  1  0.10651560  0.65792973  0.34531700  1.0
  Ni  Ni344  1  0.10651560  0.99126307  0.34531700  1.0
  Ni  Ni345  1  0.43984893  0.32459640  0.34531700  1.0
  Ni  Ni346  1  0.43984893  0.65792973  0.34531700  1.0
  Ni  Ni347  1  0.43984893  0.99126307  0.34531700  1.0
  Ni  Ni348  1  0.77318227  0.32459640  0.34531700  1.0
  Ni  Ni349  1  0.77318227  0.65792973  0.34531700  1.0
  Ni  Ni350  1  0.77318227  0.99126307  0.34531700  1.0
  Ni  Ni351  1  0.30651560  0.29126307  0.34531700  1.0
  Ni  Ni352  1  0.30651560  0.62459640  0.34531700  1.0
  Ni  Ni353  1  0.30651560  0.95792973  0.34531700  1.0
  Ni  Ni354  1  0.63984893  0.29126307  0.34531700  1.0
  Ni  Ni355  1  0.63984893  0.62459640  0.34531700  1.0
  Ni  Ni356  1  0.63984893  0.95792973  0.34531700  1.0
  Ni  Ni357  1  0.97318227  0.29126307  0.34531700  1.0
  Ni  Ni358  1  0.97318227  0.62459640  0.34531700  1.0
  Ni  Ni359  1  0.97318227  0.95792973  0.34531700  1.0
  Ni  Ni360  1  0.09720233  0.29384783  0.09238400  1.0
  Ni  Ni361  1  0.09720233  0.62718117  0.09238400  1.0
  Ni  Ni362  1  0.09720233  0.96051450  0.09238400  1.0
  Ni  Ni363  1  0.43053567  0.29384783  0.09238400  1.0
  Ni  Ni364  1  0.43053567  0.62718117  0.09238400  1.0
  Ni  Ni365  1  0.43053567  0.96051450  0.09238400  1.0
  Ni  Ni366  1  0.76386900  0.29384783  0.09238400  1.0
  Ni  Ni367  1  0.76386900  0.62718117  0.09238400  1.0
  Ni  Ni368  1  0.76386900  0.96051450  0.09238400  1.0
  Ni  Ni369  1  0.23053567  0.32718117  0.09238400  1.0
  Ni  Ni370  1  0.23053567  0.66051450  0.09238400  1.0
  Ni  Ni371  1  0.23053567  0.99384783  0.09238400  1.0
  Ni  Ni372  1  0.56386900  0.32718117  0.09238400  1.0
  Ni  Ni373  1  0.56386900  0.66051450  0.09238400  1.0
  Ni  Ni374  1  0.56386900  0.99384783  0.09238400  1.0
  Ni  Ni375  1  0.89720233  0.32718117  0.09238400  1.0
  Ni  Ni376  1  0.89720233  0.66051450  0.09238400  1.0
  Ni  Ni377  1  0.89720233  0.99384783  0.09238400  1.0
  Ni  Ni378  1  0.17061880  0.28341987  0.46523200  1.0
  Ni  Ni379  1  0.17061880  0.61675320  0.46523200  1.0
  Ni  Ni380  1  0.17061880  0.95008653  0.46523200  1.0
  Ni  Ni381  1  0.50395213  0.28341987  0.46523200  1.0
  Ni  Ni382  1  0.50395213  0.61675320  0.46523200  1.0
  Ni  Ni383  1  0.50395213  0.95008653  0.46523200  1.0
  Ni  Ni384  1  0.83728547  0.28341987  0.46523200  1.0
  Ni  Ni385  1  0.83728547  0.61675320  0.46523200  1.0
  Ni  Ni386  1  0.83728547  0.95008653  0.46523200  1.0
  Ni  Ni387  1  0.30395213  0.31675320  0.46523200  1.0
  Ni  Ni388  1  0.30395213  0.65008653  0.46523200  1.0
  Ni  Ni389  1  0.30395213  0.98341987  0.46523200  1.0
  Ni  Ni390  1  0.63728547  0.31675320  0.46523200  1.0
  Ni  Ni391  1  0.63728547  0.65008653  0.46523200  1.0
  Ni  Ni392  1  0.63728547  0.98341987  0.46523200  1.0
  Ni  Ni393  1  0.97061880  0.31675320  0.46523200  1.0
  Ni  Ni394  1  0.97061880  0.65008653  0.46523200  1.0
  Ni  Ni395  1  0.97061880  0.98341987  0.46523200  1.0
  Ni  Ni396  1  0.05181873  0.32312177  0.15468300  1.0
  Ni  Ni397  1  0.05181873  0.65645510  0.15468300  1.0
  Ni  Ni398  1  0.05181873  0.98978843  0.15468300  1.0
  Ni  Ni399  1  0.38515207  0.32312177  0.15468300  1.0
  Ni  Ni400  1  0.38515207  0.65645510  0.15468300  1.0
  Ni  Ni401  1  0.38515207  0.98978843  0.15468300  1.0
  Ni  Ni402  1  0.71848540  0.32312177  0.15468300  1.0
  Ni  Ni403  1  0.71848540  0.65645510  0.15468300  1.0
  Ni  Ni404  1  0.71848540  0.98978843  0.15468300  1.0
  Ni  Ni405  1  0.25181873  0.28978843  0.15468300  1.0
  Ni  Ni406  1  0.25181873  0.62312177  0.15468300  1.0
  Ni  Ni407  1  0.25181873  0.95645510  0.15468300  1.0
  Ni  Ni408  1  0.58515207  0.28978843  0.15468300  1.0
  Ni  Ni409  1  0.58515207  0.62312177  0.15468300  1.0
  Ni  Ni410  1  0.58515207  0.95645510  0.15468300  1.0
  Ni  Ni411  1  0.91848540  0.28978843  0.15468300  1.0
  Ni  Ni412  1  0.91848540  0.62312177  0.15468300  1.0
  Ni  Ni413  1  0.91848540  0.95645510  0.15468300  1.0
  Ni  Ni414  1  0.23923327  0.28768890  0.40761600  1.0
  Ni  Ni415  1  0.23923327  0.62102223  0.40761600  1.0
  Ni  Ni416  1  0.23923327  0.95435557  0.40761600  1.0
  Ni  Ni417  1  0.57256660  0.28768890  0.40761600  1.0
  Ni  Ni418  1  0.57256660  0.62102223  0.40761600  1.0
  Ni  Ni419  1  0.57256660  0.95435557  0.40761600  1.0
  Ni  Ni420  1  0.90589993  0.28768890  0.40761600  1.0
  Ni  Ni421  1  0.90589993  0.62102223  0.40761600  1.0
  Ni  Ni422  1  0.90589993  0.95435557  0.40761600  1.0
  Ni  Ni423  1  0.03923327  0.32102223  0.40761600  1.0
  Ni  Ni424  1  0.03923327  0.65435557  0.40761600  1.0
  Ni  Ni425  1  0.03923327  0.98768890  0.40761600  1.0
  Ni  Ni426  1  0.37256660  0.32102223  0.40761600  1.0
  Ni  Ni427  1  0.37256660  0.65435557  0.40761600  1.0
  Ni  Ni428  1  0.37256660  0.98768890  0.40761600  1.0
  Ni  Ni429  1  0.70589993  0.32102223  0.40761600  1.0
  Ni  Ni430  1  0.70589993  0.65435557  0.40761600  1.0
  Ni  Ni431  1  0.70589993  0.98768890  0.40761600  1.0
  Ni  Ni432  1  0.29606440  0.27282360  0.65468300  1.0
  Ni  Ni433  1  0.29606440  0.60615693  0.65468300  1.0
  Ni  Ni434  1  0.29606440  0.93949027  0.65468300  1.0
  Ni  Ni435  1  0.62939773  0.27282360  0.65468300  1.0
  Ni  Ni436  1  0.62939773  0.60615693  0.65468300  1.0
  Ni  Ni437  1  0.62939773  0.93949027  0.65468300  1.0
  Ni  Ni438  1  0.96273107  0.27282360  0.65468300  1.0
  Ni  Ni439  1  0.96273107  0.60615693  0.65468300  1.0
  Ni  Ni440  1  0.96273107  0.93949027  0.65468300  1.0
  Ni  Ni441  1  0.09606440  0.30615693  0.65468300  1.0
  Ni  Ni442  1  0.09606440  0.63949027  0.65468300  1.0
  Ni  Ni443  1  0.09606440  0.97282360  0.65468300  1.0
  Ni  Ni444  1  0.42939773  0.30615693  0.65468300  1.0
  Ni  Ni445  1  0.42939773  0.63949027  0.65468300  1.0
  Ni  Ni446  1  0.42939773  0.97282360  0.65468300  1.0
  Ni  Ni447  1  0.76273107  0.30615693  0.65468300  1.0
  Ni  Ni448  1  0.76273107  0.63949027  0.65468300  1.0
  Ni  Ni449  1  0.76273107  0.97282360  0.65468300  1.0
  Ni  Ni450  1  0.25602307  0.27834893  0.96523200  1.0
  Ni  Ni451  1  0.25602307  0.61168227  0.96523200  1.0
  Ni  Ni452  1  0.25602307  0.94501560  0.96523200  1.0
  Ni  Ni453  1  0.58935640  0.27834893  0.96523200  1.0
  Ni  Ni454  1  0.58935640  0.61168227  0.96523200  1.0
  Ni  Ni455  1  0.58935640  0.94501560  0.96523200  1.0
  Ni  Ni456  1  0.92268973  0.27834893  0.96523200  1.0
  Ni  Ni457  1  0.92268973  0.61168227  0.96523200  1.0
  Ni  Ni458  1  0.92268973  0.94501560  0.96523200  1.0
  Ni  Ni459  1  0.05602307  0.31168227  0.96523200  1.0
  Ni  Ni460  1  0.05602307  0.64501560  0.96523200  1.0
  Ni  Ni461  1  0.05602307  0.97834893  0.96523200  1.0
  Ni  Ni462  1  0.38935640  0.31168227  0.96523200  1.0
  Ni  Ni463  1  0.38935640  0.64501560  0.96523200  1.0
  Ni  Ni464  1  0.38935640  0.97834893  0.96523200  1.0
  Ni  Ni465  1  0.72268973  0.31168227  0.96523200  1.0
  Ni  Ni466  1  0.72268973  0.64501560  0.96523200  1.0
  Ni  Ni467  1  0.72268973  0.97834893  0.96523200  1.0
  Ni  Ni468  1  0.18004580  0.31374753  0.71857700  1.0
  Ni  Ni469  1  0.18004580  0.64708087  0.71857700  1.0
  Ni  Ni470  1  0.18004580  0.98041420  0.71857700  1.0
  Ni  Ni471  1  0.51337913  0.31374753  0.71857700  1.0
  Ni  Ni472  1  0.51337913  0.64708087  0.71857700  1.0
  Ni  Ni473  1  0.51337913  0.98041420  0.71857700  1.0
  Ni  Ni474  1  0.84671247  0.31374753  0.71857700  1.0
  Ni  Ni475  1  0.84671247  0.64708087  0.71857700  1.0
  Ni  Ni476  1  0.84671247  0.98041420  0.71857700  1.0
  Ni  Ni477  1  0.04671247  0.28041420  0.71857700  1.0
  Ni  Ni478  1  0.04671247  0.61374753  0.71857700  1.0
  Ni  Ni479  1  0.04671247  0.94708087  0.71857700  1.0
  Ni  Ni480  1  0.38004580  0.28041420  0.71857700  1.0
  Ni  Ni481  1  0.38004580  0.61374753  0.71857700  1.0
  Ni  Ni482  1  0.38004580  0.94708087  0.71857700  1.0
  Ni  Ni483  1  0.71337913  0.28041420  0.71857700  1.0
  Ni  Ni484  1  0.71337913  0.61374753  0.71857700  1.0
  Ni  Ni485  1  0.71337913  0.94708087  0.71857700  1.0
  Ni  Ni486  1  0.23385853  0.32843547  0.46523200  1.0
  Ni  Ni487  1  0.23385853  0.66176880  0.46523200  1.0
  Ni  Ni488  1  0.23385853  0.99510213  0.46523200  1.0
  Ni  Ni489  1  0.56719187  0.32843547  0.46523200  1.0
  Ni  Ni490  1  0.56719187  0.66176880  0.46523200  1.0
  Ni  Ni491  1  0.56719187  0.99510213  0.46523200  1.0
  Ni  Ni492  1  0.90052520  0.32843547  0.46523200  1.0
  Ni  Ni493  1  0.90052520  0.66176880  0.46523200  1.0
  Ni  Ni494  1  0.90052520  0.99510213  0.46523200  1.0
  Ni  Ni495  1  0.10052520  0.29510213  0.46523200  1.0
  Ni  Ni496  1  0.10052520  0.62843547  0.46523200  1.0
  Ni  Ni497  1  0.10052520  0.96176880  0.46523200  1.0
  Ni  Ni498  1  0.43385853  0.29510213  0.46523200  1.0
  Ni  Ni499  1  0.43385853  0.62843547  0.46523200  1.0
  Ni  Ni500  1  0.43385853  0.96176880  0.46523200  1.0
  Ni  Ni501  1  0.76719187  0.29510213  0.46523200  1.0
  Ni  Ni502  1  0.76719187  0.62843547  0.46523200  1.0
  Ni  Ni503  1  0.76719187  0.96176880  0.46523200  1.0
  Ni  Ni504  1  0.27321733  0.29723583  0.65619100  1.0
  Ni  Ni505  1  0.27321733  0.63056917  0.65619100  1.0
  Ni  Ni506  1  0.27321733  0.96390250  0.65619100  1.0
  Ni  Ni507  1  0.60655067  0.29723583  0.65619100  1.0
  Ni  Ni508  1  0.60655067  0.63056917  0.65619100  1.0
  Ni  Ni509  1  0.60655067  0.96390250  0.65619100  1.0
  Ni  Ni510  1  0.93988400  0.29723583  0.65619100  1.0
  Ni  Ni511  1  0.93988400  0.63056917  0.65619100  1.0
  Ni  Ni512  1  0.93988400  0.96390250  0.65619100  1.0
  Ni  Ni513  1  0.07321733  0.33056917  0.65619100  1.0
  Ni  Ni514  1  0.07321733  0.66390250  0.65619100  1.0
  Ni  Ni515  1  0.07321733  0.99723583  0.65619100  1.0
  Ni  Ni516  1  0.40655067  0.33056917  0.65619100  1.0
  Ni  Ni517  1  0.40655067  0.66390250  0.65619100  1.0
  Ni  Ni518  1  0.40655067  0.99723583  0.65619100  1.0
  Ni  Ni519  1  0.73988400  0.33056917  0.65619100  1.0
  Ni  Ni520  1  0.73988400  0.66390250  0.65619100  1.0
  Ni  Ni521  1  0.73988400  0.99723583  0.65619100  1.0
  Ni  Ni522  1  0.22534340  0.28461043  0.65468300  1.0
  Ni  Ni523  1  0.22534340  0.61794377  0.65468300  1.0
  Ni  Ni524  1  0.22534340  0.95127710  0.65468300  1.0
  Ni  Ni525  1  0.55867673  0.28461043  0.65468300  1.0
  Ni  Ni526  1  0.55867673  0.61794377  0.65468300  1.0
  Ni  Ni527  1  0.55867673  0.95127710  0.65468300  1.0
  Ni  Ni528  1  0.89201007  0.28461043  0.65468300  1.0
  Ni  Ni529  1  0.89201007  0.61794377  0.65468300  1.0
  Ni  Ni530  1  0.89201007  0.95127710  0.65468300  1.0
  Ni  Ni531  1  0.02534340  0.31794377  0.65468300  1.0
  Ni  Ni532  1  0.02534340  0.65127710  0.65468300  1.0
  Ni  Ni533  1  0.02534340  0.98461043  0.65468300  1.0
  Ni  Ni534  1  0.35867673  0.31794377  0.65468300  1.0
  Ni  Ni535  1  0.35867673  0.65127710  0.65468300  1.0
  Ni  Ni536  1  0.35867673  0.98461043  0.65468300  1.0
  Ni  Ni537  1  0.69201007  0.31794377  0.65468300  1.0
  Ni  Ni538  1  0.69201007  0.65127710  0.65468300  1.0
  Ni  Ni539  1  0.69201007  0.98461043  0.65468300  1.0
  Ni  Ni540  1  0.16334673  0.30973110  0.59238400  1.0
  Ni  Ni541  1  0.16334673  0.64306443  0.59238400  1.0
  Ni  Ni542  1  0.16334673  0.97639777  0.59238400  1.0
  Ni  Ni543  1  0.49668007  0.30973110  0.59238400  1.0
  Ni  Ni544  1  0.49668007  0.64306443  0.59238400  1.0
  Ni  Ni545  1  0.49668007  0.97639777  0.59238400  1.0
  Ni  Ni546  1  0.83001340  0.30973110  0.59238400  1.0
  Ni  Ni547  1  0.83001340  0.64306443  0.59238400  1.0
  Ni  Ni548  1  0.83001340  0.97639777  0.59238400  1.0
  Ni  Ni549  1  0.03001340  0.27639777  0.59238400  1.0
  Ni  Ni550  1  0.03001340  0.60973110  0.59238400  1.0
  Ni  Ni551  1  0.03001340  0.94306443  0.59238400  1.0
  Ni  Ni552  1  0.36334673  0.27639777  0.59238400  1.0
  Ni  Ni553  1  0.36334673  0.60973110  0.59238400  1.0
  Ni  Ni554  1  0.36334673  0.94306443  0.59238400  1.0
  Ni  Ni555  1  0.69668007  0.27639777  0.59238400  1.0
  Ni  Ni556  1  0.69668007  0.60973110  0.59238400  1.0
  Ni  Ni557  1  0.69668007  0.94306443  0.59238400  1.0
  Ni  Ni558  1  0.25945000  0.33333333  0.96523200  1.0
  Ni  Ni559  1  0.25945000  0.66666667  0.96523200  1.0
  Ni  Ni560  1  0.25945000  0.00000000  0.96523200  1.0
  Ni  Ni561  1  0.59278333  0.33333333  0.96523200  1.0
  Ni  Ni562  1  0.59278333  0.66666667  0.96523200  1.0
  Ni  Ni563  1  0.59278333  0.00000000  0.96523200  1.0
  Ni  Ni564  1  0.92611667  0.33333333  0.96523200  1.0
  Ni  Ni565  1  0.92611667  0.66666667  0.96523200  1.0
  Ni  Ni566  1  0.92611667  0.00000000  0.96523200  1.0
  Ni  Ni567  1  0.12611667  0.30000000  0.96523200  1.0
  Ni  Ni568  1  0.12611667  0.63333333  0.96523200  1.0
  Ni  Ni569  1  0.12611667  0.96666667  0.96523200  1.0
  Ni  Ni570  1  0.45945000  0.30000000  0.96523200  1.0
  Ni  Ni571  1  0.45945000  0.63333333  0.96523200  1.0
  Ni  Ni572  1  0.45945000  0.96666667  0.96523200  1.0
  Ni  Ni573  1  0.79278333  0.30000000  0.96523200  1.0
  Ni  Ni574  1  0.79278333  0.63333333  0.96523200  1.0
  Ni  Ni575  1  0.79278333  0.96666667  0.96523200  1.0
  Ni  Ni576  1  0.18082140  0.23157760  0.21857700  1.0
  Ni  Ni577  1  0.18082140  0.56491093  0.21857700  1.0
  Ni  Ni578  1  0.18082140  0.89824427  0.21857700  1.0
  Ni  Ni579  1  0.51415473  0.23157760  0.21857700  1.0
  Ni  Ni580  1  0.51415473  0.56491093  0.21857700  1.0
  Ni  Ni581  1  0.51415473  0.89824427  0.21857700  1.0
  Ni  Ni582  1  0.84748807  0.23157760  0.21857700  1.0
  Ni  Ni583  1  0.84748807  0.56491093  0.21857700  1.0
  Ni  Ni584  1  0.84748807  0.89824427  0.21857700  1.0
  Ni  Ni585  1  0.31415473  0.26491093  0.21857700  1.0
  Ni  Ni586  1  0.31415473  0.59824427  0.21857700  1.0
  Ni  Ni587  1  0.31415473  0.93157760  0.21857700  1.0
  Ni  Ni588  1  0.64748807  0.26491093  0.21857700  1.0
  Ni  Ni589  1  0.64748807  0.59824427  0.21857700  1.0
  Ni  Ni590  1  0.64748807  0.93157760  0.21857700  1.0
  Ni  Ni591  1  0.98082140  0.26491093  0.21857700  1.0
  Ni  Ni592  1  0.98082140  0.59824427  0.21857700  1.0
  Ni  Ni593  1  0.98082140  0.93157760  0.21857700  1.0
  Ni  Ni594  1  0.26489973  0.25348977  0.84380900  1.0
  Ni  Ni595  1  0.26489973  0.58682310  0.84380900  1.0
  Ni  Ni596  1  0.26489973  0.92015643  0.84380900  1.0
  Ni  Ni597  1  0.59823307  0.25348977  0.84380900  1.0
  Ni  Ni598  1  0.59823307  0.58682310  0.84380900  1.0
  Ni  Ni599  1  0.59823307  0.92015643  0.84380900  1.0
  Ni  Ni600  1  0.93156640  0.25348977  0.84380900  1.0
  Ni  Ni601  1  0.93156640  0.58682310  0.84380900  1.0
  Ni  Ni602  1  0.93156640  0.92015643  0.84380900  1.0
  Ni  Ni603  1  0.13156640  0.22015643  0.84380900  1.0
  Ni  Ni604  1  0.13156640  0.55348977  0.84380900  1.0
  Ni  Ni605  1  0.13156640  0.88682310  0.84380900  1.0
  Ni  Ni606  1  0.46489973  0.22015643  0.84380900  1.0
  Ni  Ni607  1  0.46489973  0.55348977  0.84380900  1.0
  Ni  Ni608  1  0.46489973  0.88682310  0.84380900  1.0
  Ni  Ni609  1  0.79823307  0.22015643  0.84380900  1.0
  Ni  Ni610  1  0.79823307  0.55348977  0.84380900  1.0
  Ni  Ni611  1  0.79823307  0.88682310  0.84380900  1.0
  Ni  Ni612  1  0.14313000  0.26408667  0.03476800  1.0
  Ni  Ni613  1  0.14313000  0.59742000  0.03476800  1.0
  Ni  Ni614  1  0.14313000  0.93075333  0.03476800  1.0
  Ni  Ni615  1  0.47646333  0.26408667  0.03476800  1.0
  Ni  Ni616  1  0.47646333  0.59742000  0.03476800  1.0
  Ni  Ni617  1  0.47646333  0.93075333  0.03476800  1.0
  Ni  Ni618  1  0.80979667  0.26408667  0.03476800  1.0
  Ni  Ni619  1  0.80979667  0.59742000  0.03476800  1.0
  Ni  Ni620  1  0.80979667  0.93075333  0.03476800  1.0
  Ni  Ni621  1  0.00979667  0.23075333  0.03476800  1.0
  Ni  Ni622  1  0.00979667  0.56408667  0.03476800  1.0
  Ni  Ni623  1  0.00979667  0.89742000  0.03476800  1.0
  Ni  Ni624  1  0.34313000  0.23075333  0.03476800  1.0
  Ni  Ni625  1  0.34313000  0.56408667  0.03476800  1.0
  Ni  Ni626  1  0.34313000  0.89742000  0.03476800  1.0
  Ni  Ni627  1  0.67646333  0.23075333  0.03476800  1.0
  Ni  Ni628  1  0.67646333  0.56408667  0.03476800  1.0
  Ni  Ni629  1  0.67646333  0.89742000  0.03476800  1.0
  Ni  Ni630  1  0.27935560  0.25419857  0.96965900  1.0
  Ni  Ni631  1  0.27935560  0.58753190  0.96965900  1.0
  Ni  Ni632  1  0.27935560  0.92086523  0.96965900  1.0
  Ni  Ni633  1  0.61268893  0.25419857  0.96965900  1.0
  Ni  Ni634  1  0.61268893  0.58753190  0.96965900  1.0
  Ni  Ni635  1  0.61268893  0.92086523  0.96965900  1.0
  Ni  Ni636  1  0.94602227  0.25419857  0.96965900  1.0
  Ni  Ni637  1  0.94602227  0.58753190  0.96965900  1.0
  Ni  Ni638  1  0.94602227  0.92086523  0.96965900  1.0
  Ni  Ni639  1  0.14602227  0.22086523  0.96965900  1.0
  Ni  Ni640  1  0.14602227  0.55419857  0.96965900  1.0
  Ni  Ni641  1  0.14602227  0.88753190  0.96965900  1.0
  Ni  Ni642  1  0.47935560  0.22086523  0.96965900  1.0
  Ni  Ni643  1  0.47935560  0.55419857  0.96965900  1.0
  Ni  Ni644  1  0.47935560  0.88753190  0.96965900  1.0
  Ni  Ni645  1  0.81268893  0.22086523  0.96965900  1.0
  Ni  Ni646  1  0.81268893  0.55419857  0.96965900  1.0
  Ni  Ni647  1  0.81268893  0.88753190  0.96965900  1.0
  Ni  Ni648  1  0.21322360  0.25240440  0.03476800  1.0
  Ni  Ni649  1  0.21322360  0.58573773  0.03476800  1.0
  Ni  Ni650  1  0.21322360  0.91907107  0.03476800  1.0
  Ni  Ni651  1  0.54655693  0.25240440  0.03476800  1.0
  Ni  Ni652  1  0.54655693  0.58573773  0.03476800  1.0
  Ni  Ni653  1  0.54655693  0.91907107  0.03476800  1.0
  Ni  Ni654  1  0.87989027  0.25240440  0.03476800  1.0
  Ni  Ni655  1  0.87989027  0.58573773  0.03476800  1.0
  Ni  Ni656  1  0.87989027  0.91907107  0.03476800  1.0
  Ni  Ni657  1  0.07989027  0.21907107  0.03476800  1.0
  Ni  Ni658  1  0.07989027  0.55240440  0.03476800  1.0
  Ni  Ni659  1  0.07989027  0.88573773  0.03476800  1.0
  Ni  Ni660  1  0.41322360  0.21907107  0.03476800  1.0
  Ni  Ni661  1  0.41322360  0.55240440  0.03476800  1.0
  Ni  Ni662  1  0.41322360  0.88573773  0.03476800  1.0
  Ni  Ni663  1  0.74655693  0.21907107  0.03476800  1.0
  Ni  Ni664  1  0.74655693  0.55240440  0.03476800  1.0
  Ni  Ni665  1  0.74655693  0.88573773  0.03476800  1.0
  Ni  Ni666  1  0.29862787  0.24733347  0.53476800  1.0
  Ni  Ni667  1  0.29862787  0.58066680  0.53476800  1.0
  Ni  Ni668  1  0.29862787  0.91400013  0.53476800  1.0
  Ni  Ni669  1  0.63196120  0.24733347  0.53476800  1.0
  Ni  Ni670  1  0.63196120  0.58066680  0.53476800  1.0
  Ni  Ni671  1  0.63196120  0.91400013  0.53476800  1.0
  Ni  Ni672  1  0.96529453  0.24733347  0.53476800  1.0
  Ni  Ni673  1  0.96529453  0.58066680  0.53476800  1.0
  Ni  Ni674  1  0.96529453  0.91400013  0.53476800  1.0
  Ni  Ni675  1  0.16529453  0.21400013  0.53476800  1.0
  Ni  Ni676  1  0.16529453  0.54733347  0.53476800  1.0
  Ni  Ni677  1  0.16529453  0.88066680  0.53476800  1.0
  Ni  Ni678  1  0.49862787  0.21400013  0.53476800  1.0
  Ni  Ni679  1  0.49862787  0.54733347  0.53476800  1.0
  Ni  Ni680  1  0.49862787  0.88066680  0.53476800  1.0
  Ni  Ni681  1  0.83196120  0.21400013  0.53476800  1.0
  Ni  Ni682  1  0.83196120  0.54733347  0.53476800  1.0
  Ni  Ni683  1  0.83196120  0.88066680  0.53476800  1.0
  Ni  Ni684  1  0.03871100  0.23690550  0.90761600  1.0
  Ni  Ni685  1  0.03871100  0.57023883  0.90761600  1.0
  Ni  Ni686  1  0.03871100  0.90357217  0.90761600  1.0
  Ni  Ni687  1  0.37204433  0.23690550  0.90761600  1.0
  Ni  Ni688  1  0.37204433  0.57023883  0.90761600  1.0
  Ni  Ni689  1  0.37204433  0.90357217  0.90761600  1.0
  Ni  Ni690  1  0.70537767  0.23690550  0.90761600  1.0
  Ni  Ni691  1  0.70537767  0.57023883  0.90761600  1.0
  Ni  Ni692  1  0.70537767  0.90357217  0.90761600  1.0
  Ni  Ni693  1  0.23871100  0.20357217  0.90761600  1.0
  Ni  Ni694  1  0.23871100  0.53690550  0.90761600  1.0
  Ni  Ni695  1  0.23871100  0.87023883  0.90761600  1.0
  Ni  Ni696  1  0.57204433  0.20357217  0.90761600  1.0
  Ni  Ni697  1  0.57204433  0.53690550  0.90761600  1.0
  Ni  Ni698  1  0.57204433  0.87023883  0.90761600  1.0
  Ni  Ni699  1  0.90537767  0.20357217  0.90761600  1.0
  Ni  Ni700  1  0.90537767  0.53690550  0.90761600  1.0
  Ni  Ni701  1  0.90537767  0.87023883  0.90761600  1.0
  Ni  Ni702  1  0.27101360  0.21059690  0.15619100  1.0
  Ni  Ni703  1  0.27101360  0.54393023  0.15619100  1.0
  Ni  Ni704  1  0.27101360  0.87726357  0.15619100  1.0
  Ni  Ni705  1  0.60434693  0.21059690  0.15619100  1.0
  Ni  Ni706  1  0.60434693  0.54393023  0.15619100  1.0
  Ni  Ni707  1  0.60434693  0.87726357  0.15619100  1.0
  Ni  Ni708  1  0.93768027  0.21059690  0.15619100  1.0
  Ni  Ni709  1  0.93768027  0.54393023  0.15619100  1.0
  Ni  Ni710  1  0.93768027  0.87726357  0.15619100  1.0
  Ni  Ni711  1  0.07101360  0.24393023  0.15619100  1.0
  Ni  Ni712  1  0.07101360  0.57726357  0.15619100  1.0
  Ni  Ni713  1  0.07101360  0.91059690  0.15619100  1.0
  Ni  Ni714  1  0.40434693  0.24393023  0.15619100  1.0
  Ni  Ni715  1  0.40434693  0.57726357  0.15619100  1.0
  Ni  Ni716  1  0.40434693  0.91059690  0.15619100  1.0
  Ni  Ni717  1  0.73768027  0.24393023  0.15619100  1.0
  Ni  Ni718  1  0.73768027  0.57726357  0.15619100  1.0
  Ni  Ni719  1  0.73768027  0.91059690  0.15619100  1.0
  Ni  Ni720  1  0.32077987  0.22288797  0.53034100  1.0
  Ni  Ni721  1  0.32077987  0.55622130  0.53034100  1.0
  Ni  Ni722  1  0.32077987  0.88955463  0.53034100  1.0
  Ni  Ni723  1  0.65411320  0.22288797  0.53034100  1.0
  Ni  Ni724  1  0.65411320  0.55622130  0.53034100  1.0
  Ni  Ni725  1  0.65411320  0.88955463  0.53034100  1.0
  Ni  Ni726  1  0.98744653  0.22288797  0.53034100  1.0
  Ni  Ni727  1  0.98744653  0.55622130  0.53034100  1.0
  Ni  Ni728  1  0.98744653  0.88955463  0.53034100  1.0
  Ni  Ni729  1  0.12077987  0.25622130  0.53034100  1.0
  Ni  Ni730  1  0.12077987  0.58955463  0.53034100  1.0
  Ni  Ni731  1  0.12077987  0.92288797  0.53034100  1.0
  Ni  Ni732  1  0.45411320  0.25622130  0.53034100  1.0
  Ni  Ni733  1  0.45411320  0.58955463  0.53034100  1.0
  Ni  Ni734  1  0.45411320  0.92288797  0.53034100  1.0
  Ni  Ni735  1  0.78744653  0.25622130  0.53034100  1.0
  Ni  Ni736  1  0.78744653  0.58955463  0.53034100  1.0
  Ni  Ni737  1  0.78744653  0.92288797  0.53034100  1.0
  Ni  Ni738  1  0.02175860  0.23250907  0.78142300  1.0
  Ni  Ni739  1  0.02175860  0.56584240  0.78142300  1.0
  Ni  Ni740  1  0.02175860  0.89917573  0.78142300  1.0
  Ni  Ni741  1  0.35509193  0.23250907  0.78142300  1.0
  Ni  Ni742  1  0.35509193  0.56584240  0.78142300  1.0
  Ni  Ni743  1  0.35509193  0.89917573  0.78142300  1.0
  Ni  Ni744  1  0.68842527  0.23250907  0.78142300  1.0
  Ni  Ni745  1  0.68842527  0.56584240  0.78142300  1.0
  Ni  Ni746  1  0.68842527  0.89917573  0.78142300  1.0
  Ni  Ni747  1  0.15509193  0.26584240  0.78142300  1.0
  Ni  Ni748  1  0.15509193  0.59917573  0.78142300  1.0
  Ni  Ni749  1  0.15509193  0.93250907  0.78142300  1.0
  Ni  Ni750  1  0.48842527  0.26584240  0.78142300  1.0
  Ni  Ni751  1  0.48842527  0.59917573  0.78142300  1.0
  Ni  Ni752  1  0.48842527  0.93250907  0.78142300  1.0
  Ni  Ni753  1  0.82175860  0.26584240  0.78142300  1.0
  Ni  Ni754  1  0.82175860  0.59917573  0.78142300  1.0
  Ni  Ni755  1  0.82175860  0.93250907  0.78142300  1.0
  Ni  Ni756  1  0.25655773  0.20988810  0.03034100  1.0
  Ni  Ni757  1  0.25655773  0.54322143  0.03034100  1.0
  Ni  Ni758  1  0.25655773  0.87655477  0.03034100  1.0
  Ni  Ni759  1  0.58989107  0.20988810  0.03034100  1.0
  Ni  Ni760  1  0.58989107  0.54322143  0.03034100  1.0
  Ni  Ni761  1  0.58989107  0.87655477  0.03034100  1.0
  Ni  Ni762  1  0.92322440  0.20988810  0.03034100  1.0
  Ni  Ni763  1  0.92322440  0.54322143  0.03034100  1.0
  Ni  Ni764  1  0.92322440  0.87655477  0.03034100  1.0
  Ni  Ni765  1  0.05655773  0.24322143  0.03034100  1.0
  Ni  Ni766  1  0.05655773  0.57655477  0.03034100  1.0
  Ni  Ni767  1  0.05655773  0.90988810  0.03034100  1.0
  Ni  Ni768  1  0.38989107  0.24322143  0.03034100  1.0
  Ni  Ni769  1  0.38989107  0.57655477  0.03034100  1.0
  Ni  Ni770  1  0.38989107  0.90988810  0.03034100  1.0
  Ni  Ni771  1  0.72322440  0.24322143  0.03034100  1.0
  Ni  Ni772  1  0.72322440  0.57655477  0.03034100  1.0
  Ni  Ni773  1  0.72322440  0.90988810  0.03034100  1.0
  Ni  Ni774  1  0.08409460  0.20763157  0.84531700  1.0
  Ni  Ni775  1  0.08409460  0.54096490  0.84531700  1.0
  Ni  Ni776  1  0.08409460  0.87429823  0.84531700  1.0
  Ni  Ni777  1  0.41742793  0.20763157  0.84531700  1.0
  Ni  Ni778  1  0.41742793  0.54096490  0.84531700  1.0
  Ni  Ni779  1  0.41742793  0.87429823  0.84531700  1.0
  Ni  Ni780  1  0.75076127  0.20763157  0.84531700  1.0
  Ni  Ni781  1  0.75076127  0.54096490  0.84531700  1.0
  Ni  Ni782  1  0.75076127  0.87429823  0.84531700  1.0
  Ni  Ni783  1  0.21742793  0.24096490  0.84531700  1.0
  Ni  Ni784  1  0.21742793  0.57429823  0.84531700  1.0
  Ni  Ni785  1  0.21742793  0.90763157  0.84531700  1.0
  Ni  Ni786  1  0.55076127  0.24096490  0.84531700  1.0
  Ni  Ni787  1  0.55076127  0.57429823  0.84531700  1.0
  Ni  Ni788  1  0.55076127  0.90763157  0.84531700  1.0
  Ni  Ni789  1  0.88409460  0.24096490  0.84531700  1.0
  Ni  Ni790  1  0.88409460  0.57429823  0.84531700  1.0
  Ni  Ni791  1  0.88409460  0.90763157  0.84531700  1.0
  Ni  Ni792  1  0.19602933  0.23351750  0.34380900  1.0
  Ni  Ni793  1  0.19602933  0.56685083  0.34380900  1.0
  Ni  Ni794  1  0.19602933  0.90018417  0.34380900  1.0
  Ni  Ni795  1  0.52936267  0.23351750  0.34380900  1.0
  Ni  Ni796  1  0.52936267  0.56685083  0.34380900  1.0
  Ni  Ni797  1  0.52936267  0.90018417  0.34380900  1.0
  Ni  Ni798  1  0.86269600  0.23351750  0.34380900  1.0
  Ni  Ni799  1  0.86269600  0.56685083  0.34380900  1.0
  Ni  Ni800  1  0.86269600  0.90018417  0.34380900  1.0
  Ni  Ni801  1  0.06269600  0.20018417  0.34380900  1.0
  Ni  Ni802  1  0.06269600  0.53351750  0.34380900  1.0
  Ni  Ni803  1  0.06269600  0.86685083  0.34380900  1.0
  Ni  Ni804  1  0.39602933  0.20018417  0.34380900  1.0
  Ni  Ni805  1  0.39602933  0.53351750  0.34380900  1.0
  Ni  Ni806  1  0.39602933  0.86685083  0.34380900  1.0
  Ni  Ni807  1  0.72936267  0.20018417  0.34380900  1.0
  Ni  Ni808  1  0.72936267  0.53351750  0.34380900  1.0
  Ni  Ni809  1  0.72936267  0.86685083  0.34380900  1.0
  Ni  Ni810  1  0.24776440  0.23490860  0.15468300  1.0
  Ni  Ni811  1  0.24776440  0.56824193  0.15468300  1.0
  Ni  Ni812  1  0.24776440  0.90157527  0.15468300  1.0
  Ni  Ni813  1  0.58109773  0.23490860  0.15468300  1.0
  Ni  Ni814  1  0.58109773  0.56824193  0.15468300  1.0
  Ni  Ni815  1  0.58109773  0.90157527  0.15468300  1.0
  Ni  Ni816  1  0.91443107  0.23490860  0.15468300  1.0
  Ni  Ni817  1  0.91443107  0.56824193  0.15468300  1.0
  Ni  Ni818  1  0.91443107  0.90157527  0.15468300  1.0
  Ni  Ni819  1  0.11443107  0.20157527  0.15468300  1.0
  Ni  Ni820  1  0.11443107  0.53490860  0.15468300  1.0
  Ni  Ni821  1  0.11443107  0.86824193  0.15468300  1.0
  Ni  Ni822  1  0.44776440  0.20157527  0.15468300  1.0
  Ni  Ni823  1  0.44776440  0.53490860  0.15468300  1.0
  Ni  Ni824  1  0.44776440  0.86824193  0.15468300  1.0
  Ni  Ni825  1  0.78109773  0.20157527  0.15468300  1.0
  Ni  Ni826  1  0.78109773  0.53490860  0.15468300  1.0
  Ni  Ni827  1  0.78109773  0.86824193  0.15468300  1.0
  Ni  Ni828  1  0.28920087  0.21700580  0.28142300  1.0
  Ni  Ni829  1  0.28920087  0.55033913  0.28142300  1.0
  Ni  Ni830  1  0.28920087  0.88367247  0.28142300  1.0
  Ni  Ni831  1  0.62253420  0.21700580  0.28142300  1.0
  Ni  Ni832  1  0.62253420  0.55033913  0.28142300  1.0
  Ni  Ni833  1  0.62253420  0.88367247  0.28142300  1.0
  Ni  Ni834  1  0.95586753  0.21700580  0.28142300  1.0
  Ni  Ni835  1  0.95586753  0.55033913  0.28142300  1.0
  Ni  Ni836  1  0.95586753  0.88367247  0.28142300  1.0
  Ni  Ni837  1  0.08920087  0.25033913  0.28142300  1.0
  Ni  Ni838  1  0.08920087  0.58367247  0.28142300  1.0
  Ni  Ni839  1  0.08920087  0.91700580  0.28142300  1.0
  Ni  Ni840  1  0.42253420  0.25033913  0.28142300  1.0
  Ni  Ni841  1  0.42253420  0.58367247  0.28142300  1.0
  Ni  Ni842  1  0.42253420  0.91700580  0.28142300  1.0
  Ni  Ni843  1  0.75586753  0.25033913  0.28142300  1.0
  Ni  Ni844  1  0.75586753  0.58367247  0.28142300  1.0
  Ni  Ni845  1  0.75586753  0.91700580  0.28142300  1.0
  Ni  Ni846  1  0.28814893  0.22917807  0.84531700  1.0
  Ni  Ni847  1  0.28814893  0.56251140  0.84531700  1.0
  Ni  Ni848  1  0.28814893  0.89584473  0.84531700  1.0
  Ni  Ni849  1  0.62148227  0.22917807  0.84531700  1.0
  Ni  Ni850  1  0.62148227  0.56251140  0.84531700  1.0
  Ni  Ni851  1  0.62148227  0.89584473  0.84531700  1.0
  Ni  Ni852  1  0.95481560  0.22917807  0.84531700  1.0
  Ni  Ni853  1  0.95481560  0.56251140  0.84531700  1.0
  Ni  Ni854  1  0.95481560  0.89584473  0.84531700  1.0
  Ni  Ni855  1  0.08814893  0.26251140  0.84531700  1.0
  Ni  Ni856  1  0.08814893  0.59584473  0.84531700  1.0
  Ni  Ni857  1  0.08814893  0.92917807  0.84531700  1.0
  Ni  Ni858  1  0.42148227  0.26251140  0.84531700  1.0
  Ni  Ni859  1  0.42148227  0.59584473  0.84531700  1.0
  Ni  Ni860  1  0.42148227  0.92917807  0.84531700  1.0
  Ni  Ni861  1  0.75481560  0.26251140  0.84531700  1.0
  Ni  Ni862  1  0.75481560  0.59584473  0.84531700  1.0
  Ni  Ni863  1  0.75481560  0.92917807  0.84531700  1.0
  Ni  Ni864  1  0.24390327  0.24614290  0.34531700  1.0
  Ni  Ni865  1  0.24390327  0.57947623  0.34531700  1.0
  Ni  Ni866  1  0.24390327  0.91280957  0.34531700  1.0
  Ni  Ni867  1  0.57723660  0.24614290  0.34531700  1.0
  Ni  Ni868  1  0.57723660  0.57947623  0.34531700  1.0
  Ni  Ni869  1  0.57723660  0.91280957  0.34531700  1.0
  Ni  Ni870  1  0.91056993  0.24614290  0.34531700  1.0
  Ni  Ni871  1  0.91056993  0.57947623  0.34531700  1.0
  Ni  Ni872  1  0.91056993  0.91280957  0.34531700  1.0
  Ni  Ni873  1  0.11056993  0.21280957  0.34531700  1.0
  Ni  Ni874  1  0.11056993  0.54614290  0.34531700  1.0
  Ni  Ni875  1  0.11056993  0.87947623  0.34531700  1.0
  Ni  Ni876  1  0.44390327  0.21280957  0.34531700  1.0
  Ni  Ni877  1  0.44390327  0.54614290  0.34531700  1.0
  Ni  Ni878  1  0.44390327  0.87947623  0.34531700  1.0
  Ni  Ni879  1  0.77723660  0.21280957  0.34531700  1.0
  Ni  Ni880  1  0.77723660  0.54614290  0.34531700  1.0
  Ni  Ni881  1  0.77723660  0.87947623  0.34531700  1.0
  Ni  Ni882  1  0.21513347  0.24119870  0.46965900  1.0
  Ni  Ni883  1  0.21513347  0.57453203  0.46965900  1.0
  Ni  Ni884  1  0.21513347  0.90786537  0.46965900  1.0
  Ni  Ni885  1  0.54846680  0.24119870  0.46965900  1.0
  Ni  Ni886  1  0.54846680  0.57453203  0.46965900  1.0
  Ni  Ni887  1  0.54846680  0.90786537  0.46965900  1.0
  Ni  Ni888  1  0.88180013  0.24119870  0.46965900  1.0
  Ni  Ni889  1  0.88180013  0.57453203  0.46965900  1.0
  Ni  Ni890  1  0.88180013  0.90786537  0.46965900  1.0
  Ni  Ni891  1  0.08180013  0.20786537  0.46965900  1.0
  Ni  Ni892  1  0.08180013  0.54119870  0.46965900  1.0
  Ni  Ni893  1  0.08180013  0.87453203  0.46965900  1.0
  Ni  Ni894  1  0.41513347  0.20786537  0.46965900  1.0
  Ni  Ni895  1  0.41513347  0.54119870  0.46965900  1.0
  Ni  Ni896  1  0.41513347  0.87453203  0.46965900  1.0
  Ni  Ni897  1  0.74846680  0.20786537  0.46965900  1.0
  Ni  Ni898  1  0.74846680  0.54119870  0.46965900  1.0
  Ni  Ni899  1  0.74846680  0.87453203  0.46965900  1.0
  Ni  Ni900  1  0.23538813  0.20231787  0.53476800  1.0
  Ni  Ni901  1  0.23538813  0.53565120  0.53476800  1.0
  Ni  Ni902  1  0.23538813  0.86898453  0.53476800  1.0
  Ni  Ni903  1  0.56872147  0.20231787  0.53476800  1.0
  Ni  Ni904  1  0.56872147  0.53565120  0.53476800  1.0
  Ni  Ni905  1  0.56872147  0.86898453  0.53476800  1.0
  Ni  Ni906  1  0.90205480  0.20231787  0.53476800  1.0
  Ni  Ni907  1  0.90205480  0.53565120  0.53476800  1.0
  Ni  Ni908  1  0.90205480  0.86898453  0.53476800  1.0
  Ni  Ni909  1  0.03538813  0.23565120  0.53476800  1.0
  Ni  Ni910  1  0.03538813  0.56898453  0.53476800  1.0
  Ni  Ni911  1  0.03538813  0.90231787  0.53476800  1.0
  Ni  Ni912  1  0.36872147  0.23565120  0.53476800  1.0
  Ni  Ni913  1  0.36872147  0.56898453  0.53476800  1.0
  Ni  Ni914  1  0.36872147  0.90231787  0.53476800  1.0
  Ni  Ni915  1  0.70205480  0.23565120  0.53476800  1.0
  Ni  Ni916  1  0.70205480  0.56898453  0.53476800  1.0
  Ni  Ni917  1  0.70205480  0.90231787  0.53476800  1.0
  Ni  Ni918  1  0.17318227  0.25792973  0.34531700  1.0
  Ni  Ni919  1  0.17318227  0.59126307  0.34531700  1.0
  Ni  Ni920  1  0.17318227  0.92459640  0.34531700  1.0
  Ni  Ni921  1  0.50651560  0.25792973  0.34531700  1.0
  Ni  Ni922  1  0.50651560  0.59126307  0.34531700  1.0
  Ni  Ni923  1  0.50651560  0.92459640  0.34531700  1.0
  Ni  Ni924  1  0.83984893  0.25792973  0.34531700  1.0
  Ni  Ni925  1  0.83984893  0.59126307  0.34531700  1.0
  Ni  Ni926  1  0.83984893  0.92459640  0.34531700  1.0
  Ni  Ni927  1  0.03984893  0.22459640  0.34531700  1.0
  Ni  Ni928  1  0.03984893  0.55792973  0.34531700  1.0
  Ni  Ni929  1  0.03984893  0.89126307  0.34531700  1.0
  Ni  Ni930  1  0.37318227  0.22459640  0.34531700  1.0
  Ni  Ni931  1  0.37318227  0.55792973  0.34531700  1.0
  Ni  Ni932  1  0.37318227  0.89126307  0.34531700  1.0
  Ni  Ni933  1  0.70651560  0.22459640  0.34531700  1.0
  Ni  Ni934  1  0.70651560  0.55792973  0.34531700  1.0
  Ni  Ni935  1  0.70651560  0.89126307  0.34531700  1.0
  Ni  Ni936  1  0.16386900  0.22718117  0.09238400  1.0
  Ni  Ni937  1  0.16386900  0.56051450  0.09238400  1.0
  Ni  Ni938  1  0.16386900  0.89384783  0.09238400  1.0
  Ni  Ni939  1  0.49720233  0.22718117  0.09238400  1.0
  Ni  Ni940  1  0.49720233  0.56051450  0.09238400  1.0
  Ni  Ni941  1  0.49720233  0.89384783  0.09238400  1.0
  Ni  Ni942  1  0.83053567  0.22718117  0.09238400  1.0
  Ni  Ni943  1  0.83053567  0.56051450  0.09238400  1.0
  Ni  Ni944  1  0.83053567  0.89384783  0.09238400  1.0
  Ni  Ni945  1  0.29720233  0.26051450  0.09238400  1.0
  Ni  Ni946  1  0.29720233  0.59384783  0.09238400  1.0
  Ni  Ni947  1  0.29720233  0.92718117  0.09238400  1.0
  Ni  Ni948  1  0.63053567  0.26051450  0.09238400  1.0
  Ni  Ni949  1  0.63053567  0.59384783  0.09238400  1.0
  Ni  Ni950  1  0.63053567  0.92718117  0.09238400  1.0
  Ni  Ni951  1  0.96386900  0.26051450  0.09238400  1.0
  Ni  Ni952  1  0.96386900  0.59384783  0.09238400  1.0
  Ni  Ni953  1  0.96386900  0.92718117  0.09238400  1.0
  Ni  Ni954  1  0.23728547  0.21675320  0.46523200  1.0
  Ni  Ni955  1  0.23728547  0.55008653  0.46523200  1.0
  Ni  Ni956  1  0.23728547  0.88341987  0.46523200  1.0
  Ni  Ni957  1  0.57061880  0.21675320  0.46523200  1.0
  Ni  Ni958  1  0.57061880  0.55008653  0.46523200  1.0
  Ni  Ni959  1  0.57061880  0.88341987  0.46523200  1.0
  Ni  Ni960  1  0.90395213  0.21675320  0.46523200  1.0
  Ni  Ni961  1  0.90395213  0.55008653  0.46523200  1.0
  Ni  Ni962  1  0.90395213  0.88341987  0.46523200  1.0
  Ni  Ni963  1  0.03728547  0.25008653  0.46523200  1.0
  Ni  Ni964  1  0.03728547  0.58341987  0.46523200  1.0
  Ni  Ni965  1  0.03728547  0.91675320  0.46523200  1.0
  Ni  Ni966  1  0.37061880  0.25008653  0.46523200  1.0
  Ni  Ni967  1  0.37061880  0.58341987  0.46523200  1.0
  Ni  Ni968  1  0.37061880  0.91675320  0.46523200  1.0
  Ni  Ni969  1  0.70395213  0.25008653  0.46523200  1.0
  Ni  Ni970  1  0.70395213  0.58341987  0.46523200  1.0
  Ni  Ni971  1  0.70395213  0.91675320  0.46523200  1.0
  Ni  Ni972  1  0.11848540  0.25645510  0.15468300  1.0
  Ni  Ni973  1  0.11848540  0.58978843  0.15468300  1.0
  Ni  Ni974  1  0.11848540  0.92312177  0.15468300  1.0
  Ni  Ni975  1  0.45181873  0.25645510  0.15468300  1.0
  Ni  Ni976  1  0.45181873  0.58978843  0.15468300  1.0
  Ni  Ni977  1  0.45181873  0.92312177  0.15468300  1.0
  Ni  Ni978  1  0.78515207  0.25645510  0.15468300  1.0
  Ni  Ni979  1  0.78515207  0.58978843  0.15468300  1.0
  Ni  Ni980  1  0.78515207  0.92312177  0.15468300  1.0
  Ni  Ni981  1  0.31848540  0.22312177  0.15468300  1.0
  Ni  Ni982  1  0.31848540  0.55645510  0.15468300  1.0
  Ni  Ni983  1  0.31848540  0.88978843  0.15468300  1.0
  Ni  Ni984  1  0.65181873  0.22312177  0.15468300  1.0
  Ni  Ni985  1  0.65181873  0.55645510  0.15468300  1.0
  Ni  Ni986  1  0.65181873  0.88978843  0.15468300  1.0
  Ni  Ni987  1  0.98515207  0.22312177  0.15468300  1.0
  Ni  Ni988  1  0.98515207  0.55645510  0.15468300  1.0
  Ni  Ni989  1  0.98515207  0.88978843  0.15468300  1.0
  Ni  Ni990  1  0.30589993  0.22102223  0.40761600  1.0
  Ni  Ni991  1  0.30589993  0.55435557  0.40761600  1.0
  Ni  Ni992  1  0.30589993  0.88768890  0.40761600  1.0
  Ni  Ni993  1  0.63923327  0.22102223  0.40761600  1.0
  Ni  Ni994  1  0.63923327  0.55435557  0.40761600  1.0
  Ni  Ni995  1  0.63923327  0.88768890  0.40761600  1.0
  Ni  Ni996  1  0.97256660  0.22102223  0.40761600  1.0
  Ni  Ni997  1  0.97256660  0.55435557  0.40761600  1.0
  Ni  Ni998  1  0.97256660  0.88768890  0.40761600  1.0
  Ni  Ni999  1  0.10589993  0.25435557  0.40761600  1.0
  Ni  Ni1000  1  0.10589993  0.58768890  0.40761600  1.0
  Ni  Ni1001  1  0.10589993  0.92102223  0.40761600  1.0
  Ni  Ni1002  1  0.43923327  0.25435557  0.40761600  1.0
  Ni  Ni1003  1  0.43923327  0.58768890  0.40761600  1.0
  Ni  Ni1004  1  0.43923327  0.92102223  0.40761600  1.0
  Ni  Ni1005  1  0.77256660  0.25435557  0.40761600  1.0
  Ni  Ni1006  1  0.77256660  0.58768890  0.40761600  1.0
  Ni  Ni1007  1  0.77256660  0.92102223  0.40761600  1.0
  Ni  Ni1008  1  0.02939773  0.20615693  0.65468300  1.0
  Ni  Ni1009  1  0.02939773  0.53949027  0.65468300  1.0
  Ni  Ni1010  1  0.02939773  0.87282360  0.65468300  1.0
  Ni  Ni1011  1  0.36273107  0.20615693  0.65468300  1.0
  Ni  Ni1012  1  0.36273107  0.53949027  0.65468300  1.0
  Ni  Ni1013  1  0.36273107  0.87282360  0.65468300  1.0
  Ni  Ni1014  1  0.69606440  0.20615693  0.65468300  1.0
  Ni  Ni1015  1  0.69606440  0.53949027  0.65468300  1.0
  Ni  Ni1016  1  0.69606440  0.87282360  0.65468300  1.0
  Ni  Ni1017  1  0.16273107  0.23949027  0.65468300  1.0
  Ni  Ni1018  1  0.16273107  0.57282360  0.65468300  1.0
  Ni  Ni1019  1  0.16273107  0.90615693  0.65468300  1.0
  Ni  Ni1020  1  0.49606440  0.23949027  0.65468300  1.0
  Ni  Ni1021  1  0.49606440  0.57282360  0.65468300  1.0
  Ni  Ni1022  1  0.49606440  0.90615693  0.65468300  1.0
  Ni  Ni1023  1  0.82939773  0.23949027  0.65468300  1.0
  Ni  Ni1024  1  0.82939773  0.57282360  0.65468300  1.0
  Ni  Ni1025  1  0.82939773  0.90615693  0.65468300  1.0
  Ni  Ni1026  1  0.32268973  0.21168227  0.96523200  1.0
  Ni  Ni1027  1  0.32268973  0.54501560  0.96523200  1.0
  Ni  Ni1028  1  0.32268973  0.87834893  0.96523200  1.0
  Ni  Ni1029  1  0.65602307  0.21168227  0.96523200  1.0
  Ni  Ni1030  1  0.65602307  0.54501560  0.96523200  1.0
  Ni  Ni1031  1  0.65602307  0.87834893  0.96523200  1.0
  Ni  Ni1032  1  0.98935640  0.21168227  0.96523200  1.0
  Ni  Ni1033  1  0.98935640  0.54501560  0.96523200  1.0
  Ni  Ni1034  1  0.98935640  0.87834893  0.96523200  1.0
  Ni  Ni1035  1  0.12268973  0.24501560  0.96523200  1.0
  Ni  Ni1036  1  0.12268973  0.57834893  0.96523200  1.0
  Ni  Ni1037  1  0.12268973  0.91168227  0.96523200  1.0
  Ni  Ni1038  1  0.45602307  0.24501560  0.96523200  1.0
  Ni  Ni1039  1  0.45602307  0.57834893  0.96523200  1.0
  Ni  Ni1040  1  0.45602307  0.91168227  0.96523200  1.0
  Ni  Ni1041  1  0.78935640  0.24501560  0.96523200  1.0
  Ni  Ni1042  1  0.78935640  0.57834893  0.96523200  1.0
  Ni  Ni1043  1  0.78935640  0.91168227  0.96523200  1.0
  Ni  Ni1044  1  0.24671247  0.24708087  0.71857700  1.0
  Ni  Ni1045  1  0.24671247  0.58041420  0.71857700  1.0
  Ni  Ni1046  1  0.24671247  0.91374753  0.71857700  1.0
  Ni  Ni1047  1  0.58004580  0.24708087  0.71857700  1.0
  Ni  Ni1048  1  0.58004580  0.58041420  0.71857700  1.0
  Ni  Ni1049  1  0.58004580  0.91374753  0.71857700  1.0
  Ni  Ni1050  1  0.91337913  0.24708087  0.71857700  1.0
  Ni  Ni1051  1  0.91337913  0.58041420  0.71857700  1.0
  Ni  Ni1052  1  0.91337913  0.91374753  0.71857700  1.0
  Ni  Ni1053  1  0.11337913  0.21374753  0.71857700  1.0
  Ni  Ni1054  1  0.11337913  0.54708087  0.71857700  1.0
  Ni  Ni1055  1  0.11337913  0.88041420  0.71857700  1.0
  Ni  Ni1056  1  0.44671247  0.21374753  0.71857700  1.0
  Ni  Ni1057  1  0.44671247  0.54708087  0.71857700  1.0
  Ni  Ni1058  1  0.44671247  0.88041420  0.71857700  1.0
  Ni  Ni1059  1  0.78004580  0.21374753  0.71857700  1.0
  Ni  Ni1060  1  0.78004580  0.54708087  0.71857700  1.0
  Ni  Ni1061  1  0.78004580  0.88041420  0.71857700  1.0
  Ni  Ni1062  1  0.30052520  0.26176880  0.46523200  1.0
  Ni  Ni1063  1  0.30052520  0.59510213  0.46523200  1.0
  Ni  Ni1064  1  0.30052520  0.92843547  0.46523200  1.0
  Ni  Ni1065  1  0.63385853  0.26176880  0.46523200  1.0
  Ni  Ni1066  1  0.63385853  0.59510213  0.46523200  1.0
  Ni  Ni1067  1  0.63385853  0.92843547  0.46523200  1.0
  Ni  Ni1068  1  0.96719187  0.26176880  0.46523200  1.0
  Ni  Ni1069  1  0.96719187  0.59510213  0.46523200  1.0
  Ni  Ni1070  1  0.96719187  0.92843547  0.46523200  1.0
  Ni  Ni1071  1  0.16719187  0.22843547  0.46523200  1.0
  Ni  Ni1072  1  0.16719187  0.56176880  0.46523200  1.0
  Ni  Ni1073  1  0.16719187  0.89510213  0.46523200  1.0
  Ni  Ni1074  1  0.50052520  0.22843547  0.46523200  1.0
  Ni  Ni1075  1  0.50052520  0.56176880  0.46523200  1.0
  Ni  Ni1076  1  0.50052520  0.89510213  0.46523200  1.0
  Ni  Ni1077  1  0.83385853  0.22843547  0.46523200  1.0
  Ni  Ni1078  1  0.83385853  0.56176880  0.46523200  1.0
  Ni  Ni1079  1  0.83385853  0.89510213  0.46523200  1.0
  Ni  Ni1080  1  0.00655067  0.23056917  0.65619100  1.0
  Ni  Ni1081  1  0.00655067  0.56390250  0.65619100  1.0
  Ni  Ni1082  1  0.00655067  0.89723583  0.65619100  1.0
  Ni  Ni1083  1  0.33988400  0.23056917  0.65619100  1.0
  Ni  Ni1084  1  0.33988400  0.56390250  0.65619100  1.0
  Ni  Ni1085  1  0.33988400  0.89723583  0.65619100  1.0
  Ni  Ni1086  1  0.67321733  0.23056917  0.65619100  1.0
  Ni  Ni1087  1  0.67321733  0.56390250  0.65619100  1.0
  Ni  Ni1088  1  0.67321733  0.89723583  0.65619100  1.0
  Ni  Ni1089  1  0.13988400  0.26390250  0.65619100  1.0
  Ni  Ni1090  1  0.13988400  0.59723583  0.65619100  1.0
  Ni  Ni1091  1  0.13988400  0.93056917  0.65619100  1.0
  Ni  Ni1092  1  0.47321733  0.26390250  0.65619100  1.0
  Ni  Ni1093  1  0.47321733  0.59723583  0.65619100  1.0
  Ni  Ni1094  1  0.47321733  0.93056917  0.65619100  1.0
  Ni  Ni1095  1  0.80655067  0.26390250  0.65619100  1.0
  Ni  Ni1096  1  0.80655067  0.59723583  0.65619100  1.0
  Ni  Ni1097  1  0.80655067  0.93056917  0.65619100  1.0
  Ni  Ni1098  1  0.29201007  0.21794377  0.65468300  1.0
  Ni  Ni1099  1  0.29201007  0.55127710  0.65468300  1.0
  Ni  Ni1100  1  0.29201007  0.88461043  0.65468300  1.0
  Ni  Ni1101  1  0.62534340  0.21794377  0.65468300  1.0
  Ni  Ni1102  1  0.62534340  0.55127710  0.65468300  1.0
  Ni  Ni1103  1  0.62534340  0.88461043  0.65468300  1.0
  Ni  Ni1104  1  0.95867673  0.21794377  0.65468300  1.0
  Ni  Ni1105  1  0.95867673  0.55127710  0.65468300  1.0
  Ni  Ni1106  1  0.95867673  0.88461043  0.65468300  1.0
  Ni  Ni1107  1  0.09201007  0.25127710  0.65468300  1.0
  Ni  Ni1108  1  0.09201007  0.58461043  0.65468300  1.0
  Ni  Ni1109  1  0.09201007  0.91794377  0.65468300  1.0
  Ni  Ni1110  1  0.42534340  0.25127710  0.65468300  1.0
  Ni  Ni1111  1  0.42534340  0.58461043  0.65468300  1.0
  Ni  Ni1112  1  0.42534340  0.91794377  0.65468300  1.0
  Ni  Ni1113  1  0.75867673  0.25127710  0.65468300  1.0
  Ni  Ni1114  1  0.75867673  0.58461043  0.65468300  1.0
  Ni  Ni1115  1  0.75867673  0.91794377  0.65468300  1.0
  Ni  Ni1116  1  0.23001340  0.24306443  0.59238400  1.0
  Ni  Ni1117  1  0.23001340  0.57639777  0.59238400  1.0
  Ni  Ni1118  1  0.23001340  0.90973110  0.59238400  1.0
  Ni  Ni1119  1  0.56334673  0.24306443  0.59238400  1.0
  Ni  Ni1120  1  0.56334673  0.57639777  0.59238400  1.0
  Ni  Ni1121  1  0.56334673  0.90973110  0.59238400  1.0
  Ni  Ni1122  1  0.89668007  0.24306443  0.59238400  1.0
  Ni  Ni1123  1  0.89668007  0.57639777  0.59238400  1.0
  Ni  Ni1124  1  0.89668007  0.90973110  0.59238400  1.0
  Ni  Ni1125  1  0.09668007  0.20973110  0.59238400  1.0
  Ni  Ni1126  1  0.09668007  0.54306443  0.59238400  1.0
  Ni  Ni1127  1  0.09668007  0.87639777  0.59238400  1.0
  Ni  Ni1128  1  0.43001340  0.20973110  0.59238400  1.0
  Ni  Ni1129  1  0.43001340  0.54306443  0.59238400  1.0
  Ni  Ni1130  1  0.43001340  0.87639777  0.59238400  1.0
  Ni  Ni1131  1  0.76334673  0.20973110  0.59238400  1.0
  Ni  Ni1132  1  0.76334673  0.54306443  0.59238400  1.0
  Ni  Ni1133  1  0.76334673  0.87639777  0.59238400  1.0
  Ni  Ni1134  1  0.32611667  0.26666667  0.96523200  1.0
  Ni  Ni1135  1  0.32611667  0.60000000  0.96523200  1.0
  Ni  Ni1136  1  0.32611667  0.93333333  0.96523200  1.0
  Ni  Ni1137  1  0.65945000  0.26666667  0.96523200  1.0
  Ni  Ni1138  1  0.65945000  0.60000000  0.96523200  1.0
  Ni  Ni1139  1  0.65945000  0.93333333  0.96523200  1.0
  Ni  Ni1140  1  0.99278333  0.26666667  0.96523200  1.0
  Ni  Ni1141  1  0.99278333  0.60000000  0.96523200  1.0
  Ni  Ni1142  1  0.99278333  0.93333333  0.96523200  1.0
  Ni  Ni1143  1  0.19278333  0.23333333  0.96523200  1.0
  Ni  Ni1144  1  0.19278333  0.56666667  0.96523200  1.0
  Ni  Ni1145  1  0.19278333  0.90000000  0.96523200  1.0
  Ni  Ni1146  1  0.52611667  0.23333333  0.96523200  1.0
  Ni  Ni1147  1  0.52611667  0.56666667  0.96523200  1.0
  Ni  Ni1148  1  0.52611667  0.90000000  0.96523200  1.0
  Ni  Ni1149  1  0.85945000  0.23333333  0.96523200  1.0
  Ni  Ni1150  1  0.85945000  0.56666667  0.96523200  1.0
  Ni  Ni1151  1  0.85945000  0.90000000  0.96523200  1.0
  Zn  Zn1152  1  0.26381240  0.32154293  0.77715800  1.0
  Zn  Zn1153  1  0.26381240  0.65487627  0.77715800  1.0
  Zn  Zn1154  1  0.26381240  0.98820960  0.77715800  1.0
  Zn  Zn1155  1  0.59714573  0.32154293  0.77715800  1.0
  Zn  Zn1156  1  0.59714573  0.65487627  0.77715800  1.0
  Zn  Zn1157  1  0.59714573  0.98820960  0.77715800  1.0
  Zn  Zn1158  1  0.93047907  0.32154293  0.77715800  1.0
  Zn  Zn1159  1  0.93047907  0.65487627  0.77715800  1.0
  Zn  Zn1160  1  0.93047907  0.98820960  0.77715800  1.0
  Zn  Zn1161  1  0.13047907  0.28820960  0.77715800  1.0
  Zn  Zn1162  1  0.13047907  0.62154293  0.77715800  1.0
  Zn  Zn1163  1  0.13047907  0.95487627  0.77715800  1.0
  Zn  Zn1164  1  0.46381240  0.28820960  0.77715800  1.0
  Zn  Zn1165  1  0.46381240  0.62154293  0.77715800  1.0
  Zn  Zn1166  1  0.46381240  0.95487627  0.77715800  1.0
  Zn  Zn1167  1  0.79714573  0.28820960  0.77715800  1.0
  Zn  Zn1168  1  0.79714573  0.62154293  0.77715800  1.0
  Zn  Zn1169  1  0.79714573  0.95487627  0.77715800  1.0
  Zn  Zn1170  1  0.08347947  0.32965170  0.39844700  1.0
  Zn  Zn1171  1  0.08347947  0.66298503  0.39844700  1.0
  Zn  Zn1172  1  0.08347947  0.99631837  0.39844700  1.0
  Zn  Zn1173  1  0.41681280  0.32965170  0.39844700  1.0
  Zn  Zn1174  1  0.41681280  0.66298503  0.39844700  1.0
  Zn  Zn1175  1  0.41681280  0.99631837  0.39844700  1.0
  Zn  Zn1176  1  0.75014613  0.32965170  0.39844700  1.0
  Zn  Zn1177  1  0.75014613  0.66298503  0.39844700  1.0
  Zn  Zn1178  1  0.75014613  0.99631837  0.39844700  1.0
  Zn  Zn1179  1  0.28347947  0.29631837  0.39844700  1.0
  Zn  Zn1180  1  0.28347947  0.62965170  0.39844700  1.0
  Zn  Zn1181  1  0.28347947  0.96298503  0.39844700  1.0
  Zn  Zn1182  1  0.61681280  0.29631837  0.39844700  1.0
  Zn  Zn1183  1  0.61681280  0.62965170  0.39844700  1.0
  Zn  Zn1184  1  0.61681280  0.96298503  0.39844700  1.0
  Zn  Zn1185  1  0.95014613  0.29631837  0.39844700  1.0
  Zn  Zn1186  1  0.95014613  0.62965170  0.39844700  1.0
  Zn  Zn1187  1  0.95014613  0.96298503  0.39844700  1.0
  Zn  Zn1188  1  0.28880700  0.27605150  0.92360400  1.0
  Zn  Zn1189  1  0.28880700  0.60938483  0.92360400  1.0
  Zn  Zn1190  1  0.28880700  0.94271817  0.92360400  1.0
  Zn  Zn1191  1  0.62214033  0.27605150  0.92360400  1.0
  Zn  Zn1192  1  0.62214033  0.60938483  0.92360400  1.0
  Zn  Zn1193  1  0.62214033  0.94271817  0.92360400  1.0
  Zn  Zn1194  1  0.95547367  0.27605150  0.92360400  1.0
  Zn  Zn1195  1  0.95547367  0.60938483  0.92360400  1.0
  Zn  Zn1196  1  0.95547367  0.94271817  0.92360400  1.0
  Zn  Zn1197  1  0.08880700  0.30938483  0.92360400  1.0
  Zn  Zn1198  1  0.08880700  0.64271817  0.92360400  1.0
  Zn  Zn1199  1  0.08880700  0.97605150  0.92360400  1.0
  Zn  Zn1200  1  0.42214033  0.30938483  0.92360400  1.0
  Zn  Zn1201  1  0.42214033  0.64271817  0.92360400  1.0
  Zn  Zn1202  1  0.42214033  0.97605150  0.92360400  1.0
  Zn  Zn1203  1  0.75547367  0.30938483  0.92360400  1.0
  Zn  Zn1204  1  0.75547367  0.64271817  0.92360400  1.0
  Zn  Zn1205  1  0.75547367  0.97605150  0.92360400  1.0
  Zn  Zn1206  1  0.18781787  0.29745113  0.88630400  1.0
  Zn  Zn1207  1  0.18781787  0.63078447  0.88630400  1.0
  Zn  Zn1208  1  0.18781787  0.96411780  0.88630400  1.0
  Zn  Zn1209  1  0.52115120  0.29745113  0.88630400  1.0
  Zn  Zn1210  1  0.52115120  0.63078447  0.88630400  1.0
  Zn  Zn1211  1  0.52115120  0.96411780  0.88630400  1.0
  Zn  Zn1212  1  0.85448453  0.29745113  0.88630400  1.0
  Zn  Zn1213  1  0.85448453  0.63078447  0.88630400  1.0
  Zn  Zn1214  1  0.85448453  0.96411780  0.88630400  1.0
  Zn  Zn1215  1  0.32115120  0.33078447  0.88630400  1.0
  Zn  Zn1216  1  0.32115120  0.66411780  0.88630400  1.0
  Zn  Zn1217  1  0.32115120  0.99745113  0.88630400  1.0
  Zn  Zn1218  1  0.65448453  0.33078447  0.88630400  1.0
  Zn  Zn1219  1  0.65448453  0.66411780  0.88630400  1.0
  Zn  Zn1220  1  0.65448453  0.99745113  0.88630400  1.0
  Zn  Zn1221  1  0.98781787  0.33078447  0.88630400  1.0
  Zn  Zn1222  1  0.98781787  0.66411780  0.88630400  1.0
  Zn  Zn1223  1  0.98781787  0.99745113  0.88630400  1.0
  Zn  Zn1224  1  0.19711833  0.30343500  0.29181600  1.0
  Zn  Zn1225  1  0.19711833  0.63676833  0.29181600  1.0
  Zn  Zn1226  1  0.19711833  0.97010167  0.29181600  1.0
  Zn  Zn1227  1  0.53045167  0.30343500  0.29181600  1.0
  Zn  Zn1228  1  0.53045167  0.63676833  0.29181600  1.0
  Zn  Zn1229  1  0.53045167  0.97010167  0.29181600  1.0
  Zn  Zn1230  1  0.86378500  0.30343500  0.29181600  1.0
  Zn  Zn1231  1  0.86378500  0.63676833  0.29181600  1.0
  Zn  Zn1232  1  0.86378500  0.97010167  0.29181600  1.0
  Zn  Zn1233  1  0.06378500  0.27010167  0.29181600  1.0
  Zn  Zn1234  1  0.06378500  0.60343500  0.29181600  1.0
  Zn  Zn1235  1  0.06378500  0.93676833  0.29181600  1.0
  Zn  Zn1236  1  0.39711833  0.27010167  0.29181600  1.0
  Zn  Zn1237  1  0.39711833  0.60343500  0.29181600  1.0
  Zn  Zn1238  1  0.39711833  0.93676833  0.29181600  1.0
  Zn  Zn1239  1  0.73045167  0.27010167  0.29181600  1.0
  Zn  Zn1240  1  0.73045167  0.60343500  0.29181600  1.0
  Zn  Zn1241  1  0.73045167  0.93676833  0.29181600  1.0
  Zn  Zn1242  1  0.15831213  0.29197453  0.65361200  1.0
  Zn  Zn1243  1  0.15831213  0.62530787  0.65361200  1.0
  Zn  Zn1244  1  0.15831213  0.95864120  0.65361200  1.0
  Zn  Zn1245  1  0.49164547  0.29197453  0.65361200  1.0
  Zn  Zn1246  1  0.49164547  0.62530787  0.65361200  1.0
  Zn  Zn1247  1  0.49164547  0.95864120  0.65361200  1.0
  Zn  Zn1248  1  0.82497880  0.29197453  0.65361200  1.0
  Zn  Zn1249  1  0.82497880  0.62530787  0.65361200  1.0
  Zn  Zn1250  1  0.82497880  0.95864120  0.65361200  1.0
  Zn  Zn1251  1  0.29164547  0.32530787  0.65361200  1.0
  Zn  Zn1252  1  0.29164547  0.65864120  0.65361200  1.0
  Zn  Zn1253  1  0.29164547  0.99197453  0.65361200  1.0
  Zn  Zn1254  1  0.62497880  0.32530787  0.65361200  1.0
  Zn  Zn1255  1  0.62497880  0.65864120  0.65361200  1.0
  Zn  Zn1256  1  0.62497880  0.99197453  0.65361200  1.0
  Zn  Zn1257  1  0.95831213  0.32530787  0.65361200  1.0
  Zn  Zn1258  1  0.95831213  0.65864120  0.65361200  1.0
  Zn  Zn1259  1  0.95831213  0.99197453  0.65361200  1.0
  Zn  Zn1260  1  0.10683020  0.27837997  0.27184200  1.0
  Zn  Zn1261  1  0.10683020  0.61171330  0.27184200  1.0
  Zn  Zn1262  1  0.10683020  0.94504663  0.27184200  1.0
  Zn  Zn1263  1  0.44016353  0.27837997  0.27184200  1.0
  Zn  Zn1264  1  0.44016353  0.61171330  0.27184200  1.0
  Zn  Zn1265  1  0.44016353  0.94504663  0.27184200  1.0
  Zn  Zn1266  1  0.77349687  0.27837997  0.27184200  1.0
  Zn  Zn1267  1  0.77349687  0.61171330  0.27184200  1.0
  Zn  Zn1268  1  0.77349687  0.94504663  0.27184200  1.0
  Zn  Zn1269  1  0.24016353  0.31171330  0.27184200  1.0
  Zn  Zn1270  1  0.24016353  0.64504663  0.27184200  1.0
  Zn  Zn1271  1  0.24016353  0.97837997  0.27184200  1.0
  Zn  Zn1272  1  0.57349687  0.31171330  0.27184200  1.0
  Zn  Zn1273  1  0.57349687  0.64504663  0.27184200  1.0
  Zn  Zn1274  1  0.57349687  0.97837997  0.27184200  1.0
  Zn  Zn1275  1  0.90683020  0.31171330  0.27184200  1.0
  Zn  Zn1276  1  0.90683020  0.64504663  0.27184200  1.0
  Zn  Zn1277  1  0.90683020  0.97837997  0.27184200  1.0
  Zn  Zn1278  1  0.20854720  0.28429613  0.52343700  1.0
  Zn  Zn1279  1  0.20854720  0.61762947  0.52343700  1.0
  Zn  Zn1280  1  0.20854720  0.95096280  0.52343700  1.0
  Zn  Zn1281  1  0.54188053  0.28429613  0.52343700  1.0
  Zn  Zn1282  1  0.54188053  0.61762947  0.52343700  1.0
  Zn  Zn1283  1  0.54188053  0.95096280  0.52343700  1.0
  Zn  Zn1284  1  0.87521387  0.28429613  0.52343700  1.0
  Zn  Zn1285  1  0.87521387  0.61762947  0.52343700  1.0
  Zn  Zn1286  1  0.87521387  0.95096280  0.52343700  1.0
  Zn  Zn1287  1  0.00854720  0.31762947  0.52343700  1.0
  Zn  Zn1288  1  0.00854720  0.65096280  0.52343700  1.0
  Zn  Zn1289  1  0.00854720  0.98429613  0.52343700  1.0
  Zn  Zn1290  1  0.34188053  0.31762947  0.52343700  1.0
  Zn  Zn1291  1  0.34188053  0.65096280  0.52343700  1.0
  Zn  Zn1292  1  0.34188053  0.98429613  0.52343700  1.0
  Zn  Zn1293  1  0.67521387  0.31762947  0.52343700  1.0
  Zn  Zn1294  1  0.67521387  0.65096280  0.52343700  1.0
  Zn  Zn1295  1  0.67521387  0.98429613  0.52343700  1.0
  Zn  Zn1296  1  0.25447313  0.29862353  0.71971800  1.0
  Zn  Zn1297  1  0.25447313  0.63195687  0.71971800  1.0
  Zn  Zn1298  1  0.25447313  0.96529020  0.71971800  1.0
  Zn  Zn1299  1  0.58780647  0.29862353  0.71971800  1.0
  Zn  Zn1300  1  0.58780647  0.63195687  0.71971800  1.0
  Zn  Zn1301  1  0.58780647  0.96529020  0.71971800  1.0
  Zn  Zn1302  1  0.92113980  0.29862353  0.71971800  1.0
  Zn  Zn1303  1  0.92113980  0.63195687  0.71971800  1.0
  Zn  Zn1304  1  0.92113980  0.96529020  0.71971800  1.0
  Zn  Zn1305  1  0.05447313  0.33195687  0.71971800  1.0
  Zn  Zn1306  1  0.05447313  0.66529020  0.71971800  1.0
  Zn  Zn1307  1  0.05447313  0.99862353  0.71971800  1.0
  Zn  Zn1308  1  0.38780647  0.33195687  0.71971800  1.0
  Zn  Zn1309  1  0.38780647  0.66529020  0.71971800  1.0
  Zn  Zn1310  1  0.38780647  0.99862353  0.71971800  1.0
  Zn  Zn1311  1  0.72113980  0.33195687  0.71971800  1.0
  Zn  Zn1312  1  0.72113980  0.66529020  0.71971800  1.0
  Zn  Zn1313  1  0.72113980  0.99862353  0.71971800  1.0
  Zn  Zn1314  1  0.24977707  0.27648993  0.34598900  1.0
  Zn  Zn1315  1  0.24977707  0.60982327  0.34598900  1.0
  Zn  Zn1316  1  0.24977707  0.94315660  0.34598900  1.0
  Zn  Zn1317  1  0.58311040  0.27648993  0.34598900  1.0
  Zn  Zn1318  1  0.58311040  0.60982327  0.34598900  1.0
  Zn  Zn1319  1  0.58311040  0.94315660  0.34598900  1.0
  Zn  Zn1320  1  0.91644373  0.27648993  0.34598900  1.0
  Zn  Zn1321  1  0.91644373  0.60982327  0.34598900  1.0
  Zn  Zn1322  1  0.91644373  0.94315660  0.34598900  1.0
  Zn  Zn1323  1  0.04977707  0.30982327  0.34598900  1.0
  Zn  Zn1324  1  0.04977707  0.64315660  0.34598900  1.0
  Zn  Zn1325  1  0.04977707  0.97648993  0.34598900  1.0
  Zn  Zn1326  1  0.38311040  0.30982327  0.34598900  1.0
  Zn  Zn1327  1  0.38311040  0.64315660  0.34598900  1.0
  Zn  Zn1328  1  0.38311040  0.97648993  0.34598900  1.0
  Zn  Zn1329  1  0.71644373  0.30982327  0.34598900  1.0
  Zn  Zn1330  1  0.71644373  0.64315660  0.34598900  1.0
  Zn  Zn1331  1  0.71644373  0.97648993  0.34598900  1.0
  Zn  Zn1332  1  0.18340480  0.31694220  0.08578400  1.0
  Zn  Zn1333  1  0.18340480  0.65027553  0.08578400  1.0
  Zn  Zn1334  1  0.18340480  0.98360887  0.08578400  1.0
  Zn  Zn1335  1  0.51673813  0.31694220  0.08578400  1.0
  Zn  Zn1336  1  0.51673813  0.65027553  0.08578400  1.0
  Zn  Zn1337  1  0.51673813  0.98360887  0.08578400  1.0
  Zn  Zn1338  1  0.85007147  0.31694220  0.08578400  1.0
  Zn  Zn1339  1  0.85007147  0.65027553  0.08578400  1.0
  Zn  Zn1340  1  0.85007147  0.98360887  0.08578400  1.0
  Zn  Zn1341  1  0.05007147  0.28360887  0.08578400  1.0
  Zn  Zn1342  1  0.05007147  0.61694220  0.08578400  1.0
  Zn  Zn1343  1  0.05007147  0.95027553  0.08578400  1.0
  Zn  Zn1344  1  0.38340480  0.28360887  0.08578400  1.0
  Zn  Zn1345  1  0.38340480  0.61694220  0.08578400  1.0
  Zn  Zn1346  1  0.38340480  0.95027553  0.08578400  1.0
  Zn  Zn1347  1  0.71673813  0.28360887  0.08578400  1.0
  Zn  Zn1348  1  0.71673813  0.61694220  0.08578400  1.0
  Zn  Zn1349  1  0.71673813  0.95027553  0.08578400  1.0
  Zn  Zn1350  1  0.24329180  0.30367903  0.97656300  1.0
  Zn  Zn1351  1  0.24329180  0.63701237  0.97656300  1.0
  Zn  Zn1352  1  0.24329180  0.97034570  0.97656300  1.0
  Zn  Zn1353  1  0.57662513  0.30367903  0.97656300  1.0
  Zn  Zn1354  1  0.57662513  0.63701237  0.97656300  1.0
  Zn  Zn1355  1  0.57662513  0.97034570  0.97656300  1.0
  Zn  Zn1356  1  0.90995847  0.30367903  0.97656300  1.0
  Zn  Zn1357  1  0.90995847  0.63701237  0.97656300  1.0
  Zn  Zn1358  1  0.90995847  0.97034570  0.97656300  1.0
  Zn  Zn1359  1  0.10995847  0.27034570  0.97656300  1.0
  Zn  Zn1360  1  0.10995847  0.60367903  0.97656300  1.0
  Zn  Zn1361  1  0.10995847  0.93701237  0.97656300  1.0
  Zn  Zn1362  1  0.44329180  0.27034570  0.97656300  1.0
  Zn  Zn1363  1  0.44329180  0.60367903  0.97656300  1.0
  Zn  Zn1364  1  0.44329180  0.93701237  0.97656300  1.0
  Zn  Zn1365  1  0.77662513  0.27034570  0.97656300  1.0
  Zn  Zn1366  1  0.77662513  0.60367903  0.97656300  1.0
  Zn  Zn1367  1  0.77662513  0.93701237  0.97656300  1.0
  Zn  Zn1368  1  0.26795667  0.31537667  0.50000000  1.0
  Zn  Zn1369  1  0.26795667  0.64871000  0.50000000  1.0
  Zn  Zn1370  1  0.26795667  0.98204333  0.50000000  1.0
  Zn  Zn1371  1  0.60129000  0.31537667  0.50000000  1.0
  Zn  Zn1372  1  0.60129000  0.64871000  0.50000000  1.0
  Zn  Zn1373  1  0.60129000  0.98204333  0.50000000  1.0
  Zn  Zn1374  1  0.93462333  0.31537667  0.50000000  1.0
  Zn  Zn1375  1  0.93462333  0.64871000  0.50000000  1.0
  Zn  Zn1376  1  0.93462333  0.98204333  0.50000000  1.0
  Zn  Zn1377  1  0.13462333  0.28204333  0.50000000  1.0
  Zn  Zn1378  1  0.13462333  0.61537667  0.50000000  1.0
  Zn  Zn1379  1  0.13462333  0.94871000  0.50000000  1.0
  Zn  Zn1380  1  0.46795667  0.28204333  0.50000000  1.0
  Zn  Zn1381  1  0.46795667  0.61537667  0.50000000  1.0
  Zn  Zn1382  1  0.46795667  0.94871000  0.50000000  1.0
  Zn  Zn1383  1  0.80129000  0.28204333  0.50000000  1.0
  Zn  Zn1384  1  0.80129000  0.61537667  0.50000000  1.0
  Zn  Zn1385  1  0.80129000  0.94871000  0.50000000  1.0
  Zn  Zn1386  1  0.24221673  0.32453560  0.84265600  1.0
  Zn  Zn1387  1  0.24221673  0.65786893  0.84265600  1.0
  Zn  Zn1388  1  0.24221673  0.99120227  0.84265600  1.0
  Zn  Zn1389  1  0.57555007  0.32453560  0.84265600  1.0
  Zn  Zn1390  1  0.57555007  0.65786893  0.84265600  1.0
  Zn  Zn1391  1  0.57555007  0.99120227  0.84265600  1.0
  Zn  Zn1392  1  0.90888340  0.32453560  0.84265600  1.0
  Zn  Zn1393  1  0.90888340  0.65786893  0.84265600  1.0
  Zn  Zn1394  1  0.90888340  0.99120227  0.84265600  1.0
  Zn  Zn1395  1  0.10888340  0.29120227  0.84265600  1.0
  Zn  Zn1396  1  0.10888340  0.62453560  0.84265600  1.0
  Zn  Zn1397  1  0.10888340  0.95786893  0.84265600  1.0
  Zn  Zn1398  1  0.44221673  0.29120227  0.84265600  1.0
  Zn  Zn1399  1  0.44221673  0.62453560  0.84265600  1.0
  Zn  Zn1400  1  0.44221673  0.95786893  0.84265600  1.0
  Zn  Zn1401  1  0.77555007  0.29120227  0.84265600  1.0
  Zn  Zn1402  1  0.77555007  0.62453560  0.84265600  1.0
  Zn  Zn1403  1  0.77555007  0.95786893  0.84265600  1.0
  Zn  Zn1404  1  0.24507040  0.29202977  0.79181600  1.0
  Zn  Zn1405  1  0.24507040  0.62536310  0.79181600  1.0
  Zn  Zn1406  1  0.24507040  0.95869643  0.79181600  1.0
  Zn  Zn1407  1  0.57840373  0.29202977  0.79181600  1.0
  Zn  Zn1408  1  0.57840373  0.62536310  0.79181600  1.0
  Zn  Zn1409  1  0.57840373  0.95869643  0.79181600  1.0
  Zn  Zn1410  1  0.91173707  0.29202977  0.79181600  1.0
  Zn  Zn1411  1  0.91173707  0.62536310  0.79181600  1.0
  Zn  Zn1412  1  0.91173707  0.95869643  0.79181600  1.0
  Zn  Zn1413  1  0.04507040  0.32536310  0.79181600  1.0
  Zn  Zn1414  1  0.04507040  0.65869643  0.79181600  1.0
  Zn  Zn1415  1  0.04507040  0.99202977  0.79181600  1.0
  Zn  Zn1416  1  0.37840373  0.32536310  0.79181600  1.0
  Zn  Zn1417  1  0.37840373  0.65869643  0.79181600  1.0
  Zn  Zn1418  1  0.37840373  0.99202977  0.79181600  1.0
  Zn  Zn1419  1  0.71173707  0.32536310  0.79181600  1.0
  Zn  Zn1420  1  0.71173707  0.65869643  0.79181600  1.0
  Zn  Zn1421  1  0.71173707  0.99202977  0.79181600  1.0
  Zn  Zn1422  1  0.23009920  0.31545880  0.90826300  1.0
  Zn  Zn1423  1  0.23009920  0.64879213  0.90826300  1.0
  Zn  Zn1424  1  0.23009920  0.98212547  0.90826300  1.0
  Zn  Zn1425  1  0.56343253  0.31545880  0.90826300  1.0
  Zn  Zn1426  1  0.56343253  0.64879213  0.90826300  1.0
  Zn  Zn1427  1  0.56343253  0.98212547  0.90826300  1.0
  Zn  Zn1428  1  0.89676587  0.31545880  0.90826300  1.0
  Zn  Zn1429  1  0.89676587  0.64879213  0.90826300  1.0
  Zn  Zn1430  1  0.89676587  0.98212547  0.90826300  1.0
  Zn  Zn1431  1  0.09676587  0.28212547  0.90826300  1.0
  Zn  Zn1432  1  0.09676587  0.61545880  0.90826300  1.0
  Zn  Zn1433  1  0.09676587  0.94879213  0.90826300  1.0
  Zn  Zn1434  1  0.43009920  0.28212547  0.90826300  1.0
  Zn  Zn1435  1  0.43009920  0.61545880  0.90826300  1.0
  Zn  Zn1436  1  0.43009920  0.94879213  0.90826300  1.0
  Zn  Zn1437  1  0.76343253  0.28212547  0.90826300  1.0
  Zn  Zn1438  1  0.76343253  0.61545880  0.90826300  1.0
  Zn  Zn1439  1  0.76343253  0.94879213  0.90826300  1.0
  Zn  Zn1440  1  0.27584593  0.31447790  0.57639600  1.0
  Zn  Zn1441  1  0.27584593  0.64781123  0.57639600  1.0
  Zn  Zn1442  1  0.27584593  0.98114457  0.57639600  1.0
  Zn  Zn1443  1  0.60917927  0.31447790  0.57639600  1.0
  Zn  Zn1444  1  0.60917927  0.64781123  0.57639600  1.0
  Zn  Zn1445  1  0.60917927  0.98114457  0.57639600  1.0
  Zn  Zn1446  1  0.94251260  0.31447790  0.57639600  1.0
  Zn  Zn1447  1  0.94251260  0.64781123  0.57639600  1.0
  Zn  Zn1448  1  0.94251260  0.98114457  0.57639600  1.0
  Zn  Zn1449  1  0.14251260  0.28114457  0.57639600  1.0
  Zn  Zn1450  1  0.14251260  0.61447790  0.57639600  1.0
  Zn  Zn1451  1  0.14251260  0.94781123  0.57639600  1.0
  Zn  Zn1452  1  0.47584593  0.28114457  0.57639600  1.0
  Zn  Zn1453  1  0.47584593  0.61447790  0.57639600  1.0
  Zn  Zn1454  1  0.47584593  0.94781123  0.57639600  1.0
  Zn  Zn1455  1  0.80917927  0.28114457  0.57639600  1.0
  Zn  Zn1456  1  0.80917927  0.61447790  0.57639600  1.0
  Zn  Zn1457  1  0.80917927  0.94781123  0.57639600  1.0
  Zn  Zn1458  1  0.25868640  0.29433143  0.89844700  1.0
  Zn  Zn1459  1  0.25868640  0.62766477  0.89844700  1.0
  Zn  Zn1460  1  0.25868640  0.96099810  0.89844700  1.0
  Zn  Zn1461  1  0.59201973  0.29433143  0.89844700  1.0
  Zn  Zn1462  1  0.59201973  0.62766477  0.89844700  1.0
  Zn  Zn1463  1  0.59201973  0.96099810  0.89844700  1.0
  Zn  Zn1464  1  0.92535307  0.29433143  0.89844700  1.0
  Zn  Zn1465  1  0.92535307  0.62766477  0.89844700  1.0
  Zn  Zn1466  1  0.92535307  0.96099810  0.89844700  1.0
  Zn  Zn1467  1  0.05868640  0.32766477  0.89844700  1.0
  Zn  Zn1468  1  0.05868640  0.66099810  0.89844700  1.0
  Zn  Zn1469  1  0.05868640  0.99433143  0.89844700  1.0
  Zn  Zn1470  1  0.39201973  0.32766477  0.89844700  1.0
  Zn  Zn1471  1  0.39201973  0.66099810  0.89844700  1.0
  Zn  Zn1472  1  0.39201973  0.99433143  0.89844700  1.0
  Zn  Zn1473  1  0.72535307  0.32766477  0.89844700  1.0
  Zn  Zn1474  1  0.72535307  0.66099810  0.89844700  1.0
  Zn  Zn1475  1  0.72535307  0.99433143  0.89844700  1.0
  Zn  Zn1476  1  0.20181013  0.32092553  0.22284200  1.0
  Zn  Zn1477  1  0.20181013  0.65425887  0.22284200  1.0
  Zn  Zn1478  1  0.20181013  0.98759220  0.22284200  1.0
  Zn  Zn1479  1  0.53514347  0.32092553  0.22284200  1.0
  Zn  Zn1480  1  0.53514347  0.65425887  0.22284200  1.0
  Zn  Zn1481  1  0.53514347  0.98759220  0.22284200  1.0
  Zn  Zn1482  1  0.86847680  0.32092553  0.22284200  1.0
  Zn  Zn1483  1  0.86847680  0.65425887  0.22284200  1.0
  Zn  Zn1484  1  0.86847680  0.98759220  0.22284200  1.0
  Zn  Zn1485  1  0.06847680  0.28759220  0.22284200  1.0
  Zn  Zn1486  1  0.06847680  0.62092553  0.22284200  1.0
  Zn  Zn1487  1  0.06847680  0.95425887  0.22284200  1.0
  Zn  Zn1488  1  0.40181013  0.28759220  0.22284200  1.0
  Zn  Zn1489  1  0.40181013  0.62092553  0.22284200  1.0
  Zn  Zn1490  1  0.40181013  0.95425887  0.22284200  1.0
  Zn  Zn1491  1  0.73514347  0.28759220  0.22284200  1.0
  Zn  Zn1492  1  0.73514347  0.62092553  0.22284200  1.0
  Zn  Zn1493  1  0.73514347  0.95425887  0.22284200  1.0
  Zn  Zn1494  1  0.28127973  0.32568260  0.91421600  1.0
  Zn  Zn1495  1  0.28127973  0.65901593  0.91421600  1.0
  Zn  Zn1496  1  0.28127973  0.99234927  0.91421600  1.0
  Zn  Zn1497  1  0.61461307  0.32568260  0.91421600  1.0
  Zn  Zn1498  1  0.61461307  0.65901593  0.91421600  1.0
  Zn  Zn1499  1  0.61461307  0.99234927  0.91421600  1.0
  Zn  Zn1500  1  0.94794640  0.32568260  0.91421600  1.0
  Zn  Zn1501  1  0.94794640  0.65901593  0.91421600  1.0
  Zn  Zn1502  1  0.94794640  0.99234927  0.91421600  1.0
  Zn  Zn1503  1  0.14794640  0.29234927  0.91421600  1.0
  Zn  Zn1504  1  0.14794640  0.62568260  0.91421600  1.0
  Zn  Zn1505  1  0.14794640  0.95901593  0.91421600  1.0
  Zn  Zn1506  1  0.48127973  0.29234927  0.91421600  1.0
  Zn  Zn1507  1  0.48127973  0.62568260  0.91421600  1.0
  Zn  Zn1508  1  0.48127973  0.95901593  0.91421600  1.0
  Zn  Zn1509  1  0.81461307  0.29234927  0.91421600  1.0
  Zn  Zn1510  1  0.81461307  0.62568260  0.91421600  1.0
  Zn  Zn1511  1  0.81461307  0.95901593  0.91421600  1.0
  Zn  Zn1512  1  0.03361600  0.31468633  0.02343700  1.0
  Zn  Zn1513  1  0.03361600  0.64801967  0.02343700  1.0
  Zn  Zn1514  1  0.03361600  0.98135300  0.02343700  1.0
  Zn  Zn1515  1  0.36694933  0.31468633  0.02343700  1.0
  Zn  Zn1516  1  0.36694933  0.64801967  0.02343700  1.0
  Zn  Zn1517  1  0.36694933  0.98135300  0.02343700  1.0
  Zn  Zn1518  1  0.70028267  0.31468633  0.02343700  1.0
  Zn  Zn1519  1  0.70028267  0.64801967  0.02343700  1.0
  Zn  Zn1520  1  0.70028267  0.98135300  0.02343700  1.0
  Zn  Zn1521  1  0.23361600  0.28135300  0.02343700  1.0
  Zn  Zn1522  1  0.23361600  0.61468633  0.02343700  1.0
  Zn  Zn1523  1  0.23361600  0.94801967  0.02343700  1.0
  Zn  Zn1524  1  0.56694933  0.28135300  0.02343700  1.0
  Zn  Zn1525  1  0.56694933  0.61468633  0.02343700  1.0
  Zn  Zn1526  1  0.56694933  0.94801967  0.02343700  1.0
  Zn  Zn1527  1  0.90028267  0.28135300  0.02343700  1.0
  Zn  Zn1528  1  0.90028267  0.61468633  0.02343700  1.0
  Zn  Zn1529  1  0.90028267  0.94801967  0.02343700  1.0
  Zn  Zn1530  1  0.23317900  0.26920883  0.46400800  1.0
  Zn  Zn1531  1  0.23317900  0.60254217  0.46400800  1.0
  Zn  Zn1532  1  0.23317900  0.93587550  0.46400800  1.0
  Zn  Zn1533  1  0.56651233  0.26920883  0.46400800  1.0
  Zn  Zn1534  1  0.56651233  0.60254217  0.46400800  1.0
  Zn  Zn1535  1  0.56651233  0.93587550  0.46400800  1.0
  Zn  Zn1536  1  0.89984567  0.26920883  0.46400800  1.0
  Zn  Zn1537  1  0.89984567  0.60254217  0.46400800  1.0
  Zn  Zn1538  1  0.89984567  0.93587550  0.46400800  1.0
  Zn  Zn1539  1  0.03317900  0.30254217  0.46400800  1.0
  Zn  Zn1540  1  0.03317900  0.63587550  0.46400800  1.0
  Zn  Zn1541  1  0.03317900  0.96920883  0.46400800  1.0
  Zn  Zn1542  1  0.36651233  0.30254217  0.46400800  1.0
  Zn  Zn1543  1  0.36651233  0.63587550  0.46400800  1.0
  Zn  Zn1544  1  0.36651233  0.96920883  0.46400800  1.0
  Zn  Zn1545  1  0.69984567  0.30254217  0.46400800  1.0
  Zn  Zn1546  1  0.69984567  0.63587550  0.46400800  1.0
  Zn  Zn1547  1  0.69984567  0.96920883  0.46400800  1.0
  Zn  Zn1548  1  0.24426787  0.30544547  0.34638800  1.0
  Zn  Zn1549  1  0.24426787  0.63877880  0.34638800  1.0
  Zn  Zn1550  1  0.24426787  0.97211213  0.34638800  1.0
  Zn  Zn1551  1  0.57760120  0.30544547  0.34638800  1.0
  Zn  Zn1552  1  0.57760120  0.63877880  0.34638800  1.0
  Zn  Zn1553  1  0.57760120  0.97211213  0.34638800  1.0
  Zn  Zn1554  1  0.91093453  0.30544547  0.34638800  1.0
  Zn  Zn1555  1  0.91093453  0.63877880  0.34638800  1.0
  Zn  Zn1556  1  0.91093453  0.97211213  0.34638800  1.0
  Zn  Zn1557  1  0.11093453  0.27211213  0.34638800  1.0
  Zn  Zn1558  1  0.11093453  0.60544547  0.34638800  1.0
  Zn  Zn1559  1  0.11093453  0.93877880  0.34638800  1.0
  Zn  Zn1560  1  0.44426787  0.27211213  0.34638800  1.0
  Zn  Zn1561  1  0.44426787  0.60544547  0.34638800  1.0
  Zn  Zn1562  1  0.44426787  0.93877880  0.34638800  1.0
  Zn  Zn1563  1  0.77760120  0.27211213  0.34638800  1.0
  Zn  Zn1564  1  0.77760120  0.60544547  0.34638800  1.0
  Zn  Zn1565  1  0.77760120  0.93877880  0.34638800  1.0
  Zn  Zn1566  1  0.13748880  0.33140153  0.58578400  1.0
  Zn  Zn1567  1  0.13748880  0.66473487  0.58578400  1.0
  Zn  Zn1568  1  0.13748880  0.99806820  0.58578400  1.0
  Zn  Zn1569  1  0.47082213  0.33140153  0.58578400  1.0
  Zn  Zn1570  1  0.47082213  0.66473487  0.58578400  1.0
  Zn  Zn1571  1  0.47082213  0.99806820  0.58578400  1.0
  Zn  Zn1572  1  0.80415547  0.33140153  0.58578400  1.0
  Zn  Zn1573  1  0.80415547  0.66473487  0.58578400  1.0
  Zn  Zn1574  1  0.80415547  0.99806820  0.58578400  1.0
  Zn  Zn1575  1  0.00415547  0.29806820  0.58578400  1.0
  Zn  Zn1576  1  0.00415547  0.63140153  0.58578400  1.0
  Zn  Zn1577  1  0.00415547  0.96473487  0.58578400  1.0
  Zn  Zn1578  1  0.33748880  0.29806820  0.58578400  1.0
  Zn  Zn1579  1  0.33748880  0.63140153  0.58578400  1.0
  Zn  Zn1580  1  0.33748880  0.96473487  0.58578400  1.0
  Zn  Zn1581  1  0.67082213  0.29806820  0.58578400  1.0
  Zn  Zn1582  1  0.67082213  0.63140153  0.58578400  1.0
  Zn  Zn1583  1  0.67082213  0.96473487  0.58578400  1.0
  Zn  Zn1584  1  0.26824100  0.27049617  0.77184200  1.0
  Zn  Zn1585  1  0.26824100  0.60382950  0.77184200  1.0
  Zn  Zn1586  1  0.26824100  0.93716283  0.77184200  1.0
  Zn  Zn1587  1  0.60157433  0.27049617  0.77184200  1.0
  Zn  Zn1588  1  0.60157433  0.60382950  0.77184200  1.0
  Zn  Zn1589  1  0.60157433  0.93716283  0.77184200  1.0
  Zn  Zn1590  1  0.93490767  0.27049617  0.77184200  1.0
  Zn  Zn1591  1  0.93490767  0.60382950  0.77184200  1.0
  Zn  Zn1592  1  0.93490767  0.93716283  0.77184200  1.0
  Zn  Zn1593  1  0.06824100  0.30382950  0.77184200  1.0
  Zn  Zn1594  1  0.06824100  0.63716283  0.77184200  1.0
  Zn  Zn1595  1  0.06824100  0.97049617  0.77184200  1.0
  Zn  Zn1596  1  0.40157433  0.30382950  0.77184200  1.0
  Zn  Zn1597  1  0.40157433  0.63716283  0.77184200  1.0
  Zn  Zn1598  1  0.40157433  0.97049617  0.77184200  1.0
  Zn  Zn1599  1  0.73490767  0.30382950  0.77184200  1.0
  Zn  Zn1600  1  0.73490767  0.63716283  0.77184200  1.0
  Zn  Zn1601  1  0.73490767  0.97049617  0.77184200  1.0
  Zn  Zn1602  1  0.07277200  0.31494217  0.10155300  1.0
  Zn  Zn1603  1  0.07277200  0.64827550  0.10155300  1.0
  Zn  Zn1604  1  0.07277200  0.98160883  0.10155300  1.0
  Zn  Zn1605  1  0.40610533  0.31494217  0.10155300  1.0
  Zn  Zn1606  1  0.40610533  0.64827550  0.10155300  1.0
  Zn  Zn1607  1  0.40610533  0.98160883  0.10155300  1.0
  Zn  Zn1608  1  0.73943867  0.31494217  0.10155300  1.0
  Zn  Zn1609  1  0.73943867  0.64827550  0.10155300  1.0
  Zn  Zn1610  1  0.73943867  0.98160883  0.10155300  1.0
  Zn  Zn1611  1  0.27277200  0.28160883  0.10155300  1.0
  Zn  Zn1612  1  0.27277200  0.61494217  0.10155300  1.0
  Zn  Zn1613  1  0.27277200  0.94827550  0.10155300  1.0
  Zn  Zn1614  1  0.60610533  0.28160883  0.10155300  1.0
  Zn  Zn1615  1  0.60610533  0.61494217  0.10155300  1.0
  Zn  Zn1616  1  0.60610533  0.94827550  0.10155300  1.0
  Zn  Zn1617  1  0.93943867  0.28160883  0.10155300  1.0
  Zn  Zn1618  1  0.93943867  0.61494217  0.10155300  1.0
  Zn  Zn1619  1  0.93943867  0.94827550  0.10155300  1.0
  Zn  Zn1620  1  0.06866053  0.32484463  0.29181600  1.0
  Zn  Zn1621  1  0.06866053  0.65817797  0.29181600  1.0
  Zn  Zn1622  1  0.06866053  0.99151130  0.29181600  1.0
  Zn  Zn1623  1  0.40199387  0.32484463  0.29181600  1.0
  Zn  Zn1624  1  0.40199387  0.65817797  0.29181600  1.0
  Zn  Zn1625  1  0.40199387  0.99151130  0.29181600  1.0
  Zn  Zn1626  1  0.73532720  0.32484463  0.29181600  1.0
  Zn  Zn1627  1  0.73532720  0.65817797  0.29181600  1.0
  Zn  Zn1628  1  0.73532720  0.99151130  0.29181600  1.0
  Zn  Zn1629  1  0.26866053  0.29151130  0.29181600  1.0
  Zn  Zn1630  1  0.26866053  0.62484463  0.29181600  1.0
  Zn  Zn1631  1  0.26866053  0.95817797  0.29181600  1.0
  Zn  Zn1632  1  0.60199387  0.29151130  0.29181600  1.0
  Zn  Zn1633  1  0.60199387  0.62484463  0.29181600  1.0
  Zn  Zn1634  1  0.60199387  0.95817797  0.29181600  1.0
  Zn  Zn1635  1  0.93532720  0.29151130  0.29181600  1.0
  Zn  Zn1636  1  0.93532720  0.62484463  0.29181600  1.0
  Zn  Zn1637  1  0.93532720  0.95817797  0.29181600  1.0
  Zn  Zn1638  1  0.07611020  0.27160830  0.03599200  1.0
  Zn  Zn1639  1  0.07611020  0.60494163  0.03599200  1.0
  Zn  Zn1640  1  0.07611020  0.93827497  0.03599200  1.0
  Zn  Zn1641  1  0.40944353  0.27160830  0.03599200  1.0
  Zn  Zn1642  1  0.40944353  0.60494163  0.03599200  1.0
  Zn  Zn1643  1  0.40944353  0.93827497  0.03599200  1.0
  Zn  Zn1644  1  0.74277687  0.27160830  0.03599200  1.0
  Zn  Zn1645  1  0.74277687  0.60494163  0.03599200  1.0
  Zn  Zn1646  1  0.74277687  0.93827497  0.03599200  1.0
  Zn  Zn1647  1  0.20944353  0.30494163  0.03599200  1.0
  Zn  Zn1648  1  0.20944353  0.63827497  0.03599200  1.0
  Zn  Zn1649  1  0.20944353  0.97160830  0.03599200  1.0
  Zn  Zn1650  1  0.54277687  0.30494163  0.03599200  1.0
  Zn  Zn1651  1  0.54277687  0.63827497  0.03599200  1.0
  Zn  Zn1652  1  0.54277687  0.97160830  0.03599200  1.0
  Zn  Zn1653  1  0.87611020  0.30494163  0.03599200  1.0
  Zn  Zn1654  1  0.87611020  0.63827497  0.03599200  1.0
  Zn  Zn1655  1  0.87611020  0.97160830  0.03599200  1.0
  Zn  Zn1656  1  0.21065853  0.30929063  0.78028200  1.0
  Zn  Zn1657  1  0.21065853  0.64262397  0.78028200  1.0
  Zn  Zn1658  1  0.21065853  0.97595730  0.78028200  1.0
  Zn  Zn1659  1  0.54399187  0.30929063  0.78028200  1.0
  Zn  Zn1660  1  0.54399187  0.64262397  0.78028200  1.0
  Zn  Zn1661  1  0.54399187  0.97595730  0.78028200  1.0
  Zn  Zn1662  1  0.87732520  0.30929063  0.78028200  1.0
  Zn  Zn1663  1  0.87732520  0.64262397  0.78028200  1.0
  Zn  Zn1664  1  0.87732520  0.97595730  0.78028200  1.0
  Zn  Zn1665  1  0.07732520  0.27595730  0.78028200  1.0
  Zn  Zn1666  1  0.07732520  0.60929063  0.78028200  1.0
  Zn  Zn1667  1  0.07732520  0.94262397  0.78028200  1.0
  Zn  Zn1668  1  0.41065853  0.27595730  0.78028200  1.0
  Zn  Zn1669  1  0.41065853  0.60929063  0.78028200  1.0
  Zn  Zn1670  1  0.41065853  0.94262397  0.78028200  1.0
  Zn  Zn1671  1  0.74399187  0.27595730  0.78028200  1.0
  Zn  Zn1672  1  0.74399187  0.60929063  0.78028200  1.0
  Zn  Zn1673  1  0.74399187  0.94262397  0.78028200  1.0
  Zn  Zn1674  1  0.16784280  0.32719337  0.15734400  1.0
  Zn  Zn1675  1  0.16784280  0.66052670  0.15734400  1.0
  Zn  Zn1676  1  0.16784280  0.99386003  0.15734400  1.0
  Zn  Zn1677  1  0.50117613  0.32719337  0.15734400  1.0
  Zn  Zn1678  1  0.50117613  0.66052670  0.15734400  1.0
  Zn  Zn1679  1  0.50117613  0.99386003  0.15734400  1.0
  Zn  Zn1680  1  0.83450947  0.32719337  0.15734400  1.0
  Zn  Zn1681  1  0.83450947  0.66052670  0.15734400  1.0
  Zn  Zn1682  1  0.83450947  0.99386003  0.15734400  1.0
  Zn  Zn1683  1  0.03450947  0.29386003  0.15734400  1.0
  Zn  Zn1684  1  0.03450947  0.62719337  0.15734400  1.0
  Zn  Zn1685  1  0.03450947  0.96052670  0.15734400  1.0
  Zn  Zn1686  1  0.36784280  0.29386003  0.15734400  1.0
  Zn  Zn1687  1  0.36784280  0.62719337  0.15734400  1.0
  Zn  Zn1688  1  0.36784280  0.96052670  0.15734400  1.0
  Zn  Zn1689  1  0.70117613  0.29386003  0.15734400  1.0
  Zn  Zn1690  1  0.70117613  0.62719337  0.15734400  1.0
  Zn  Zn1691  1  0.70117613  0.96052670  0.15734400  1.0
  Zn  Zn1692  1  0.16940100  0.32821117  0.53599200  1.0
  Zn  Zn1693  1  0.16940100  0.66154450  0.53599200  1.0
  Zn  Zn1694  1  0.16940100  0.99487783  0.53599200  1.0
  Zn  Zn1695  1  0.50273433  0.32821117  0.53599200  1.0
  Zn  Zn1696  1  0.50273433  0.66154450  0.53599200  1.0
  Zn  Zn1697  1  0.50273433  0.99487783  0.53599200  1.0
  Zn  Zn1698  1  0.83606767  0.32821117  0.53599200  1.0
  Zn  Zn1699  1  0.83606767  0.66154450  0.53599200  1.0
  Zn  Zn1700  1  0.83606767  0.99487783  0.53599200  1.0
  Zn  Zn1701  1  0.03606767  0.29487783  0.53599200  1.0
  Zn  Zn1702  1  0.03606767  0.62821117  0.53599200  1.0
  Zn  Zn1703  1  0.03606767  0.96154450  0.53599200  1.0
  Zn  Zn1704  1  0.36940100  0.29487783  0.53599200  1.0
  Zn  Zn1705  1  0.36940100  0.62821117  0.53599200  1.0
  Zn  Zn1706  1  0.36940100  0.96154450  0.53599200  1.0
  Zn  Zn1707  1  0.70273433  0.29487783  0.53599200  1.0
  Zn  Zn1708  1  0.70273433  0.62821117  0.53599200  1.0
  Zn  Zn1709  1  0.70273433  0.96154450  0.53599200  1.0
  Zn  Zn1710  1  0.22258620  0.27361030  0.09173700  1.0
  Zn  Zn1711  1  0.22258620  0.60694363  0.09173700  1.0
  Zn  Zn1712  1  0.22258620  0.94027697  0.09173700  1.0
  Zn  Zn1713  1  0.55591953  0.27361030  0.09173700  1.0
  Zn  Zn1714  1  0.55591953  0.60694363  0.09173700  1.0
  Zn  Zn1715  1  0.55591953  0.94027697  0.09173700  1.0
  Zn  Zn1716  1  0.88925287  0.27361030  0.09173700  1.0
  Zn  Zn1717  1  0.88925287  0.60694363  0.09173700  1.0
  Zn  Zn1718  1  0.88925287  0.94027697  0.09173700  1.0
  Zn  Zn1719  1  0.02258620  0.30694363  0.09173700  1.0
  Zn  Zn1720  1  0.02258620  0.64027697  0.09173700  1.0
  Zn  Zn1721  1  0.02258620  0.97361030  0.09173700  1.0
  Zn  Zn1722  1  0.35591953  0.30694363  0.09173700  1.0
  Zn  Zn1723  1  0.35591953  0.64027697  0.09173700  1.0
  Zn  Zn1724  1  0.35591953  0.97361030  0.09173700  1.0
  Zn  Zn1725  1  0.68925287  0.30694363  0.09173700  1.0
  Zn  Zn1726  1  0.68925287  0.64027697  0.09173700  1.0
  Zn  Zn1727  1  0.68925287  0.97361030  0.09173700  1.0
  Zn  Zn1728  1  0.16036327  0.27288440  0.15734400  1.0
  Zn  Zn1729  1  0.16036327  0.60621773  0.15734400  1.0
  Zn  Zn1730  1  0.16036327  0.93955107  0.15734400  1.0
  Zn  Zn1731  1  0.49369660  0.27288440  0.15734400  1.0
  Zn  Zn1732  1  0.49369660  0.60621773  0.15734400  1.0
  Zn  Zn1733  1  0.49369660  0.93955107  0.15734400  1.0
  Zn  Zn1734  1  0.82702993  0.27288440  0.15734400  1.0
  Zn  Zn1735  1  0.82702993  0.60621773  0.15734400  1.0
  Zn  Zn1736  1  0.82702993  0.93955107  0.15734400  1.0
  Zn  Zn1737  1  0.29369660  0.30621773  0.15734400  1.0
  Zn  Zn1738  1  0.29369660  0.63955107  0.15734400  1.0
  Zn  Zn1739  1  0.29369660  0.97288440  0.15734400  1.0
  Zn  Zn1740  1  0.62702993  0.30621773  0.15734400  1.0
  Zn  Zn1741  1  0.62702993  0.63955107  0.15734400  1.0
  Zn  Zn1742  1  0.62702993  0.97288440  0.15734400  1.0
  Zn  Zn1743  1  0.96036327  0.30621773  0.15734400  1.0
  Zn  Zn1744  1  0.96036327  0.63955107  0.15734400  1.0
  Zn  Zn1745  1  0.96036327  0.97288440  0.15734400  1.0
  Zn  Zn1746  1  0.27360927  0.29025357  0.46815000  1.0
  Zn  Zn1747  1  0.27360927  0.62358690  0.46815000  1.0
  Zn  Zn1748  1  0.27360927  0.95692023  0.46815000  1.0
  Zn  Zn1749  1  0.60694260  0.29025357  0.46815000  1.0
  Zn  Zn1750  1  0.60694260  0.62358690  0.46815000  1.0
  Zn  Zn1751  1  0.60694260  0.95692023  0.46815000  1.0
  Zn  Zn1752  1  0.94027593  0.29025357  0.46815000  1.0
  Zn  Zn1753  1  0.94027593  0.62358690  0.46815000  1.0
  Zn  Zn1754  1  0.94027593  0.95692023  0.46815000  1.0
  Zn  Zn1755  1  0.07360927  0.32358690  0.46815000  1.0
  Zn  Zn1756  1  0.07360927  0.65692023  0.46815000  1.0
  Zn  Zn1757  1  0.07360927  0.99025357  0.46815000  1.0
  Zn  Zn1758  1  0.40694260  0.32358690  0.46815000  1.0
  Zn  Zn1759  1  0.40694260  0.65692023  0.46815000  1.0
  Zn  Zn1760  1  0.40694260  0.99025357  0.46815000  1.0
  Zn  Zn1761  1  0.74027593  0.32358690  0.46815000  1.0
  Zn  Zn1762  1  0.74027593  0.65692023  0.46815000  1.0
  Zn  Zn1763  1  0.74027593  0.99025357  0.46815000  1.0
  Zn  Zn1764  1  0.11543593  0.29237690  0.03185000  1.0
  Zn  Zn1765  1  0.11543593  0.62571023  0.03185000  1.0
  Zn  Zn1766  1  0.11543593  0.95904357  0.03185000  1.0
  Zn  Zn1767  1  0.44876927  0.29237690  0.03185000  1.0
  Zn  Zn1768  1  0.44876927  0.62571023  0.03185000  1.0
  Zn  Zn1769  1  0.44876927  0.95904357  0.03185000  1.0
  Zn  Zn1770  1  0.78210260  0.29237690  0.03185000  1.0
  Zn  Zn1771  1  0.78210260  0.62571023  0.03185000  1.0
  Zn  Zn1772  1  0.78210260  0.95904357  0.03185000  1.0
  Zn  Zn1773  1  0.24876927  0.32571023  0.03185000  1.0
  Zn  Zn1774  1  0.24876927  0.65904357  0.03185000  1.0
  Zn  Zn1775  1  0.24876927  0.99237690  0.03185000  1.0
  Zn  Zn1776  1  0.58210260  0.32571023  0.03185000  1.0
  Zn  Zn1777  1  0.58210260  0.65904357  0.03185000  1.0
  Zn  Zn1778  1  0.58210260  0.99237690  0.03185000  1.0
  Zn  Zn1779  1  0.91543593  0.32571023  0.03185000  1.0
  Zn  Zn1780  1  0.91543593  0.65904357  0.03185000  1.0
  Zn  Zn1781  1  0.91543593  0.99237690  0.03185000  1.0
  Zn  Zn1782  1  0.08596740  0.31731393  0.20818400  1.0
  Zn  Zn1783  1  0.08596740  0.65064727  0.20818400  1.0
  Zn  Zn1784  1  0.08596740  0.98398060  0.20818400  1.0
  Zn  Zn1785  1  0.41930073  0.31731393  0.20818400  1.0
  Zn  Zn1786  1  0.41930073  0.65064727  0.20818400  1.0
  Zn  Zn1787  1  0.41930073  0.98398060  0.20818400  1.0
  Zn  Zn1788  1  0.75263407  0.31731393  0.20818400  1.0
  Zn  Zn1789  1  0.75263407  0.65064727  0.20818400  1.0
  Zn  Zn1790  1  0.75263407  0.98398060  0.20818400  1.0
  Zn  Zn1791  1  0.28596740  0.28398060  0.20818400  1.0
  Zn  Zn1792  1  0.28596740  0.61731393  0.20818400  1.0
  Zn  Zn1793  1  0.28596740  0.95064727  0.20818400  1.0
  Zn  Zn1794  1  0.61930073  0.28398060  0.20818400  1.0
  Zn  Zn1795  1  0.61930073  0.61731393  0.20818400  1.0
  Zn  Zn1796  1  0.61930073  0.95064727  0.20818400  1.0
  Zn  Zn1797  1  0.95263407  0.28398060  0.20818400  1.0
  Zn  Zn1798  1  0.95263407  0.61731393  0.20818400  1.0
  Zn  Zn1799  1  0.95263407  0.95064727  0.20818400  1.0
  Zn  Zn1800  1  0.20503407  0.28394710  0.34598900  1.0
  Zn  Zn1801  1  0.20503407  0.61728043  0.34598900  1.0
  Zn  Zn1802  1  0.20503407  0.95061377  0.34598900  1.0
  Zn  Zn1803  1  0.53836740  0.28394710  0.34598900  1.0
  Zn  Zn1804  1  0.53836740  0.61728043  0.34598900  1.0
  Zn  Zn1805  1  0.53836740  0.95061377  0.34598900  1.0
  Zn  Zn1806  1  0.87170073  0.28394710  0.34598900  1.0
  Zn  Zn1807  1  0.87170073  0.61728043  0.34598900  1.0
  Zn  Zn1808  1  0.87170073  0.95061377  0.34598900  1.0
  Zn  Zn1809  1  0.00503407  0.31728043  0.34598900  1.0
  Zn  Zn1810  1  0.00503407  0.65061377  0.34598900  1.0
  Zn  Zn1811  1  0.00503407  0.98394710  0.34598900  1.0
  Zn  Zn1812  1  0.33836740  0.31728043  0.34598900  1.0
  Zn  Zn1813  1  0.33836740  0.65061377  0.34598900  1.0
  Zn  Zn1814  1  0.33836740  0.98394710  0.34598900  1.0
  Zn  Zn1815  1  0.67170073  0.31728043  0.34598900  1.0
  Zn  Zn1816  1  0.67170073  0.65061377  0.34598900  1.0
  Zn  Zn1817  1  0.67170073  0.98394710  0.34598900  1.0
  Zn  Zn1818  1  0.17248080  0.28196120  0.09173700  1.0
  Zn  Zn1819  1  0.17248080  0.61529453  0.09173700  1.0
  Zn  Zn1820  1  0.17248080  0.94862787  0.09173700  1.0
  Zn  Zn1821  1  0.50581413  0.28196120  0.09173700  1.0
  Zn  Zn1822  1  0.50581413  0.61529453  0.09173700  1.0
  Zn  Zn1823  1  0.50581413  0.94862787  0.09173700  1.0
  Zn  Zn1824  1  0.83914747  0.28196120  0.09173700  1.0
  Zn  Zn1825  1  0.83914747  0.61529453  0.09173700  1.0
  Zn  Zn1826  1  0.83914747  0.94862787  0.09173700  1.0
  Zn  Zn1827  1  0.30581413  0.31529453  0.09173700  1.0
  Zn  Zn1828  1  0.30581413  0.64862787  0.09173700  1.0
  Zn  Zn1829  1  0.30581413  0.98196120  0.09173700  1.0
  Zn  Zn1830  1  0.63914747  0.31529453  0.09173700  1.0
  Zn  Zn1831  1  0.63914747  0.64862787  0.09173700  1.0
  Zn  Zn1832  1  0.63914747  0.98196120  0.09173700  1.0
  Zn  Zn1833  1  0.97248080  0.31529453  0.09173700  1.0
  Zn  Zn1834  1  0.97248080  0.64862787  0.09173700  1.0
  Zn  Zn1835  1  0.97248080  0.98196120  0.09173700  1.0
  Zn  Zn1836  1  0.26090373  0.27303410  0.69057900  1.0
  Zn  Zn1837  1  0.26090373  0.60636743  0.69057900  1.0
  Zn  Zn1838  1  0.26090373  0.93970077  0.69057900  1.0
  Zn  Zn1839  1  0.59423707  0.27303410  0.69057900  1.0
  Zn  Zn1840  1  0.59423707  0.60636743  0.69057900  1.0
  Zn  Zn1841  1  0.59423707  0.93970077  0.69057900  1.0
  Zn  Zn1842  1  0.92757040  0.27303410  0.69057900  1.0
  Zn  Zn1843  1  0.92757040  0.60636743  0.69057900  1.0
  Zn  Zn1844  1  0.92757040  0.93970077  0.69057900  1.0
  Zn  Zn1845  1  0.06090373  0.30636743  0.69057900  1.0
  Zn  Zn1846  1  0.06090373  0.63970077  0.69057900  1.0
  Zn  Zn1847  1  0.06090373  0.97303410  0.69057900  1.0
  Zn  Zn1848  1  0.39423707  0.30636743  0.69057900  1.0
  Zn  Zn1849  1  0.39423707  0.63970077  0.69057900  1.0
  Zn  Zn1850  1  0.39423707  0.97303410  0.69057900  1.0
  Zn  Zn1851  1  0.72757040  0.30636743  0.69057900  1.0
  Zn  Zn1852  1  0.72757040  0.63970077  0.69057900  1.0
  Zn  Zn1853  1  0.72757040  0.97303410  0.69057900  1.0
  Zn  Zn1854  1  0.14810687  0.29879647  0.28028200  1.0
  Zn  Zn1855  1  0.14810687  0.63212980  0.28028200  1.0
  Zn  Zn1856  1  0.14810687  0.96546313  0.28028200  1.0
  Zn  Zn1857  1  0.48144020  0.29879647  0.28028200  1.0
  Zn  Zn1858  1  0.48144020  0.63212980  0.28028200  1.0
  Zn  Zn1859  1  0.48144020  0.96546313  0.28028200  1.0
  Zn  Zn1860  1  0.81477353  0.29879647  0.28028200  1.0
  Zn  Zn1861  1  0.81477353  0.63212980  0.28028200  1.0
  Zn  Zn1862  1  0.81477353  0.96546313  0.28028200  1.0
  Zn  Zn1863  1  0.28144020  0.33212980  0.28028200  1.0
  Zn  Zn1864  1  0.28144020  0.66546313  0.28028200  1.0
  Zn  Zn1865  1  0.28144020  0.99879647  0.28028200  1.0
  Zn  Zn1866  1  0.61477353  0.33212980  0.28028200  1.0
  Zn  Zn1867  1  0.61477353  0.66546313  0.28028200  1.0
  Zn  Zn1868  1  0.61477353  0.99879647  0.28028200  1.0
  Zn  Zn1869  1  0.94810687  0.33212980  0.28028200  1.0
  Zn  Zn1870  1  0.94810687  0.66546313  0.28028200  1.0
  Zn  Zn1871  1  0.94810687  0.99879647  0.28028200  1.0
  Zn  Zn1872  1  0.00050313  0.29726103  0.96815000  1.0
  Zn  Zn1873  1  0.00050313  0.63059437  0.96815000  1.0
  Zn  Zn1874  1  0.00050313  0.96392770  0.96815000  1.0
  Zn  Zn1875  1  0.33383647  0.29726103  0.96815000  1.0
  Zn  Zn1876  1  0.33383647  0.63059437  0.96815000  1.0
  Zn  Zn1877  1  0.33383647  0.96392770  0.96815000  1.0
  Zn  Zn1878  1  0.66716980  0.29726103  0.96815000  1.0
  Zn  Zn1879  1  0.66716980  0.63059437  0.96815000  1.0
  Zn  Zn1880  1  0.66716980  0.96392770  0.96815000  1.0
  Zn  Zn1881  1  0.13383647  0.33059437  0.96815000  1.0
  Zn  Zn1882  1  0.13383647  0.66392770  0.96815000  1.0
  Zn  Zn1883  1  0.13383647  0.99726103  0.96815000  1.0
  Zn  Zn1884  1  0.46716980  0.33059437  0.96815000  1.0
  Zn  Zn1885  1  0.46716980  0.66392770  0.96815000  1.0
  Zn  Zn1886  1  0.46716980  0.99726103  0.96815000  1.0
  Zn  Zn1887  1  0.80050313  0.33059437  0.96815000  1.0
  Zn  Zn1888  1  0.80050313  0.66392770  0.96815000  1.0
  Zn  Zn1889  1  0.80050313  0.99726103  0.96815000  1.0
  Zn  Zn1890  1  0.15921773  0.28337043  0.34265600  1.0
  Zn  Zn1891  1  0.15921773  0.61670377  0.34265600  1.0
  Zn  Zn1892  1  0.15921773  0.95003710  0.34265600  1.0
  Zn  Zn1893  1  0.49255107  0.28337043  0.34265600  1.0
  Zn  Zn1894  1  0.49255107  0.61670377  0.34265600  1.0
  Zn  Zn1895  1  0.49255107  0.95003710  0.34265600  1.0
  Zn  Zn1896  1  0.82588440  0.28337043  0.34265600  1.0
  Zn  Zn1897  1  0.82588440  0.61670377  0.34265600  1.0
  Zn  Zn1898  1  0.82588440  0.95003710  0.34265600  1.0
  Zn  Zn1899  1  0.29255107  0.31670377  0.34265600  1.0
  Zn  Zn1900  1  0.29255107  0.65003710  0.34265600  1.0
  Zn  Zn1901  1  0.29255107  0.98337043  0.34265600  1.0
  Zn  Zn1902  1  0.62588440  0.31670377  0.34265600  1.0
  Zn  Zn1903  1  0.62588440  0.65003710  0.34265600  1.0
  Zn  Zn1904  1  0.62588440  0.98337043  0.34265600  1.0
  Zn  Zn1905  1  0.95921773  0.31670377  0.34265600  1.0
  Zn  Zn1906  1  0.95921773  0.65003710  0.34265600  1.0
  Zn  Zn1907  1  0.95921773  0.98337043  0.34265600  1.0
  Zn  Zn1908  1  0.13876760  0.27587707  0.22284200  1.0
  Zn  Zn1909  1  0.13876760  0.60921040  0.22284200  1.0
  Zn  Zn1910  1  0.13876760  0.94254373  0.22284200  1.0
  Zn  Zn1911  1  0.47210093  0.27587707  0.22284200  1.0
  Zn  Zn1912  1  0.47210093  0.60921040  0.22284200  1.0
  Zn  Zn1913  1  0.47210093  0.94254373  0.22284200  1.0
  Zn  Zn1914  1  0.80543427  0.27587707  0.22284200  1.0
  Zn  Zn1915  1  0.80543427  0.60921040  0.22284200  1.0
  Zn  Zn1916  1  0.80543427  0.94254373  0.22284200  1.0
  Zn  Zn1917  1  0.27210093  0.30921040  0.22284200  1.0
  Zn  Zn1918  1  0.27210093  0.64254373  0.22284200  1.0
  Zn  Zn1919  1  0.27210093  0.97587707  0.22284200  1.0
  Zn  Zn1920  1  0.60543427  0.30921040  0.22284200  1.0
  Zn  Zn1921  1  0.60543427  0.64254373  0.22284200  1.0
  Zn  Zn1922  1  0.60543427  0.97587707  0.22284200  1.0
  Zn  Zn1923  1  0.93876760  0.30921040  0.22284200  1.0
  Zn  Zn1924  1  0.93876760  0.64254373  0.22284200  1.0
  Zn  Zn1925  1  0.93876760  0.97587707  0.22284200  1.0
  Zn  Zn1926  1  0.12897073  0.30716643  0.53185000  1.0
  Zn  Zn1927  1  0.12897073  0.64049977  0.53185000  1.0
  Zn  Zn1928  1  0.12897073  0.97383310  0.53185000  1.0
  Zn  Zn1929  1  0.46230407  0.30716643  0.53185000  1.0
  Zn  Zn1930  1  0.46230407  0.64049977  0.53185000  1.0
  Zn  Zn1931  1  0.46230407  0.97383310  0.53185000  1.0
  Zn  Zn1932  1  0.79563740  0.30716643  0.53185000  1.0
  Zn  Zn1933  1  0.79563740  0.64049977  0.53185000  1.0
  Zn  Zn1934  1  0.79563740  0.97383310  0.53185000  1.0
  Zn  Zn1935  1  0.32897073  0.27383310  0.53185000  1.0
  Zn  Zn1936  1  0.32897073  0.60716643  0.53185000  1.0
  Zn  Zn1937  1  0.32897073  0.94049977  0.53185000  1.0
  Zn  Zn1938  1  0.66230407  0.27383310  0.53185000  1.0
  Zn  Zn1939  1  0.66230407  0.60716643  0.53185000  1.0
  Zn  Zn1940  1  0.66230407  0.94049977  0.53185000  1.0
  Zn  Zn1941  1  0.99563740  0.27383310  0.53185000  1.0
  Zn  Zn1942  1  0.99563740  0.60716643  0.53185000  1.0
  Zn  Zn1943  1  0.99563740  0.94049977  0.53185000  1.0
  Zn  Zn1944  1  0.19386240  0.27788993  0.41421600  1.0
  Zn  Zn1945  1  0.19386240  0.61122327  0.41421600  1.0
  Zn  Zn1946  1  0.19386240  0.94455660  0.41421600  1.0
  Zn  Zn1947  1  0.52719573  0.27788993  0.41421600  1.0
  Zn  Zn1948  1  0.52719573  0.61122327  0.41421600  1.0
  Zn  Zn1949  1  0.52719573  0.94455660  0.41421600  1.0
  Zn  Zn1950  1  0.86052907  0.27788993  0.41421600  1.0
  Zn  Zn1951  1  0.86052907  0.61122327  0.41421600  1.0
  Zn  Zn1952  1  0.86052907  0.94455660  0.41421600  1.0
  Zn  Zn1953  1  0.32719573  0.31122327  0.41421600  1.0
  Zn  Zn1954  1  0.32719573  0.64455660  0.41421600  1.0
  Zn  Zn1955  1  0.32719573  0.97788993  0.41421600  1.0
  Zn  Zn1956  1  0.66052907  0.31122327  0.41421600  1.0
  Zn  Zn1957  1  0.66052907  0.64455660  0.41421600  1.0
  Zn  Zn1958  1  0.66052907  0.97788993  0.41421600  1.0
  Zn  Zn1959  1  0.99386240  0.31122327  0.41421600  1.0
  Zn  Zn1960  1  0.99386240  0.64455660  0.41421600  1.0
  Zn  Zn1961  1  0.99386240  0.97788993  0.41421600  1.0
  Zn  Zn1962  1  0.19403280  0.31312387  0.47656300  1.0
  Zn  Zn1963  1  0.19403280  0.64645720  0.47656300  1.0
  Zn  Zn1964  1  0.19403280  0.97979053  0.47656300  1.0
  Zn  Zn1965  1  0.52736613  0.31312387  0.47656300  1.0
  Zn  Zn1966  1  0.52736613  0.64645720  0.47656300  1.0
  Zn  Zn1967  1  0.52736613  0.97979053  0.47656300  1.0
  Zn  Zn1968  1  0.86069947  0.31312387  0.47656300  1.0
  Zn  Zn1969  1  0.86069947  0.64645720  0.47656300  1.0
  Zn  Zn1970  1  0.86069947  0.97979053  0.47656300  1.0
  Zn  Zn1971  1  0.06069947  0.27979053  0.47656300  1.0
  Zn  Zn1972  1  0.06069947  0.61312387  0.47656300  1.0
  Zn  Zn1973  1  0.06069947  0.94645720  0.47656300  1.0
  Zn  Zn1974  1  0.39403280  0.27979053  0.47656300  1.0
  Zn  Zn1975  1  0.39403280  0.61312387  0.47656300  1.0
  Zn  Zn1976  1  0.39403280  0.94645720  0.47656300  1.0
  Zn  Zn1977  1  0.72736613  0.27979053  0.47656300  1.0
  Zn  Zn1978  1  0.72736613  0.61312387  0.47656300  1.0
  Zn  Zn1979  1  0.72736613  0.94645720  0.47656300  1.0
  Zn  Zn1980  1  0.30258333  0.29060517  0.71971800  1.0
  Zn  Zn1981  1  0.30258333  0.62393850  0.71971800  1.0
  Zn  Zn1982  1  0.30258333  0.95727183  0.71971800  1.0
  Zn  Zn1983  1  0.63591667  0.29060517  0.71971800  1.0
  Zn  Zn1984  1  0.63591667  0.62393850  0.71971800  1.0
  Zn  Zn1985  1  0.63591667  0.95727183  0.71971800  1.0
  Zn  Zn1986  1  0.96925000  0.29060517  0.71971800  1.0
  Zn  Zn1987  1  0.96925000  0.62393850  0.71971800  1.0
  Zn  Zn1988  1  0.96925000  0.95727183  0.71971800  1.0
  Zn  Zn1989  1  0.10258333  0.32393850  0.71971800  1.0
  Zn  Zn1990  1  0.10258333  0.65727183  0.71971800  1.0
  Zn  Zn1991  1  0.10258333  0.99060517  0.71971800  1.0
  Zn  Zn1992  1  0.43591667  0.32393850  0.71971800  1.0
  Zn  Zn1993  1  0.43591667  0.65727183  0.71971800  1.0
  Zn  Zn1994  1  0.43591667  0.99060517  0.71971800  1.0
  Zn  Zn1995  1  0.76925000  0.32393850  0.71971800  1.0
  Zn  Zn1996  1  0.76925000  0.65727183  0.71971800  1.0
  Zn  Zn1997  1  0.76925000  0.99060517  0.71971800  1.0
  Zn  Zn1998  1  0.28401560  0.28173373  0.84638800  1.0
  Zn  Zn1999  1  0.28401560  0.61506707  0.84638800  1.0
  Zn  Zn2000  1  0.28401560  0.94840040  0.84638800  1.0
  Zn  Zn2001  1  0.61734893  0.28173373  0.84638800  1.0
  Zn  Zn2002  1  0.61734893  0.61506707  0.84638800  1.0
  Zn  Zn2003  1  0.61734893  0.94840040  0.84638800  1.0
  Zn  Zn2004  1  0.95068227  0.28173373  0.84638800  1.0
  Zn  Zn2005  1  0.95068227  0.61506707  0.84638800  1.0
  Zn  Zn2006  1  0.95068227  0.94840040  0.84638800  1.0
  Zn  Zn2007  1  0.08401560  0.31506707  0.84638800  1.0
  Zn  Zn2008  1  0.08401560  0.64840040  0.84638800  1.0
  Zn  Zn2009  1  0.08401560  0.98173373  0.84638800  1.0
  Zn  Zn2010  1  0.41734893  0.31506707  0.84638800  1.0
  Zn  Zn2011  1  0.41734893  0.64840040  0.84638800  1.0
  Zn  Zn2012  1  0.41734893  0.98173373  0.84638800  1.0
  Zn  Zn2013  1  0.75068227  0.31506707  0.84638800  1.0
  Zn  Zn2014  1  0.75068227  0.64840040  0.84638800  1.0
  Zn  Zn2015  1  0.75068227  0.98173373  0.84638800  1.0
  Zn  Zn2016  1  0.13433900  0.32692383  0.22815800  1.0
  Zn  Zn2017  1  0.13433900  0.66025717  0.22815800  1.0
  Zn  Zn2018  1  0.13433900  0.99359050  0.22815800  1.0
  Zn  Zn2019  1  0.46767233  0.32692383  0.22815800  1.0
  Zn  Zn2020  1  0.46767233  0.66025717  0.22815800  1.0
  Zn  Zn2021  1  0.46767233  0.99359050  0.22815800  1.0
  Zn  Zn2022  1  0.80100567  0.32692383  0.22815800  1.0
  Zn  Zn2023  1  0.80100567  0.66025717  0.22815800  1.0
  Zn  Zn2024  1  0.80100567  0.99359050  0.22815800  1.0
  Zn  Zn2025  1  0.00100567  0.29359050  0.22815800  1.0
  Zn  Zn2026  1  0.00100567  0.62692383  0.22815800  1.0
  Zn  Zn2027  1  0.00100567  0.96025717  0.22815800  1.0
  Zn  Zn2028  1  0.33433900  0.29359050  0.22815800  1.0
  Zn  Zn2029  1  0.33433900  0.62692383  0.22815800  1.0
  Zn  Zn2030  1  0.33433900  0.96025717  0.22815800  1.0
  Zn  Zn2031  1  0.66767233  0.29359050  0.22815800  1.0
  Zn  Zn2032  1  0.66767233  0.62692383  0.22815800  1.0
  Zn  Zn2033  1  0.66767233  0.96025717  0.22815800  1.0
  Zn  Zn2034  1  0.17571893  0.27273607  0.27715800  1.0
  Zn  Zn2035  1  0.17571893  0.60606940  0.27715800  1.0
  Zn  Zn2036  1  0.17571893  0.93940273  0.27715800  1.0
  Zn  Zn2037  1  0.50905227  0.27273607  0.27715800  1.0
  Zn  Zn2038  1  0.50905227  0.60606940  0.27715800  1.0
  Zn  Zn2039  1  0.50905227  0.93940273  0.27715800  1.0
  Zn  Zn2040  1  0.84238560  0.27273607  0.27715800  1.0
  Zn  Zn2041  1  0.84238560  0.60606940  0.27715800  1.0
  Zn  Zn2042  1  0.84238560  0.93940273  0.27715800  1.0
  Zn  Zn2043  1  0.30905227  0.30606940  0.27715800  1.0
  Zn  Zn2044  1  0.30905227  0.63940273  0.27715800  1.0
  Zn  Zn2045  1  0.30905227  0.97273607  0.27715800  1.0
  Zn  Zn2046  1  0.64238560  0.30606940  0.27715800  1.0
  Zn  Zn2047  1  0.64238560  0.63940273  0.27715800  1.0
  Zn  Zn2048  1  0.64238560  0.97273607  0.27715800  1.0
  Zn  Zn2049  1  0.97571893  0.30606940  0.27715800  1.0
  Zn  Zn2050  1  0.97571893  0.63940273  0.27715800  1.0
  Zn  Zn2051  1  0.97571893  0.97273607  0.27715800  1.0
  Zn  Zn2052  1  0.12418000  0.28675733  0.15401100  1.0
  Zn  Zn2053  1  0.12418000  0.62009067  0.15401100  1.0
  Zn  Zn2054  1  0.12418000  0.95342400  0.15401100  1.0
  Zn  Zn2055  1  0.45751333  0.28675733  0.15401100  1.0
  Zn  Zn2056  1  0.45751333  0.62009067  0.15401100  1.0
  Zn  Zn2057  1  0.45751333  0.95342400  0.15401100  1.0
  Zn  Zn2058  1  0.79084667  0.28675733  0.15401100  1.0
  Zn  Zn2059  1  0.79084667  0.62009067  0.15401100  1.0
  Zn  Zn2060  1  0.79084667  0.95342400  0.15401100  1.0
  Zn  Zn2061  1  0.25751333  0.32009067  0.15401100  1.0
  Zn  Zn2062  1  0.25751333  0.65342400  0.15401100  1.0
  Zn  Zn2063  1  0.25751333  0.98675733  0.15401100  1.0
  Zn  Zn2064  1  0.59084667  0.32009067  0.15401100  1.0
  Zn  Zn2065  1  0.59084667  0.65342400  0.15401100  1.0
  Zn  Zn2066  1  0.59084667  0.98675733  0.15401100  1.0
  Zn  Zn2067  1  0.92418000  0.32009067  0.15401100  1.0
  Zn  Zn2068  1  0.92418000  0.65342400  0.15401100  1.0
  Zn  Zn2069  1  0.92418000  0.98675733  0.15401100  1.0
  Zn  Zn2070  1  0.14389360  0.30308857  0.10155300  1.0
  Zn  Zn2071  1  0.14389360  0.63642190  0.10155300  1.0
  Zn  Zn2072  1  0.14389360  0.96975523  0.10155300  1.0
  Zn  Zn2073  1  0.47722693  0.30308857  0.10155300  1.0
  Zn  Zn2074  1  0.47722693  0.63642190  0.10155300  1.0
  Zn  Zn2075  1  0.47722693  0.96975523  0.10155300  1.0
  Zn  Zn2076  1  0.81056027  0.30308857  0.10155300  1.0
  Zn  Zn2077  1  0.81056027  0.63642190  0.10155300  1.0
  Zn  Zn2078  1  0.81056027  0.96975523  0.10155300  1.0
  Zn  Zn2079  1  0.01056027  0.26975523  0.10155300  1.0
  Zn  Zn2080  1  0.01056027  0.60308857  0.10155300  1.0
  Zn  Zn2081  1  0.01056027  0.93642190  0.10155300  1.0
  Zn  Zn2082  1  0.34389360  0.26975523  0.10155300  1.0
  Zn  Zn2083  1  0.34389360  0.60308857  0.10155300  1.0
  Zn  Zn2084  1  0.34389360  0.93642190  0.10155300  1.0
  Zn  Zn2085  1  0.67722693  0.26975523  0.10155300  1.0
  Zn  Zn2086  1  0.67722693  0.60308857  0.10155300  1.0
  Zn  Zn2087  1  0.67722693  0.93642190  0.10155300  1.0
  Zn  Zn2088  1  0.22583067  0.30375783  0.19057900  1.0
  Zn  Zn2089  1  0.22583067  0.63709117  0.19057900  1.0
  Zn  Zn2090  1  0.22583067  0.97042450  0.19057900  1.0
  Zn  Zn2091  1  0.55916400  0.30375783  0.19057900  1.0
  Zn  Zn2092  1  0.55916400  0.63709117  0.19057900  1.0
  Zn  Zn2093  1  0.55916400  0.97042450  0.19057900  1.0
  Zn  Zn2094  1  0.89249733  0.30375783  0.19057900  1.0
  Zn  Zn2095  1  0.89249733  0.63709117  0.19057900  1.0
  Zn  Zn2096  1  0.89249733  0.97042450  0.19057900  1.0
  Zn  Zn2097  1  0.09249733  0.27042450  0.19057900  1.0
  Zn  Zn2098  1  0.09249733  0.60375783  0.19057900  1.0
  Zn  Zn2099  1  0.09249733  0.93709117  0.19057900  1.0
  Zn  Zn2100  1  0.42583067  0.27042450  0.19057900  1.0
  Zn  Zn2101  1  0.42583067  0.60375783  0.19057900  1.0
  Zn  Zn2102  1  0.42583067  0.93709117  0.19057900  1.0
  Zn  Zn2103  1  0.75916400  0.27042450  0.19057900  1.0
  Zn  Zn2104  1  0.75916400  0.60375783  0.19057900  1.0
  Zn  Zn2105  1  0.75916400  0.93709117  0.19057900  1.0
  Zn  Zn2106  1  0.19842453  0.33268513  0.41421600  1.0
  Zn  Zn2107  1  0.19842453  0.66601847  0.41421600  1.0
  Zn  Zn2108  1  0.19842453  0.99935180  0.41421600  1.0
  Zn  Zn2109  1  0.53175787  0.33268513  0.41421600  1.0
  Zn  Zn2110  1  0.53175787  0.66601847  0.41421600  1.0
  Zn  Zn2111  1  0.53175787  0.99935180  0.41421600  1.0
  Zn  Zn2112  1  0.86509120  0.33268513  0.41421600  1.0
  Zn  Zn2113  1  0.86509120  0.66601847  0.41421600  1.0
  Zn  Zn2114  1  0.86509120  0.99935180  0.41421600  1.0
  Zn  Zn2115  1  0.06509120  0.29935180  0.41421600  1.0
  Zn  Zn2116  1  0.06509120  0.63268513  0.41421600  1.0
  Zn  Zn2117  1  0.06509120  0.96601847  0.41421600  1.0
  Zn  Zn2118  1  0.39842453  0.29935180  0.41421600  1.0
  Zn  Zn2119  1  0.39842453  0.63268513  0.41421600  1.0
  Zn  Zn2120  1  0.39842453  0.96601847  0.41421600  1.0
  Zn  Zn2121  1  0.73175787  0.29935180  0.41421600  1.0
  Zn  Zn2122  1  0.73175787  0.63268513  0.41421600  1.0
  Zn  Zn2123  1  0.73175787  0.96601847  0.41421600  1.0
  Zn  Zn2124  1  0.21840487  0.32906147  0.34265600  1.0
  Zn  Zn2125  1  0.21840487  0.66239480  0.34265600  1.0
  Zn  Zn2126  1  0.21840487  0.99572813  0.34265600  1.0
  Zn  Zn2127  1  0.55173820  0.32906147  0.34265600  1.0
  Zn  Zn2128  1  0.55173820  0.66239480  0.34265600  1.0
  Zn  Zn2129  1  0.55173820  0.99572813  0.34265600  1.0
  Zn  Zn2130  1  0.88507153  0.32906147  0.34265600  1.0
  Zn  Zn2131  1  0.88507153  0.66239480  0.34265600  1.0
  Zn  Zn2132  1  0.88507153  0.99572813  0.34265600  1.0
  Zn  Zn2133  1  0.08507153  0.29572813  0.34265600  1.0
  Zn  Zn2134  1  0.08507153  0.62906147  0.34265600  1.0
  Zn  Zn2135  1  0.08507153  0.96239480  0.34265600  1.0
  Zn  Zn2136  1  0.41840487  0.29572813  0.34265600  1.0
  Zn  Zn2137  1  0.41840487  0.62906147  0.34265600  1.0
  Zn  Zn2138  1  0.41840487  0.96239480  0.34265600  1.0
  Zn  Zn2139  1  0.75173820  0.29572813  0.34265600  1.0
  Zn  Zn2140  1  0.75173820  0.62906147  0.34265600  1.0
  Zn  Zn2141  1  0.75173820  0.96239480  0.34265600  1.0
  Zn  Zn2142  1  0.17674933  0.29366217  0.80942100  1.0
  Zn  Zn2143  1  0.17674933  0.62699550  0.80942100  1.0
  Zn  Zn2144  1  0.17674933  0.96032883  0.80942100  1.0
  Zn  Zn2145  1  0.51008267  0.29366217  0.80942100  1.0
  Zn  Zn2146  1  0.51008267  0.62699550  0.80942100  1.0
  Zn  Zn2147  1  0.51008267  0.96032883  0.80942100  1.0
  Zn  Zn2148  1  0.84341600  0.29366217  0.80942100  1.0
  Zn  Zn2149  1  0.84341600  0.62699550  0.80942100  1.0
  Zn  Zn2150  1  0.84341600  0.96032883  0.80942100  1.0
  Zn  Zn2151  1  0.31008267  0.32699550  0.80942100  1.0
  Zn  Zn2152  1  0.31008267  0.66032883  0.80942100  1.0
  Zn  Zn2153  1  0.31008267  0.99366217  0.80942100  1.0
  Zn  Zn2154  1  0.64341600  0.32699550  0.80942100  1.0
  Zn  Zn2155  1  0.64341600  0.66032883  0.80942100  1.0
  Zn  Zn2156  1  0.64341600  0.99366217  0.80942100  1.0
  Zn  Zn2157  1  0.97674933  0.32699550  0.80942100  1.0
  Zn  Zn2158  1  0.97674933  0.66032883  0.80942100  1.0
  Zn  Zn2159  1  0.97674933  0.99366217  0.80942100  1.0
  Zn  Zn2160  1  0.07943700  0.29421450  0.15401100  1.0
  Zn  Zn2161  1  0.07943700  0.62754783  0.15401100  1.0
  Zn  Zn2162  1  0.07943700  0.96088117  0.15401100  1.0
  Zn  Zn2163  1  0.41277033  0.29421450  0.15401100  1.0
  Zn  Zn2164  1  0.41277033  0.62754783  0.15401100  1.0
  Zn  Zn2165  1  0.41277033  0.96088117  0.15401100  1.0
  Zn  Zn2166  1  0.74610367  0.29421450  0.15401100  1.0
  Zn  Zn2167  1  0.74610367  0.62754783  0.15401100  1.0
  Zn  Zn2168  1  0.74610367  0.96088117  0.15401100  1.0
  Zn  Zn2169  1  0.21277033  0.32754783  0.15401100  1.0
  Zn  Zn2170  1  0.21277033  0.66088117  0.15401100  1.0
  Zn  Zn2171  1  0.21277033  0.99421450  0.15401100  1.0
  Zn  Zn2172  1  0.54610367  0.32754783  0.15401100  1.0
  Zn  Zn2173  1  0.54610367  0.66088117  0.15401100  1.0
  Zn  Zn2174  1  0.54610367  0.99421450  0.15401100  1.0
  Zn  Zn2175  1  0.87943700  0.32754783  0.15401100  1.0
  Zn  Zn2176  1  0.87943700  0.66088117  0.15401100  1.0
  Zn  Zn2177  1  0.87943700  0.99421450  0.15401100  1.0
  Zn  Zn2178  1  0.19754593  0.31347290  0.65401100  1.0
  Zn  Zn2179  1  0.19754593  0.64680623  0.65401100  1.0
  Zn  Zn2180  1  0.19754593  0.98013957  0.65401100  1.0
  Zn  Zn2181  1  0.53087927  0.31347290  0.65401100  1.0
  Zn  Zn2182  1  0.53087927  0.64680623  0.65401100  1.0
  Zn  Zn2183  1  0.53087927  0.98013957  0.65401100  1.0
  Zn  Zn2184  1  0.86421260  0.31347290  0.65401100  1.0
  Zn  Zn2185  1  0.86421260  0.64680623  0.65401100  1.0
  Zn  Zn2186  1  0.86421260  0.98013957  0.65401100  1.0
  Zn  Zn2187  1  0.06421260  0.28013957  0.65401100  1.0
  Zn  Zn2188  1  0.06421260  0.61347290  0.65401100  1.0
  Zn  Zn2189  1  0.06421260  0.94680623  0.65401100  1.0
  Zn  Zn2190  1  0.39754593  0.28013957  0.65401100  1.0
  Zn  Zn2191  1  0.39754593  0.61347290  0.65401100  1.0
  Zn  Zn2192  1  0.39754593  0.94680623  0.65401100  1.0
  Zn  Zn2193  1  0.73087927  0.28013957  0.65401100  1.0
  Zn  Zn2194  1  0.73087927  0.61347290  0.65401100  1.0
  Zn  Zn2195  1  0.73087927  0.94680623  0.65401100  1.0
  Zn  Zn2196  1  0.32314300  0.30320550  0.84598900  1.0
  Zn  Zn2197  1  0.32314300  0.63653883  0.84598900  1.0
  Zn  Zn2198  1  0.32314300  0.96987217  0.84598900  1.0
  Zn  Zn2199  1  0.65647633  0.30320550  0.84598900  1.0
  Zn  Zn2200  1  0.65647633  0.63653883  0.84598900  1.0
  Zn  Zn2201  1  0.65647633  0.96987217  0.84598900  1.0
  Zn  Zn2202  1  0.98980967  0.30320550  0.84598900  1.0
  Zn  Zn2203  1  0.98980967  0.63653883  0.84598900  1.0
  Zn  Zn2204  1  0.98980967  0.96987217  0.84598900  1.0
  Zn  Zn2205  1  0.18980967  0.26987217  0.84598900  1.0
  Zn  Zn2206  1  0.18980967  0.60320550  0.84598900  1.0
  Zn  Zn2207  1  0.18980967  0.93653883  0.84598900  1.0
  Zn  Zn2208  1  0.52314300  0.26987217  0.84598900  1.0
  Zn  Zn2209  1  0.52314300  0.60320550  0.84598900  1.0
  Zn  Zn2210  1  0.52314300  0.93653883  0.84598900  1.0
  Zn  Zn2211  1  0.85647633  0.26987217  0.84598900  1.0
  Zn  Zn2212  1  0.85647633  0.60320550  0.84598900  1.0
  Zn  Zn2213  1  0.85647633  0.93653883  0.84598900  1.0
  Zn  Zn2214  1  0.29574980  0.31904003  0.72815800  1.0
  Zn  Zn2215  1  0.29574980  0.65237337  0.72815800  1.0
  Zn  Zn2216  1  0.29574980  0.98570670  0.72815800  1.0
  Zn  Zn2217  1  0.62908313  0.31904003  0.72815800  1.0
  Zn  Zn2218  1  0.62908313  0.65237337  0.72815800  1.0
  Zn  Zn2219  1  0.62908313  0.98570670  0.72815800  1.0
  Zn  Zn2220  1  0.96241647  0.31904003  0.72815800  1.0
  Zn  Zn2221  1  0.96241647  0.65237337  0.72815800  1.0
  Zn  Zn2222  1  0.96241647  0.98570670  0.72815800  1.0
  Zn  Zn2223  1  0.16241647  0.28570670  0.72815800  1.0
  Zn  Zn2224  1  0.16241647  0.61904003  0.72815800  1.0
  Zn  Zn2225  1  0.16241647  0.95237337  0.72815800  1.0
  Zn  Zn2226  1  0.49574980  0.28570670  0.72815800  1.0
  Zn  Zn2227  1  0.49574980  0.61904003  0.72815800  1.0
  Zn  Zn2228  1  0.49574980  0.95237337  0.72815800  1.0
  Zn  Zn2229  1  0.82908313  0.28570670  0.72815800  1.0
  Zn  Zn2230  1  0.82908313  0.61904003  0.72815800  1.0
  Zn  Zn2231  1  0.82908313  0.95237337  0.72815800  1.0
  Zn  Zn2232  1  0.17934307  0.32768760  0.27715800  1.0
  Zn  Zn2233  1  0.17934307  0.66102093  0.27715800  1.0
  Zn  Zn2234  1  0.17934307  0.99435427  0.27715800  1.0
  Zn  Zn2235  1  0.51267640  0.32768760  0.27715800  1.0
  Zn  Zn2236  1  0.51267640  0.66102093  0.27715800  1.0
  Zn  Zn2237  1  0.51267640  0.99435427  0.27715800  1.0
  Zn  Zn2238  1  0.84600973  0.32768760  0.27715800  1.0
  Zn  Zn2239  1  0.84600973  0.66102093  0.27715800  1.0
  Zn  Zn2240  1  0.84600973  0.99435427  0.27715800  1.0
  Zn  Zn2241  1  0.04600973  0.29435427  0.27715800  1.0
  Zn  Zn2242  1  0.04600973  0.62768760  0.27715800  1.0
  Zn  Zn2243  1  0.04600973  0.96102093  0.27715800  1.0
  Zn  Zn2244  1  0.37934307  0.29435427  0.27715800  1.0
  Zn  Zn2245  1  0.37934307  0.62768760  0.27715800  1.0
  Zn  Zn2246  1  0.37934307  0.96102093  0.27715800  1.0
  Zn  Zn2247  1  0.71267640  0.29435427  0.27715800  1.0
  Zn  Zn2248  1  0.71267640  0.62768760  0.27715800  1.0
  Zn  Zn2249  1  0.71267640  0.96102093  0.27715800  1.0
  Zn  Zn2250  1  0.24003167  0.28011100  0.21971800  1.0
  Zn  Zn2251  1  0.24003167  0.61344433  0.21971800  1.0
  Zn  Zn2252  1  0.24003167  0.94677767  0.21971800  1.0
  Zn  Zn2253  1  0.57336500  0.28011100  0.21971800  1.0
  Zn  Zn2254  1  0.57336500  0.61344433  0.21971800  1.0
  Zn  Zn2255  1  0.57336500  0.94677767  0.21971800  1.0
  Zn  Zn2256  1  0.90669833  0.28011100  0.21971800  1.0
  Zn  Zn2257  1  0.90669833  0.61344433  0.21971800  1.0
  Zn  Zn2258  1  0.90669833  0.94677767  0.21971800  1.0
  Zn  Zn2259  1  0.04003167  0.31344433  0.21971800  1.0
  Zn  Zn2260  1  0.04003167  0.64677767  0.21971800  1.0
  Zn  Zn2261  1  0.04003167  0.98011100  0.21971800  1.0
  Zn  Zn2262  1  0.37336500  0.31344433  0.21971800  1.0
  Zn  Zn2263  1  0.37336500  0.64677767  0.21971800  1.0
  Zn  Zn2264  1  0.37336500  0.98011100  0.21971800  1.0
  Zn  Zn2265  1  0.70669833  0.31344433  0.21971800  1.0
  Zn  Zn2266  1  0.70669833  0.64677767  0.21971800  1.0
  Zn  Zn2267  1  0.70669833  0.98011100  0.21971800  1.0
  Zn  Zn2268  1  0.24336227  0.31404957  0.65734400  1.0
  Zn  Zn2269  1  0.24336227  0.64738290  0.65734400  1.0
  Zn  Zn2270  1  0.24336227  0.98071623  0.65734400  1.0
  Zn  Zn2271  1  0.57669560  0.31404957  0.65734400  1.0
  Zn  Zn2272  1  0.57669560  0.64738290  0.65734400  1.0
  Zn  Zn2273  1  0.57669560  0.98071623  0.65734400  1.0
  Zn  Zn2274  1  0.91002893  0.31404957  0.65734400  1.0
  Zn  Zn2275  1  0.91002893  0.64738290  0.65734400  1.0
  Zn  Zn2276  1  0.91002893  0.98071623  0.65734400  1.0
  Zn  Zn2277  1  0.11002893  0.28071623  0.65734400  1.0
  Zn  Zn2278  1  0.11002893  0.61404957  0.65734400  1.0
  Zn  Zn2279  1  0.11002893  0.94738290  0.65734400  1.0
  Zn  Zn2280  1  0.44336227  0.28071623  0.65734400  1.0
  Zn  Zn2281  1  0.44336227  0.61404957  0.65734400  1.0
  Zn  Zn2282  1  0.44336227  0.94738290  0.65734400  1.0
  Zn  Zn2283  1  0.77669560  0.28071623  0.65734400  1.0
  Zn  Zn2284  1  0.77669560  0.61404957  0.65734400  1.0
  Zn  Zn2285  1  0.77669560  0.94738290  0.65734400  1.0
  Zn  Zn2286  1  0.18417513  0.26835853  0.65734400  1.0
  Zn  Zn2287  1  0.18417513  0.60169187  0.65734400  1.0
  Zn  Zn2288  1  0.18417513  0.93502520  0.65734400  1.0
  Zn  Zn2289  1  0.51750847  0.26835853  0.65734400  1.0
  Zn  Zn2290  1  0.51750847  0.60169187  0.65734400  1.0
  Zn  Zn2291  1  0.51750847  0.93502520  0.65734400  1.0
  Zn  Zn2292  1  0.85084180  0.26835853  0.65734400  1.0
  Zn  Zn2293  1  0.85084180  0.60169187  0.65734400  1.0
  Zn  Zn2294  1  0.85084180  0.93502520  0.65734400  1.0
  Zn  Zn2295  1  0.31750847  0.30169187  0.65734400  1.0
  Zn  Zn2296  1  0.31750847  0.63502520  0.65734400  1.0
  Zn  Zn2297  1  0.31750847  0.96835853  0.65734400  1.0
  Zn  Zn2298  1  0.65084180  0.30169187  0.65734400  1.0
  Zn  Zn2299  1  0.65084180  0.63502520  0.65734400  1.0
  Zn  Zn2300  1  0.65084180  0.96835853  0.65734400  1.0
  Zn  Zn2301  1  0.98417513  0.30169187  0.65734400  1.0
  Zn  Zn2302  1  0.98417513  0.63502520  0.65734400  1.0
  Zn  Zn2303  1  0.98417513  0.96835853  0.65734400  1.0
  Zn  Zn2304  1  0.12673407  0.28294210  0.42360400  1.0
  Zn  Zn2305  1  0.12673407  0.61627543  0.42360400  1.0
  Zn  Zn2306  1  0.12673407  0.94960877  0.42360400  1.0
  Zn  Zn2307  1  0.46006740  0.28294210  0.42360400  1.0
  Zn  Zn2308  1  0.46006740  0.61627543  0.42360400  1.0
  Zn  Zn2309  1  0.46006740  0.94960877  0.42360400  1.0
  Zn  Zn2310  1  0.79340073  0.28294210  0.42360400  1.0
  Zn  Zn2311  1  0.79340073  0.61627543  0.42360400  1.0
  Zn  Zn2312  1  0.79340073  0.94960877  0.42360400  1.0
  Zn  Zn2313  1  0.26006740  0.31627543  0.42360400  1.0
  Zn  Zn2314  1  0.26006740  0.64960877  0.42360400  1.0
  Zn  Zn2315  1  0.26006740  0.98294210  0.42360400  1.0
  Zn  Zn2316  1  0.59340073  0.31627543  0.42360400  1.0
  Zn  Zn2317  1  0.59340073  0.64960877  0.42360400  1.0
  Zn  Zn2318  1  0.59340073  0.98294210  0.42360400  1.0
  Zn  Zn2319  1  0.92673407  0.31627543  0.42360400  1.0
  Zn  Zn2320  1  0.92673407  0.64960877  0.42360400  1.0
  Zn  Zn2321  1  0.92673407  0.98294210  0.42360400  1.0
  Zn  Zn2322  1  0.21476213  0.29996887  0.11369600  1.0
  Zn  Zn2323  1  0.21476213  0.63330220  0.11369600  1.0
  Zn  Zn2324  1  0.21476213  0.96663553  0.11369600  1.0
  Zn  Zn2325  1  0.54809547  0.29996887  0.11369600  1.0
  Zn  Zn2326  1  0.54809547  0.63330220  0.11369600  1.0
  Zn  Zn2327  1  0.54809547  0.96663553  0.11369600  1.0
  Zn  Zn2328  1  0.88142880  0.29996887  0.11369600  1.0
  Zn  Zn2329  1  0.88142880  0.63330220  0.11369600  1.0
  Zn  Zn2330  1  0.88142880  0.96663553  0.11369600  1.0
  Zn  Zn2331  1  0.01476213  0.33330220  0.11369600  1.0
  Zn  Zn2332  1  0.01476213  0.66663553  0.11369600  1.0
  Zn  Zn2333  1  0.01476213  0.99996887  0.11369600  1.0
  Zn  Zn2334  1  0.34809547  0.33330220  0.11369600  1.0
  Zn  Zn2335  1  0.34809547  0.66663553  0.11369600  1.0
  Zn  Zn2336  1  0.34809547  0.99996887  0.11369600  1.0
  Zn  Zn2337  1  0.68142880  0.33330220  0.11369600  1.0
  Zn  Zn2338  1  0.68142880  0.66663553  0.11369600  1.0
  Zn  Zn2339  1  0.68142880  0.99996887  0.11369600  1.0
  Zn  Zn2340  1  0.31661260  0.28010607  0.79181600  1.0
  Zn  Zn2341  1  0.31661260  0.61343940  0.79181600  1.0
  Zn  Zn2342  1  0.31661260  0.94677273  0.79181600  1.0
  Zn  Zn2343  1  0.64994593  0.28010607  0.79181600  1.0
  Zn  Zn2344  1  0.64994593  0.61343940  0.79181600  1.0
  Zn  Zn2345  1  0.64994593  0.94677273  0.79181600  1.0
  Zn  Zn2346  1  0.98327927  0.28010607  0.79181600  1.0
  Zn  Zn2347  1  0.98327927  0.61343940  0.79181600  1.0
  Zn  Zn2348  1  0.98327927  0.94677273  0.79181600  1.0
  Zn  Zn2349  1  0.11661260  0.31343940  0.79181600  1.0
  Zn  Zn2350  1  0.11661260  0.64677273  0.79181600  1.0
  Zn  Zn2351  1  0.11661260  0.98010607  0.79181600  1.0
  Zn  Zn2352  1  0.44994593  0.31343940  0.79181600  1.0
  Zn  Zn2353  1  0.44994593  0.64677273  0.79181600  1.0
  Zn  Zn2354  1  0.44994593  0.98010607  0.79181600  1.0
  Zn  Zn2355  1  0.78327927  0.31343940  0.79181600  1.0
  Zn  Zn2356  1  0.78327927  0.64677273  0.79181600  1.0
  Zn  Zn2357  1  0.78327927  0.98010607  0.79181600  1.0
  Zn  Zn2358  1  0.14167627  0.32438590  0.30942100  1.0
  Zn  Zn2359  1  0.14167627  0.65771923  0.30942100  1.0
  Zn  Zn2360  1  0.14167627  0.99105257  0.30942100  1.0
  Zn  Zn2361  1  0.47500960  0.32438590  0.30942100  1.0
  Zn  Zn2362  1  0.47500960  0.65771923  0.30942100  1.0
  Zn  Zn2363  1  0.47500960  0.99105257  0.30942100  1.0
  Zn  Zn2364  1  0.80834293  0.32438590  0.30942100  1.0
  Zn  Zn2365  1  0.80834293  0.65771923  0.30942100  1.0
  Zn  Zn2366  1  0.80834293  0.99105257  0.30942100  1.0
  Zn  Zn2367  1  0.00834293  0.29105257  0.30942100  1.0
  Zn  Zn2368  1  0.00834293  0.62438590  0.30942100  1.0
  Zn  Zn2369  1  0.00834293  0.95771923  0.30942100  1.0
  Zn  Zn2370  1  0.34167627  0.29105257  0.30942100  1.0
  Zn  Zn2371  1  0.34167627  0.62438590  0.30942100  1.0
  Zn  Zn2372  1  0.34167627  0.95771923  0.30942100  1.0
  Zn  Zn2373  1  0.67500960  0.29105257  0.30942100  1.0
  Zn  Zn2374  1  0.67500960  0.62438590  0.30942100  1.0
  Zn  Zn2375  1  0.67500960  0.95771923  0.30942100  1.0
  Zn  Zn2376  1  0.15750960  0.30539023  0.20818400  1.0
  Zn  Zn2377  1  0.15750960  0.63872357  0.20818400  1.0
  Zn  Zn2378  1  0.15750960  0.97205690  0.20818400  1.0
  Zn  Zn2379  1  0.49084293  0.30539023  0.20818400  1.0
  Zn  Zn2380  1  0.49084293  0.63872357  0.20818400  1.0
  Zn  Zn2381  1  0.49084293  0.97205690  0.20818400  1.0
  Zn  Zn2382  1  0.82417627  0.30539023  0.20818400  1.0
  Zn  Zn2383  1  0.82417627  0.63872357  0.20818400  1.0
  Zn  Zn2384  1  0.82417627  0.97205690  0.20818400  1.0
  Zn  Zn2385  1  0.02417627  0.27205690  0.20818400  1.0
  Zn  Zn2386  1  0.02417627  0.60539023  0.20818400  1.0
  Zn  Zn2387  1  0.02417627  0.93872357  0.20818400  1.0
  Zn  Zn2388  1  0.35750960  0.27205690  0.20818400  1.0
  Zn  Zn2389  1  0.35750960  0.60539023  0.20818400  1.0
  Zn  Zn2390  1  0.35750960  0.93872357  0.20818400  1.0
  Zn  Zn2391  1  0.69084293  0.27205690  0.20818400  1.0
  Zn  Zn2392  1  0.69084293  0.60539023  0.20818400  1.0
  Zn  Zn2393  1  0.69084293  0.93872357  0.20818400  1.0
  Zn  Zn2394  1  0.20076987  0.27649447  0.77715800  1.0
  Zn  Zn2395  1  0.20076987  0.60982780  0.77715800  1.0
  Zn  Zn2396  1  0.20076987  0.94316113  0.77715800  1.0
  Zn  Zn2397  1  0.53410320  0.27649447  0.77715800  1.0
  Zn  Zn2398  1  0.53410320  0.60982780  0.77715800  1.0
  Zn  Zn2399  1  0.53410320  0.94316113  0.77715800  1.0
  Zn  Zn2400  1  0.86743653  0.27649447  0.77715800  1.0
  Zn  Zn2401  1  0.86743653  0.60982780  0.77715800  1.0
  Zn  Zn2402  1  0.86743653  0.94316113  0.77715800  1.0
  Zn  Zn2403  1  0.00076987  0.30982780  0.77715800  1.0
  Zn  Zn2404  1  0.00076987  0.64316113  0.77715800  1.0
  Zn  Zn2405  1  0.00076987  0.97649447  0.77715800  1.0
  Zn  Zn2406  1  0.33410320  0.30982780  0.77715800  1.0
  Zn  Zn2407  1  0.33410320  0.64316113  0.77715800  1.0
  Zn  Zn2408  1  0.33410320  0.97649447  0.77715800  1.0
  Zn  Zn2409  1  0.66743653  0.30982780  0.77715800  1.0
  Zn  Zn2410  1  0.66743653  0.64316113  0.77715800  1.0
  Zn  Zn2411  1  0.66743653  0.97649447  0.77715800  1.0
  Zn  Zn2412  1  0.32646980  0.32581170  0.96400800  1.0
  Zn  Zn2413  1  0.32646980  0.65914503  0.96400800  1.0
  Zn  Zn2414  1  0.32646980  0.99247837  0.96400800  1.0
  Zn  Zn2415  1  0.65980313  0.32581170  0.96400800  1.0
  Zn  Zn2416  1  0.65980313  0.65914503  0.96400800  1.0
  Zn  Zn2417  1  0.65980313  0.99247837  0.96400800  1.0
  Zn  Zn2418  1  0.99313647  0.32581170  0.96400800  1.0
  Zn  Zn2419  1  0.99313647  0.65914503  0.96400800  1.0
  Zn  Zn2420  1  0.99313647  0.99247837  0.96400800  1.0
  Zn  Zn2421  1  0.19313647  0.29247837  0.96400800  1.0
  Zn  Zn2422  1  0.19313647  0.62581170  0.96400800  1.0
  Zn  Zn2423  1  0.19313647  0.95914503  0.96400800  1.0
  Zn  Zn2424  1  0.52646980  0.29247837  0.96400800  1.0
  Zn  Zn2425  1  0.52646980  0.62581170  0.96400800  1.0
  Zn  Zn2426  1  0.52646980  0.95914503  0.96400800  1.0
  Zn  Zn2427  1  0.85980313  0.29247837  0.96400800  1.0
  Zn  Zn2428  1  0.85980313  0.62581170  0.96400800  1.0
  Zn  Zn2429  1  0.85980313  0.95914503  0.96400800  1.0
  Zn  Zn2430  1  0.22323693  0.26973240  0.72284200  1.0
  Zn  Zn2431  1  0.22323693  0.60306573  0.72284200  1.0
  Zn  Zn2432  1  0.22323693  0.93639907  0.72284200  1.0
  Zn  Zn2433  1  0.55657027  0.26973240  0.72284200  1.0
  Zn  Zn2434  1  0.55657027  0.60306573  0.72284200  1.0
  Zn  Zn2435  1  0.55657027  0.93639907  0.72284200  1.0
  Zn  Zn2436  1  0.88990360  0.26973240  0.72284200  1.0
  Zn  Zn2437  1  0.88990360  0.60306573  0.72284200  1.0
  Zn  Zn2438  1  0.88990360  0.93639907  0.72284200  1.0
  Zn  Zn2439  1  0.02323693  0.30306573  0.72284200  1.0
  Zn  Zn2440  1  0.02323693  0.63639907  0.72284200  1.0
  Zn  Zn2441  1  0.02323693  0.96973240  0.72284200  1.0
  Zn  Zn2442  1  0.35657027  0.30306573  0.72284200  1.0
  Zn  Zn2443  1  0.35657027  0.63639907  0.72284200  1.0
  Zn  Zn2444  1  0.35657027  0.96973240  0.72284200  1.0
  Zn  Zn2445  1  0.68990360  0.30306573  0.72284200  1.0
  Zn  Zn2446  1  0.68990360  0.63639907  0.72284200  1.0
  Zn  Zn2447  1  0.68990360  0.96973240  0.72284200  1.0
  Zn  Zn2448  1  0.23779033  0.29659217  0.59173700  1.0
  Zn  Zn2449  1  0.23779033  0.62992550  0.59173700  1.0
  Zn  Zn2450  1  0.23779033  0.96325883  0.59173700  1.0
  Zn  Zn2451  1  0.57112367  0.29659217  0.59173700  1.0
  Zn  Zn2452  1  0.57112367  0.62992550  0.59173700  1.0
  Zn  Zn2453  1  0.57112367  0.96325883  0.59173700  1.0
  Zn  Zn2454  1  0.90445700  0.29659217  0.59173700  1.0
  Zn  Zn2455  1  0.90445700  0.62992550  0.59173700  1.0
  Zn  Zn2456  1  0.90445700  0.96325883  0.59173700  1.0
  Zn  Zn2457  1  0.03779033  0.32992550  0.59173700  1.0
  Zn  Zn2458  1  0.03779033  0.66325883  0.59173700  1.0
  Zn  Zn2459  1  0.03779033  0.99659217  0.59173700  1.0
  Zn  Zn2460  1  0.37112367  0.32992550  0.59173700  1.0
  Zn  Zn2461  1  0.37112367  0.66325883  0.59173700  1.0
  Zn  Zn2462  1  0.37112367  0.99659217  0.59173700  1.0
  Zn  Zn2463  1  0.70445700  0.32992550  0.59173700  1.0
  Zn  Zn2464  1  0.70445700  0.66325883  0.59173700  1.0
  Zn  Zn2465  1  0.70445700  0.99659217  0.59173700  1.0
  Zn  Zn2466  1  0.11856440  0.31568627  0.15361200  1.0
  Zn  Zn2467  1  0.11856440  0.64901960  0.15361200  1.0
  Zn  Zn2468  1  0.11856440  0.98235293  0.15361200  1.0
  Zn  Zn2469  1  0.45189773  0.31568627  0.15361200  1.0
  Zn  Zn2470  1  0.45189773  0.64901960  0.15361200  1.0
  Zn  Zn2471  1  0.45189773  0.98235293  0.15361200  1.0
  Zn  Zn2472  1  0.78523107  0.31568627  0.15361200  1.0
  Zn  Zn2473  1  0.78523107  0.64901960  0.15361200  1.0
  Zn  Zn2474  1  0.78523107  0.98235293  0.15361200  1.0
  Zn  Zn2475  1  0.31856440  0.28235293  0.15361200  1.0
  Zn  Zn2476  1  0.31856440  0.61568627  0.15361200  1.0
  Zn  Zn2477  1  0.31856440  0.94901960  0.15361200  1.0
  Zn  Zn2478  1  0.65189773  0.28235293  0.15361200  1.0
  Zn  Zn2479  1  0.65189773  0.61568627  0.15361200  1.0
  Zn  Zn2480  1  0.65189773  0.94901960  0.15361200  1.0
  Zn  Zn2481  1  0.98523107  0.28235293  0.15361200  1.0
  Zn  Zn2482  1  0.98523107  0.61568627  0.15361200  1.0
  Zn  Zn2483  1  0.98523107  0.94901960  0.15361200  1.0
  Zn  Zn2484  1  0.20546167  0.29398500  0.70818400  1.0
  Zn  Zn2485  1  0.20546167  0.62731833  0.70818400  1.0
  Zn  Zn2486  1  0.20546167  0.96065167  0.70818400  1.0
  Zn  Zn2487  1  0.53879500  0.29398500  0.70818400  1.0
  Zn  Zn2488  1  0.53879500  0.62731833  0.70818400  1.0
  Zn  Zn2489  1  0.53879500  0.96065167  0.70818400  1.0
  Zn  Zn2490  1  0.87212833  0.29398500  0.70818400  1.0
  Zn  Zn2491  1  0.87212833  0.62731833  0.70818400  1.0
  Zn  Zn2492  1  0.87212833  0.96065167  0.70818400  1.0
  Zn  Zn2493  1  0.00546167  0.32731833  0.70818400  1.0
  Zn  Zn2494  1  0.00546167  0.66065167  0.70818400  1.0
  Zn  Zn2495  1  0.00546167  0.99398500  0.70818400  1.0
  Zn  Zn2496  1  0.33879500  0.32731833  0.70818400  1.0
  Zn  Zn2497  1  0.33879500  0.66065167  0.70818400  1.0
  Zn  Zn2498  1  0.33879500  0.99398500  0.70818400  1.0
  Zn  Zn2499  1  0.67212833  0.32731833  0.70818400  1.0
  Zn  Zn2500  1  0.67212833  0.66065167  0.70818400  1.0
  Zn  Zn2501  1  0.67212833  0.99398500  0.70818400  1.0
  Zn  Zn2502  1  0.28789573  0.28824127  0.59173700  1.0
  Zn  Zn2503  1  0.28789573  0.62157460  0.59173700  1.0
  Zn  Zn2504  1  0.28789573  0.95490793  0.59173700  1.0
  Zn  Zn2505  1  0.62122907  0.28824127  0.59173700  1.0
  Zn  Zn2506  1  0.62122907  0.62157460  0.59173700  1.0
  Zn  Zn2507  1  0.62122907  0.95490793  0.59173700  1.0
  Zn  Zn2508  1  0.95456240  0.28824127  0.59173700  1.0
  Zn  Zn2509  1  0.95456240  0.62157460  0.59173700  1.0
  Zn  Zn2510  1  0.95456240  0.95490793  0.59173700  1.0
  Zn  Zn2511  1  0.08789573  0.32157460  0.59173700  1.0
  Zn  Zn2512  1  0.08789573  0.65490793  0.59173700  1.0
  Zn  Zn2513  1  0.08789573  0.98824127  0.59173700  1.0
  Zn  Zn2514  1  0.42122907  0.32157460  0.59173700  1.0
  Zn  Zn2515  1  0.42122907  0.65490793  0.59173700  1.0
  Zn  Zn2516  1  0.42122907  0.98824127  0.59173700  1.0
  Zn  Zn2517  1  0.75456240  0.32157460  0.59173700  1.0
  Zn  Zn2518  1  0.75456240  0.65490793  0.59173700  1.0
  Zn  Zn2519  1  0.75456240  0.98824127  0.59173700  1.0
  Zn  Zn2520  1  0.22691687  0.29803563  0.46815000  1.0
  Zn  Zn2521  1  0.22691687  0.63136897  0.46815000  1.0
  Zn  Zn2522  1  0.22691687  0.96470230  0.46815000  1.0
  Zn  Zn2523  1  0.56025020  0.29803563  0.46815000  1.0
  Zn  Zn2524  1  0.56025020  0.63136897  0.46815000  1.0
  Zn  Zn2525  1  0.56025020  0.96470230  0.46815000  1.0
  Zn  Zn2526  1  0.89358353  0.29803563  0.46815000  1.0
  Zn  Zn2527  1  0.89358353  0.63136897  0.46815000  1.0
  Zn  Zn2528  1  0.89358353  0.96470230  0.46815000  1.0
  Zn  Zn2529  1  0.02691687  0.33136897  0.46815000  1.0
  Zn  Zn2530  1  0.02691687  0.66470230  0.46815000  1.0
  Zn  Zn2531  1  0.02691687  0.99803563  0.46815000  1.0
  Zn  Zn2532  1  0.36025020  0.33136897  0.46815000  1.0
  Zn  Zn2533  1  0.36025020  0.66470230  0.46815000  1.0
  Zn  Zn2534  1  0.36025020  0.99803563  0.46815000  1.0
  Zn  Zn2535  1  0.69358353  0.33136897  0.46815000  1.0
  Zn  Zn2536  1  0.69358353  0.66470230  0.46815000  1.0
  Zn  Zn2537  1  0.69358353  0.99803563  0.46815000  1.0
  Zn  Zn2538  1  0.21235787  0.30817197  0.39844700  1.0
  Zn  Zn2539  1  0.21235787  0.64150530  0.39844700  1.0
  Zn  Zn2540  1  0.21235787  0.97483863  0.39844700  1.0
  Zn  Zn2541  1  0.54569120  0.30817197  0.39844700  1.0
  Zn  Zn2542  1  0.54569120  0.64150530  0.39844700  1.0
  Zn  Zn2543  1  0.54569120  0.97483863  0.39844700  1.0
  Zn  Zn2544  1  0.87902453  0.30817197  0.39844700  1.0
  Zn  Zn2545  1  0.87902453  0.64150530  0.39844700  1.0
  Zn  Zn2546  1  0.87902453  0.97483863  0.39844700  1.0
  Zn  Zn2547  1  0.07902453  0.27483863  0.39844700  1.0
  Zn  Zn2548  1  0.07902453  0.60817197  0.39844700  1.0
  Zn  Zn2549  1  0.07902453  0.94150530  0.39844700  1.0
  Zn  Zn2550  1  0.41235787  0.27483863  0.39844700  1.0
  Zn  Zn2551  1  0.41235787  0.60817197  0.39844700  1.0
  Zn  Zn2552  1  0.41235787  0.94150530  0.39844700  1.0
  Zn  Zn2553  1  0.74569120  0.27483863  0.39844700  1.0
  Zn  Zn2554  1  0.74569120  0.60817197  0.39844700  1.0
  Zn  Zn2555  1  0.74569120  0.94150530  0.39844700  1.0
  Zn  Zn2556  1  0.03563067  0.28273367  0.97656300  1.0
  Zn  Zn2557  1  0.03563067  0.61606700  0.97656300  1.0
  Zn  Zn2558  1  0.03563067  0.94940033  0.97656300  1.0
  Zn  Zn2559  1  0.36896400  0.28273367  0.97656300  1.0
  Zn  Zn2560  1  0.36896400  0.61606700  0.97656300  1.0
  Zn  Zn2561  1  0.36896400  0.94940033  0.97656300  1.0
  Zn  Zn2562  1  0.70229733  0.28273367  0.97656300  1.0
  Zn  Zn2563  1  0.70229733  0.61606700  0.97656300  1.0
  Zn  Zn2564  1  0.70229733  0.94940033  0.97656300  1.0
  Zn  Zn2565  1  0.16896400  0.31606700  0.97656300  1.0
  Zn  Zn2566  1  0.16896400  0.64940033  0.97656300  1.0
  Zn  Zn2567  1  0.16896400  0.98273367  0.97656300  1.0
  Zn  Zn2568  1  0.50229733  0.31606700  0.97656300  1.0
  Zn  Zn2569  1  0.50229733  0.64940033  0.97656300  1.0
  Zn  Zn2570  1  0.50229733  0.98273367  0.97656300  1.0
  Zn  Zn2571  1  0.83563067  0.31606700  0.97656300  1.0
  Zn  Zn2572  1  0.83563067  0.64940033  0.97656300  1.0
  Zn  Zn2573  1  0.83563067  0.98273367  0.97656300  1.0
  Zn  Zn2574  1  0.31910053  0.26776830  0.60155300  1.0
  Zn  Zn2575  1  0.31910053  0.60110163  0.60155300  1.0
  Zn  Zn2576  1  0.31910053  0.93443497  0.60155300  1.0
  Zn  Zn2577  1  0.65243387  0.26776830  0.60155300  1.0
  Zn  Zn2578  1  0.65243387  0.60110163  0.60155300  1.0
  Zn  Zn2579  1  0.65243387  0.93443497  0.60155300  1.0
  Zn  Zn2580  1  0.98576720  0.26776830  0.60155300  1.0
  Zn  Zn2581  1  0.98576720  0.60110163  0.60155300  1.0
  Zn  Zn2582  1  0.98576720  0.93443497  0.60155300  1.0
  Zn  Zn2583  1  0.11910053  0.30110163  0.60155300  1.0
  Zn  Zn2584  1  0.11910053  0.63443497  0.60155300  1.0
  Zn  Zn2585  1  0.11910053  0.96776830  0.60155300  1.0
  Zn  Zn2586  1  0.45243387  0.30110163  0.60155300  1.0
  Zn  Zn2587  1  0.45243387  0.63443497  0.60155300  1.0
  Zn  Zn2588  1  0.45243387  0.96776830  0.60155300  1.0
  Zn  Zn2589  1  0.78576720  0.30110163  0.60155300  1.0
  Zn  Zn2590  1  0.78576720  0.63443497  0.60155300  1.0
  Zn  Zn2591  1  0.78576720  0.96776830  0.60155300  1.0
  Zn  Zn2592  1  0.32980800  0.28247783  0.89844700  1.0
  Zn  Zn2593  1  0.32980800  0.61581117  0.89844700  1.0
  Zn  Zn2594  1  0.32980800  0.94914450  0.89844700  1.0
  Zn  Zn2595  1  0.66314133  0.28247783  0.89844700  1.0
  Zn  Zn2596  1  0.66314133  0.61581117  0.89844700  1.0
  Zn  Zn2597  1  0.66314133  0.94914450  0.89844700  1.0
  Zn  Zn2598  1  0.99647467  0.28247783  0.89844700  1.0
  Zn  Zn2599  1  0.99647467  0.61581117  0.89844700  1.0
  Zn  Zn2600  1  0.99647467  0.94914450  0.89844700  1.0
  Zn  Zn2601  1  0.12980800  0.31581117  0.89844700  1.0
  Zn  Zn2602  1  0.12980800  0.64914450  0.89844700  1.0
  Zn  Zn2603  1  0.12980800  0.98247783  0.89844700  1.0
  Zn  Zn2604  1  0.46314133  0.31581117  0.89844700  1.0
  Zn  Zn2605  1  0.46314133  0.64914450  0.89844700  1.0
  Zn  Zn2606  1  0.46314133  0.98247783  0.89844700  1.0
  Zn  Zn2607  1  0.79647467  0.31581117  0.89844700  1.0
  Zn  Zn2608  1  0.79647467  0.64914450  0.89844700  1.0
  Zn  Zn2609  1  0.79647467  0.98247783  0.89844700  1.0
  Zn  Zn2610  1  0.17566313  0.29938437  0.53185000  1.0
  Zn  Zn2611  1  0.17566313  0.63271770  0.53185000  1.0
  Zn  Zn2612  1  0.17566313  0.96605103  0.53185000  1.0
  Zn  Zn2613  1  0.50899647  0.29938437  0.53185000  1.0
  Zn  Zn2614  1  0.50899647  0.63271770  0.53185000  1.0
  Zn  Zn2615  1  0.50899647  0.96605103  0.53185000  1.0
  Zn  Zn2616  1  0.84232980  0.29938437  0.53185000  1.0
  Zn  Zn2617  1  0.84232980  0.63271770  0.53185000  1.0
  Zn  Zn2618  1  0.84232980  0.96605103  0.53185000  1.0
  Zn  Zn2619  1  0.30899647  0.33271770  0.53185000  1.0
  Zn  Zn2620  1  0.30899647  0.66605103  0.53185000  1.0
  Zn  Zn2621  1  0.30899647  0.99938437  0.53185000  1.0
  Zn  Zn2622  1  0.64232980  0.33271770  0.53185000  1.0
  Zn  Zn2623  1  0.64232980  0.66605103  0.53185000  1.0
  Zn  Zn2624  1  0.64232980  0.99938437  0.53185000  1.0
  Zn  Zn2625  1  0.97566313  0.33271770  0.53185000  1.0
  Zn  Zn2626  1  0.97566313  0.66605103  0.53185000  1.0
  Zn  Zn2627  1  0.97566313  0.99938437  0.53185000  1.0
  Zn  Zn2628  1  0.11377300  0.32136850  0.07639600  1.0
  Zn  Zn2629  1  0.11377300  0.65470183  0.07639600  1.0
  Zn  Zn2630  1  0.11377300  0.98803517  0.07639600  1.0
  Zn  Zn2631  1  0.44710633  0.32136850  0.07639600  1.0
  Zn  Zn2632  1  0.44710633  0.65470183  0.07639600  1.0
  Zn  Zn2633  1  0.44710633  0.98803517  0.07639600  1.0
  Zn  Zn2634  1  0.78043967  0.32136850  0.07639600  1.0
  Zn  Zn2635  1  0.78043967  0.65470183  0.07639600  1.0
  Zn  Zn2636  1  0.78043967  0.98803517  0.07639600  1.0
  Zn  Zn2637  1  0.31377300  0.28803517  0.07639600  1.0
  Zn  Zn2638  1  0.31377300  0.62136850  0.07639600  1.0
  Zn  Zn2639  1  0.31377300  0.95470183  0.07639600  1.0
  Zn  Zn2640  1  0.64710633  0.28803517  0.07639600  1.0
  Zn  Zn2641  1  0.64710633  0.62136850  0.07639600  1.0
  Zn  Zn2642  1  0.64710633  0.95470183  0.07639600  1.0
  Zn  Zn2643  1  0.98043967  0.28803517  0.07639600  1.0
  Zn  Zn2644  1  0.98043967  0.62136850  0.07639600  1.0
  Zn  Zn2645  1  0.98043967  0.95470183  0.07639600  1.0
  Zn  Zn2646  1  0.00058613  0.27257537  0.70818400  1.0
  Zn  Zn2647  1  0.00058613  0.60590870  0.70818400  1.0
  Zn  Zn2648  1  0.00058613  0.93924203  0.70818400  1.0
  Zn  Zn2649  1  0.33391947  0.27257537  0.70818400  1.0
  Zn  Zn2650  1  0.33391947  0.60590870  0.70818400  1.0
  Zn  Zn2651  1  0.33391947  0.93924203  0.70818400  1.0
  Zn  Zn2652  1  0.66725280  0.27257537  0.70818400  1.0
  Zn  Zn2653  1  0.66725280  0.60590870  0.70818400  1.0
  Zn  Zn2654  1  0.66725280  0.93924203  0.70818400  1.0
  Zn  Zn2655  1  0.13391947  0.30590870  0.70818400  1.0
  Zn  Zn2656  1  0.13391947  0.63924203  0.70818400  1.0
  Zn  Zn2657  1  0.13391947  0.97257537  0.70818400  1.0
  Zn  Zn2658  1  0.46725280  0.30590870  0.70818400  1.0
  Zn  Zn2659  1  0.46725280  0.63924203  0.70818400  1.0
  Zn  Zn2660  1  0.46725280  0.97257537  0.70818400  1.0
  Zn  Zn2661  1  0.80058613  0.30590870  0.70818400  1.0
  Zn  Zn2662  1  0.80058613  0.63924203  0.70818400  1.0
  Zn  Zn2663  1  0.80058613  0.97257537  0.70818400  1.0
  Zn  Zn2664  1  0.11970500  0.32551183  0.47656300  1.0
  Zn  Zn2665  1  0.11970500  0.65884517  0.47656300  1.0
  Zn  Zn2666  1  0.11970500  0.99217850  0.47656300  1.0
  Zn  Zn2667  1  0.45303833  0.32551183  0.47656300  1.0
  Zn  Zn2668  1  0.45303833  0.65884517  0.47656300  1.0
  Zn  Zn2669  1  0.45303833  0.99217850  0.47656300  1.0
  Zn  Zn2670  1  0.78637167  0.32551183  0.47656300  1.0
  Zn  Zn2671  1  0.78637167  0.65884517  0.47656300  1.0
  Zn  Zn2672  1  0.78637167  0.99217850  0.47656300  1.0
  Zn  Zn2673  1  0.31970500  0.29217850  0.47656300  1.0
  Zn  Zn2674  1  0.31970500  0.62551183  0.47656300  1.0
  Zn  Zn2675  1  0.31970500  0.95884517  0.47656300  1.0
  Zn  Zn2676  1  0.65303833  0.29217850  0.47656300  1.0
  Zn  Zn2677  1  0.65303833  0.62551183  0.47656300  1.0
  Zn  Zn2678  1  0.65303833  0.95884517  0.47656300  1.0
  Zn  Zn2679  1  0.98637167  0.29217850  0.47656300  1.0
  Zn  Zn2680  1  0.98637167  0.62551183  0.47656300  1.0
  Zn  Zn2681  1  0.98637167  0.95884517  0.47656300  1.0
  Zn  Zn2682  1  0.16478967  0.30082783  0.40826300  1.0
  Zn  Zn2683  1  0.16478967  0.63416117  0.40826300  1.0
  Zn  Zn2684  1  0.16478967  0.96749450  0.40826300  1.0
  Zn  Zn2685  1  0.49812300  0.30082783  0.40826300  1.0
  Zn  Zn2686  1  0.49812300  0.63416117  0.40826300  1.0
  Zn  Zn2687  1  0.49812300  0.96749450  0.40826300  1.0
  Zn  Zn2688  1  0.83145633  0.30082783  0.40826300  1.0
  Zn  Zn2689  1  0.83145633  0.63416117  0.40826300  1.0
  Zn  Zn2690  1  0.83145633  0.96749450  0.40826300  1.0
  Zn  Zn2691  1  0.03145633  0.26749450  0.40826300  1.0
  Zn  Zn2692  1  0.03145633  0.60082783  0.40826300  1.0
  Zn  Zn2693  1  0.03145633  0.93416117  0.40826300  1.0
  Zn  Zn2694  1  0.36478967  0.26749450  0.40826300  1.0
  Zn  Zn2695  1  0.36478967  0.60082783  0.40826300  1.0
  Zn  Zn2696  1  0.36478967  0.93416117  0.40826300  1.0
  Zn  Zn2697  1  0.69812300  0.26749450  0.40826300  1.0
  Zn  Zn2698  1  0.69812300  0.60082783  0.40826300  1.0
  Zn  Zn2699  1  0.69812300  0.93416117  0.40826300  1.0
  Zn  Zn2700  1  0.27840000  0.31066267  0.84598900  1.0
  Zn  Zn2701  1  0.27840000  0.64399600  0.84598900  1.0
  Zn  Zn2702  1  0.27840000  0.97732933  0.84598900  1.0
  Zn  Zn2703  1  0.61173333  0.31066267  0.84598900  1.0
  Zn  Zn2704  1  0.61173333  0.64399600  0.84598900  1.0
  Zn  Zn2705  1  0.61173333  0.97732933  0.84598900  1.0
  Zn  Zn2706  1  0.94506667  0.31066267  0.84598900  1.0
  Zn  Zn2707  1  0.94506667  0.64399600  0.84598900  1.0
  Zn  Zn2708  1  0.94506667  0.97732933  0.84598900  1.0
  Zn  Zn2709  1  0.14506667  0.27732933  0.84598900  1.0
  Zn  Zn2710  1  0.14506667  0.61066267  0.84598900  1.0
  Zn  Zn2711  1  0.14506667  0.94399600  0.84598900  1.0
  Zn  Zn2712  1  0.47840000  0.27732933  0.84598900  1.0
  Zn  Zn2713  1  0.47840000  0.61066267  0.84598900  1.0
  Zn  Zn2714  1  0.47840000  0.94399600  0.84598900  1.0
  Zn  Zn2715  1  0.81173333  0.27732933  0.84598900  1.0
  Zn  Zn2716  1  0.81173333  0.61066267  0.84598900  1.0
  Zn  Zn2717  1  0.81173333  0.94399600  0.84598900  1.0
  Zn  Zn2718  1  0.11468427  0.30917873  0.40826300  1.0
  Zn  Zn2719  1  0.11468427  0.64251207  0.40826300  1.0
  Zn  Zn2720  1  0.11468427  0.97584540  0.40826300  1.0
  Zn  Zn2721  1  0.44801760  0.30917873  0.40826300  1.0
  Zn  Zn2722  1  0.44801760  0.64251207  0.40826300  1.0
  Zn  Zn2723  1  0.44801760  0.97584540  0.40826300  1.0
  Zn  Zn2724  1  0.78135093  0.30917873  0.40826300  1.0
  Zn  Zn2725  1  0.78135093  0.64251207  0.40826300  1.0
  Zn  Zn2726  1  0.78135093  0.97584540  0.40826300  1.0
  Zn  Zn2727  1  0.31468427  0.27584540  0.40826300  1.0
  Zn  Zn2728  1  0.31468427  0.60917873  0.40826300  1.0
  Zn  Zn2729  1  0.31468427  0.94251207  0.40826300  1.0
  Zn  Zn2730  1  0.64801760  0.27584540  0.40826300  1.0
  Zn  Zn2731  1  0.64801760  0.60917873  0.40826300  1.0
  Zn  Zn2732  1  0.64801760  0.94251207  0.40826300  1.0
  Zn  Zn2733  1  0.98135093  0.27584540  0.40826300  1.0
  Zn  Zn2734  1  0.98135093  0.60917873  0.40826300  1.0
  Zn  Zn2735  1  0.98135093  0.94251207  0.40826300  1.0
  Zn  Zn2736  1  0.28714407  0.30504310  0.96815000  1.0
  Zn  Zn2737  1  0.28714407  0.63837643  0.96815000  1.0
  Zn  Zn2738  1  0.28714407  0.97170977  0.96815000  1.0
  Zn  Zn2739  1  0.62047740  0.30504310  0.96815000  1.0
  Zn  Zn2740  1  0.62047740  0.63837643  0.96815000  1.0
  Zn  Zn2741  1  0.62047740  0.97170977  0.96815000  1.0
  Zn  Zn2742  1  0.95381073  0.30504310  0.96815000  1.0
  Zn  Zn2743  1  0.95381073  0.63837643  0.96815000  1.0
  Zn  Zn2744  1  0.95381073  0.97170977  0.96815000  1.0
  Zn  Zn2745  1  0.15381073  0.27170977  0.96815000  1.0
  Zn  Zn2746  1  0.15381073  0.60504310  0.96815000  1.0
  Zn  Zn2747  1  0.15381073  0.93837643  0.96815000  1.0
  Zn  Zn2748  1  0.48714407  0.27170977  0.96815000  1.0
  Zn  Zn2749  1  0.48714407  0.60504310  0.96815000  1.0
  Zn  Zn2750  1  0.48714407  0.93837643  0.96815000  1.0
  Zn  Zn2751  1  0.82047740  0.27170977  0.96815000  1.0
  Zn  Zn2752  1  0.82047740  0.60504310  0.96815000  1.0
  Zn  Zn2753  1  0.82047740  0.93837643  0.96815000  1.0
  Zn  Zn2754  1  0.15110987  0.32572247  0.38630400  1.0
  Zn  Zn2755  1  0.15110987  0.65905580  0.38630400  1.0
  Zn  Zn2756  1  0.15110987  0.99238913  0.38630400  1.0
  Zn  Zn2757  1  0.48444320  0.32572247  0.38630400  1.0
  Zn  Zn2758  1  0.48444320  0.65905580  0.38630400  1.0
  Zn  Zn2759  1  0.48444320  0.99238913  0.38630400  1.0
  Zn  Zn2760  1  0.81777653  0.32572247  0.38630400  1.0
  Zn  Zn2761  1  0.81777653  0.65905580  0.38630400  1.0
  Zn  Zn2762  1  0.81777653  0.99238913  0.38630400  1.0
  Zn  Zn2763  1  0.01777653  0.29238913  0.38630400  1.0
  Zn  Zn2764  1  0.01777653  0.62572247  0.38630400  1.0
  Zn  Zn2765  1  0.01777653  0.95905580  0.38630400  1.0
  Zn  Zn2766  1  0.35110987  0.29238913  0.38630400  1.0
  Zn  Zn2767  1  0.35110987  0.62572247  0.38630400  1.0
  Zn  Zn2768  1  0.35110987  0.95905580  0.38630400  1.0
  Zn  Zn2769  1  0.68444320  0.29238913  0.38630400  1.0
  Zn  Zn2770  1  0.68444320  0.62572247  0.38630400  1.0
  Zn  Zn2771  1  0.68444320  0.95905580  0.38630400  1.0
  Zn  Zn2772  1  0.30129000  0.28204333  0.00000000  1.0
  Zn  Zn2773  1  0.30129000  0.61537667  0.00000000  1.0
  Zn  Zn2774  1  0.30129000  0.94871000  0.00000000  1.0
  Zn  Zn2775  1  0.63462333  0.28204333  0.00000000  1.0
  Zn  Zn2776  1  0.63462333  0.61537667  0.00000000  1.0
  Zn  Zn2777  1  0.63462333  0.94871000  0.00000000  1.0
  Zn  Zn2778  1  0.96795667  0.28204333  0.00000000  1.0
  Zn  Zn2779  1  0.96795667  0.61537667  0.00000000  1.0
  Zn  Zn2780  1  0.96795667  0.94871000  0.00000000  1.0
  Zn  Zn2781  1  0.10129000  0.31537667  0.00000000  1.0
  Zn  Zn2782  1  0.10129000  0.64871000  0.00000000  1.0
  Zn  Zn2783  1  0.10129000  0.98204333  0.00000000  1.0
  Zn  Zn2784  1  0.43462333  0.31537667  0.00000000  1.0
  Zn  Zn2785  1  0.43462333  0.64871000  0.00000000  1.0
  Zn  Zn2786  1  0.43462333  0.98204333  0.00000000  1.0
  Zn  Zn2787  1  0.76795667  0.31537667  0.00000000  1.0
  Zn  Zn2788  1  0.76795667  0.64871000  0.00000000  1.0
  Zn  Zn2789  1  0.76795667  0.98204333  0.00000000  1.0
  Zn  Zn2790  1  0.16254833  0.31730900  0.78028200  1.0
  Zn  Zn2791  1  0.16254833  0.65064233  0.78028200  1.0
  Zn  Zn2792  1  0.16254833  0.98397567  0.78028200  1.0
  Zn  Zn2793  1  0.49588167  0.31730900  0.78028200  1.0
  Zn  Zn2794  1  0.49588167  0.65064233  0.78028200  1.0
  Zn  Zn2795  1  0.49588167  0.98397567  0.78028200  1.0
  Zn  Zn2796  1  0.82921500  0.31730900  0.78028200  1.0
  Zn  Zn2797  1  0.82921500  0.65064233  0.78028200  1.0
  Zn  Zn2798  1  0.82921500  0.98397567  0.78028200  1.0
  Zn  Zn2799  1  0.02921500  0.28397567  0.78028200  1.0
  Zn  Zn2800  1  0.02921500  0.61730900  0.78028200  1.0
  Zn  Zn2801  1  0.02921500  0.95064233  0.78028200  1.0
  Zn  Zn2802  1  0.36254833  0.28397567  0.78028200  1.0
  Zn  Zn2803  1  0.36254833  0.61730900  0.78028200  1.0
  Zn  Zn2804  1  0.36254833  0.95064233  0.78028200  1.0
  Zn  Zn2805  1  0.69588167  0.28397567  0.78028200  1.0
  Zn  Zn2806  1  0.69588167  0.61730900  0.78028200  1.0
  Zn  Zn2807  1  0.69588167  0.95064233  0.78028200  1.0
  Zn  Zn2808  1  0.19192147  0.28812937  0.21971800  1.0
  Zn  Zn2809  1  0.19192147  0.62146270  0.21971800  1.0
  Zn  Zn2810  1  0.19192147  0.95479603  0.21971800  1.0
  Zn  Zn2811  1  0.52525480  0.28812937  0.21971800  1.0
  Zn  Zn2812  1  0.52525480  0.62146270  0.21971800  1.0
  Zn  Zn2813  1  0.52525480  0.95479603  0.21971800  1.0
  Zn  Zn2814  1  0.85858813  0.28812937  0.21971800  1.0
  Zn  Zn2815  1  0.85858813  0.62146270  0.21971800  1.0
  Zn  Zn2816  1  0.85858813  0.95479603  0.21971800  1.0
  Zn  Zn2817  1  0.32525480  0.32146270  0.21971800  1.0
  Zn  Zn2818  1  0.32525480  0.65479603  0.21971800  1.0
  Zn  Zn2819  1  0.32525480  0.98812937  0.21971800  1.0
  Zn  Zn2820  1  0.65858813  0.32146270  0.21971800  1.0
  Zn  Zn2821  1  0.65858813  0.65479603  0.21971800  1.0
  Zn  Zn2822  1  0.65858813  0.98812937  0.21971800  1.0
  Zn  Zn2823  1  0.99192147  0.32146270  0.21971800  1.0
  Zn  Zn2824  1  0.99192147  0.65479603  0.21971800  1.0
  Zn  Zn2825  1  0.99192147  0.98812937  0.21971800  1.0
  Zn  Zn2826  1  0.21917520  0.28047780  0.91421600  1.0
  Zn  Zn2827  1  0.21917520  0.61381113  0.91421600  1.0
  Zn  Zn2828  1  0.21917520  0.94714447  0.91421600  1.0
  Zn  Zn2829  1  0.55250853  0.28047780  0.91421600  1.0
  Zn  Zn2830  1  0.55250853  0.61381113  0.91421600  1.0
  Zn  Zn2831  1  0.55250853  0.94714447  0.91421600  1.0
  Zn  Zn2832  1  0.88584187  0.28047780  0.91421600  1.0
  Zn  Zn2833  1  0.88584187  0.61381113  0.91421600  1.0
  Zn  Zn2834  1  0.88584187  0.94714447  0.91421600  1.0
  Zn  Zn2835  1  0.01917520  0.31381113  0.91421600  1.0
  Zn  Zn2836  1  0.01917520  0.64714447  0.91421600  1.0
  Zn  Zn2837  1  0.01917520  0.98047780  0.91421600  1.0
  Zn  Zn2838  1  0.35250853  0.31381113  0.91421600  1.0
  Zn  Zn2839  1  0.35250853  0.64714447  0.91421600  1.0
  Zn  Zn2840  1  0.35250853  0.98047780  0.91421600  1.0
  Zn  Zn2841  1  0.68584187  0.31381113  0.91421600  1.0
  Zn  Zn2842  1  0.68584187  0.64714447  0.91421600  1.0
  Zn  Zn2843  1  0.68584187  0.98047780  0.91421600  1.0
  Zn  Zn2844  1  0.17999380  0.32380970  0.90826300  1.0
  Zn  Zn2845  1  0.17999380  0.65714303  0.90826300  1.0
  Zn  Zn2846  1  0.17999380  0.99047637  0.90826300  1.0
  Zn  Zn2847  1  0.51332713  0.32380970  0.90826300  1.0
  Zn  Zn2848  1  0.51332713  0.65714303  0.90826300  1.0
  Zn  Zn2849  1  0.51332713  0.99047637  0.90826300  1.0
  Zn  Zn2850  1  0.84666047  0.32380970  0.90826300  1.0
  Zn  Zn2851  1  0.84666047  0.65714303  0.90826300  1.0
  Zn  Zn2852  1  0.84666047  0.99047637  0.90826300  1.0
  Zn  Zn2853  1  0.04666047  0.29047637  0.90826300  1.0
  Zn  Zn2854  1  0.04666047  0.62380970  0.90826300  1.0
  Zn  Zn2855  1  0.04666047  0.95714303  0.90826300  1.0
  Zn  Zn2856  1  0.37999380  0.29047637  0.90826300  1.0
  Zn  Zn2857  1  0.37999380  0.62380970  0.90826300  1.0
  Zn  Zn2858  1  0.37999380  0.95714303  0.90826300  1.0
  Zn  Zn2859  1  0.71332713  0.29047637  0.90826300  1.0
  Zn  Zn2860  1  0.71332713  0.62380970  0.90826300  1.0
  Zn  Zn2861  1  0.71332713  0.95714303  0.90826300  1.0
  Zn  Zn2862  1  0.22686107  0.32468393  0.72284200  1.0
  Zn  Zn2863  1  0.22686107  0.65801727  0.72284200  1.0
  Zn  Zn2864  1  0.22686107  0.99135060  0.72284200  1.0
  Zn  Zn2865  1  0.56019440  0.32468393  0.72284200  1.0
  Zn  Zn2866  1  0.56019440  0.65801727  0.72284200  1.0
  Zn  Zn2867  1  0.56019440  0.99135060  0.72284200  1.0
  Zn  Zn2868  1  0.89352773  0.32468393  0.72284200  1.0
  Zn  Zn2869  1  0.89352773  0.65801727  0.72284200  1.0
  Zn  Zn2870  1  0.89352773  0.99135060  0.72284200  1.0
  Zn  Zn2871  1  0.09352773  0.29135060  0.72284200  1.0
  Zn  Zn2872  1  0.09352773  0.62468393  0.72284200  1.0
  Zn  Zn2873  1  0.09352773  0.95801727  0.72284200  1.0
  Zn  Zn2874  1  0.42686107  0.29135060  0.72284200  1.0
  Zn  Zn2875  1  0.42686107  0.62468393  0.72284200  1.0
  Zn  Zn2876  1  0.42686107  0.95801727  0.72284200  1.0
  Zn  Zn2877  1  0.76019440  0.29135060  0.72284200  1.0
  Zn  Zn2878  1  0.76019440  0.62468393  0.72284200  1.0
  Zn  Zn2879  1  0.76019440  0.95801727  0.72284200  1.0
  Zn  Zn2880  1  0.25147013  0.27169753  0.61369600  1.0
  Zn  Zn2881  1  0.25147013  0.60503087  0.61369600  1.0
  Zn  Zn2882  1  0.25147013  0.93836420  0.61369600  1.0
  Zn  Zn2883  1  0.58480347  0.27169753  0.61369600  1.0
  Zn  Zn2884  1  0.58480347  0.60503087  0.61369600  1.0
  Zn  Zn2885  1  0.58480347  0.93836420  0.61369600  1.0
  Zn  Zn2886  1  0.91813680  0.27169753  0.61369600  1.0
  Zn  Zn2887  1  0.91813680  0.60503087  0.61369600  1.0
  Zn  Zn2888  1  0.91813680  0.93836420  0.61369600  1.0
  Zn  Zn2889  1  0.05147013  0.30503087  0.61369600  1.0
  Zn  Zn2890  1  0.05147013  0.63836420  0.61369600  1.0
  Zn  Zn2891  1  0.05147013  0.97169753  0.61369600  1.0
  Zn  Zn2892  1  0.38480347  0.30503087  0.61369600  1.0
  Zn  Zn2893  1  0.38480347  0.63836420  0.61369600  1.0
  Zn  Zn2894  1  0.38480347  0.97169753  0.61369600  1.0
  Zn  Zn2895  1  0.71813680  0.30503087  0.61369600  1.0
  Zn  Zn2896  1  0.71813680  0.63836420  0.61369600  1.0
  Zn  Zn2897  1  0.71813680  0.97169753  0.61369600  1.0
  Zn  Zn2898  1  0.23473720  0.27022663  0.84265600  1.0
  Zn  Zn2899  1  0.23473720  0.60355997  0.84265600  1.0
  Zn  Zn2900  1  0.23473720  0.93689330  0.84265600  1.0
  Zn  Zn2901  1  0.56807053  0.27022663  0.84265600  1.0
  Zn  Zn2902  1  0.56807053  0.60355997  0.84265600  1.0
  Zn  Zn2903  1  0.56807053  0.93689330  0.84265600  1.0
  Zn  Zn2904  1  0.90140387  0.27022663  0.84265600  1.0
  Zn  Zn2905  1  0.90140387  0.60355997  0.84265600  1.0
  Zn  Zn2906  1  0.90140387  0.93689330  0.84265600  1.0
  Zn  Zn2907  1  0.03473720  0.30355997  0.84265600  1.0
  Zn  Zn2908  1  0.03473720  0.63689330  0.84265600  1.0
  Zn  Zn2909  1  0.03473720  0.97022663  0.84265600  1.0
  Zn  Zn2910  1  0.36807053  0.30355997  0.84265600  1.0
  Zn  Zn2911  1  0.36807053  0.63689330  0.84265600  1.0
  Zn  Zn2912  1  0.36807053  0.97022663  0.84265600  1.0
  Zn  Zn2913  1  0.70140387  0.30355997  0.84265600  1.0
  Zn  Zn2914  1  0.70140387  0.63689330  0.84265600  1.0
  Zn  Zn2915  1  0.70140387  0.97022663  0.84265600  1.0
  Zn  Zn2916  1  0.06874353  0.30015897  0.03185000  1.0
  Zn  Zn2917  1  0.06874353  0.63349230  0.03185000  1.0
  Zn  Zn2918  1  0.06874353  0.96682563  0.03185000  1.0
  Zn  Zn2919  1  0.40207687  0.30015897  0.03185000  1.0
  Zn  Zn2920  1  0.40207687  0.63349230  0.03185000  1.0
  Zn  Zn2921  1  0.40207687  0.96682563  0.03185000  1.0
  Zn  Zn2922  1  0.73541020  0.30015897  0.03185000  1.0
  Zn  Zn2923  1  0.73541020  0.63349230  0.03185000  1.0
  Zn  Zn2924  1  0.73541020  0.96682563  0.03185000  1.0
  Zn  Zn2925  1  0.26874353  0.26682563  0.03185000  1.0
  Zn  Zn2926  1  0.26874353  0.60015897  0.03185000  1.0
  Zn  Zn2927  1  0.26874353  0.93349230  0.03185000  1.0
  Zn  Zn2928  1  0.60207687  0.26682563  0.03185000  1.0
  Zn  Zn2929  1  0.60207687  0.60015897  0.03185000  1.0
  Zn  Zn2930  1  0.60207687  0.93349230  0.03185000  1.0
  Zn  Zn2931  1  0.93541020  0.26682563  0.03185000  1.0
  Zn  Zn2932  1  0.93541020  0.60015897  0.03185000  1.0
  Zn  Zn2933  1  0.93541020  0.93349230  0.03185000  1.0
  Zn  Zn2934  1  0.12130027  0.27173740  0.08578400  1.0
  Zn  Zn2935  1  0.12130027  0.60507073  0.08578400  1.0
  Zn  Zn2936  1  0.12130027  0.93840407  0.08578400  1.0
  Zn  Zn2937  1  0.45463360  0.27173740  0.08578400  1.0
  Zn  Zn2938  1  0.45463360  0.60507073  0.08578400  1.0
  Zn  Zn2939  1  0.45463360  0.93840407  0.08578400  1.0
  Zn  Zn2940  1  0.78796693  0.27173740  0.08578400  1.0
  Zn  Zn2941  1  0.78796693  0.60507073  0.08578400  1.0
  Zn  Zn2942  1  0.78796693  0.93840407  0.08578400  1.0
  Zn  Zn2943  1  0.25463360  0.30507073  0.08578400  1.0
  Zn  Zn2944  1  0.25463360  0.63840407  0.08578400  1.0
  Zn  Zn2945  1  0.25463360  0.97173740  0.08578400  1.0
  Zn  Zn2946  1  0.58796693  0.30507073  0.08578400  1.0
  Zn  Zn2947  1  0.58796693  0.63840407  0.08578400  1.0
  Zn  Zn2948  1  0.58796693  0.97173740  0.08578400  1.0
  Zn  Zn2949  1  0.92130027  0.30507073  0.08578400  1.0
  Zn  Zn2950  1  0.92130027  0.63840407  0.08578400  1.0
  Zn  Zn2951  1  0.92130027  0.97173740  0.08578400  1.0
  Zn  Zn2952  1  0.09999667  0.30681483  0.28028200  1.0
  Zn  Zn2953  1  0.09999667  0.64014817  0.28028200  1.0
  Zn  Zn2954  1  0.09999667  0.97348150  0.28028200  1.0
  Zn  Zn2955  1  0.43333000  0.30681483  0.28028200  1.0
  Zn  Zn2956  1  0.43333000  0.64014817  0.28028200  1.0
  Zn  Zn2957  1  0.43333000  0.97348150  0.28028200  1.0
  Zn  Zn2958  1  0.76666333  0.30681483  0.28028200  1.0
  Zn  Zn2959  1  0.76666333  0.64014817  0.28028200  1.0
  Zn  Zn2960  1  0.76666333  0.97348150  0.28028200  1.0
  Zn  Zn2961  1  0.29999667  0.27348150  0.28028200  1.0
  Zn  Zn2962  1  0.29999667  0.60681483  0.28028200  1.0
  Zn  Zn2963  1  0.29999667  0.94014817  0.28028200  1.0
  Zn  Zn2964  1  0.63333000  0.27348150  0.28028200  1.0
  Zn  Zn2965  1  0.63333000  0.60681483  0.28028200  1.0
  Zn  Zn2966  1  0.63333000  0.94014817  0.28028200  1.0
  Zn  Zn2967  1  0.96666333  0.27348150  0.28028200  1.0
  Zn  Zn2968  1  0.96666333  0.60681483  0.28028200  1.0
  Zn  Zn2969  1  0.96666333  0.94014817  0.28028200  1.0
  Zn  Zn2970  1  0.20871760  0.31953007  0.58578400  1.0
  Zn  Zn2971  1  0.20871760  0.65286340  0.58578400  1.0
  Zn  Zn2972  1  0.20871760  0.98619673  0.58578400  1.0
  Zn  Zn2973  1  0.54205093  0.31953007  0.58578400  1.0
  Zn  Zn2974  1  0.54205093  0.65286340  0.58578400  1.0
  Zn  Zn2975  1  0.54205093  0.98619673  0.58578400  1.0
  Zn  Zn2976  1  0.87538427  0.31953007  0.58578400  1.0
  Zn  Zn2977  1  0.87538427  0.65286340  0.58578400  1.0
  Zn  Zn2978  1  0.87538427  0.98619673  0.58578400  1.0
  Zn  Zn2979  1  0.07538427  0.28619673  0.58578400  1.0
  Zn  Zn2980  1  0.07538427  0.61953007  0.58578400  1.0
  Zn  Zn2981  1  0.07538427  0.95286340  0.58578400  1.0
  Zn  Zn2982  1  0.40871760  0.28619673  0.58578400  1.0
  Zn  Zn2983  1  0.40871760  0.61953007  0.58578400  1.0
  Zn  Zn2984  1  0.40871760  0.95286340  0.58578400  1.0
  Zn  Zn2985  1  0.74205093  0.28619673  0.58578400  1.0
  Zn  Zn2986  1  0.74205093  0.61953007  0.58578400  1.0
  Zn  Zn2987  1  0.74205093  0.95286340  0.58578400  1.0
  Zn  Zn2988  1  0.28287500  0.27190817  0.52343700  1.0
  Zn  Zn2989  1  0.28287500  0.60524150  0.52343700  1.0
  Zn  Zn2990  1  0.28287500  0.93857483  0.52343700  1.0
  Zn  Zn2991  1  0.61620833  0.27190817  0.52343700  1.0
  Zn  Zn2992  1  0.61620833  0.60524150  0.52343700  1.0
  Zn  Zn2993  1  0.61620833  0.93857483  0.52343700  1.0
  Zn  Zn2994  1  0.94954167  0.27190817  0.52343700  1.0
  Zn  Zn2995  1  0.94954167  0.60524150  0.52343700  1.0
  Zn  Zn2996  1  0.94954167  0.93857483  0.52343700  1.0
  Zn  Zn2997  1  0.08287500  0.30524150  0.52343700  1.0
  Zn  Zn2998  1  0.08287500  0.63857483  0.52343700  1.0
  Zn  Zn2999  1  0.08287500  0.97190817  0.52343700  1.0
  Zn  Zn3000  1  0.41620833  0.30524150  0.52343700  1.0
  Zn  Zn3001  1  0.41620833  0.63857483  0.52343700  1.0
  Zn  Zn3002  1  0.41620833  0.97190817  0.52343700  1.0
  Zn  Zn3003  1  0.74954167  0.30524150  0.52343700  1.0
  Zn  Zn3004  1  0.74954167  0.63857483  0.52343700  1.0
  Zn  Zn3005  1  0.74954167  0.97190817  0.52343700  1.0
  Zn  Zn3006  1  0.15928820  0.29374097  0.02343700  1.0
  Zn  Zn3007  1  0.15928820  0.62707430  0.02343700  1.0
  Zn  Zn3008  1  0.15928820  0.96040763  0.02343700  1.0
  Zn  Zn3009  1  0.49262153  0.29374097  0.02343700  1.0
  Zn  Zn3010  1  0.49262153  0.62707430  0.02343700  1.0
  Zn  Zn3011  1  0.49262153  0.96040763  0.02343700  1.0
  Zn  Zn3012  1  0.82595487  0.29374097  0.02343700  1.0
  Zn  Zn3013  1  0.82595487  0.62707430  0.02343700  1.0
  Zn  Zn3014  1  0.82595487  0.96040763  0.02343700  1.0
  Zn  Zn3015  1  0.29262153  0.32707430  0.02343700  1.0
  Zn  Zn3016  1  0.29262153  0.66040763  0.02343700  1.0
  Zn  Zn3017  1  0.29262153  0.99374097  0.02343700  1.0
  Zn  Zn3018  1  0.62595487  0.32707430  0.02343700  1.0
  Zn  Zn3019  1  0.62595487  0.66040763  0.02343700  1.0
  Zn  Zn3020  1  0.62595487  0.99374097  0.02343700  1.0
  Zn  Zn3021  1  0.95928820  0.32707430  0.02343700  1.0
  Zn  Zn3022  1  0.95928820  0.66040763  0.02343700  1.0
  Zn  Zn3023  1  0.95928820  0.99374097  0.02343700  1.0
  Zn  Zn3024  1  0.19022213  0.28924803  0.60155300  1.0
  Zn  Zn3025  1  0.19022213  0.62258137  0.60155300  1.0
  Zn  Zn3026  1  0.19022213  0.95591470  0.60155300  1.0
  Zn  Zn3027  1  0.52355547  0.28924803  0.60155300  1.0
  Zn  Zn3028  1  0.52355547  0.62258137  0.60155300  1.0
  Zn  Zn3029  1  0.52355547  0.95591470  0.60155300  1.0
  Zn  Zn3030  1  0.85688880  0.28924803  0.60155300  1.0
  Zn  Zn3031  1  0.85688880  0.62258137  0.60155300  1.0
  Zn  Zn3032  1  0.85688880  0.95591470  0.60155300  1.0
  Zn  Zn3033  1  0.32355547  0.32258137  0.60155300  1.0
  Zn  Zn3034  1  0.32355547  0.65591470  0.60155300  1.0
  Zn  Zn3035  1  0.32355547  0.98924803  0.60155300  1.0
  Zn  Zn3036  1  0.65688880  0.32258137  0.60155300  1.0
  Zn  Zn3037  1  0.65688880  0.65591470  0.60155300  1.0
  Zn  Zn3038  1  0.65688880  0.98924803  0.60155300  1.0
  Zn  Zn3039  1  0.99022213  0.32258137  0.60155300  1.0
  Zn  Zn3040  1  0.99022213  0.65591470  0.60155300  1.0
  Zn  Zn3041  1  0.99022213  0.98924803  0.60155300  1.0
  Zn  Zn3042  1  0.15280293  0.32093007  0.65401100  1.0
  Zn  Zn3043  1  0.15280293  0.65426340  0.65401100  1.0
  Zn  Zn3044  1  0.15280293  0.98759673  0.65401100  1.0
  Zn  Zn3045  1  0.48613627  0.32093007  0.65401100  1.0
  Zn  Zn3046  1  0.48613627  0.65426340  0.65401100  1.0
  Zn  Zn3047  1  0.48613627  0.98759673  0.65401100  1.0
  Zn  Zn3048  1  0.81946960  0.32093007  0.65401100  1.0
  Zn  Zn3049  1  0.81946960  0.65426340  0.65401100  1.0
  Zn  Zn3050  1  0.81946960  0.98759673  0.65401100  1.0
  Zn  Zn3051  1  0.01946960  0.28759673  0.65401100  1.0
  Zn  Zn3052  1  0.01946960  0.62093007  0.65401100  1.0
  Zn  Zn3053  1  0.01946960  0.95426340  0.65401100  1.0
  Zn  Zn3054  1  0.35280293  0.28759673  0.65401100  1.0
  Zn  Zn3055  1  0.35280293  0.62093007  0.65401100  1.0
  Zn  Zn3056  1  0.35280293  0.95426340  0.65401100  1.0
  Zn  Zn3057  1  0.68613627  0.28759673  0.65401100  1.0
  Zn  Zn3058  1  0.68613627  0.62093007  0.65401100  1.0
  Zn  Zn3059  1  0.68613627  0.95426340  0.65401100  1.0
  Zn  Zn3060  1  0.33047907  0.25487627  0.77715800  1.0
  Zn  Zn3061  1  0.33047907  0.58820960  0.77715800  1.0
  Zn  Zn3062  1  0.33047907  0.92154293  0.77715800  1.0
  Zn  Zn3063  1  0.66381240  0.25487627  0.77715800  1.0
  Zn  Zn3064  1  0.66381240  0.58820960  0.77715800  1.0
  Zn  Zn3065  1  0.66381240  0.92154293  0.77715800  1.0
  Zn  Zn3066  1  0.99714573  0.25487627  0.77715800  1.0
  Zn  Zn3067  1  0.99714573  0.58820960  0.77715800  1.0
  Zn  Zn3068  1  0.99714573  0.92154293  0.77715800  1.0
  Zn  Zn3069  1  0.19714573  0.22154293  0.77715800  1.0
  Zn  Zn3070  1  0.19714573  0.55487627  0.77715800  1.0
  Zn  Zn3071  1  0.19714573  0.88820960  0.77715800  1.0
  Zn  Zn3072  1  0.53047907  0.22154293  0.77715800  1.0
  Zn  Zn3073  1  0.53047907  0.55487627  0.77715800  1.0
  Zn  Zn3074  1  0.53047907  0.88820960  0.77715800  1.0
  Zn  Zn3075  1  0.86381240  0.22154293  0.77715800  1.0
  Zn  Zn3076  1  0.86381240  0.55487627  0.77715800  1.0
  Zn  Zn3077  1  0.86381240  0.88820960  0.77715800  1.0
  Zn  Zn3078  1  0.15014613  0.26298503  0.39844700  1.0
  Zn  Zn3079  1  0.15014613  0.59631837  0.39844700  1.0
  Zn  Zn3080  1  0.15014613  0.92965170  0.39844700  1.0
  Zn  Zn3081  1  0.48347947  0.26298503  0.39844700  1.0
  Zn  Zn3082  1  0.48347947  0.59631837  0.39844700  1.0
  Zn  Zn3083  1  0.48347947  0.92965170  0.39844700  1.0
  Zn  Zn3084  1  0.81681280  0.26298503  0.39844700  1.0
  Zn  Zn3085  1  0.81681280  0.59631837  0.39844700  1.0
  Zn  Zn3086  1  0.81681280  0.92965170  0.39844700  1.0
  Zn  Zn3087  1  0.01681280  0.22965170  0.39844700  1.0
  Zn  Zn3088  1  0.01681280  0.56298503  0.39844700  1.0
  Zn  Zn3089  1  0.01681280  0.89631837  0.39844700  1.0
  Zn  Zn3090  1  0.35014613  0.22965170  0.39844700  1.0
  Zn  Zn3091  1  0.35014613  0.56298503  0.39844700  1.0
  Zn  Zn3092  1  0.35014613  0.89631837  0.39844700  1.0
  Zn  Zn3093  1  0.68347947  0.22965170  0.39844700  1.0
  Zn  Zn3094  1  0.68347947  0.56298503  0.39844700  1.0
  Zn  Zn3095  1  0.68347947  0.89631837  0.39844700  1.0
  Zn  Zn3096  1  0.02214033  0.20938483  0.92360400  1.0
  Zn  Zn3097  1  0.02214033  0.54271817  0.92360400  1.0
  Zn  Zn3098  1  0.02214033  0.87605150  0.92360400  1.0
  Zn  Zn3099  1  0.35547367  0.20938483  0.92360400  1.0
  Zn  Zn3100  1  0.35547367  0.54271817  0.92360400  1.0
  Zn  Zn3101  1  0.35547367  0.87605150  0.92360400  1.0
  Zn  Zn3102  1  0.68880700  0.20938483  0.92360400  1.0
  Zn  Zn3103  1  0.68880700  0.54271817  0.92360400  1.0
  Zn  Zn3104  1  0.68880700  0.87605150  0.92360400  1.0
  Zn  Zn3105  1  0.15547367  0.24271817  0.92360400  1.0
  Zn  Zn3106  1  0.15547367  0.57605150  0.92360400  1.0
  Zn  Zn3107  1  0.15547367  0.90938483  0.92360400  1.0
  Zn  Zn3108  1  0.48880700  0.24271817  0.92360400  1.0
  Zn  Zn3109  1  0.48880700  0.57605150  0.92360400  1.0
  Zn  Zn3110  1  0.48880700  0.90938483  0.92360400  1.0
  Zn  Zn3111  1  0.82214033  0.24271817  0.92360400  1.0
  Zn  Zn3112  1  0.82214033  0.57605150  0.92360400  1.0
  Zn  Zn3113  1  0.82214033  0.90938483  0.92360400  1.0
  Zn  Zn3114  1  0.25448453  0.23078447  0.88630400  1.0
  Zn  Zn3115  1  0.25448453  0.56411780  0.88630400  1.0
  Zn  Zn3116  1  0.25448453  0.89745113  0.88630400  1.0
  Zn  Zn3117  1  0.58781787  0.23078447  0.88630400  1.0
  Zn  Zn3118  1  0.58781787  0.56411780  0.88630400  1.0
  Zn  Zn3119  1  0.58781787  0.89745113  0.88630400  1.0
  Zn  Zn3120  1  0.92115120  0.23078447  0.88630400  1.0
  Zn  Zn3121  1  0.92115120  0.56411780  0.88630400  1.0
  Zn  Zn3122  1  0.92115120  0.89745113  0.88630400  1.0
  Zn  Zn3123  1  0.05448453  0.26411780  0.88630400  1.0
  Zn  Zn3124  1  0.05448453  0.59745113  0.88630400  1.0
  Zn  Zn3125  1  0.05448453  0.93078447  0.88630400  1.0
  Zn  Zn3126  1  0.38781787  0.26411780  0.88630400  1.0
  Zn  Zn3127  1  0.38781787  0.59745113  0.88630400  1.0
  Zn  Zn3128  1  0.38781787  0.93078447  0.88630400  1.0
  Zn  Zn3129  1  0.72115120  0.26411780  0.88630400  1.0
  Zn  Zn3130  1  0.72115120  0.59745113  0.88630400  1.0
  Zn  Zn3131  1  0.72115120  0.93078447  0.88630400  1.0
  Zn  Zn3132  1  0.26378500  0.23676833  0.29181600  1.0
  Zn  Zn3133  1  0.26378500  0.57010167  0.29181600  1.0
  Zn  Zn3134  1  0.26378500  0.90343500  0.29181600  1.0
  Zn  Zn3135  1  0.59711833  0.23676833  0.29181600  1.0
  Zn  Zn3136  1  0.59711833  0.57010167  0.29181600  1.0
  Zn  Zn3137  1  0.59711833  0.90343500  0.29181600  1.0
  Zn  Zn3138  1  0.93045167  0.23676833  0.29181600  1.0
  Zn  Zn3139  1  0.93045167  0.57010167  0.29181600  1.0
  Zn  Zn3140  1  0.93045167  0.90343500  0.29181600  1.0
  Zn  Zn3141  1  0.13045167  0.20343500  0.29181600  1.0
  Zn  Zn3142  1  0.13045167  0.53676833  0.29181600  1.0
  Zn  Zn3143  1  0.13045167  0.87010167  0.29181600  1.0
  Zn  Zn3144  1  0.46378500  0.20343500  0.29181600  1.0
  Zn  Zn3145  1  0.46378500  0.53676833  0.29181600  1.0
  Zn  Zn3146  1  0.46378500  0.87010167  0.29181600  1.0
  Zn  Zn3147  1  0.79711833  0.20343500  0.29181600  1.0
  Zn  Zn3148  1  0.79711833  0.53676833  0.29181600  1.0
  Zn  Zn3149  1  0.79711833  0.87010167  0.29181600  1.0
  Zn  Zn3150  1  0.22497880  0.22530787  0.65361200  1.0
  Zn  Zn3151  1  0.22497880  0.55864120  0.65361200  1.0
  Zn  Zn3152  1  0.22497880  0.89197453  0.65361200  1.0
  Zn  Zn3153  1  0.55831213  0.22530787  0.65361200  1.0
  Zn  Zn3154  1  0.55831213  0.55864120  0.65361200  1.0
  Zn  Zn3155  1  0.55831213  0.89197453  0.65361200  1.0
  Zn  Zn3156  1  0.89164547  0.22530787  0.65361200  1.0
  Zn  Zn3157  1  0.89164547  0.55864120  0.65361200  1.0
  Zn  Zn3158  1  0.89164547  0.89197453  0.65361200  1.0
  Zn  Zn3159  1  0.02497880  0.25864120  0.65361200  1.0
  Zn  Zn3160  1  0.02497880  0.59197453  0.65361200  1.0
  Zn  Zn3161  1  0.02497880  0.92530787  0.65361200  1.0
  Zn  Zn3162  1  0.35831213  0.25864120  0.65361200  1.0
  Zn  Zn3163  1  0.35831213  0.59197453  0.65361200  1.0
  Zn  Zn3164  1  0.35831213  0.92530787  0.65361200  1.0
  Zn  Zn3165  1  0.69164547  0.25864120  0.65361200  1.0
  Zn  Zn3166  1  0.69164547  0.59197453  0.65361200  1.0
  Zn  Zn3167  1  0.69164547  0.92530787  0.65361200  1.0
  Zn  Zn3168  1  0.17349687  0.21171330  0.27184200  1.0
  Zn  Zn3169  1  0.17349687  0.54504663  0.27184200  1.0
  Zn  Zn3170  1  0.17349687  0.87837997  0.27184200  1.0
  Zn  Zn3171  1  0.50683020  0.21171330  0.27184200  1.0
  Zn  Zn3172  1  0.50683020  0.54504663  0.27184200  1.0
  Zn  Zn3173  1  0.50683020  0.87837997  0.27184200  1.0
  Zn  Zn3174  1  0.84016353  0.21171330  0.27184200  1.0
  Zn  Zn3175  1  0.84016353  0.54504663  0.27184200  1.0
  Zn  Zn3176  1  0.84016353  0.87837997  0.27184200  1.0
  Zn  Zn3177  1  0.30683020  0.24504663  0.27184200  1.0
  Zn  Zn3178  1  0.30683020  0.57837997  0.27184200  1.0
  Zn  Zn3179  1  0.30683020  0.91171330  0.27184200  1.0
  Zn  Zn3180  1  0.64016353  0.24504663  0.27184200  1.0
  Zn  Zn3181  1  0.64016353  0.57837997  0.27184200  1.0
  Zn  Zn3182  1  0.64016353  0.91171330  0.27184200  1.0
  Zn  Zn3183  1  0.97349687  0.24504663  0.27184200  1.0
  Zn  Zn3184  1  0.97349687  0.57837997  0.27184200  1.0
  Zn  Zn3185  1  0.97349687  0.91171330  0.27184200  1.0
  Zn  Zn3186  1  0.27521387  0.21762947  0.52343700  1.0
  Zn  Zn3187  1  0.27521387  0.55096280  0.52343700  1.0
  Zn  Zn3188  1  0.27521387  0.88429613  0.52343700  1.0
  Zn  Zn3189  1  0.60854720  0.21762947  0.52343700  1.0
  Zn  Zn3190  1  0.60854720  0.55096280  0.52343700  1.0
  Zn  Zn3191  1  0.60854720  0.88429613  0.52343700  1.0
  Zn  Zn3192  1  0.94188053  0.21762947  0.52343700  1.0
  Zn  Zn3193  1  0.94188053  0.55096280  0.52343700  1.0
  Zn  Zn3194  1  0.94188053  0.88429613  0.52343700  1.0
  Zn  Zn3195  1  0.07521387  0.25096280  0.52343700  1.0
  Zn  Zn3196  1  0.07521387  0.58429613  0.52343700  1.0
  Zn  Zn3197  1  0.07521387  0.91762947  0.52343700  1.0
  Zn  Zn3198  1  0.40854720  0.25096280  0.52343700  1.0
  Zn  Zn3199  1  0.40854720  0.58429613  0.52343700  1.0
  Zn  Zn3200  1  0.40854720  0.91762947  0.52343700  1.0
  Zn  Zn3201  1  0.74188053  0.25096280  0.52343700  1.0
  Zn  Zn3202  1  0.74188053  0.58429613  0.52343700  1.0
  Zn  Zn3203  1  0.74188053  0.91762947  0.52343700  1.0
  Zn  Zn3204  1  0.32113980  0.23195687  0.71971800  1.0
  Zn  Zn3205  1  0.32113980  0.56529020  0.71971800  1.0
  Zn  Zn3206  1  0.32113980  0.89862353  0.71971800  1.0
  Zn  Zn3207  1  0.65447313  0.23195687  0.71971800  1.0
  Zn  Zn3208  1  0.65447313  0.56529020  0.71971800  1.0
  Zn  Zn3209  1  0.65447313  0.89862353  0.71971800  1.0
  Zn  Zn3210  1  0.98780647  0.23195687  0.71971800  1.0
  Zn  Zn3211  1  0.98780647  0.56529020  0.71971800  1.0
  Zn  Zn3212  1  0.98780647  0.89862353  0.71971800  1.0
  Zn  Zn3213  1  0.12113980  0.26529020  0.71971800  1.0
  Zn  Zn3214  1  0.12113980  0.59862353  0.71971800  1.0
  Zn  Zn3215  1  0.12113980  0.93195687  0.71971800  1.0
  Zn  Zn3216  1  0.45447313  0.26529020  0.71971800  1.0
  Zn  Zn3217  1  0.45447313  0.59862353  0.71971800  1.0
  Zn  Zn3218  1  0.45447313  0.93195687  0.71971800  1.0
  Zn  Zn3219  1  0.78780647  0.26529020  0.71971800  1.0
  Zn  Zn3220  1  0.78780647  0.59862353  0.71971800  1.0
  Zn  Zn3221  1  0.78780647  0.93195687  0.71971800  1.0
  Zn  Zn3222  1  0.31644373  0.20982327  0.34598900  1.0
  Zn  Zn3223  1  0.31644373  0.54315660  0.34598900  1.0
  Zn  Zn3224  1  0.31644373  0.87648993  0.34598900  1.0
  Zn  Zn3225  1  0.64977707  0.20982327  0.34598900  1.0
  Zn  Zn3226  1  0.64977707  0.54315660  0.34598900  1.0
  Zn  Zn3227  1  0.64977707  0.87648993  0.34598900  1.0
  Zn  Zn3228  1  0.98311040  0.20982327  0.34598900  1.0
  Zn  Zn3229  1  0.98311040  0.54315660  0.34598900  1.0
  Zn  Zn3230  1  0.98311040  0.87648993  0.34598900  1.0
  Zn  Zn3231  1  0.11644373  0.24315660  0.34598900  1.0
  Zn  Zn3232  1  0.11644373  0.57648993  0.34598900  1.0
  Zn  Zn3233  1  0.11644373  0.90982327  0.34598900  1.0
  Zn  Zn3234  1  0.44977707  0.24315660  0.34598900  1.0
  Zn  Zn3235  1  0.44977707  0.57648993  0.34598900  1.0
  Zn  Zn3236  1  0.44977707  0.90982327  0.34598900  1.0
  Zn  Zn3237  1  0.78311040  0.24315660  0.34598900  1.0
  Zn  Zn3238  1  0.78311040  0.57648993  0.34598900  1.0
  Zn  Zn3239  1  0.78311040  0.90982327  0.34598900  1.0
  Zn  Zn3240  1  0.25007147  0.25027553  0.08578400  1.0
  Zn  Zn3241  1  0.25007147  0.58360887  0.08578400  1.0
  Zn  Zn3242  1  0.25007147  0.91694220  0.08578400  1.0
  Zn  Zn3243  1  0.58340480  0.25027553  0.08578400  1.0
  Zn  Zn3244  1  0.58340480  0.58360887  0.08578400  1.0
  Zn  Zn3245  1  0.58340480  0.91694220  0.08578400  1.0
  Zn  Zn3246  1  0.91673813  0.25027553  0.08578400  1.0
  Zn  Zn3247  1  0.91673813  0.58360887  0.08578400  1.0
  Zn  Zn3248  1  0.91673813  0.91694220  0.08578400  1.0
  Zn  Zn3249  1  0.11673813  0.21694220  0.08578400  1.0
  Zn  Zn3250  1  0.11673813  0.55027553  0.08578400  1.0
  Zn  Zn3251  1  0.11673813  0.88360887  0.08578400  1.0
  Zn  Zn3252  1  0.45007147  0.21694220  0.08578400  1.0
  Zn  Zn3253  1  0.45007147  0.55027553  0.08578400  1.0
  Zn  Zn3254  1  0.45007147  0.88360887  0.08578400  1.0
  Zn  Zn3255  1  0.78340480  0.21694220  0.08578400  1.0
  Zn  Zn3256  1  0.78340480  0.55027553  0.08578400  1.0
  Zn  Zn3257  1  0.78340480  0.88360887  0.08578400  1.0
  Zn  Zn3258  1  0.30995847  0.23701237  0.97656300  1.0
  Zn  Zn3259  1  0.30995847  0.57034570  0.97656300  1.0
  Zn  Zn3260  1  0.30995847  0.90367903  0.97656300  1.0
  Zn  Zn3261  1  0.64329180  0.23701237  0.97656300  1.0
  Zn  Zn3262  1  0.64329180  0.57034570  0.97656300  1.0
  Zn  Zn3263  1  0.64329180  0.90367903  0.97656300  1.0
  Zn  Zn3264  1  0.97662513  0.23701237  0.97656300  1.0
  Zn  Zn3265  1  0.97662513  0.57034570  0.97656300  1.0
  Zn  Zn3266  1  0.97662513  0.90367903  0.97656300  1.0
  Zn  Zn3267  1  0.17662513  0.20367903  0.97656300  1.0
  Zn  Zn3268  1  0.17662513  0.53701237  0.97656300  1.0
  Zn  Zn3269  1  0.17662513  0.87034570  0.97656300  1.0
  Zn  Zn3270  1  0.50995847  0.20367903  0.97656300  1.0
  Zn  Zn3271  1  0.50995847  0.53701237  0.97656300  1.0
  Zn  Zn3272  1  0.50995847  0.87034570  0.97656300  1.0
  Zn  Zn3273  1  0.84329180  0.20367903  0.97656300  1.0
  Zn  Zn3274  1  0.84329180  0.53701237  0.97656300  1.0
  Zn  Zn3275  1  0.84329180  0.87034570  0.97656300  1.0
  Zn  Zn3276  1  0.00129000  0.24871000  0.50000000  1.0
  Zn  Zn3277  1  0.00129000  0.58204333  0.50000000  1.0
  Zn  Zn3278  1  0.00129000  0.91537667  0.50000000  1.0
  Zn  Zn3279  1  0.33462333  0.24871000  0.50000000  1.0
  Zn  Zn3280  1  0.33462333  0.58204333  0.50000000  1.0
  Zn  Zn3281  1  0.33462333  0.91537667  0.50000000  1.0
  Zn  Zn3282  1  0.66795667  0.24871000  0.50000000  1.0
  Zn  Zn3283  1  0.66795667  0.58204333  0.50000000  1.0
  Zn  Zn3284  1  0.66795667  0.91537667  0.50000000  1.0
  Zn  Zn3285  1  0.20129000  0.21537667  0.50000000  1.0
  Zn  Zn3286  1  0.20129000  0.54871000  0.50000000  1.0
  Zn  Zn3287  1  0.20129000  0.88204333  0.50000000  1.0
  Zn  Zn3288  1  0.53462333  0.21537667  0.50000000  1.0
  Zn  Zn3289  1  0.53462333  0.54871000  0.50000000  1.0
  Zn  Zn3290  1  0.53462333  0.88204333  0.50000000  1.0
  Zn  Zn3291  1  0.86795667  0.21537667  0.50000000  1.0
  Zn  Zn3292  1  0.86795667  0.54871000  0.50000000  1.0
  Zn  Zn3293  1  0.86795667  0.88204333  0.50000000  1.0
  Zn  Zn3294  1  0.30888340  0.25786893  0.84265600  1.0
  Zn  Zn3295  1  0.30888340  0.59120227  0.84265600  1.0
  Zn  Zn3296  1  0.30888340  0.92453560  0.84265600  1.0
  Zn  Zn3297  1  0.64221673  0.25786893  0.84265600  1.0
  Zn  Zn3298  1  0.64221673  0.59120227  0.84265600  1.0
  Zn  Zn3299  1  0.64221673  0.92453560  0.84265600  1.0
  Zn  Zn3300  1  0.97555007  0.25786893  0.84265600  1.0
  Zn  Zn3301  1  0.97555007  0.59120227  0.84265600  1.0
  Zn  Zn3302  1  0.97555007  0.92453560  0.84265600  1.0
  Zn  Zn3303  1  0.17555007  0.22453560  0.84265600  1.0
  Zn  Zn3304  1  0.17555007  0.55786893  0.84265600  1.0
  Zn  Zn3305  1  0.17555007  0.89120227  0.84265600  1.0
  Zn  Zn3306  1  0.50888340  0.22453560  0.84265600  1.0
  Zn  Zn3307  1  0.50888340  0.55786893  0.84265600  1.0
  Zn  Zn3308  1  0.50888340  0.89120227  0.84265600  1.0
  Zn  Zn3309  1  0.84221673  0.22453560  0.84265600  1.0
  Zn  Zn3310  1  0.84221673  0.55786893  0.84265600  1.0
  Zn  Zn3311  1  0.84221673  0.89120227  0.84265600  1.0
  Zn  Zn3312  1  0.31173707  0.22536310  0.79181600  1.0
  Zn  Zn3313  1  0.31173707  0.55869643  0.79181600  1.0
  Zn  Zn3314  1  0.31173707  0.89202977  0.79181600  1.0
  Zn  Zn3315  1  0.64507040  0.22536310  0.79181600  1.0
  Zn  Zn3316  1  0.64507040  0.55869643  0.79181600  1.0
  Zn  Zn3317  1  0.64507040  0.89202977  0.79181600  1.0
  Zn  Zn3318  1  0.97840373  0.22536310  0.79181600  1.0
  Zn  Zn3319  1  0.97840373  0.55869643  0.79181600  1.0
  Zn  Zn3320  1  0.97840373  0.89202977  0.79181600  1.0
  Zn  Zn3321  1  0.11173707  0.25869643  0.79181600  1.0
  Zn  Zn3322  1  0.11173707  0.59202977  0.79181600  1.0
  Zn  Zn3323  1  0.11173707  0.92536310  0.79181600  1.0
  Zn  Zn3324  1  0.44507040  0.25869643  0.79181600  1.0
  Zn  Zn3325  1  0.44507040  0.59202977  0.79181600  1.0
  Zn  Zn3326  1  0.44507040  0.92536310  0.79181600  1.0
  Zn  Zn3327  1  0.77840373  0.25869643  0.79181600  1.0
  Zn  Zn3328  1  0.77840373  0.59202977  0.79181600  1.0
  Zn  Zn3329  1  0.77840373  0.92536310  0.79181600  1.0
  Zn  Zn3330  1  0.29676587  0.24879213  0.90826300  1.0
  Zn  Zn3331  1  0.29676587  0.58212547  0.90826300  1.0
  Zn  Zn3332  1  0.29676587  0.91545880  0.90826300  1.0
  Zn  Zn3333  1  0.63009920  0.24879213  0.90826300  1.0
  Zn  Zn3334  1  0.63009920  0.58212547  0.90826300  1.0
  Zn  Zn3335  1  0.63009920  0.91545880  0.90826300  1.0
  Zn  Zn3336  1  0.96343253  0.24879213  0.90826300  1.0
  Zn  Zn3337  1  0.96343253  0.58212547  0.90826300  1.0
  Zn  Zn3338  1  0.96343253  0.91545880  0.90826300  1.0
  Zn  Zn3339  1  0.16343253  0.21545880  0.90826300  1.0
  Zn  Zn3340  1  0.16343253  0.54879213  0.90826300  1.0
  Zn  Zn3341  1  0.16343253  0.88212547  0.90826300  1.0
  Zn  Zn3342  1  0.49676587  0.21545880  0.90826300  1.0
  Zn  Zn3343  1  0.49676587  0.54879213  0.90826300  1.0
  Zn  Zn3344  1  0.49676587  0.88212547  0.90826300  1.0
  Zn  Zn3345  1  0.83009920  0.21545880  0.90826300  1.0
  Zn  Zn3346  1  0.83009920  0.54879213  0.90826300  1.0
  Zn  Zn3347  1  0.83009920  0.88212547  0.90826300  1.0
  Zn  Zn3348  1  0.00917927  0.24781123  0.57639600  1.0
  Zn  Zn3349  1  0.00917927  0.58114457  0.57639600  1.0
  Zn  Zn3350  1  0.00917927  0.91447790  0.57639600  1.0
  Zn  Zn3351  1  0.34251260  0.24781123  0.57639600  1.0
  Zn  Zn3352  1  0.34251260  0.58114457  0.57639600  1.0
  Zn  Zn3353  1  0.34251260  0.91447790  0.57639600  1.0
  Zn  Zn3354  1  0.67584593  0.24781123  0.57639600  1.0
  Zn  Zn3355  1  0.67584593  0.58114457  0.57639600  1.0
  Zn  Zn3356  1  0.67584593  0.91447790  0.57639600  1.0
  Zn  Zn3357  1  0.20917927  0.21447790  0.57639600  1.0
  Zn  Zn3358  1  0.20917927  0.54781123  0.57639600  1.0
  Zn  Zn3359  1  0.20917927  0.88114457  0.57639600  1.0
  Zn  Zn3360  1  0.54251260  0.21447790  0.57639600  1.0
  Zn  Zn3361  1  0.54251260  0.54781123  0.57639600  1.0
  Zn  Zn3362  1  0.54251260  0.88114457  0.57639600  1.0
  Zn  Zn3363  1  0.87584593  0.21447790  0.57639600  1.0
  Zn  Zn3364  1  0.87584593  0.54781123  0.57639600  1.0
  Zn  Zn3365  1  0.87584593  0.88114457  0.57639600  1.0
  Zn  Zn3366  1  0.32535307  0.22766477  0.89844700  1.0
  Zn  Zn3367  1  0.32535307  0.56099810  0.89844700  1.0
  Zn  Zn3368  1  0.32535307  0.89433143  0.89844700  1.0
  Zn  Zn3369  1  0.65868640  0.22766477  0.89844700  1.0
  Zn  Zn3370  1  0.65868640  0.56099810  0.89844700  1.0
  Zn  Zn3371  1  0.65868640  0.89433143  0.89844700  1.0
  Zn  Zn3372  1  0.99201973  0.22766477  0.89844700  1.0
  Zn  Zn3373  1  0.99201973  0.56099810  0.89844700  1.0
  Zn  Zn3374  1  0.99201973  0.89433143  0.89844700  1.0
  Zn  Zn3375  1  0.12535307  0.26099810  0.89844700  1.0
  Zn  Zn3376  1  0.12535307  0.59433143  0.89844700  1.0
  Zn  Zn3377  1  0.12535307  0.92766477  0.89844700  1.0
  Zn  Zn3378  1  0.45868640  0.26099810  0.89844700  1.0
  Zn  Zn3379  1  0.45868640  0.59433143  0.89844700  1.0
  Zn  Zn3380  1  0.45868640  0.92766477  0.89844700  1.0
  Zn  Zn3381  1  0.79201973  0.26099810  0.89844700  1.0
  Zn  Zn3382  1  0.79201973  0.59433143  0.89844700  1.0
  Zn  Zn3383  1  0.79201973  0.92766477  0.89844700  1.0
  Zn  Zn3384  1  0.26847680  0.25425887  0.22284200  1.0
  Zn  Zn3385  1  0.26847680  0.58759220  0.22284200  1.0
  Zn  Zn3386  1  0.26847680  0.92092553  0.22284200  1.0
  Zn  Zn3387  1  0.60181013  0.25425887  0.22284200  1.0
  Zn  Zn3388  1  0.60181013  0.58759220  0.22284200  1.0
  Zn  Zn3389  1  0.60181013  0.92092553  0.22284200  1.0
  Zn  Zn3390  1  0.93514347  0.25425887  0.22284200  1.0
  Zn  Zn3391  1  0.93514347  0.58759220  0.22284200  1.0
  Zn  Zn3392  1  0.93514347  0.92092553  0.22284200  1.0
  Zn  Zn3393  1  0.13514347  0.22092553  0.22284200  1.0
  Zn  Zn3394  1  0.13514347  0.55425887  0.22284200  1.0
  Zn  Zn3395  1  0.13514347  0.88759220  0.22284200  1.0
  Zn  Zn3396  1  0.46847680  0.22092553  0.22284200  1.0
  Zn  Zn3397  1  0.46847680  0.55425887  0.22284200  1.0
  Zn  Zn3398  1  0.46847680  0.88759220  0.22284200  1.0
  Zn  Zn3399  1  0.80181013  0.22092553  0.22284200  1.0
  Zn  Zn3400  1  0.80181013  0.55425887  0.22284200  1.0
  Zn  Zn3401  1  0.80181013  0.88759220  0.22284200  1.0
  Zn  Zn3402  1  0.01461307  0.25901593  0.91421600  1.0
  Zn  Zn3403  1  0.01461307  0.59234927  0.91421600  1.0
  Zn  Zn3404  1  0.01461307  0.92568260  0.91421600  1.0
  Zn  Zn3405  1  0.34794640  0.25901593  0.91421600  1.0
  Zn  Zn3406  1  0.34794640  0.59234927  0.91421600  1.0
  Zn  Zn3407  1  0.34794640  0.92568260  0.91421600  1.0
  Zn  Zn3408  1  0.68127973  0.25901593  0.91421600  1.0
  Zn  Zn3409  1  0.68127973  0.59234927  0.91421600  1.0
  Zn  Zn3410  1  0.68127973  0.92568260  0.91421600  1.0
  Zn  Zn3411  1  0.21461307  0.22568260  0.91421600  1.0
  Zn  Zn3412  1  0.21461307  0.55901593  0.91421600  1.0
  Zn  Zn3413  1  0.21461307  0.89234927  0.91421600  1.0
  Zn  Zn3414  1  0.54794640  0.22568260  0.91421600  1.0
  Zn  Zn3415  1  0.54794640  0.55901593  0.91421600  1.0
  Zn  Zn3416  1  0.54794640  0.89234927  0.91421600  1.0
  Zn  Zn3417  1  0.88127973  0.22568260  0.91421600  1.0
  Zn  Zn3418  1  0.88127973  0.55901593  0.91421600  1.0
  Zn  Zn3419  1  0.88127973  0.89234927  0.91421600  1.0
  Zn  Zn3420  1  0.10028267  0.24801967  0.02343700  1.0
  Zn  Zn3421  1  0.10028267  0.58135300  0.02343700  1.0
  Zn  Zn3422  1  0.10028267  0.91468633  0.02343700  1.0
  Zn  Zn3423  1  0.43361600  0.24801967  0.02343700  1.0
  Zn  Zn3424  1  0.43361600  0.58135300  0.02343700  1.0
  Zn  Zn3425  1  0.43361600  0.91468633  0.02343700  1.0
  Zn  Zn3426  1  0.76694933  0.24801967  0.02343700  1.0
  Zn  Zn3427  1  0.76694933  0.58135300  0.02343700  1.0
  Zn  Zn3428  1  0.76694933  0.91468633  0.02343700  1.0
  Zn  Zn3429  1  0.30028267  0.21468633  0.02343700  1.0
  Zn  Zn3430  1  0.30028267  0.54801967  0.02343700  1.0
  Zn  Zn3431  1  0.30028267  0.88135300  0.02343700  1.0
  Zn  Zn3432  1  0.63361600  0.21468633  0.02343700  1.0
  Zn  Zn3433  1  0.63361600  0.54801967  0.02343700  1.0
  Zn  Zn3434  1  0.63361600  0.88135300  0.02343700  1.0
  Zn  Zn3435  1  0.96694933  0.21468633  0.02343700  1.0
  Zn  Zn3436  1  0.96694933  0.54801967  0.02343700  1.0
  Zn  Zn3437  1  0.96694933  0.88135300  0.02343700  1.0
  Zn  Zn3438  1  0.29984567  0.20254217  0.46400800  1.0
  Zn  Zn3439  1  0.29984567  0.53587550  0.46400800  1.0
  Zn  Zn3440  1  0.29984567  0.86920883  0.46400800  1.0
  Zn  Zn3441  1  0.63317900  0.20254217  0.46400800  1.0
  Zn  Zn3442  1  0.63317900  0.53587550  0.46400800  1.0
  Zn  Zn3443  1  0.63317900  0.86920883  0.46400800  1.0
  Zn  Zn3444  1  0.96651233  0.20254217  0.46400800  1.0
  Zn  Zn3445  1  0.96651233  0.53587550  0.46400800  1.0
  Zn  Zn3446  1  0.96651233  0.86920883  0.46400800  1.0
  Zn  Zn3447  1  0.09984567  0.23587550  0.46400800  1.0
  Zn  Zn3448  1  0.09984567  0.56920883  0.46400800  1.0
  Zn  Zn3449  1  0.09984567  0.90254217  0.46400800  1.0
  Zn  Zn3450  1  0.43317900  0.23587550  0.46400800  1.0
  Zn  Zn3451  1  0.43317900  0.56920883  0.46400800  1.0
  Zn  Zn3452  1  0.43317900  0.90254217  0.46400800  1.0
  Zn  Zn3453  1  0.76651233  0.23587550  0.46400800  1.0
  Zn  Zn3454  1  0.76651233  0.56920883  0.46400800  1.0
  Zn  Zn3455  1  0.76651233  0.90254217  0.46400800  1.0
  Zn  Zn3456  1  0.31093453  0.23877880  0.34638800  1.0
  Zn  Zn3457  1  0.31093453  0.57211213  0.34638800  1.0
  Zn  Zn3458  1  0.31093453  0.90544547  0.34638800  1.0
  Zn  Zn3459  1  0.64426787  0.23877880  0.34638800  1.0
  Zn  Zn3460  1  0.64426787  0.57211213  0.34638800  1.0
  Zn  Zn3461  1  0.64426787  0.90544547  0.34638800  1.0
  Zn  Zn3462  1  0.97760120  0.23877880  0.34638800  1.0
  Zn  Zn3463  1  0.97760120  0.57211213  0.34638800  1.0
  Zn  Zn3464  1  0.97760120  0.90544547  0.34638800  1.0
  Zn  Zn3465  1  0.17760120  0.20544547  0.34638800  1.0
  Zn  Zn3466  1  0.17760120  0.53877880  0.34638800  1.0
  Zn  Zn3467  1  0.17760120  0.87211213  0.34638800  1.0
  Zn  Zn3468  1  0.51093453  0.20544547  0.34638800  1.0
  Zn  Zn3469  1  0.51093453  0.53877880  0.34638800  1.0
  Zn  Zn3470  1  0.51093453  0.87211213  0.34638800  1.0
  Zn  Zn3471  1  0.84426787  0.20544547  0.34638800  1.0
  Zn  Zn3472  1  0.84426787  0.53877880  0.34638800  1.0
  Zn  Zn3473  1  0.84426787  0.87211213  0.34638800  1.0
  Zn  Zn3474  1  0.20415547  0.26473487  0.58578400  1.0
  Zn  Zn3475  1  0.20415547  0.59806820  0.58578400  1.0
  Zn  Zn3476  1  0.20415547  0.93140153  0.58578400  1.0
  Zn  Zn3477  1  0.53748880  0.26473487  0.58578400  1.0
  Zn  Zn3478  1  0.53748880  0.59806820  0.58578400  1.0
  Zn  Zn3479  1  0.53748880  0.93140153  0.58578400  1.0
  Zn  Zn3480  1  0.87082213  0.26473487  0.58578400  1.0
  Zn  Zn3481  1  0.87082213  0.59806820  0.58578400  1.0
  Zn  Zn3482  1  0.87082213  0.93140153  0.58578400  1.0
  Zn  Zn3483  1  0.07082213  0.23140153  0.58578400  1.0
  Zn  Zn3484  1  0.07082213  0.56473487  0.58578400  1.0
  Zn  Zn3485  1  0.07082213  0.89806820  0.58578400  1.0
  Zn  Zn3486  1  0.40415547  0.23140153  0.58578400  1.0
  Zn  Zn3487  1  0.40415547  0.56473487  0.58578400  1.0
  Zn  Zn3488  1  0.40415547  0.89806820  0.58578400  1.0
  Zn  Zn3489  1  0.73748880  0.23140153  0.58578400  1.0
  Zn  Zn3490  1  0.73748880  0.56473487  0.58578400  1.0
  Zn  Zn3491  1  0.73748880  0.89806820  0.58578400  1.0
  Zn  Zn3492  1  0.00157433  0.20382950  0.77184200  1.0
  Zn  Zn3493  1  0.00157433  0.53716283  0.77184200  1.0
  Zn  Zn3494  1  0.00157433  0.87049617  0.77184200  1.0
  Zn  Zn3495  1  0.33490767  0.20382950  0.77184200  1.0
  Zn  Zn3496  1  0.33490767  0.53716283  0.77184200  1.0
  Zn  Zn3497  1  0.33490767  0.87049617  0.77184200  1.0
  Zn  Zn3498  1  0.66824100  0.20382950  0.77184200  1.0
  Zn  Zn3499  1  0.66824100  0.53716283  0.77184200  1.0
  Zn  Zn3500  1  0.66824100  0.87049617  0.77184200  1.0
  Zn  Zn3501  1  0.13490767  0.23716283  0.77184200  1.0
  Zn  Zn3502  1  0.13490767  0.57049617  0.77184200  1.0
  Zn  Zn3503  1  0.13490767  0.90382950  0.77184200  1.0
  Zn  Zn3504  1  0.46824100  0.23716283  0.77184200  1.0
  Zn  Zn3505  1  0.46824100  0.57049617  0.77184200  1.0
  Zn  Zn3506  1  0.46824100  0.90382950  0.77184200  1.0
  Zn  Zn3507  1  0.80157433  0.23716283  0.77184200  1.0
  Zn  Zn3508  1  0.80157433  0.57049617  0.77184200  1.0
  Zn  Zn3509  1  0.80157433  0.90382950  0.77184200  1.0
  Zn  Zn3510  1  0.13943867  0.24827550  0.10155300  1.0
  Zn  Zn3511  1  0.13943867  0.58160883  0.10155300  1.0
  Zn  Zn3512  1  0.13943867  0.91494217  0.10155300  1.0
  Zn  Zn3513  1  0.47277200  0.24827550  0.10155300  1.0
  Zn  Zn3514  1  0.47277200  0.58160883  0.10155300  1.0
  Zn  Zn3515  1  0.47277200  0.91494217  0.10155300  1.0
  Zn  Zn3516  1  0.80610533  0.24827550  0.10155300  1.0
  Zn  Zn3517  1  0.80610533  0.58160883  0.10155300  1.0
  Zn  Zn3518  1  0.80610533  0.91494217  0.10155300  1.0
  Zn  Zn3519  1  0.00610533  0.21494217  0.10155300  1.0
  Zn  Zn3520  1  0.00610533  0.54827550  0.10155300  1.0
  Zn  Zn3521  1  0.00610533  0.88160883  0.10155300  1.0
  Zn  Zn3522  1  0.33943867  0.21494217  0.10155300  1.0
  Zn  Zn3523  1  0.33943867  0.54827550  0.10155300  1.0
  Zn  Zn3524  1  0.33943867  0.88160883  0.10155300  1.0
  Zn  Zn3525  1  0.67277200  0.21494217  0.10155300  1.0
  Zn  Zn3526  1  0.67277200  0.54827550  0.10155300  1.0
  Zn  Zn3527  1  0.67277200  0.88160883  0.10155300  1.0
  Zn  Zn3528  1  0.13532720  0.25817797  0.29181600  1.0
  Zn  Zn3529  1  0.13532720  0.59151130  0.29181600  1.0
  Zn  Zn3530  1  0.13532720  0.92484463  0.29181600  1.0
  Zn  Zn3531  1  0.46866053  0.25817797  0.29181600  1.0
  Zn  Zn3532  1  0.46866053  0.59151130  0.29181600  1.0
  Zn  Zn3533  1  0.46866053  0.92484463  0.29181600  1.0
  Zn  Zn3534  1  0.80199387  0.25817797  0.29181600  1.0
  Zn  Zn3535  1  0.80199387  0.59151130  0.29181600  1.0
  Zn  Zn3536  1  0.80199387  0.92484463  0.29181600  1.0
  Zn  Zn3537  1  0.00199387  0.22484463  0.29181600  1.0
  Zn  Zn3538  1  0.00199387  0.55817797  0.29181600  1.0
  Zn  Zn3539  1  0.00199387  0.89151130  0.29181600  1.0
  Zn  Zn3540  1  0.33532720  0.22484463  0.29181600  1.0
  Zn  Zn3541  1  0.33532720  0.55817797  0.29181600  1.0
  Zn  Zn3542  1  0.33532720  0.89151130  0.29181600  1.0
  Zn  Zn3543  1  0.66866053  0.22484463  0.29181600  1.0
  Zn  Zn3544  1  0.66866053  0.55817797  0.29181600  1.0
  Zn  Zn3545  1  0.66866053  0.89151130  0.29181600  1.0
  Zn  Zn3546  1  0.14277687  0.20494163  0.03599200  1.0
  Zn  Zn3547  1  0.14277687  0.53827497  0.03599200  1.0
  Zn  Zn3548  1  0.14277687  0.87160830  0.03599200  1.0
  Zn  Zn3549  1  0.47611020  0.20494163  0.03599200  1.0
  Zn  Zn3550  1  0.47611020  0.53827497  0.03599200  1.0
  Zn  Zn3551  1  0.47611020  0.87160830  0.03599200  1.0
  Zn  Zn3552  1  0.80944353  0.20494163  0.03599200  1.0
  Zn  Zn3553  1  0.80944353  0.53827497  0.03599200  1.0
  Zn  Zn3554  1  0.80944353  0.87160830  0.03599200  1.0
  Zn  Zn3555  1  0.27611020  0.23827497  0.03599200  1.0
  Zn  Zn3556  1  0.27611020  0.57160830  0.03599200  1.0
  Zn  Zn3557  1  0.27611020  0.90494163  0.03599200  1.0
  Zn  Zn3558  1  0.60944353  0.23827497  0.03599200  1.0
  Zn  Zn3559  1  0.60944353  0.57160830  0.03599200  1.0
  Zn  Zn3560  1  0.60944353  0.90494163  0.03599200  1.0
  Zn  Zn3561  1  0.94277687  0.23827497  0.03599200  1.0
  Zn  Zn3562  1  0.94277687  0.57160830  0.03599200  1.0
  Zn  Zn3563  1  0.94277687  0.90494163  0.03599200  1.0
  Zn  Zn3564  1  0.27732520  0.24262397  0.78028200  1.0
  Zn  Zn3565  1  0.27732520  0.57595730  0.78028200  1.0
  Zn  Zn3566  1  0.27732520  0.90929063  0.78028200  1.0
  Zn  Zn3567  1  0.61065853  0.24262397  0.78028200  1.0
  Zn  Zn3568  1  0.61065853  0.57595730  0.78028200  1.0
  Zn  Zn3569  1  0.61065853  0.90929063  0.78028200  1.0
  Zn  Zn3570  1  0.94399187  0.24262397  0.78028200  1.0
  Zn  Zn3571  1  0.94399187  0.57595730  0.78028200  1.0
  Zn  Zn3572  1  0.94399187  0.90929063  0.78028200  1.0
  Zn  Zn3573  1  0.14399187  0.20929063  0.78028200  1.0
  Zn  Zn3574  1  0.14399187  0.54262397  0.78028200  1.0
  Zn  Zn3575  1  0.14399187  0.87595730  0.78028200  1.0
  Zn  Zn3576  1  0.47732520  0.20929063  0.78028200  1.0
  Zn  Zn3577  1  0.47732520  0.54262397  0.78028200  1.0
  Zn  Zn3578  1  0.47732520  0.87595730  0.78028200  1.0
  Zn  Zn3579  1  0.81065853  0.20929063  0.78028200  1.0
  Zn  Zn3580  1  0.81065853  0.54262397  0.78028200  1.0
  Zn  Zn3581  1  0.81065853  0.87595730  0.78028200  1.0
  Zn  Zn3582  1  0.23450947  0.26052670  0.15734400  1.0
  Zn  Zn3583  1  0.23450947  0.59386003  0.15734400  1.0
  Zn  Zn3584  1  0.23450947  0.92719337  0.15734400  1.0
  Zn  Zn3585  1  0.56784280  0.26052670  0.15734400  1.0
  Zn  Zn3586  1  0.56784280  0.59386003  0.15734400  1.0
  Zn  Zn3587  1  0.56784280  0.92719337  0.15734400  1.0
  Zn  Zn3588  1  0.90117613  0.26052670  0.15734400  1.0
  Zn  Zn3589  1  0.90117613  0.59386003  0.15734400  1.0
  Zn  Zn3590  1  0.90117613  0.92719337  0.15734400  1.0
  Zn  Zn3591  1  0.10117613  0.22719337  0.15734400  1.0
  Zn  Zn3592  1  0.10117613  0.56052670  0.15734400  1.0
  Zn  Zn3593  1  0.10117613  0.89386003  0.15734400  1.0
  Zn  Zn3594  1  0.43450947  0.22719337  0.15734400  1.0
  Zn  Zn3595  1  0.43450947  0.56052670  0.15734400  1.0
  Zn  Zn3596  1  0.43450947  0.89386003  0.15734400  1.0
  Zn  Zn3597  1  0.76784280  0.22719337  0.15734400  1.0
  Zn  Zn3598  1  0.76784280  0.56052670  0.15734400  1.0
  Zn  Zn3599  1  0.76784280  0.89386003  0.15734400  1.0
  Zn  Zn3600  1  0.23606767  0.26154450  0.53599200  1.0
  Zn  Zn3601  1  0.23606767  0.59487783  0.53599200  1.0
  Zn  Zn3602  1  0.23606767  0.92821117  0.53599200  1.0
  Zn  Zn3603  1  0.56940100  0.26154450  0.53599200  1.0
  Zn  Zn3604  1  0.56940100  0.59487783  0.53599200  1.0
  Zn  Zn3605  1  0.56940100  0.92821117  0.53599200  1.0
  Zn  Zn3606  1  0.90273433  0.26154450  0.53599200  1.0
  Zn  Zn3607  1  0.90273433  0.59487783  0.53599200  1.0
  Zn  Zn3608  1  0.90273433  0.92821117  0.53599200  1.0
  Zn  Zn3609  1  0.10273433  0.22821117  0.53599200  1.0
  Zn  Zn3610  1  0.10273433  0.56154450  0.53599200  1.0
  Zn  Zn3611  1  0.10273433  0.89487783  0.53599200  1.0
  Zn  Zn3612  1  0.43606767  0.22821117  0.53599200  1.0
  Zn  Zn3613  1  0.43606767  0.56154450  0.53599200  1.0
  Zn  Zn3614  1  0.43606767  0.89487783  0.53599200  1.0
  Zn  Zn3615  1  0.76940100  0.22821117  0.53599200  1.0
  Zn  Zn3616  1  0.76940100  0.56154450  0.53599200  1.0
  Zn  Zn3617  1  0.76940100  0.89487783  0.53599200  1.0
  Zn  Zn3618  1  0.28925287  0.20694363  0.09173700  1.0
  Zn  Zn3619  1  0.28925287  0.54027697  0.09173700  1.0
  Zn  Zn3620  1  0.28925287  0.87361030  0.09173700  1.0
  Zn  Zn3621  1  0.62258620  0.20694363  0.09173700  1.0
  Zn  Zn3622  1  0.62258620  0.54027697  0.09173700  1.0
  Zn  Zn3623  1  0.62258620  0.87361030  0.09173700  1.0
  Zn  Zn3624  1  0.95591953  0.20694363  0.09173700  1.0
  Zn  Zn3625  1  0.95591953  0.54027697  0.09173700  1.0
  Zn  Zn3626  1  0.95591953  0.87361030  0.09173700  1.0
  Zn  Zn3627  1  0.08925287  0.24027697  0.09173700  1.0
  Zn  Zn3628  1  0.08925287  0.57361030  0.09173700  1.0
  Zn  Zn3629  1  0.08925287  0.90694363  0.09173700  1.0
  Zn  Zn3630  1  0.42258620  0.24027697  0.09173700  1.0
  Zn  Zn3631  1  0.42258620  0.57361030  0.09173700  1.0
  Zn  Zn3632  1  0.42258620  0.90694363  0.09173700  1.0
  Zn  Zn3633  1  0.75591953  0.24027697  0.09173700  1.0
  Zn  Zn3634  1  0.75591953  0.57361030  0.09173700  1.0
  Zn  Zn3635  1  0.75591953  0.90694363  0.09173700  1.0
  Zn  Zn3636  1  0.22702993  0.20621773  0.15734400  1.0
  Zn  Zn3637  1  0.22702993  0.53955107  0.15734400  1.0
  Zn  Zn3638  1  0.22702993  0.87288440  0.15734400  1.0
  Zn  Zn3639  1  0.56036327  0.20621773  0.15734400  1.0
  Zn  Zn3640  1  0.56036327  0.53955107  0.15734400  1.0
  Zn  Zn3641  1  0.56036327  0.87288440  0.15734400  1.0
  Zn  Zn3642  1  0.89369660  0.20621773  0.15734400  1.0
  Zn  Zn3643  1  0.89369660  0.53955107  0.15734400  1.0
  Zn  Zn3644  1  0.89369660  0.87288440  0.15734400  1.0
  Zn  Zn3645  1  0.02702993  0.23955107  0.15734400  1.0
  Zn  Zn3646  1  0.02702993  0.57288440  0.15734400  1.0
  Zn  Zn3647  1  0.02702993  0.90621773  0.15734400  1.0
  Zn  Zn3648  1  0.36036327  0.23955107  0.15734400  1.0
  Zn  Zn3649  1  0.36036327  0.57288440  0.15734400  1.0
  Zn  Zn3650  1  0.36036327  0.90621773  0.15734400  1.0
  Zn  Zn3651  1  0.69369660  0.23955107  0.15734400  1.0
  Zn  Zn3652  1  0.69369660  0.57288440  0.15734400  1.0
  Zn  Zn3653  1  0.69369660  0.90621773  0.15734400  1.0
  Zn  Zn3654  1  0.00694260  0.22358690  0.46815000  1.0
  Zn  Zn3655  1  0.00694260  0.55692023  0.46815000  1.0
  Zn  Zn3656  1  0.00694260  0.89025357  0.46815000  1.0
  Zn  Zn3657  1  0.34027593  0.22358690  0.46815000  1.0
  Zn  Zn3658  1  0.34027593  0.55692023  0.46815000  1.0
  Zn  Zn3659  1  0.34027593  0.89025357  0.46815000  1.0
  Zn  Zn3660  1  0.67360927  0.22358690  0.46815000  1.0
  Zn  Zn3661  1  0.67360927  0.55692023  0.46815000  1.0
  Zn  Zn3662  1  0.67360927  0.89025357  0.46815000  1.0
  Zn  Zn3663  1  0.14027593  0.25692023  0.46815000  1.0
  Zn  Zn3664  1  0.14027593  0.59025357  0.46815000  1.0
  Zn  Zn3665  1  0.14027593  0.92358690  0.46815000  1.0
  Zn  Zn3666  1  0.47360927  0.25692023  0.46815000  1.0
  Zn  Zn3667  1  0.47360927  0.59025357  0.46815000  1.0
  Zn  Zn3668  1  0.47360927  0.92358690  0.46815000  1.0
  Zn  Zn3669  1  0.80694260  0.25692023  0.46815000  1.0
  Zn  Zn3670  1  0.80694260  0.59025357  0.46815000  1.0
  Zn  Zn3671  1  0.80694260  0.92358690  0.46815000  1.0
  Zn  Zn3672  1  0.18210260  0.22571023  0.03185000  1.0
  Zn  Zn3673  1  0.18210260  0.55904357  0.03185000  1.0
  Zn  Zn3674  1  0.18210260  0.89237690  0.03185000  1.0
  Zn  Zn3675  1  0.51543593  0.22571023  0.03185000  1.0
  Zn  Zn3676  1  0.51543593  0.55904357  0.03185000  1.0
  Zn  Zn3677  1  0.51543593  0.89237690  0.03185000  1.0
  Zn  Zn3678  1  0.84876927  0.22571023  0.03185000  1.0
  Zn  Zn3679  1  0.84876927  0.55904357  0.03185000  1.0
  Zn  Zn3680  1  0.84876927  0.89237690  0.03185000  1.0
  Zn  Zn3681  1  0.31543593  0.25904357  0.03185000  1.0
  Zn  Zn3682  1  0.31543593  0.59237690  0.03185000  1.0
  Zn  Zn3683  1  0.31543593  0.92571023  0.03185000  1.0
  Zn  Zn3684  1  0.64876927  0.25904357  0.03185000  1.0
  Zn  Zn3685  1  0.64876927  0.59237690  0.03185000  1.0
  Zn  Zn3686  1  0.64876927  0.92571023  0.03185000  1.0
  Zn  Zn3687  1  0.98210260  0.25904357  0.03185000  1.0
  Zn  Zn3688  1  0.98210260  0.59237690  0.03185000  1.0
  Zn  Zn3689  1  0.98210260  0.92571023  0.03185000  1.0
  Zn  Zn3690  1  0.15263407  0.25064727  0.20818400  1.0
  Zn  Zn3691  1  0.15263407  0.58398060  0.20818400  1.0
  Zn  Zn3692  1  0.15263407  0.91731393  0.20818400  1.0
  Zn  Zn3693  1  0.48596740  0.25064727  0.20818400  1.0
  Zn  Zn3694  1  0.48596740  0.58398060  0.20818400  1.0
  Zn  Zn3695  1  0.48596740  0.91731393  0.20818400  1.0
  Zn  Zn3696  1  0.81930073  0.25064727  0.20818400  1.0
  Zn  Zn3697  1  0.81930073  0.58398060  0.20818400  1.0
  Zn  Zn3698  1  0.81930073  0.91731393  0.20818400  1.0
  Zn  Zn3699  1  0.01930073  0.21731393  0.20818400  1.0
  Zn  Zn3700  1  0.01930073  0.55064727  0.20818400  1.0
  Zn  Zn3701  1  0.01930073  0.88398060  0.20818400  1.0
  Zn  Zn3702  1  0.35263407  0.21731393  0.20818400  1.0
  Zn  Zn3703  1  0.35263407  0.55064727  0.20818400  1.0
  Zn  Zn3704  1  0.35263407  0.88398060  0.20818400  1.0
  Zn  Zn3705  1  0.68596740  0.21731393  0.20818400  1.0
  Zn  Zn3706  1  0.68596740  0.55064727  0.20818400  1.0
  Zn  Zn3707  1  0.68596740  0.88398060  0.20818400  1.0
  Zn  Zn3708  1  0.27170073  0.21728043  0.34598900  1.0
  Zn  Zn3709  1  0.27170073  0.55061377  0.34598900  1.0
  Zn  Zn3710  1  0.27170073  0.88394710  0.34598900  1.0
  Zn  Zn3711  1  0.60503407  0.21728043  0.34598900  1.0
  Zn  Zn3712  1  0.60503407  0.55061377  0.34598900  1.0
  Zn  Zn3713  1  0.60503407  0.88394710  0.34598900  1.0
  Zn  Zn3714  1  0.93836740  0.21728043  0.34598900  1.0
  Zn  Zn3715  1  0.93836740  0.55061377  0.34598900  1.0
  Zn  Zn3716  1  0.93836740  0.88394710  0.34598900  1.0
  Zn  Zn3717  1  0.07170073  0.25061377  0.34598900  1.0
  Zn  Zn3718  1  0.07170073  0.58394710  0.34598900  1.0
  Zn  Zn3719  1  0.07170073  0.91728043  0.34598900  1.0
  Zn  Zn3720  1  0.40503407  0.25061377  0.34598900  1.0
  Zn  Zn3721  1  0.40503407  0.58394710  0.34598900  1.0
  Zn  Zn3722  1  0.40503407  0.91728043  0.34598900  1.0
  Zn  Zn3723  1  0.73836740  0.25061377  0.34598900  1.0
  Zn  Zn3724  1  0.73836740  0.58394710  0.34598900  1.0
  Zn  Zn3725  1  0.73836740  0.91728043  0.34598900  1.0
  Zn  Zn3726  1  0.23914747  0.21529453  0.09173700  1.0
  Zn  Zn3727  1  0.23914747  0.54862787  0.09173700  1.0
  Zn  Zn3728  1  0.23914747  0.88196120  0.09173700  1.0
  Zn  Zn3729  1  0.57248080  0.21529453  0.09173700  1.0
  Zn  Zn3730  1  0.57248080  0.54862787  0.09173700  1.0
  Zn  Zn3731  1  0.57248080  0.88196120  0.09173700  1.0
  Zn  Zn3732  1  0.90581413  0.21529453  0.09173700  1.0
  Zn  Zn3733  1  0.90581413  0.54862787  0.09173700  1.0
  Zn  Zn3734  1  0.90581413  0.88196120  0.09173700  1.0
  Zn  Zn3735  1  0.03914747  0.24862787  0.09173700  1.0
  Zn  Zn3736  1  0.03914747  0.58196120  0.09173700  1.0
  Zn  Zn3737  1  0.03914747  0.91529453  0.09173700  1.0
  Zn  Zn3738  1  0.37248080  0.24862787  0.09173700  1.0
  Zn  Zn3739  1  0.37248080  0.58196120  0.09173700  1.0
  Zn  Zn3740  1  0.37248080  0.91529453  0.09173700  1.0
  Zn  Zn3741  1  0.70581413  0.24862787  0.09173700  1.0
  Zn  Zn3742  1  0.70581413  0.58196120  0.09173700  1.0
  Zn  Zn3743  1  0.70581413  0.91529453  0.09173700  1.0
  Zn  Zn3744  1  0.32757040  0.20636743  0.69057900  1.0
  Zn  Zn3745  1  0.32757040  0.53970077  0.69057900  1.0
  Zn  Zn3746  1  0.32757040  0.87303410  0.69057900  1.0
  Zn  Zn3747  1  0.66090373  0.20636743  0.69057900  1.0
  Zn  Zn3748  1  0.66090373  0.53970077  0.69057900  1.0
  Zn  Zn3749  1  0.66090373  0.87303410  0.69057900  1.0
  Zn  Zn3750  1  0.99423707  0.20636743  0.69057900  1.0
  Zn  Zn3751  1  0.99423707  0.53970077  0.69057900  1.0
  Zn  Zn3752  1  0.99423707  0.87303410  0.69057900  1.0
  Zn  Zn3753  1  0.12757040  0.23970077  0.69057900  1.0
  Zn  Zn3754  1  0.12757040  0.57303410  0.69057900  1.0
  Zn  Zn3755  1  0.12757040  0.90636743  0.69057900  1.0
  Zn  Zn3756  1  0.46090373  0.23970077  0.69057900  1.0
  Zn  Zn3757  1  0.46090373  0.57303410  0.69057900  1.0
  Zn  Zn3758  1  0.46090373  0.90636743  0.69057900  1.0
  Zn  Zn3759  1  0.79423707  0.23970077  0.69057900  1.0
  Zn  Zn3760  1  0.79423707  0.57303410  0.69057900  1.0
  Zn  Zn3761  1  0.79423707  0.90636743  0.69057900  1.0
  Zn  Zn3762  1  0.21477353  0.23212980  0.28028200  1.0
  Zn  Zn3763  1  0.21477353  0.56546313  0.28028200  1.0
  Zn  Zn3764  1  0.21477353  0.89879647  0.28028200  1.0
  Zn  Zn3765  1  0.54810687  0.23212980  0.28028200  1.0
  Zn  Zn3766  1  0.54810687  0.56546313  0.28028200  1.0
  Zn  Zn3767  1  0.54810687  0.89879647  0.28028200  1.0
  Zn  Zn3768  1  0.88144020  0.23212980  0.28028200  1.0
  Zn  Zn3769  1  0.88144020  0.56546313  0.28028200  1.0
  Zn  Zn3770  1  0.88144020  0.89879647  0.28028200  1.0
  Zn  Zn3771  1  0.01477353  0.26546313  0.28028200  1.0
  Zn  Zn3772  1  0.01477353  0.59879647  0.28028200  1.0
  Zn  Zn3773  1  0.01477353  0.93212980  0.28028200  1.0
  Zn  Zn3774  1  0.34810687  0.26546313  0.28028200  1.0
  Zn  Zn3775  1  0.34810687  0.59879647  0.28028200  1.0
  Zn  Zn3776  1  0.34810687  0.93212980  0.28028200  1.0
  Zn  Zn3777  1  0.68144020  0.26546313  0.28028200  1.0
  Zn  Zn3778  1  0.68144020  0.59879647  0.28028200  1.0
  Zn  Zn3779  1  0.68144020  0.93212980  0.28028200  1.0
  Zn  Zn3780  1  0.06716980  0.23059437  0.96815000  1.0
  Zn  Zn3781  1  0.06716980  0.56392770  0.96815000  1.0
  Zn  Zn3782  1  0.06716980  0.89726103  0.96815000  1.0
  Zn  Zn3783  1  0.40050313  0.23059437  0.96815000  1.0
  Zn  Zn3784  1  0.40050313  0.56392770  0.96815000  1.0
  Zn  Zn3785  1  0.40050313  0.89726103  0.96815000  1.0
  Zn  Zn3786  1  0.73383647  0.23059437  0.96815000  1.0
  Zn  Zn3787  1  0.73383647  0.56392770  0.96815000  1.0
  Zn  Zn3788  1  0.73383647  0.89726103  0.96815000  1.0
  Zn  Zn3789  1  0.20050313  0.26392770  0.96815000  1.0
  Zn  Zn3790  1  0.20050313  0.59726103  0.96815000  1.0
  Zn  Zn3791  1  0.20050313  0.93059437  0.96815000  1.0
  Zn  Zn3792  1  0.53383647  0.26392770  0.96815000  1.0
  Zn  Zn3793  1  0.53383647  0.59726103  0.96815000  1.0
  Zn  Zn3794  1  0.53383647  0.93059437  0.96815000  1.0
  Zn  Zn3795  1  0.86716980  0.26392770  0.96815000  1.0
  Zn  Zn3796  1  0.86716980  0.59726103  0.96815000  1.0
  Zn  Zn3797  1  0.86716980  0.93059437  0.96815000  1.0
  Zn  Zn3798  1  0.22588440  0.21670377  0.34265600  1.0
  Zn  Zn3799  1  0.22588440  0.55003710  0.34265600  1.0
  Zn  Zn3800  1  0.22588440  0.88337043  0.34265600  1.0
  Zn  Zn3801  1  0.55921773  0.21670377  0.34265600  1.0
  Zn  Zn3802  1  0.55921773  0.55003710  0.34265600  1.0
  Zn  Zn3803  1  0.55921773  0.88337043  0.34265600  1.0
  Zn  Zn3804  1  0.89255107  0.21670377  0.34265600  1.0
  Zn  Zn3805  1  0.89255107  0.55003710  0.34265600  1.0
  Zn  Zn3806  1  0.89255107  0.88337043  0.34265600  1.0
  Zn  Zn3807  1  0.02588440  0.25003710  0.34265600  1.0
  Zn  Zn3808  1  0.02588440  0.58337043  0.34265600  1.0
  Zn  Zn3809  1  0.02588440  0.91670377  0.34265600  1.0
  Zn  Zn3810  1  0.35921773  0.25003710  0.34265600  1.0
  Zn  Zn3811  1  0.35921773  0.58337043  0.34265600  1.0
  Zn  Zn3812  1  0.35921773  0.91670377  0.34265600  1.0
  Zn  Zn3813  1  0.69255107  0.25003710  0.34265600  1.0
  Zn  Zn3814  1  0.69255107  0.58337043  0.34265600  1.0
  Zn  Zn3815  1  0.69255107  0.91670377  0.34265600  1.0
  Zn  Zn3816  1  0.20543427  0.20921040  0.22284200  1.0
  Zn  Zn3817  1  0.20543427  0.54254373  0.22284200  1.0
  Zn  Zn3818  1  0.20543427  0.87587707  0.22284200  1.0
  Zn  Zn3819  1  0.53876760  0.20921040  0.22284200  1.0
  Zn  Zn3820  1  0.53876760  0.54254373  0.22284200  1.0
  Zn  Zn3821  1  0.53876760  0.87587707  0.22284200  1.0
  Zn  Zn3822  1  0.87210093  0.20921040  0.22284200  1.0
  Zn  Zn3823  1  0.87210093  0.54254373  0.22284200  1.0
  Zn  Zn3824  1  0.87210093  0.87587707  0.22284200  1.0
  Zn  Zn3825  1  0.00543427  0.24254373  0.22284200  1.0
  Zn  Zn3826  1  0.00543427  0.57587707  0.22284200  1.0
  Zn  Zn3827  1  0.00543427  0.90921040  0.22284200  1.0
  Zn  Zn3828  1  0.33876760  0.24254373  0.22284200  1.0
  Zn  Zn3829  1  0.33876760  0.57587707  0.22284200  1.0
  Zn  Zn3830  1  0.33876760  0.90921040  0.22284200  1.0
  Zn  Zn3831  1  0.67210093  0.24254373  0.22284200  1.0
  Zn  Zn3832  1  0.67210093  0.57587707  0.22284200  1.0
  Zn  Zn3833  1  0.67210093  0.90921040  0.22284200  1.0
  Zn  Zn3834  1  0.19563740  0.24049977  0.53185000  1.0
  Zn  Zn3835  1  0.19563740  0.57383310  0.53185000  1.0
  Zn  Zn3836  1  0.19563740  0.90716643  0.53185000  1.0
  Zn  Zn3837  1  0.52897073  0.24049977  0.53185000  1.0
  Zn  Zn3838  1  0.52897073  0.57383310  0.53185000  1.0
  Zn  Zn3839  1  0.52897073  0.90716643  0.53185000  1.0
  Zn  Zn3840  1  0.86230407  0.24049977  0.53185000  1.0
  Zn  Zn3841  1  0.86230407  0.57383310  0.53185000  1.0
  Zn  Zn3842  1  0.86230407  0.90716643  0.53185000  1.0
  Zn  Zn3843  1  0.06230407  0.20716643  0.53185000  1.0
  Zn  Zn3844  1  0.06230407  0.54049977  0.53185000  1.0
  Zn  Zn3845  1  0.06230407  0.87383310  0.53185000  1.0
  Zn  Zn3846  1  0.39563740  0.20716643  0.53185000  1.0
  Zn  Zn3847  1  0.39563740  0.54049977  0.53185000  1.0
  Zn  Zn3848  1  0.39563740  0.87383310  0.53185000  1.0
  Zn  Zn3849  1  0.72897073  0.20716643  0.53185000  1.0
  Zn  Zn3850  1  0.72897073  0.54049977  0.53185000  1.0
  Zn  Zn3851  1  0.72897073  0.87383310  0.53185000  1.0
  Zn  Zn3852  1  0.26052907  0.21122327  0.41421600  1.0
  Zn  Zn3853  1  0.26052907  0.54455660  0.41421600  1.0
  Zn  Zn3854  1  0.26052907  0.87788993  0.41421600  1.0
  Zn  Zn3855  1  0.59386240  0.21122327  0.41421600  1.0
  Zn  Zn3856  1  0.59386240  0.54455660  0.41421600  1.0
  Zn  Zn3857  1  0.59386240  0.87788993  0.41421600  1.0
  Zn  Zn3858  1  0.92719573  0.21122327  0.41421600  1.0
  Zn  Zn3859  1  0.92719573  0.54455660  0.41421600  1.0
  Zn  Zn3860  1  0.92719573  0.87788993  0.41421600  1.0
  Zn  Zn3861  1  0.06052907  0.24455660  0.41421600  1.0
  Zn  Zn3862  1  0.06052907  0.57788993  0.41421600  1.0
  Zn  Zn3863  1  0.06052907  0.91122327  0.41421600  1.0
  Zn  Zn3864  1  0.39386240  0.24455660  0.41421600  1.0
  Zn  Zn3865  1  0.39386240  0.57788993  0.41421600  1.0
  Zn  Zn3866  1  0.39386240  0.91122327  0.41421600  1.0
  Zn  Zn3867  1  0.72719573  0.24455660  0.41421600  1.0
  Zn  Zn3868  1  0.72719573  0.57788993  0.41421600  1.0
  Zn  Zn3869  1  0.72719573  0.91122327  0.41421600  1.0
  Zn  Zn3870  1  0.26069947  0.24645720  0.47656300  1.0
  Zn  Zn3871  1  0.26069947  0.57979053  0.47656300  1.0
  Zn  Zn3872  1  0.26069947  0.91312387  0.47656300  1.0
  Zn  Zn3873  1  0.59403280  0.24645720  0.47656300  1.0
  Zn  Zn3874  1  0.59403280  0.57979053  0.47656300  1.0
  Zn  Zn3875  1  0.59403280  0.91312387  0.47656300  1.0
  Zn  Zn3876  1  0.92736613  0.24645720  0.47656300  1.0
  Zn  Zn3877  1  0.92736613  0.57979053  0.47656300  1.0
  Zn  Zn3878  1  0.92736613  0.91312387  0.47656300  1.0
  Zn  Zn3879  1  0.12736613  0.21312387  0.47656300  1.0
  Zn  Zn3880  1  0.12736613  0.54645720  0.47656300  1.0
  Zn  Zn3881  1  0.12736613  0.87979053  0.47656300  1.0
  Zn  Zn3882  1  0.46069947  0.21312387  0.47656300  1.0
  Zn  Zn3883  1  0.46069947  0.54645720  0.47656300  1.0
  Zn  Zn3884  1  0.46069947  0.87979053  0.47656300  1.0
  Zn  Zn3885  1  0.79403280  0.21312387  0.47656300  1.0
  Zn  Zn3886  1  0.79403280  0.54645720  0.47656300  1.0
  Zn  Zn3887  1  0.79403280  0.87979053  0.47656300  1.0
  Zn  Zn3888  1  0.03591667  0.22393850  0.71971800  1.0
  Zn  Zn3889  1  0.03591667  0.55727183  0.71971800  1.0
  Zn  Zn3890  1  0.03591667  0.89060517  0.71971800  1.0
  Zn  Zn3891  1  0.36925000  0.22393850  0.71971800  1.0
  Zn  Zn3892  1  0.36925000  0.55727183  0.71971800  1.0
  Zn  Zn3893  1  0.36925000  0.89060517  0.71971800  1.0
  Zn  Zn3894  1  0.70258333  0.22393850  0.71971800  1.0
  Zn  Zn3895  1  0.70258333  0.55727183  0.71971800  1.0
  Zn  Zn3896  1  0.70258333  0.89060517  0.71971800  1.0
  Zn  Zn3897  1  0.16925000  0.25727183  0.71971800  1.0
  Zn  Zn3898  1  0.16925000  0.59060517  0.71971800  1.0
  Zn  Zn3899  1  0.16925000  0.92393850  0.71971800  1.0
  Zn  Zn3900  1  0.50258333  0.25727183  0.71971800  1.0
  Zn  Zn3901  1  0.50258333  0.59060517  0.71971800  1.0
  Zn  Zn3902  1  0.50258333  0.92393850  0.71971800  1.0
  Zn  Zn3903  1  0.83591667  0.25727183  0.71971800  1.0
  Zn  Zn3904  1  0.83591667  0.59060517  0.71971800  1.0
  Zn  Zn3905  1  0.83591667  0.92393850  0.71971800  1.0
  Zn  Zn3906  1  0.01734893  0.21506707  0.84638800  1.0
  Zn  Zn3907  1  0.01734893  0.54840040  0.84638800  1.0
  Zn  Zn3908  1  0.01734893  0.88173373  0.84638800  1.0
  Zn  Zn3909  1  0.35068227  0.21506707  0.84638800  1.0
  Zn  Zn3910  1  0.35068227  0.54840040  0.84638800  1.0
  Zn  Zn3911  1  0.35068227  0.88173373  0.84638800  1.0
  Zn  Zn3912  1  0.68401560  0.21506707  0.84638800  1.0
  Zn  Zn3913  1  0.68401560  0.54840040  0.84638800  1.0
  Zn  Zn3914  1  0.68401560  0.88173373  0.84638800  1.0
  Zn  Zn3915  1  0.15068227  0.24840040  0.84638800  1.0
  Zn  Zn3916  1  0.15068227  0.58173373  0.84638800  1.0
  Zn  Zn3917  1  0.15068227  0.91506707  0.84638800  1.0
  Zn  Zn3918  1  0.48401560  0.24840040  0.84638800  1.0
  Zn  Zn3919  1  0.48401560  0.58173373  0.84638800  1.0
  Zn  Zn3920  1  0.48401560  0.91506707  0.84638800  1.0
  Zn  Zn3921  1  0.81734893  0.24840040  0.84638800  1.0
  Zn  Zn3922  1  0.81734893  0.58173373  0.84638800  1.0
  Zn  Zn3923  1  0.81734893  0.91506707  0.84638800  1.0
  Zn  Zn3924  1  0.20100567  0.26025717  0.22815800  1.0
  Zn  Zn3925  1  0.20100567  0.59359050  0.22815800  1.0
  Zn  Zn3926  1  0.20100567  0.92692383  0.22815800  1.0
  Zn  Zn3927  1  0.53433900  0.26025717  0.22815800  1.0
  Zn  Zn3928  1  0.53433900  0.59359050  0.22815800  1.0
  Zn  Zn3929  1  0.53433900  0.92692383  0.22815800  1.0
  Zn  Zn3930  1  0.86767233  0.26025717  0.22815800  1.0
  Zn  Zn3931  1  0.86767233  0.59359050  0.22815800  1.0
  Zn  Zn3932  1  0.86767233  0.92692383  0.22815800  1.0
  Zn  Zn3933  1  0.06767233  0.22692383  0.22815800  1.0
  Zn  Zn3934  1  0.06767233  0.56025717  0.22815800  1.0
  Zn  Zn3935  1  0.06767233  0.89359050  0.22815800  1.0
  Zn  Zn3936  1  0.40100567  0.22692383  0.22815800  1.0
  Zn  Zn3937  1  0.40100567  0.56025717  0.22815800  1.0
  Zn  Zn3938  1  0.40100567  0.89359050  0.22815800  1.0
  Zn  Zn3939  1  0.73433900  0.22692383  0.22815800  1.0
  Zn  Zn3940  1  0.73433900  0.56025717  0.22815800  1.0
  Zn  Zn3941  1  0.73433900  0.89359050  0.22815800  1.0
  Zn  Zn3942  1  0.24238560  0.20606940  0.27715800  1.0
  Zn  Zn3943  1  0.24238560  0.53940273  0.27715800  1.0
  Zn  Zn3944  1  0.24238560  0.87273607  0.27715800  1.0
  Zn  Zn3945  1  0.57571893  0.20606940  0.27715800  1.0
  Zn  Zn3946  1  0.57571893  0.53940273  0.27715800  1.0
  Zn  Zn3947  1  0.57571893  0.87273607  0.27715800  1.0
  Zn  Zn3948  1  0.90905227  0.20606940  0.27715800  1.0
  Zn  Zn3949  1  0.90905227  0.53940273  0.27715800  1.0
  Zn  Zn3950  1  0.90905227  0.87273607  0.27715800  1.0
  Zn  Zn3951  1  0.04238560  0.23940273  0.27715800  1.0
  Zn  Zn3952  1  0.04238560  0.57273607  0.27715800  1.0
  Zn  Zn3953  1  0.04238560  0.90606940  0.27715800  1.0
  Zn  Zn3954  1  0.37571893  0.23940273  0.27715800  1.0
  Zn  Zn3955  1  0.37571893  0.57273607  0.27715800  1.0
  Zn  Zn3956  1  0.37571893  0.90606940  0.27715800  1.0
  Zn  Zn3957  1  0.70905227  0.23940273  0.27715800  1.0
  Zn  Zn3958  1  0.70905227  0.57273607  0.27715800  1.0
  Zn  Zn3959  1  0.70905227  0.90606940  0.27715800  1.0
  Zn  Zn3960  1  0.19084667  0.22009067  0.15401100  1.0
  Zn  Zn3961  1  0.19084667  0.55342400  0.15401100  1.0
  Zn  Zn3962  1  0.19084667  0.88675733  0.15401100  1.0
  Zn  Zn3963  1  0.52418000  0.22009067  0.15401100  1.0
  Zn  Zn3964  1  0.52418000  0.55342400  0.15401100  1.0
  Zn  Zn3965  1  0.52418000  0.88675733  0.15401100  1.0
  Zn  Zn3966  1  0.85751333  0.22009067  0.15401100  1.0
  Zn  Zn3967  1  0.85751333  0.55342400  0.15401100  1.0
  Zn  Zn3968  1  0.85751333  0.88675733  0.15401100  1.0
  Zn  Zn3969  1  0.32418000  0.25342400  0.15401100  1.0
  Zn  Zn3970  1  0.32418000  0.58675733  0.15401100  1.0
  Zn  Zn3971  1  0.32418000  0.92009067  0.15401100  1.0
  Zn  Zn3972  1  0.65751333  0.25342400  0.15401100  1.0
  Zn  Zn3973  1  0.65751333  0.58675733  0.15401100  1.0
  Zn  Zn3974  1  0.65751333  0.92009067  0.15401100  1.0
  Zn  Zn3975  1  0.99084667  0.25342400  0.15401100  1.0
  Zn  Zn3976  1  0.99084667  0.58675733  0.15401100  1.0
  Zn  Zn3977  1  0.99084667  0.92009067  0.15401100  1.0
  Zn  Zn3978  1  0.21056027  0.23642190  0.10155300  1.0
  Zn  Zn3979  1  0.21056027  0.56975523  0.10155300  1.0
  Zn  Zn3980  1  0.21056027  0.90308857  0.10155300  1.0
  Zn  Zn3981  1  0.54389360  0.23642190  0.10155300  1.0
  Zn  Zn3982  1  0.54389360  0.56975523  0.10155300  1.0
  Zn  Zn3983  1  0.54389360  0.90308857  0.10155300  1.0
  Zn  Zn3984  1  0.87722693  0.23642190  0.10155300  1.0
  Zn  Zn3985  1  0.87722693  0.56975523  0.10155300  1.0
  Zn  Zn3986  1  0.87722693  0.90308857  0.10155300  1.0
  Zn  Zn3987  1  0.07722693  0.20308857  0.10155300  1.0
  Zn  Zn3988  1  0.07722693  0.53642190  0.10155300  1.0
  Zn  Zn3989  1  0.07722693  0.86975523  0.10155300  1.0
  Zn  Zn3990  1  0.41056027  0.20308857  0.10155300  1.0
  Zn  Zn3991  1  0.41056027  0.53642190  0.10155300  1.0
  Zn  Zn3992  1  0.41056027  0.86975523  0.10155300  1.0
  Zn  Zn3993  1  0.74389360  0.20308857  0.10155300  1.0
  Zn  Zn3994  1  0.74389360  0.53642190  0.10155300  1.0
  Zn  Zn3995  1  0.74389360  0.86975523  0.10155300  1.0
  Zn  Zn3996  1  0.29249733  0.23709117  0.19057900  1.0
  Zn  Zn3997  1  0.29249733  0.57042450  0.19057900  1.0
  Zn  Zn3998  1  0.29249733  0.90375783  0.19057900  1.0
  Zn  Zn3999  1  0.62583067  0.23709117  0.19057900  1.0
  Zn  Zn4000  1  0.62583067  0.57042450  0.19057900  1.0
  Zn  Zn4001  1  0.62583067  0.90375783  0.19057900  1.0
  Zn  Zn4002  1  0.95916400  0.23709117  0.19057900  1.0
  Zn  Zn4003  1  0.95916400  0.57042450  0.19057900  1.0
  Zn  Zn4004  1  0.95916400  0.90375783  0.19057900  1.0
  Zn  Zn4005  1  0.15916400  0.20375783  0.19057900  1.0
  Zn  Zn4006  1  0.15916400  0.53709117  0.19057900  1.0
  Zn  Zn4007  1  0.15916400  0.87042450  0.19057900  1.0
  Zn  Zn4008  1  0.49249733  0.20375783  0.19057900  1.0
  Zn  Zn4009  1  0.49249733  0.53709117  0.19057900  1.0
  Zn  Zn4010  1  0.49249733  0.87042450  0.19057900  1.0
  Zn  Zn4011  1  0.82583067  0.20375783  0.19057900  1.0
  Zn  Zn4012  1  0.82583067  0.53709117  0.19057900  1.0
  Zn  Zn4013  1  0.82583067  0.87042450  0.19057900  1.0
  Zn  Zn4014  1  0.26509120  0.26601847  0.41421600  1.0
  Zn  Zn4015  1  0.26509120  0.59935180  0.41421600  1.0
  Zn  Zn4016  1  0.26509120  0.93268513  0.41421600  1.0
  Zn  Zn4017  1  0.59842453  0.26601847  0.41421600  1.0
  Zn  Zn4018  1  0.59842453  0.59935180  0.41421600  1.0
  Zn  Zn4019  1  0.59842453  0.93268513  0.41421600  1.0
  Zn  Zn4020  1  0.93175787  0.26601847  0.41421600  1.0
  Zn  Zn4021  1  0.93175787  0.59935180  0.41421600  1.0
  Zn  Zn4022  1  0.93175787  0.93268513  0.41421600  1.0
  Zn  Zn4023  1  0.13175787  0.23268513  0.41421600  1.0
  Zn  Zn4024  1  0.13175787  0.56601847  0.41421600  1.0
  Zn  Zn4025  1  0.13175787  0.89935180  0.41421600  1.0
  Zn  Zn4026  1  0.46509120  0.23268513  0.41421600  1.0
  Zn  Zn4027  1  0.46509120  0.56601847  0.41421600  1.0
  Zn  Zn4028  1  0.46509120  0.89935180  0.41421600  1.0
  Zn  Zn4029  1  0.79842453  0.23268513  0.41421600  1.0
  Zn  Zn4030  1  0.79842453  0.56601847  0.41421600  1.0
  Zn  Zn4031  1  0.79842453  0.89935180  0.41421600  1.0
  Zn  Zn4032  1  0.28507153  0.26239480  0.34265600  1.0
  Zn  Zn4033  1  0.28507153  0.59572813  0.34265600  1.0
  Zn  Zn4034  1  0.28507153  0.92906147  0.34265600  1.0
  Zn  Zn4035  1  0.61840487  0.26239480  0.34265600  1.0
  Zn  Zn4036  1  0.61840487  0.59572813  0.34265600  1.0
  Zn  Zn4037  1  0.61840487  0.92906147  0.34265600  1.0
  Zn  Zn4038  1  0.95173820  0.26239480  0.34265600  1.0
  Zn  Zn4039  1  0.95173820  0.59572813  0.34265600  1.0
  Zn  Zn4040  1  0.95173820  0.92906147  0.34265600  1.0
  Zn  Zn4041  1  0.15173820  0.22906147  0.34265600  1.0
  Zn  Zn4042  1  0.15173820  0.56239480  0.34265600  1.0
  Zn  Zn4043  1  0.15173820  0.89572813  0.34265600  1.0
  Zn  Zn4044  1  0.48507153  0.22906147  0.34265600  1.0
  Zn  Zn4045  1  0.48507153  0.56239480  0.34265600  1.0
  Zn  Zn4046  1  0.48507153  0.89572813  0.34265600  1.0
  Zn  Zn4047  1  0.81840487  0.22906147  0.34265600  1.0
  Zn  Zn4048  1  0.81840487  0.56239480  0.34265600  1.0
  Zn  Zn4049  1  0.81840487  0.89572813  0.34265600  1.0
  Zn  Zn4050  1  0.24341600  0.22699550  0.80942100  1.0
  Zn  Zn4051  1  0.24341600  0.56032883  0.80942100  1.0
  Zn  Zn4052  1  0.24341600  0.89366217  0.80942100  1.0
  Zn  Zn4053  1  0.57674933  0.22699550  0.80942100  1.0
  Zn  Zn4054  1  0.57674933  0.56032883  0.80942100  1.0
  Zn  Zn4055  1  0.57674933  0.89366217  0.80942100  1.0
  Zn  Zn4056  1  0.91008267  0.22699550  0.80942100  1.0
  Zn  Zn4057  1  0.91008267  0.56032883  0.80942100  1.0
  Zn  Zn4058  1  0.91008267  0.89366217  0.80942100  1.0
  Zn  Zn4059  1  0.04341600  0.26032883  0.80942100  1.0
  Zn  Zn4060  1  0.04341600  0.59366217  0.80942100  1.0
  Zn  Zn4061  1  0.04341600  0.92699550  0.80942100  1.0
  Zn  Zn4062  1  0.37674933  0.26032883  0.80942100  1.0
  Zn  Zn4063  1  0.37674933  0.59366217  0.80942100  1.0
  Zn  Zn4064  1  0.37674933  0.92699550  0.80942100  1.0
  Zn  Zn4065  1  0.71008267  0.26032883  0.80942100  1.0
  Zn  Zn4066  1  0.71008267  0.59366217  0.80942100  1.0
  Zn  Zn4067  1  0.71008267  0.92699550  0.80942100  1.0
  Zn  Zn4068  1  0.14610367  0.22754783  0.15401100  1.0
  Zn  Zn4069  1  0.14610367  0.56088117  0.15401100  1.0
  Zn  Zn4070  1  0.14610367  0.89421450  0.15401100  1.0
  Zn  Zn4071  1  0.47943700  0.22754783  0.15401100  1.0
  Zn  Zn4072  1  0.47943700  0.56088117  0.15401100  1.0
  Zn  Zn4073  1  0.47943700  0.89421450  0.15401100  1.0
  Zn  Zn4074  1  0.81277033  0.22754783  0.15401100  1.0
  Zn  Zn4075  1  0.81277033  0.56088117  0.15401100  1.0
  Zn  Zn4076  1  0.81277033  0.89421450  0.15401100  1.0
  Zn  Zn4077  1  0.27943700  0.26088117  0.15401100  1.0
  Zn  Zn4078  1  0.27943700  0.59421450  0.15401100  1.0
  Zn  Zn4079  1  0.27943700  0.92754783  0.15401100  1.0
  Zn  Zn4080  1  0.61277033  0.26088117  0.15401100  1.0
  Zn  Zn4081  1  0.61277033  0.59421450  0.15401100  1.0
  Zn  Zn4082  1  0.61277033  0.92754783  0.15401100  1.0
  Zn  Zn4083  1  0.94610367  0.26088117  0.15401100  1.0
  Zn  Zn4084  1  0.94610367  0.59421450  0.15401100  1.0
  Zn  Zn4085  1  0.94610367  0.92754783  0.15401100  1.0
  Zn  Zn4086  1  0.26421260  0.24680623  0.65401100  1.0
  Zn  Zn4087  1  0.26421260  0.58013957  0.65401100  1.0
  Zn  Zn4088  1  0.26421260  0.91347290  0.65401100  1.0
  Zn  Zn4089  1  0.59754593  0.24680623  0.65401100  1.0
  Zn  Zn4090  1  0.59754593  0.58013957  0.65401100  1.0
  Zn  Zn4091  1  0.59754593  0.91347290  0.65401100  1.0
  Zn  Zn4092  1  0.93087927  0.24680623  0.65401100  1.0
  Zn  Zn4093  1  0.93087927  0.58013957  0.65401100  1.0
  Zn  Zn4094  1  0.93087927  0.91347290  0.65401100  1.0
  Zn  Zn4095  1  0.13087927  0.21347290  0.65401100  1.0
  Zn  Zn4096  1  0.13087927  0.54680623  0.65401100  1.0
  Zn  Zn4097  1  0.13087927  0.88013957  0.65401100  1.0
  Zn  Zn4098  1  0.46421260  0.21347290  0.65401100  1.0
  Zn  Zn4099  1  0.46421260  0.54680623  0.65401100  1.0
  Zn  Zn4100  1  0.46421260  0.88013957  0.65401100  1.0
  Zn  Zn4101  1  0.79754593  0.21347290  0.65401100  1.0
  Zn  Zn4102  1  0.79754593  0.54680623  0.65401100  1.0
  Zn  Zn4103  1  0.79754593  0.88013957  0.65401100  1.0
  Zn  Zn4104  1  0.05647633  0.23653883  0.84598900  1.0
  Zn  Zn4105  1  0.05647633  0.56987217  0.84598900  1.0
  Zn  Zn4106  1  0.05647633  0.90320550  0.84598900  1.0
  Zn  Zn4107  1  0.38980967  0.23653883  0.84598900  1.0
  Zn  Zn4108  1  0.38980967  0.56987217  0.84598900  1.0
  Zn  Zn4109  1  0.38980967  0.90320550  0.84598900  1.0
  Zn  Zn4110  1  0.72314300  0.23653883  0.84598900  1.0
  Zn  Zn4111  1  0.72314300  0.56987217  0.84598900  1.0
  Zn  Zn4112  1  0.72314300  0.90320550  0.84598900  1.0
  Zn  Zn4113  1  0.25647633  0.20320550  0.84598900  1.0
  Zn  Zn4114  1  0.25647633  0.53653883  0.84598900  1.0
  Zn  Zn4115  1  0.25647633  0.86987217  0.84598900  1.0
  Zn  Zn4116  1  0.58980967  0.20320550  0.84598900  1.0
  Zn  Zn4117  1  0.58980967  0.53653883  0.84598900  1.0
  Zn  Zn4118  1  0.58980967  0.86987217  0.84598900  1.0
  Zn  Zn4119  1  0.92314300  0.20320550  0.84598900  1.0
  Zn  Zn4120  1  0.92314300  0.53653883  0.84598900  1.0
  Zn  Zn4121  1  0.92314300  0.86987217  0.84598900  1.0
  Zn  Zn4122  1  0.02908313  0.25237337  0.72815800  1.0
  Zn  Zn4123  1  0.02908313  0.58570670  0.72815800  1.0
  Zn  Zn4124  1  0.02908313  0.91904003  0.72815800  1.0
  Zn  Zn4125  1  0.36241647  0.25237337  0.72815800  1.0
  Zn  Zn4126  1  0.36241647  0.58570670  0.72815800  1.0
  Zn  Zn4127  1  0.36241647  0.91904003  0.72815800  1.0
  Zn  Zn4128  1  0.69574980  0.25237337  0.72815800  1.0
  Zn  Zn4129  1  0.69574980  0.58570670  0.72815800  1.0
  Zn  Zn4130  1  0.69574980  0.91904003  0.72815800  1.0
  Zn  Zn4131  1  0.22908313  0.21904003  0.72815800  1.0
  Zn  Zn4132  1  0.22908313  0.55237337  0.72815800  1.0
  Zn  Zn4133  1  0.22908313  0.88570670  0.72815800  1.0
  Zn  Zn4134  1  0.56241647  0.21904003  0.72815800  1.0
  Zn  Zn4135  1  0.56241647  0.55237337  0.72815800  1.0
  Zn  Zn4136  1  0.56241647  0.88570670  0.72815800  1.0
  Zn  Zn4137  1  0.89574980  0.21904003  0.72815800  1.0
  Zn  Zn4138  1  0.89574980  0.55237337  0.72815800  1.0
  Zn  Zn4139  1  0.89574980  0.88570670  0.72815800  1.0
  Zn  Zn4140  1  0.24600973  0.26102093  0.27715800  1.0
  Zn  Zn4141  1  0.24600973  0.59435427  0.27715800  1.0
  Zn  Zn4142  1  0.24600973  0.92768760  0.27715800  1.0
  Zn  Zn4143  1  0.57934307  0.26102093  0.27715800  1.0
  Zn  Zn4144  1  0.57934307  0.59435427  0.27715800  1.0
  Zn  Zn4145  1  0.57934307  0.92768760  0.27715800  1.0
  Zn  Zn4146  1  0.91267640  0.26102093  0.27715800  1.0
  Zn  Zn4147  1  0.91267640  0.59435427  0.27715800  1.0
  Zn  Zn4148  1  0.91267640  0.92768760  0.27715800  1.0
  Zn  Zn4149  1  0.11267640  0.22768760  0.27715800  1.0
  Zn  Zn4150  1  0.11267640  0.56102093  0.27715800  1.0
  Zn  Zn4151  1  0.11267640  0.89435427  0.27715800  1.0
  Zn  Zn4152  1  0.44600973  0.22768760  0.27715800  1.0
  Zn  Zn4153  1  0.44600973  0.56102093  0.27715800  1.0
  Zn  Zn4154  1  0.44600973  0.89435427  0.27715800  1.0
  Zn  Zn4155  1  0.77934307  0.22768760  0.27715800  1.0
  Zn  Zn4156  1  0.77934307  0.56102093  0.27715800  1.0
  Zn  Zn4157  1  0.77934307  0.89435427  0.27715800  1.0
  Zn  Zn4158  1  0.30669833  0.21344433  0.21971800  1.0
  Zn  Zn4159  1  0.30669833  0.54677767  0.21971800  1.0
  Zn  Zn4160  1  0.30669833  0.88011100  0.21971800  1.0
  Zn  Zn4161  1  0.64003167  0.21344433  0.21971800  1.0
  Zn  Zn4162  1  0.64003167  0.54677767  0.21971800  1.0
  Zn  Zn4163  1  0.64003167  0.88011100  0.21971800  1.0
  Zn  Zn4164  1  0.97336500  0.21344433  0.21971800  1.0
  Zn  Zn4165  1  0.97336500  0.54677767  0.21971800  1.0
  Zn  Zn4166  1  0.97336500  0.88011100  0.21971800  1.0
  Zn  Zn4167  1  0.10669833  0.24677767  0.21971800  1.0
  Zn  Zn4168  1  0.10669833  0.58011100  0.21971800  1.0
  Zn  Zn4169  1  0.10669833  0.91344433  0.21971800  1.0
  Zn  Zn4170  1  0.44003167  0.24677767  0.21971800  1.0
  Zn  Zn4171  1  0.44003167  0.58011100  0.21971800  1.0
  Zn  Zn4172  1  0.44003167  0.91344433  0.21971800  1.0
  Zn  Zn4173  1  0.77336500  0.24677767  0.21971800  1.0
  Zn  Zn4174  1  0.77336500  0.58011100  0.21971800  1.0
  Zn  Zn4175  1  0.77336500  0.91344433  0.21971800  1.0
  Zn  Zn4176  1  0.31002893  0.24738290  0.65734400  1.0
  Zn  Zn4177  1  0.31002893  0.58071623  0.65734400  1.0
  Zn  Zn4178  1  0.31002893  0.91404957  0.65734400  1.0
  Zn  Zn4179  1  0.64336227  0.24738290  0.65734400  1.0
  Zn  Zn4180  1  0.64336227  0.58071623  0.65734400  1.0
  Zn  Zn4181  1  0.64336227  0.91404957  0.65734400  1.0
  Zn  Zn4182  1  0.97669560  0.24738290  0.65734400  1.0
  Zn  Zn4183  1  0.97669560  0.58071623  0.65734400  1.0
  Zn  Zn4184  1  0.97669560  0.91404957  0.65734400  1.0
  Zn  Zn4185  1  0.17669560  0.21404957  0.65734400  1.0
  Zn  Zn4186  1  0.17669560  0.54738290  0.65734400  1.0
  Zn  Zn4187  1  0.17669560  0.88071623  0.65734400  1.0
  Zn  Zn4188  1  0.51002893  0.21404957  0.65734400  1.0
  Zn  Zn4189  1  0.51002893  0.54738290  0.65734400  1.0
  Zn  Zn4190  1  0.51002893  0.88071623  0.65734400  1.0
  Zn  Zn4191  1  0.84336227  0.21404957  0.65734400  1.0
  Zn  Zn4192  1  0.84336227  0.54738290  0.65734400  1.0
  Zn  Zn4193  1  0.84336227  0.88071623  0.65734400  1.0
  Zn  Zn4194  1  0.25084180  0.20169187  0.65734400  1.0
  Zn  Zn4195  1  0.25084180  0.53502520  0.65734400  1.0
  Zn  Zn4196  1  0.25084180  0.86835853  0.65734400  1.0
  Zn  Zn4197  1  0.58417513  0.20169187  0.65734400  1.0
  Zn  Zn4198  1  0.58417513  0.53502520  0.65734400  1.0
  Zn  Zn4199  1  0.58417513  0.86835853  0.65734400  1.0
  Zn  Zn4200  1  0.91750847  0.20169187  0.65734400  1.0
  Zn  Zn4201  1  0.91750847  0.53502520  0.65734400  1.0
  Zn  Zn4202  1  0.91750847  0.86835853  0.65734400  1.0
  Zn  Zn4203  1  0.05084180  0.23502520  0.65734400  1.0
  Zn  Zn4204  1  0.05084180  0.56835853  0.65734400  1.0
  Zn  Zn4205  1  0.05084180  0.90169187  0.65734400  1.0
  Zn  Zn4206  1  0.38417513  0.23502520  0.65734400  1.0
  Zn  Zn4207  1  0.38417513  0.56835853  0.65734400  1.0
  Zn  Zn4208  1  0.38417513  0.90169187  0.65734400  1.0
  Zn  Zn4209  1  0.71750847  0.23502520  0.65734400  1.0
  Zn  Zn4210  1  0.71750847  0.56835853  0.65734400  1.0
  Zn  Zn4211  1  0.71750847  0.90169187  0.65734400  1.0
  Zn  Zn4212  1  0.19340073  0.21627543  0.42360400  1.0
  Zn  Zn4213  1  0.19340073  0.54960877  0.42360400  1.0
  Zn  Zn4214  1  0.19340073  0.88294210  0.42360400  1.0
  Zn  Zn4215  1  0.52673407  0.21627543  0.42360400  1.0
  Zn  Zn4216  1  0.52673407  0.54960877  0.42360400  1.0
  Zn  Zn4217  1  0.52673407  0.88294210  0.42360400  1.0
  Zn  Zn4218  1  0.86006740  0.21627543  0.42360400  1.0
  Zn  Zn4219  1  0.86006740  0.54960877  0.42360400  1.0
  Zn  Zn4220  1  0.86006740  0.88294210  0.42360400  1.0
  Zn  Zn4221  1  0.32673407  0.24960877  0.42360400  1.0
  Zn  Zn4222  1  0.32673407  0.58294210  0.42360400  1.0
  Zn  Zn4223  1  0.32673407  0.91627543  0.42360400  1.0
  Zn  Zn4224  1  0.66006740  0.24960877  0.42360400  1.0
  Zn  Zn4225  1  0.66006740  0.58294210  0.42360400  1.0
  Zn  Zn4226  1  0.66006740  0.91627543  0.42360400  1.0
  Zn  Zn4227  1  0.99340073  0.24960877  0.42360400  1.0
  Zn  Zn4228  1  0.99340073  0.58294210  0.42360400  1.0
  Zn  Zn4229  1  0.99340073  0.91627543  0.42360400  1.0
  Zn  Zn4230  1  0.28142880  0.23330220  0.11369600  1.0
  Zn  Zn4231  1  0.28142880  0.56663553  0.11369600  1.0
  Zn  Zn4232  1  0.28142880  0.89996887  0.11369600  1.0
  Zn  Zn4233  1  0.61476213  0.23330220  0.11369600  1.0
  Zn  Zn4234  1  0.61476213  0.56663553  0.11369600  1.0
  Zn  Zn4235  1  0.61476213  0.89996887  0.11369600  1.0
  Zn  Zn4236  1  0.94809547  0.23330220  0.11369600  1.0
  Zn  Zn4237  1  0.94809547  0.56663553  0.11369600  1.0
  Zn  Zn4238  1  0.94809547  0.89996887  0.11369600  1.0
  Zn  Zn4239  1  0.08142880  0.26663553  0.11369600  1.0
  Zn  Zn4240  1  0.08142880  0.59996887  0.11369600  1.0
  Zn  Zn4241  1  0.08142880  0.93330220  0.11369600  1.0
  Zn  Zn4242  1  0.41476213  0.26663553  0.11369600  1.0
  Zn  Zn4243  1  0.41476213  0.59996887  0.11369600  1.0
  Zn  Zn4244  1  0.41476213  0.93330220  0.11369600  1.0
  Zn  Zn4245  1  0.74809547  0.26663553  0.11369600  1.0
  Zn  Zn4246  1  0.74809547  0.59996887  0.11369600  1.0
  Zn  Zn4247  1  0.74809547  0.93330220  0.11369600  1.0
  Zn  Zn4248  1  0.04994593  0.21343940  0.79181600  1.0
  Zn  Zn4249  1  0.04994593  0.54677273  0.79181600  1.0
  Zn  Zn4250  1  0.04994593  0.88010607  0.79181600  1.0
  Zn  Zn4251  1  0.38327927  0.21343940  0.79181600  1.0
  Zn  Zn4252  1  0.38327927  0.54677273  0.79181600  1.0
  Zn  Zn4253  1  0.38327927  0.88010607  0.79181600  1.0
  Zn  Zn4254  1  0.71661260  0.21343940  0.79181600  1.0
  Zn  Zn4255  1  0.71661260  0.54677273  0.79181600  1.0
  Zn  Zn4256  1  0.71661260  0.88010607  0.79181600  1.0
  Zn  Zn4257  1  0.18327927  0.24677273  0.79181600  1.0
  Zn  Zn4258  1  0.18327927  0.58010607  0.79181600  1.0
  Zn  Zn4259  1  0.18327927  0.91343940  0.79181600  1.0
  Zn  Zn4260  1  0.51661260  0.24677273  0.79181600  1.0
  Zn  Zn4261  1  0.51661260  0.58010607  0.79181600  1.0
  Zn  Zn4262  1  0.51661260  0.91343940  0.79181600  1.0
  Zn  Zn4263  1  0.84994593  0.24677273  0.79181600  1.0
  Zn  Zn4264  1  0.84994593  0.58010607  0.79181600  1.0
  Zn  Zn4265  1  0.84994593  0.91343940  0.79181600  1.0
  Zn  Zn4266  1  0.20834293  0.25771923  0.30942100  1.0
  Zn  Zn4267  1  0.20834293  0.59105257  0.30942100  1.0
  Zn  Zn4268  1  0.20834293  0.92438590  0.30942100  1.0
  Zn  Zn4269  1  0.54167627  0.25771923  0.30942100  1.0
  Zn  Zn4270  1  0.54167627  0.59105257  0.30942100  1.0
  Zn  Zn4271  1  0.54167627  0.92438590  0.30942100  1.0
  Zn  Zn4272  1  0.87500960  0.25771923  0.30942100  1.0
  Zn  Zn4273  1  0.87500960  0.59105257  0.30942100  1.0
  Zn  Zn4274  1  0.87500960  0.92438590  0.30942100  1.0
  Zn  Zn4275  1  0.07500960  0.22438590  0.30942100  1.0
  Zn  Zn4276  1  0.07500960  0.55771923  0.30942100  1.0
  Zn  Zn4277  1  0.07500960  0.89105257  0.30942100  1.0
  Zn  Zn4278  1  0.40834293  0.22438590  0.30942100  1.0
  Zn  Zn4279  1  0.40834293  0.55771923  0.30942100  1.0
  Zn  Zn4280  1  0.40834293  0.89105257  0.30942100  1.0
  Zn  Zn4281  1  0.74167627  0.22438590  0.30942100  1.0
  Zn  Zn4282  1  0.74167627  0.55771923  0.30942100  1.0
  Zn  Zn4283  1  0.74167627  0.89105257  0.30942100  1.0
  Zn  Zn4284  1  0.22417627  0.23872357  0.20818400  1.0
  Zn  Zn4285  1  0.22417627  0.57205690  0.20818400  1.0
  Zn  Zn4286  1  0.22417627  0.90539023  0.20818400  1.0
  Zn  Zn4287  1  0.55750960  0.23872357  0.20818400  1.0
  Zn  Zn4288  1  0.55750960  0.57205690  0.20818400  1.0
  Zn  Zn4289  1  0.55750960  0.90539023  0.20818400  1.0
  Zn  Zn4290  1  0.89084293  0.23872357  0.20818400  1.0
  Zn  Zn4291  1  0.89084293  0.57205690  0.20818400  1.0
  Zn  Zn4292  1  0.89084293  0.90539023  0.20818400  1.0
  Zn  Zn4293  1  0.09084293  0.20539023  0.20818400  1.0
  Zn  Zn4294  1  0.09084293  0.53872357  0.20818400  1.0
  Zn  Zn4295  1  0.09084293  0.87205690  0.20818400  1.0
  Zn  Zn4296  1  0.42417627  0.20539023  0.20818400  1.0
  Zn  Zn4297  1  0.42417627  0.53872357  0.20818400  1.0
  Zn  Zn4298  1  0.42417627  0.87205690  0.20818400  1.0
  Zn  Zn4299  1  0.75750960  0.20539023  0.20818400  1.0
  Zn  Zn4300  1  0.75750960  0.53872357  0.20818400  1.0
  Zn  Zn4301  1  0.75750960  0.87205690  0.20818400  1.0
  Zn  Zn4302  1  0.26743653  0.20982780  0.77715800  1.0
  Zn  Zn4303  1  0.26743653  0.54316113  0.77715800  1.0
  Zn  Zn4304  1  0.26743653  0.87649447  0.77715800  1.0
  Zn  Zn4305  1  0.60076987  0.20982780  0.77715800  1.0
  Zn  Zn4306  1  0.60076987  0.54316113  0.77715800  1.0
  Zn  Zn4307  1  0.60076987  0.87649447  0.77715800  1.0
  Zn  Zn4308  1  0.93410320  0.20982780  0.77715800  1.0
  Zn  Zn4309  1  0.93410320  0.54316113  0.77715800  1.0
  Zn  Zn4310  1  0.93410320  0.87649447  0.77715800  1.0
  Zn  Zn4311  1  0.06743653  0.24316113  0.77715800  1.0
  Zn  Zn4312  1  0.06743653  0.57649447  0.77715800  1.0
  Zn  Zn4313  1  0.06743653  0.90982780  0.77715800  1.0
  Zn  Zn4314  1  0.40076987  0.24316113  0.77715800  1.0
  Zn  Zn4315  1  0.40076987  0.57649447  0.77715800  1.0
  Zn  Zn4316  1  0.40076987  0.90982780  0.77715800  1.0
  Zn  Zn4317  1  0.73410320  0.24316113  0.77715800  1.0
  Zn  Zn4318  1  0.73410320  0.57649447  0.77715800  1.0
  Zn  Zn4319  1  0.73410320  0.90982780  0.77715800  1.0
  Zn  Zn4320  1  0.05980313  0.25914503  0.96400800  1.0
  Zn  Zn4321  1  0.05980313  0.59247837  0.96400800  1.0
  Zn  Zn4322  1  0.05980313  0.92581170  0.96400800  1.0
  Zn  Zn4323  1  0.39313647  0.25914503  0.96400800  1.0
  Zn  Zn4324  1  0.39313647  0.59247837  0.96400800  1.0
  Zn  Zn4325  1  0.39313647  0.92581170  0.96400800  1.0
  Zn  Zn4326  1  0.72646980  0.25914503  0.96400800  1.0
  Zn  Zn4327  1  0.72646980  0.59247837  0.96400800  1.0
  Zn  Zn4328  1  0.72646980  0.92581170  0.96400800  1.0
  Zn  Zn4329  1  0.25980313  0.22581170  0.96400800  1.0
  Zn  Zn4330  1  0.25980313  0.55914503  0.96400800  1.0
  Zn  Zn4331  1  0.25980313  0.89247837  0.96400800  1.0
  Zn  Zn4332  1  0.59313647  0.22581170  0.96400800  1.0
  Zn  Zn4333  1  0.59313647  0.55914503  0.96400800  1.0
  Zn  Zn4334  1  0.59313647  0.89247837  0.96400800  1.0
  Zn  Zn4335  1  0.92646980  0.22581170  0.96400800  1.0
  Zn  Zn4336  1  0.92646980  0.55914503  0.96400800  1.0
  Zn  Zn4337  1  0.92646980  0.89247837  0.96400800  1.0
  Zn  Zn4338  1  0.28990360  0.20306573  0.72284200  1.0
  Zn  Zn4339  1  0.28990360  0.53639907  0.72284200  1.0
  Zn  Zn4340  1  0.28990360  0.86973240  0.72284200  1.0
  Zn  Zn4341  1  0.62323693  0.20306573  0.72284200  1.0
  Zn  Zn4342  1  0.62323693  0.53639907  0.72284200  1.0
  Zn  Zn4343  1  0.62323693  0.86973240  0.72284200  1.0
  Zn  Zn4344  1  0.95657027  0.20306573  0.72284200  1.0
  Zn  Zn4345  1  0.95657027  0.53639907  0.72284200  1.0
  Zn  Zn4346  1  0.95657027  0.86973240  0.72284200  1.0
  Zn  Zn4347  1  0.08990360  0.23639907  0.72284200  1.0
  Zn  Zn4348  1  0.08990360  0.56973240  0.72284200  1.0
  Zn  Zn4349  1  0.08990360  0.90306573  0.72284200  1.0
  Zn  Zn4350  1  0.42323693  0.23639907  0.72284200  1.0
  Zn  Zn4351  1  0.42323693  0.56973240  0.72284200  1.0
  Zn  Zn4352  1  0.42323693  0.90306573  0.72284200  1.0
  Zn  Zn4353  1  0.75657027  0.23639907  0.72284200  1.0
  Zn  Zn4354  1  0.75657027  0.56973240  0.72284200  1.0
  Zn  Zn4355  1  0.75657027  0.90306573  0.72284200  1.0
  Zn  Zn4356  1  0.30445700  0.22992550  0.59173700  1.0
  Zn  Zn4357  1  0.30445700  0.56325883  0.59173700  1.0
  Zn  Zn4358  1  0.30445700  0.89659217  0.59173700  1.0
  Zn  Zn4359  1  0.63779033  0.22992550  0.59173700  1.0
  Zn  Zn4360  1  0.63779033  0.56325883  0.59173700  1.0
  Zn  Zn4361  1  0.63779033  0.89659217  0.59173700  1.0
  Zn  Zn4362  1  0.97112367  0.22992550  0.59173700  1.0
  Zn  Zn4363  1  0.97112367  0.56325883  0.59173700  1.0
  Zn  Zn4364  1  0.97112367  0.89659217  0.59173700  1.0
  Zn  Zn4365  1  0.10445700  0.26325883  0.59173700  1.0
  Zn  Zn4366  1  0.10445700  0.59659217  0.59173700  1.0
  Zn  Zn4367  1  0.10445700  0.92992550  0.59173700  1.0
  Zn  Zn4368  1  0.43779033  0.26325883  0.59173700  1.0
  Zn  Zn4369  1  0.43779033  0.59659217  0.59173700  1.0
  Zn  Zn4370  1  0.43779033  0.92992550  0.59173700  1.0
  Zn  Zn4371  1  0.77112367  0.26325883  0.59173700  1.0
  Zn  Zn4372  1  0.77112367  0.59659217  0.59173700  1.0
  Zn  Zn4373  1  0.77112367  0.92992550  0.59173700  1.0
  Zn  Zn4374  1  0.18523107  0.24901960  0.15361200  1.0
  Zn  Zn4375  1  0.18523107  0.58235293  0.15361200  1.0
  Zn  Zn4376  1  0.18523107  0.91568627  0.15361200  1.0
  Zn  Zn4377  1  0.51856440  0.24901960  0.15361200  1.0
  Zn  Zn4378  1  0.51856440  0.58235293  0.15361200  1.0
  Zn  Zn4379  1  0.51856440  0.91568627  0.15361200  1.0
  Zn  Zn4380  1  0.85189773  0.24901960  0.15361200  1.0
  Zn  Zn4381  1  0.85189773  0.58235293  0.15361200  1.0
  Zn  Zn4382  1  0.85189773  0.91568627  0.15361200  1.0
  Zn  Zn4383  1  0.05189773  0.21568627  0.15361200  1.0
  Zn  Zn4384  1  0.05189773  0.54901960  0.15361200  1.0
  Zn  Zn4385  1  0.05189773  0.88235293  0.15361200  1.0
  Zn  Zn4386  1  0.38523107  0.21568627  0.15361200  1.0
  Zn  Zn4387  1  0.38523107  0.54901960  0.15361200  1.0
  Zn  Zn4388  1  0.38523107  0.88235293  0.15361200  1.0
  Zn  Zn4389  1  0.71856440  0.21568627  0.15361200  1.0
  Zn  Zn4390  1  0.71856440  0.54901960  0.15361200  1.0
  Zn  Zn4391  1  0.71856440  0.88235293  0.15361200  1.0
  Zn  Zn4392  1  0.27212833  0.22731833  0.70818400  1.0
  Zn  Zn4393  1  0.27212833  0.56065167  0.70818400  1.0
  Zn  Zn4394  1  0.27212833  0.89398500  0.70818400  1.0
  Zn  Zn4395  1  0.60546167  0.22731833  0.70818400  1.0
  Zn  Zn4396  1  0.60546167  0.56065167  0.70818400  1.0
  Zn  Zn4397  1  0.60546167  0.89398500  0.70818400  1.0
  Zn  Zn4398  1  0.93879500  0.22731833  0.70818400  1.0
  Zn  Zn4399  1  0.93879500  0.56065167  0.70818400  1.0
  Zn  Zn4400  1  0.93879500  0.89398500  0.70818400  1.0
  Zn  Zn4401  1  0.07212833  0.26065167  0.70818400  1.0
  Zn  Zn4402  1  0.07212833  0.59398500  0.70818400  1.0
  Zn  Zn4403  1  0.07212833  0.92731833  0.70818400  1.0
  Zn  Zn4404  1  0.40546167  0.26065167  0.70818400  1.0
  Zn  Zn4405  1  0.40546167  0.59398500  0.70818400  1.0
  Zn  Zn4406  1  0.40546167  0.92731833  0.70818400  1.0
  Zn  Zn4407  1  0.73879500  0.26065167  0.70818400  1.0
  Zn  Zn4408  1  0.73879500  0.59398500  0.70818400  1.0
  Zn  Zn4409  1  0.73879500  0.92731833  0.70818400  1.0
  Zn  Zn4410  1  0.02122907  0.22157460  0.59173700  1.0
  Zn  Zn4411  1  0.02122907  0.55490793  0.59173700  1.0
  Zn  Zn4412  1  0.02122907  0.88824127  0.59173700  1.0
  Zn  Zn4413  1  0.35456240  0.22157460  0.59173700  1.0
  Zn  Zn4414  1  0.35456240  0.55490793  0.59173700  1.0
  Zn  Zn4415  1  0.35456240  0.88824127  0.59173700  1.0
  Zn  Zn4416  1  0.68789573  0.22157460  0.59173700  1.0
  Zn  Zn4417  1  0.68789573  0.55490793  0.59173700  1.0
  Zn  Zn4418  1  0.68789573  0.88824127  0.59173700  1.0
  Zn  Zn4419  1  0.15456240  0.25490793  0.59173700  1.0
  Zn  Zn4420  1  0.15456240  0.58824127  0.59173700  1.0
  Zn  Zn4421  1  0.15456240  0.92157460  0.59173700  1.0
  Zn  Zn4422  1  0.48789573  0.25490793  0.59173700  1.0
  Zn  Zn4423  1  0.48789573  0.58824127  0.59173700  1.0
  Zn  Zn4424  1  0.48789573  0.92157460  0.59173700  1.0
  Zn  Zn4425  1  0.82122907  0.25490793  0.59173700  1.0
  Zn  Zn4426  1  0.82122907  0.58824127  0.59173700  1.0
  Zn  Zn4427  1  0.82122907  0.92157460  0.59173700  1.0
  Zn  Zn4428  1  0.29358353  0.23136897  0.46815000  1.0
  Zn  Zn4429  1  0.29358353  0.56470230  0.46815000  1.0
  Zn  Zn4430  1  0.29358353  0.89803563  0.46815000  1.0
  Zn  Zn4431  1  0.62691687  0.23136897  0.46815000  1.0
  Zn  Zn4432  1  0.62691687  0.56470230  0.46815000  1.0
  Zn  Zn4433  1  0.62691687  0.89803563  0.46815000  1.0
  Zn  Zn4434  1  0.96025020  0.23136897  0.46815000  1.0
  Zn  Zn4435  1  0.96025020  0.56470230  0.46815000  1.0
  Zn  Zn4436  1  0.96025020  0.89803563  0.46815000  1.0
  Zn  Zn4437  1  0.09358353  0.26470230  0.46815000  1.0
  Zn  Zn4438  1  0.09358353  0.59803563  0.46815000  1.0
  Zn  Zn4439  1  0.09358353  0.93136897  0.46815000  1.0
  Zn  Zn4440  1  0.42691687  0.26470230  0.46815000  1.0
  Zn  Zn4441  1  0.42691687  0.59803563  0.46815000  1.0
  Zn  Zn4442  1  0.42691687  0.93136897  0.46815000  1.0
  Zn  Zn4443  1  0.76025020  0.26470230  0.46815000  1.0
  Zn  Zn4444  1  0.76025020  0.59803563  0.46815000  1.0
  Zn  Zn4445  1  0.76025020  0.93136897  0.46815000  1.0
  Zn  Zn4446  1  0.27902453  0.24150530  0.39844700  1.0
  Zn  Zn4447  1  0.27902453  0.57483863  0.39844700  1.0
  Zn  Zn4448  1  0.27902453  0.90817197  0.39844700  1.0
  Zn  Zn4449  1  0.61235787  0.24150530  0.39844700  1.0
  Zn  Zn4450  1  0.61235787  0.57483863  0.39844700  1.0
  Zn  Zn4451  1  0.61235787  0.90817197  0.39844700  1.0
  Zn  Zn4452  1  0.94569120  0.24150530  0.39844700  1.0
  Zn  Zn4453  1  0.94569120  0.57483863  0.39844700  1.0
  Zn  Zn4454  1  0.94569120  0.90817197  0.39844700  1.0
  Zn  Zn4455  1  0.14569120  0.20817197  0.39844700  1.0
  Zn  Zn4456  1  0.14569120  0.54150530  0.39844700  1.0
  Zn  Zn4457  1  0.14569120  0.87483863  0.39844700  1.0
  Zn  Zn4458  1  0.47902453  0.20817197  0.39844700  1.0
  Zn  Zn4459  1  0.47902453  0.54150530  0.39844700  1.0
  Zn  Zn4460  1  0.47902453  0.87483863  0.39844700  1.0
  Zn  Zn4461  1  0.81235787  0.20817197  0.39844700  1.0
  Zn  Zn4462  1  0.81235787  0.54150530  0.39844700  1.0
  Zn  Zn4463  1  0.81235787  0.87483863  0.39844700  1.0
  Zn  Zn4464  1  0.10229733  0.21606700  0.97656300  1.0
  Zn  Zn4465  1  0.10229733  0.54940033  0.97656300  1.0
  Zn  Zn4466  1  0.10229733  0.88273367  0.97656300  1.0
  Zn  Zn4467  1  0.43563067  0.21606700  0.97656300  1.0
  Zn  Zn4468  1  0.43563067  0.54940033  0.97656300  1.0
  Zn  Zn4469  1  0.43563067  0.88273367  0.97656300  1.0
  Zn  Zn4470  1  0.76896400  0.21606700  0.97656300  1.0
  Zn  Zn4471  1  0.76896400  0.54940033  0.97656300  1.0
  Zn  Zn4472  1  0.76896400  0.88273367  0.97656300  1.0
  Zn  Zn4473  1  0.23563067  0.24940033  0.97656300  1.0
  Zn  Zn4474  1  0.23563067  0.58273367  0.97656300  1.0
  Zn  Zn4475  1  0.23563067  0.91606700  0.97656300  1.0
  Zn  Zn4476  1  0.56896400  0.24940033  0.97656300  1.0
  Zn  Zn4477  1  0.56896400  0.58273367  0.97656300  1.0
  Zn  Zn4478  1  0.56896400  0.91606700  0.97656300  1.0
  Zn  Zn4479  1  0.90229733  0.24940033  0.97656300  1.0
  Zn  Zn4480  1  0.90229733  0.58273367  0.97656300  1.0
  Zn  Zn4481  1  0.90229733  0.91606700  0.97656300  1.0
  Zn  Zn4482  1  0.05243387  0.20110163  0.60155300  1.0
  Zn  Zn4483  1  0.05243387  0.53443497  0.60155300  1.0
  Zn  Zn4484  1  0.05243387  0.86776830  0.60155300  1.0
  Zn  Zn4485  1  0.38576720  0.20110163  0.60155300  1.0
  Zn  Zn4486  1  0.38576720  0.53443497  0.60155300  1.0
  Zn  Zn4487  1  0.38576720  0.86776830  0.60155300  1.0
  Zn  Zn4488  1  0.71910053  0.20110163  0.60155300  1.0
  Zn  Zn4489  1  0.71910053  0.53443497  0.60155300  1.0
  Zn  Zn4490  1  0.71910053  0.86776830  0.60155300  1.0
  Zn  Zn4491  1  0.18576720  0.23443497  0.60155300  1.0
  Zn  Zn4492  1  0.18576720  0.56776830  0.60155300  1.0
  Zn  Zn4493  1  0.18576720  0.90110163  0.60155300  1.0
  Zn  Zn4494  1  0.51910053  0.23443497  0.60155300  1.0
  Zn  Zn4495  1  0.51910053  0.56776830  0.60155300  1.0
  Zn  Zn4496  1  0.51910053  0.90110163  0.60155300  1.0
  Zn  Zn4497  1  0.85243387  0.23443497  0.60155300  1.0
  Zn  Zn4498  1  0.85243387  0.56776830  0.60155300  1.0
  Zn  Zn4499  1  0.85243387  0.90110163  0.60155300  1.0
  Zn  Zn4500  1  0.06314133  0.21581117  0.89844700  1.0
  Zn  Zn4501  1  0.06314133  0.54914450  0.89844700  1.0
  Zn  Zn4502  1  0.06314133  0.88247783  0.89844700  1.0
  Zn  Zn4503  1  0.39647467  0.21581117  0.89844700  1.0
  Zn  Zn4504  1  0.39647467  0.54914450  0.89844700  1.0
  Zn  Zn4505  1  0.39647467  0.88247783  0.89844700  1.0
  Zn  Zn4506  1  0.72980800  0.21581117  0.89844700  1.0
  Zn  Zn4507  1  0.72980800  0.54914450  0.89844700  1.0
  Zn  Zn4508  1  0.72980800  0.88247783  0.89844700  1.0
  Zn  Zn4509  1  0.19647467  0.24914450  0.89844700  1.0
  Zn  Zn4510  1  0.19647467  0.58247783  0.89844700  1.0
  Zn  Zn4511  1  0.19647467  0.91581117  0.89844700  1.0
  Zn  Zn4512  1  0.52980800  0.24914450  0.89844700  1.0
  Zn  Zn4513  1  0.52980800  0.58247783  0.89844700  1.0
  Zn  Zn4514  1  0.52980800  0.91581117  0.89844700  1.0
  Zn  Zn4515  1  0.86314133  0.24914450  0.89844700  1.0
  Zn  Zn4516  1  0.86314133  0.58247783  0.89844700  1.0
  Zn  Zn4517  1  0.86314133  0.91581117  0.89844700  1.0
  Zn  Zn4518  1  0.24232980  0.23271770  0.53185000  1.0
  Zn  Zn4519  1  0.24232980  0.56605103  0.53185000  1.0
  Zn  Zn4520  1  0.24232980  0.89938437  0.53185000  1.0
  Zn  Zn4521  1  0.57566313  0.23271770  0.53185000  1.0
  Zn  Zn4522  1  0.57566313  0.56605103  0.53185000  1.0
  Zn  Zn4523  1  0.57566313  0.89938437  0.53185000  1.0
  Zn  Zn4524  1  0.90899647  0.23271770  0.53185000  1.0
  Zn  Zn4525  1  0.90899647  0.56605103  0.53185000  1.0
  Zn  Zn4526  1  0.90899647  0.89938437  0.53185000  1.0
  Zn  Zn4527  1  0.04232980  0.26605103  0.53185000  1.0
  Zn  Zn4528  1  0.04232980  0.59938437  0.53185000  1.0
  Zn  Zn4529  1  0.04232980  0.93271770  0.53185000  1.0
  Zn  Zn4530  1  0.37566313  0.26605103  0.53185000  1.0
  Zn  Zn4531  1  0.37566313  0.59938437  0.53185000  1.0
  Zn  Zn4532  1  0.37566313  0.93271770  0.53185000  1.0
  Zn  Zn4533  1  0.70899647  0.26605103  0.53185000  1.0
  Zn  Zn4534  1  0.70899647  0.59938437  0.53185000  1.0
  Zn  Zn4535  1  0.70899647  0.93271770  0.53185000  1.0
  Zn  Zn4536  1  0.18043967  0.25470183  0.07639600  1.0
  Zn  Zn4537  1  0.18043967  0.58803517  0.07639600  1.0
  Zn  Zn4538  1  0.18043967  0.92136850  0.07639600  1.0
  Zn  Zn4539  1  0.51377300  0.25470183  0.07639600  1.0
  Zn  Zn4540  1  0.51377300  0.58803517  0.07639600  1.0
  Zn  Zn4541  1  0.51377300  0.92136850  0.07639600  1.0
  Zn  Zn4542  1  0.84710633  0.25470183  0.07639600  1.0
  Zn  Zn4543  1  0.84710633  0.58803517  0.07639600  1.0
  Zn  Zn4544  1  0.84710633  0.92136850  0.07639600  1.0
  Zn  Zn4545  1  0.04710633  0.22136850  0.07639600  1.0
  Zn  Zn4546  1  0.04710633  0.55470183  0.07639600  1.0
  Zn  Zn4547  1  0.04710633  0.88803517  0.07639600  1.0
  Zn  Zn4548  1  0.38043967  0.22136850  0.07639600  1.0
  Zn  Zn4549  1  0.38043967  0.55470183  0.07639600  1.0
  Zn  Zn4550  1  0.38043967  0.88803517  0.07639600  1.0
  Zn  Zn4551  1  0.71377300  0.22136850  0.07639600  1.0
  Zn  Zn4552  1  0.71377300  0.55470183  0.07639600  1.0
  Zn  Zn4553  1  0.71377300  0.88803517  0.07639600  1.0
  Zn  Zn4554  1  0.06725280  0.20590870  0.70818400  1.0
  Zn  Zn4555  1  0.06725280  0.53924203  0.70818400  1.0
  Zn  Zn4556  1  0.06725280  0.87257537  0.70818400  1.0
  Zn  Zn4557  1  0.40058613  0.20590870  0.70818400  1.0
  Zn  Zn4558  1  0.40058613  0.53924203  0.70818400  1.0
  Zn  Zn4559  1  0.40058613  0.87257537  0.70818400  1.0
  Zn  Zn4560  1  0.73391947  0.20590870  0.70818400  1.0
  Zn  Zn4561  1  0.73391947  0.53924203  0.70818400  1.0
  Zn  Zn4562  1  0.73391947  0.87257537  0.70818400  1.0
  Zn  Zn4563  1  0.20058613  0.23924203  0.70818400  1.0
  Zn  Zn4564  1  0.20058613  0.57257537  0.70818400  1.0
  Zn  Zn4565  1  0.20058613  0.90590870  0.70818400  1.0
  Zn  Zn4566  1  0.53391947  0.23924203  0.70818400  1.0
  Zn  Zn4567  1  0.53391947  0.57257537  0.70818400  1.0
  Zn  Zn4568  1  0.53391947  0.90590870  0.70818400  1.0
  Zn  Zn4569  1  0.86725280  0.23924203  0.70818400  1.0
  Zn  Zn4570  1  0.86725280  0.57257537  0.70818400  1.0
  Zn  Zn4571  1  0.86725280  0.90590870  0.70818400  1.0
  Zn  Zn4572  1  0.18637167  0.25884517  0.47656300  1.0
  Zn  Zn4573  1  0.18637167  0.59217850  0.47656300  1.0
  Zn  Zn4574  1  0.18637167  0.92551183  0.47656300  1.0
  Zn  Zn4575  1  0.51970500  0.25884517  0.47656300  1.0
  Zn  Zn4576  1  0.51970500  0.59217850  0.47656300  1.0
  Zn  Zn4577  1  0.51970500  0.92551183  0.47656300  1.0
  Zn  Zn4578  1  0.85303833  0.25884517  0.47656300  1.0
  Zn  Zn4579  1  0.85303833  0.59217850  0.47656300  1.0
  Zn  Zn4580  1  0.85303833  0.92551183  0.47656300  1.0
  Zn  Zn4581  1  0.05303833  0.22551183  0.47656300  1.0
  Zn  Zn4582  1  0.05303833  0.55884517  0.47656300  1.0
  Zn  Zn4583  1  0.05303833  0.89217850  0.47656300  1.0
  Zn  Zn4584  1  0.38637167  0.22551183  0.47656300  1.0
  Zn  Zn4585  1  0.38637167  0.55884517  0.47656300  1.0
  Zn  Zn4586  1  0.38637167  0.89217850  0.47656300  1.0
  Zn  Zn4587  1  0.71970500  0.22551183  0.47656300  1.0
  Zn  Zn4588  1  0.71970500  0.55884517  0.47656300  1.0
  Zn  Zn4589  1  0.71970500  0.89217850  0.47656300  1.0
  Zn  Zn4590  1  0.23145633  0.23416117  0.40826300  1.0
  Zn  Zn4591  1  0.23145633  0.56749450  0.40826300  1.0
  Zn  Zn4592  1  0.23145633  0.90082783  0.40826300  1.0
  Zn  Zn4593  1  0.56478967  0.23416117  0.40826300  1.0
  Zn  Zn4594  1  0.56478967  0.56749450  0.40826300  1.0
  Zn  Zn4595  1  0.56478967  0.90082783  0.40826300  1.0
  Zn  Zn4596  1  0.89812300  0.23416117  0.40826300  1.0
  Zn  Zn4597  1  0.89812300  0.56749450  0.40826300  1.0
  Zn  Zn4598  1  0.89812300  0.90082783  0.40826300  1.0
  Zn  Zn4599  1  0.09812300  0.20082783  0.40826300  1.0
  Zn  Zn4600  1  0.09812300  0.53416117  0.40826300  1.0
  Zn  Zn4601  1  0.09812300  0.86749450  0.40826300  1.0
  Zn  Zn4602  1  0.43145633  0.20082783  0.40826300  1.0
  Zn  Zn4603  1  0.43145633  0.53416117  0.40826300  1.0
  Zn  Zn4604  1  0.43145633  0.86749450  0.40826300  1.0
  Zn  Zn4605  1  0.76478967  0.20082783  0.40826300  1.0
  Zn  Zn4606  1  0.76478967  0.53416117  0.40826300  1.0
  Zn  Zn4607  1  0.76478967  0.86749450  0.40826300  1.0
  Zn  Zn4608  1  0.01173333  0.24399600  0.84598900  1.0
  Zn  Zn4609  1  0.01173333  0.57732933  0.84598900  1.0
  Zn  Zn4610  1  0.01173333  0.91066267  0.84598900  1.0
  Zn  Zn4611  1  0.34506667  0.24399600  0.84598900  1.0
  Zn  Zn4612  1  0.34506667  0.57732933  0.84598900  1.0
  Zn  Zn4613  1  0.34506667  0.91066267  0.84598900  1.0
  Zn  Zn4614  1  0.67840000  0.24399600  0.84598900  1.0
  Zn  Zn4615  1  0.67840000  0.57732933  0.84598900  1.0
  Zn  Zn4616  1  0.67840000  0.91066267  0.84598900  1.0
  Zn  Zn4617  1  0.21173333  0.21066267  0.84598900  1.0
  Zn  Zn4618  1  0.21173333  0.54399600  0.84598900  1.0
  Zn  Zn4619  1  0.21173333  0.87732933  0.84598900  1.0
  Zn  Zn4620  1  0.54506667  0.21066267  0.84598900  1.0
  Zn  Zn4621  1  0.54506667  0.54399600  0.84598900  1.0
  Zn  Zn4622  1  0.54506667  0.87732933  0.84598900  1.0
  Zn  Zn4623  1  0.87840000  0.21066267  0.84598900  1.0
  Zn  Zn4624  1  0.87840000  0.54399600  0.84598900  1.0
  Zn  Zn4625  1  0.87840000  0.87732933  0.84598900  1.0
  Zn  Zn4626  1  0.18135093  0.24251207  0.40826300  1.0
  Zn  Zn4627  1  0.18135093  0.57584540  0.40826300  1.0
  Zn  Zn4628  1  0.18135093  0.90917873  0.40826300  1.0
  Zn  Zn4629  1  0.51468427  0.24251207  0.40826300  1.0
  Zn  Zn4630  1  0.51468427  0.57584540  0.40826300  1.0
  Zn  Zn4631  1  0.51468427  0.90917873  0.40826300  1.0
  Zn  Zn4632  1  0.84801760  0.24251207  0.40826300  1.0
  Zn  Zn4633  1  0.84801760  0.57584540  0.40826300  1.0
  Zn  Zn4634  1  0.84801760  0.90917873  0.40826300  1.0
  Zn  Zn4635  1  0.04801760  0.20917873  0.40826300  1.0
  Zn  Zn4636  1  0.04801760  0.54251207  0.40826300  1.0
  Zn  Zn4637  1  0.04801760  0.87584540  0.40826300  1.0
  Zn  Zn4638  1  0.38135093  0.20917873  0.40826300  1.0
  Zn  Zn4639  1  0.38135093  0.54251207  0.40826300  1.0
  Zn  Zn4640  1  0.38135093  0.87584540  0.40826300  1.0
  Zn  Zn4641  1  0.71468427  0.20917873  0.40826300  1.0
  Zn  Zn4642  1  0.71468427  0.54251207  0.40826300  1.0
  Zn  Zn4643  1  0.71468427  0.87584540  0.40826300  1.0
  Zn  Zn4644  1  0.02047740  0.23837643  0.96815000  1.0
  Zn  Zn4645  1  0.02047740  0.57170977  0.96815000  1.0
  Zn  Zn4646  1  0.02047740  0.90504310  0.96815000  1.0
  Zn  Zn4647  1  0.35381073  0.23837643  0.96815000  1.0
  Zn  Zn4648  1  0.35381073  0.57170977  0.96815000  1.0
  Zn  Zn4649  1  0.35381073  0.90504310  0.96815000  1.0
  Zn  Zn4650  1  0.68714407  0.23837643  0.96815000  1.0
  Zn  Zn4651  1  0.68714407  0.57170977  0.96815000  1.0
  Zn  Zn4652  1  0.68714407  0.90504310  0.96815000  1.0
  Zn  Zn4653  1  0.22047740  0.20504310  0.96815000  1.0
  Zn  Zn4654  1  0.22047740  0.53837643  0.96815000  1.0
  Zn  Zn4655  1  0.22047740  0.87170977  0.96815000  1.0
  Zn  Zn4656  1  0.55381073  0.20504310  0.96815000  1.0
  Zn  Zn4657  1  0.55381073  0.53837643  0.96815000  1.0
  Zn  Zn4658  1  0.55381073  0.87170977  0.96815000  1.0
  Zn  Zn4659  1  0.88714407  0.20504310  0.96815000  1.0
  Zn  Zn4660  1  0.88714407  0.53837643  0.96815000  1.0
  Zn  Zn4661  1  0.88714407  0.87170977  0.96815000  1.0
  Zn  Zn4662  1  0.21777653  0.25905580  0.38630400  1.0
  Zn  Zn4663  1  0.21777653  0.59238913  0.38630400  1.0
  Zn  Zn4664  1  0.21777653  0.92572247  0.38630400  1.0
  Zn  Zn4665  1  0.55110987  0.25905580  0.38630400  1.0
  Zn  Zn4666  1  0.55110987  0.59238913  0.38630400  1.0
  Zn  Zn4667  1  0.55110987  0.92572247  0.38630400  1.0
  Zn  Zn4668  1  0.88444320  0.25905580  0.38630400  1.0
  Zn  Zn4669  1  0.88444320  0.59238913  0.38630400  1.0
  Zn  Zn4670  1  0.88444320  0.92572247  0.38630400  1.0
  Zn  Zn4671  1  0.08444320  0.22572247  0.38630400  1.0
  Zn  Zn4672  1  0.08444320  0.55905580  0.38630400  1.0
  Zn  Zn4673  1  0.08444320  0.89238913  0.38630400  1.0
  Zn  Zn4674  1  0.41777653  0.22572247  0.38630400  1.0
  Zn  Zn4675  1  0.41777653  0.55905580  0.38630400  1.0
  Zn  Zn4676  1  0.41777653  0.89238913  0.38630400  1.0
  Zn  Zn4677  1  0.75110987  0.22572247  0.38630400  1.0
  Zn  Zn4678  1  0.75110987  0.55905580  0.38630400  1.0
  Zn  Zn4679  1  0.75110987  0.89238913  0.38630400  1.0
  Zn  Zn4680  1  0.03462333  0.21537667  0.00000000  1.0
  Zn  Zn4681  1  0.03462333  0.54871000  0.00000000  1.0
  Zn  Zn4682  1  0.03462333  0.88204333  0.00000000  1.0
  Zn  Zn4683  1  0.36795667  0.21537667  0.00000000  1.0
  Zn  Zn4684  1  0.36795667  0.54871000  0.00000000  1.0
  Zn  Zn4685  1  0.36795667  0.88204333  0.00000000  1.0
  Zn  Zn4686  1  0.70129000  0.21537667  0.00000000  1.0
  Zn  Zn4687  1  0.70129000  0.54871000  0.00000000  1.0
  Zn  Zn4688  1  0.70129000  0.88204333  0.00000000  1.0
  Zn  Zn4689  1  0.16795667  0.24871000  0.00000000  1.0
  Zn  Zn4690  1  0.16795667  0.58204333  0.00000000  1.0
  Zn  Zn4691  1  0.16795667  0.91537667  0.00000000  1.0
  Zn  Zn4692  1  0.50129000  0.24871000  0.00000000  1.0
  Zn  Zn4693  1  0.50129000  0.58204333  0.00000000  1.0
  Zn  Zn4694  1  0.50129000  0.91537667  0.00000000  1.0
  Zn  Zn4695  1  0.83462333  0.24871000  0.00000000  1.0
  Zn  Zn4696  1  0.83462333  0.58204333  0.00000000  1.0
  Zn  Zn4697  1  0.83462333  0.91537667  0.00000000  1.0
  Zn  Zn4698  1  0.22921500  0.25064233  0.78028200  1.0
  Zn  Zn4699  1  0.22921500  0.58397567  0.78028200  1.0
  Zn  Zn4700  1  0.22921500  0.91730900  0.78028200  1.0
  Zn  Zn4701  1  0.56254833  0.25064233  0.78028200  1.0
  Zn  Zn4702  1  0.56254833  0.58397567  0.78028200  1.0
  Zn  Zn4703  1  0.56254833  0.91730900  0.78028200  1.0
  Zn  Zn4704  1  0.89588167  0.25064233  0.78028200  1.0
  Zn  Zn4705  1  0.89588167  0.58397567  0.78028200  1.0
  Zn  Zn4706  1  0.89588167  0.91730900  0.78028200  1.0
  Zn  Zn4707  1  0.09588167  0.21730900  0.78028200  1.0
  Zn  Zn4708  1  0.09588167  0.55064233  0.78028200  1.0
  Zn  Zn4709  1  0.09588167  0.88397567  0.78028200  1.0
  Zn  Zn4710  1  0.42921500  0.21730900  0.78028200  1.0
  Zn  Zn4711  1  0.42921500  0.55064233  0.78028200  1.0
  Zn  Zn4712  1  0.42921500  0.88397567  0.78028200  1.0
  Zn  Zn4713  1  0.76254833  0.21730900  0.78028200  1.0
  Zn  Zn4714  1  0.76254833  0.55064233  0.78028200  1.0
  Zn  Zn4715  1  0.76254833  0.88397567  0.78028200  1.0
  Zn  Zn4716  1  0.25858813  0.22146270  0.21971800  1.0
  Zn  Zn4717  1  0.25858813  0.55479603  0.21971800  1.0
  Zn  Zn4718  1  0.25858813  0.88812937  0.21971800  1.0
  Zn  Zn4719  1  0.59192147  0.22146270  0.21971800  1.0
  Zn  Zn4720  1  0.59192147  0.55479603  0.21971800  1.0
  Zn  Zn4721  1  0.59192147  0.88812937  0.21971800  1.0
  Zn  Zn4722  1  0.92525480  0.22146270  0.21971800  1.0
  Zn  Zn4723  1  0.92525480  0.55479603  0.21971800  1.0
  Zn  Zn4724  1  0.92525480  0.88812937  0.21971800  1.0
  Zn  Zn4725  1  0.05858813  0.25479603  0.21971800  1.0
  Zn  Zn4726  1  0.05858813  0.58812937  0.21971800  1.0
  Zn  Zn4727  1  0.05858813  0.92146270  0.21971800  1.0
  Zn  Zn4728  1  0.39192147  0.25479603  0.21971800  1.0
  Zn  Zn4729  1  0.39192147  0.58812937  0.21971800  1.0
  Zn  Zn4730  1  0.39192147  0.92146270  0.21971800  1.0
  Zn  Zn4731  1  0.72525480  0.25479603  0.21971800  1.0
  Zn  Zn4732  1  0.72525480  0.58812937  0.21971800  1.0
  Zn  Zn4733  1  0.72525480  0.92146270  0.21971800  1.0
  Zn  Zn4734  1  0.28584187  0.21381113  0.91421600  1.0
  Zn  Zn4735  1  0.28584187  0.54714447  0.91421600  1.0
  Zn  Zn4736  1  0.28584187  0.88047780  0.91421600  1.0
  Zn  Zn4737  1  0.61917520  0.21381113  0.91421600  1.0
  Zn  Zn4738  1  0.61917520  0.54714447  0.91421600  1.0
  Zn  Zn4739  1  0.61917520  0.88047780  0.91421600  1.0
  Zn  Zn4740  1  0.95250853  0.21381113  0.91421600  1.0
  Zn  Zn4741  1  0.95250853  0.54714447  0.91421600  1.0
  Zn  Zn4742  1  0.95250853  0.88047780  0.91421600  1.0
  Zn  Zn4743  1  0.08584187  0.24714447  0.91421600  1.0
  Zn  Zn4744  1  0.08584187  0.58047780  0.91421600  1.0
  Zn  Zn4745  1  0.08584187  0.91381113  0.91421600  1.0
  Zn  Zn4746  1  0.41917520  0.24714447  0.91421600  1.0
  Zn  Zn4747  1  0.41917520  0.58047780  0.91421600  1.0
  Zn  Zn4748  1  0.41917520  0.91381113  0.91421600  1.0
  Zn  Zn4749  1  0.75250853  0.24714447  0.91421600  1.0
  Zn  Zn4750  1  0.75250853  0.58047780  0.91421600  1.0
  Zn  Zn4751  1  0.75250853  0.91381113  0.91421600  1.0
  Zn  Zn4752  1  0.24666047  0.25714303  0.90826300  1.0
  Zn  Zn4753  1  0.24666047  0.59047637  0.90826300  1.0
  Zn  Zn4754  1  0.24666047  0.92380970  0.90826300  1.0
  Zn  Zn4755  1  0.57999380  0.25714303  0.90826300  1.0
  Zn  Zn4756  1  0.57999380  0.59047637  0.90826300  1.0
  Zn  Zn4757  1  0.57999380  0.92380970  0.90826300  1.0
  Zn  Zn4758  1  0.91332713  0.25714303  0.90826300  1.0
  Zn  Zn4759  1  0.91332713  0.59047637  0.90826300  1.0
  Zn  Zn4760  1  0.91332713  0.92380970  0.90826300  1.0
  Zn  Zn4761  1  0.11332713  0.22380970  0.90826300  1.0
  Zn  Zn4762  1  0.11332713  0.55714303  0.90826300  1.0
  Zn  Zn4763  1  0.11332713  0.89047637  0.90826300  1.0
  Zn  Zn4764  1  0.44666047  0.22380970  0.90826300  1.0
  Zn  Zn4765  1  0.44666047  0.55714303  0.90826300  1.0
  Zn  Zn4766  1  0.44666047  0.89047637  0.90826300  1.0
  Zn  Zn4767  1  0.77999380  0.22380970  0.90826300  1.0
  Zn  Zn4768  1  0.77999380  0.55714303  0.90826300  1.0
  Zn  Zn4769  1  0.77999380  0.89047637  0.90826300  1.0
  Zn  Zn4770  1  0.29352773  0.25801727  0.72284200  1.0
  Zn  Zn4771  1  0.29352773  0.59135060  0.72284200  1.0
  Zn  Zn4772  1  0.29352773  0.92468393  0.72284200  1.0
  Zn  Zn4773  1  0.62686107  0.25801727  0.72284200  1.0
  Zn  Zn4774  1  0.62686107  0.59135060  0.72284200  1.0
  Zn  Zn4775  1  0.62686107  0.92468393  0.72284200  1.0
  Zn  Zn4776  1  0.96019440  0.25801727  0.72284200  1.0
  Zn  Zn4777  1  0.96019440  0.59135060  0.72284200  1.0
  Zn  Zn4778  1  0.96019440  0.92468393  0.72284200  1.0
  Zn  Zn4779  1  0.16019440  0.22468393  0.72284200  1.0
  Zn  Zn4780  1  0.16019440  0.55801727  0.72284200  1.0
  Zn  Zn4781  1  0.16019440  0.89135060  0.72284200  1.0
  Zn  Zn4782  1  0.49352773  0.22468393  0.72284200  1.0
  Zn  Zn4783  1  0.49352773  0.55801727  0.72284200  1.0
  Zn  Zn4784  1  0.49352773  0.89135060  0.72284200  1.0
  Zn  Zn4785  1  0.82686107  0.22468393  0.72284200  1.0
  Zn  Zn4786  1  0.82686107  0.55801727  0.72284200  1.0
  Zn  Zn4787  1  0.82686107  0.89135060  0.72284200  1.0
  Zn  Zn4788  1  0.31813680  0.20503087  0.61369600  1.0
  Zn  Zn4789  1  0.31813680  0.53836420  0.61369600  1.0
  Zn  Zn4790  1  0.31813680  0.87169753  0.61369600  1.0
  Zn  Zn4791  1  0.65147013  0.20503087  0.61369600  1.0
  Zn  Zn4792  1  0.65147013  0.53836420  0.61369600  1.0
  Zn  Zn4793  1  0.65147013  0.87169753  0.61369600  1.0
  Zn  Zn4794  1  0.98480347  0.20503087  0.61369600  1.0
  Zn  Zn4795  1  0.98480347  0.53836420  0.61369600  1.0
  Zn  Zn4796  1  0.98480347  0.87169753  0.61369600  1.0
  Zn  Zn4797  1  0.11813680  0.23836420  0.61369600  1.0
  Zn  Zn4798  1  0.11813680  0.57169753  0.61369600  1.0
  Zn  Zn4799  1  0.11813680  0.90503087  0.61369600  1.0
  Zn  Zn4800  1  0.45147013  0.23836420  0.61369600  1.0
  Zn  Zn4801  1  0.45147013  0.57169753  0.61369600  1.0
  Zn  Zn4802  1  0.45147013  0.90503087  0.61369600  1.0
  Zn  Zn4803  1  0.78480347  0.23836420  0.61369600  1.0
  Zn  Zn4804  1  0.78480347  0.57169753  0.61369600  1.0
  Zn  Zn4805  1  0.78480347  0.90503087  0.61369600  1.0
  Zn  Zn4806  1  0.30140387  0.20355997  0.84265600  1.0
  Zn  Zn4807  1  0.30140387  0.53689330  0.84265600  1.0
  Zn  Zn4808  1  0.30140387  0.87022663  0.84265600  1.0
  Zn  Zn4809  1  0.63473720  0.20355997  0.84265600  1.0
  Zn  Zn4810  1  0.63473720  0.53689330  0.84265600  1.0
  Zn  Zn4811  1  0.63473720  0.87022663  0.84265600  1.0
  Zn  Zn4812  1  0.96807053  0.20355997  0.84265600  1.0
  Zn  Zn4813  1  0.96807053  0.53689330  0.84265600  1.0
  Zn  Zn4814  1  0.96807053  0.87022663  0.84265600  1.0
  Zn  Zn4815  1  0.10140387  0.23689330  0.84265600  1.0
  Zn  Zn4816  1  0.10140387  0.57022663  0.84265600  1.0
  Zn  Zn4817  1  0.10140387  0.90355997  0.84265600  1.0
  Zn  Zn4818  1  0.43473720  0.23689330  0.84265600  1.0
  Zn  Zn4819  1  0.43473720  0.57022663  0.84265600  1.0
  Zn  Zn4820  1  0.43473720  0.90355997  0.84265600  1.0
  Zn  Zn4821  1  0.76807053  0.23689330  0.84265600  1.0
  Zn  Zn4822  1  0.76807053  0.57022663  0.84265600  1.0
  Zn  Zn4823  1  0.76807053  0.90355997  0.84265600  1.0
  Zn  Zn4824  1  0.13541020  0.23349230  0.03185000  1.0
  Zn  Zn4825  1  0.13541020  0.56682563  0.03185000  1.0
  Zn  Zn4826  1  0.13541020  0.90015897  0.03185000  1.0
  Zn  Zn4827  1  0.46874353  0.23349230  0.03185000  1.0
  Zn  Zn4828  1  0.46874353  0.56682563  0.03185000  1.0
  Zn  Zn4829  1  0.46874353  0.90015897  0.03185000  1.0
  Zn  Zn4830  1  0.80207687  0.23349230  0.03185000  1.0
  Zn  Zn4831  1  0.80207687  0.56682563  0.03185000  1.0
  Zn  Zn4832  1  0.80207687  0.90015897  0.03185000  1.0
  Zn  Zn4833  1  0.00207687  0.20015897  0.03185000  1.0
  Zn  Zn4834  1  0.00207687  0.53349230  0.03185000  1.0
  Zn  Zn4835  1  0.00207687  0.86682563  0.03185000  1.0
  Zn  Zn4836  1  0.33541020  0.20015897  0.03185000  1.0
  Zn  Zn4837  1  0.33541020  0.53349230  0.03185000  1.0
  Zn  Zn4838  1  0.33541020  0.86682563  0.03185000  1.0
  Zn  Zn4839  1  0.66874353  0.20015897  0.03185000  1.0
  Zn  Zn4840  1  0.66874353  0.53349230  0.03185000  1.0
  Zn  Zn4841  1  0.66874353  0.86682563  0.03185000  1.0
  Zn  Zn4842  1  0.18796693  0.20507073  0.08578400  1.0
  Zn  Zn4843  1  0.18796693  0.53840407  0.08578400  1.0
  Zn  Zn4844  1  0.18796693  0.87173740  0.08578400  1.0
  Zn  Zn4845  1  0.52130027  0.20507073  0.08578400  1.0
  Zn  Zn4846  1  0.52130027  0.53840407  0.08578400  1.0
  Zn  Zn4847  1  0.52130027  0.87173740  0.08578400  1.0
  Zn  Zn4848  1  0.85463360  0.20507073  0.08578400  1.0
  Zn  Zn4849  1  0.85463360  0.53840407  0.08578400  1.0
  Zn  Zn4850  1  0.85463360  0.87173740  0.08578400  1.0
  Zn  Zn4851  1  0.32130027  0.23840407  0.08578400  1.0
  Zn  Zn4852  1  0.32130027  0.57173740  0.08578400  1.0
  Zn  Zn4853  1  0.32130027  0.90507073  0.08578400  1.0
  Zn  Zn4854  1  0.65463360  0.23840407  0.08578400  1.0
  Zn  Zn4855  1  0.65463360  0.57173740  0.08578400  1.0
  Zn  Zn4856  1  0.65463360  0.90507073  0.08578400  1.0
  Zn  Zn4857  1  0.98796693  0.23840407  0.08578400  1.0
  Zn  Zn4858  1  0.98796693  0.57173740  0.08578400  1.0
  Zn  Zn4859  1  0.98796693  0.90507073  0.08578400  1.0
  Zn  Zn4860  1  0.16666333  0.24014817  0.28028200  1.0
  Zn  Zn4861  1  0.16666333  0.57348150  0.28028200  1.0
  Zn  Zn4862  1  0.16666333  0.90681483  0.28028200  1.0
  Zn  Zn4863  1  0.49999667  0.24014817  0.28028200  1.0
  Zn  Zn4864  1  0.49999667  0.57348150  0.28028200  1.0
  Zn  Zn4865  1  0.49999667  0.90681483  0.28028200  1.0
  Zn  Zn4866  1  0.83333000  0.24014817  0.28028200  1.0
  Zn  Zn4867  1  0.83333000  0.57348150  0.28028200  1.0
  Zn  Zn4868  1  0.83333000  0.90681483  0.28028200  1.0
  Zn  Zn4869  1  0.03333000  0.20681483  0.28028200  1.0
  Zn  Zn4870  1  0.03333000  0.54014817  0.28028200  1.0
  Zn  Zn4871  1  0.03333000  0.87348150  0.28028200  1.0
  Zn  Zn4872  1  0.36666333  0.20681483  0.28028200  1.0
  Zn  Zn4873  1  0.36666333  0.54014817  0.28028200  1.0
  Zn  Zn4874  1  0.36666333  0.87348150  0.28028200  1.0
  Zn  Zn4875  1  0.69999667  0.20681483  0.28028200  1.0
  Zn  Zn4876  1  0.69999667  0.54014817  0.28028200  1.0
  Zn  Zn4877  1  0.69999667  0.87348150  0.28028200  1.0
  Zn  Zn4878  1  0.27538427  0.25286340  0.58578400  1.0
  Zn  Zn4879  1  0.27538427  0.58619673  0.58578400  1.0
  Zn  Zn4880  1  0.27538427  0.91953007  0.58578400  1.0
  Zn  Zn4881  1  0.60871760  0.25286340  0.58578400  1.0
  Zn  Zn4882  1  0.60871760  0.58619673  0.58578400  1.0
  Zn  Zn4883  1  0.60871760  0.91953007  0.58578400  1.0
  Zn  Zn4884  1  0.94205093  0.25286340  0.58578400  1.0
  Zn  Zn4885  1  0.94205093  0.58619673  0.58578400  1.0
  Zn  Zn4886  1  0.94205093  0.91953007  0.58578400  1.0
  Zn  Zn4887  1  0.14205093  0.21953007  0.58578400  1.0
  Zn  Zn4888  1  0.14205093  0.55286340  0.58578400  1.0
  Zn  Zn4889  1  0.14205093  0.88619673  0.58578400  1.0
  Zn  Zn4890  1  0.47538427  0.21953007  0.58578400  1.0
  Zn  Zn4891  1  0.47538427  0.55286340  0.58578400  1.0
  Zn  Zn4892  1  0.47538427  0.88619673  0.58578400  1.0
  Zn  Zn4893  1  0.80871760  0.21953007  0.58578400  1.0
  Zn  Zn4894  1  0.80871760  0.55286340  0.58578400  1.0
  Zn  Zn4895  1  0.80871760  0.88619673  0.58578400  1.0
  Zn  Zn4896  1  0.01620833  0.20524150  0.52343700  1.0
  Zn  Zn4897  1  0.01620833  0.53857483  0.52343700  1.0
  Zn  Zn4898  1  0.01620833  0.87190817  0.52343700  1.0
  Zn  Zn4899  1  0.34954167  0.20524150  0.52343700  1.0
  Zn  Zn4900  1  0.34954167  0.53857483  0.52343700  1.0
  Zn  Zn4901  1  0.34954167  0.87190817  0.52343700  1.0
  Zn  Zn4902  1  0.68287500  0.20524150  0.52343700  1.0
  Zn  Zn4903  1  0.68287500  0.53857483  0.52343700  1.0
  Zn  Zn4904  1  0.68287500  0.87190817  0.52343700  1.0
  Zn  Zn4905  1  0.14954167  0.23857483  0.52343700  1.0
  Zn  Zn4906  1  0.14954167  0.57190817  0.52343700  1.0
  Zn  Zn4907  1  0.14954167  0.90524150  0.52343700  1.0
  Zn  Zn4908  1  0.48287500  0.23857483  0.52343700  1.0
  Zn  Zn4909  1  0.48287500  0.57190817  0.52343700  1.0
  Zn  Zn4910  1  0.48287500  0.90524150  0.52343700  1.0
  Zn  Zn4911  1  0.81620833  0.23857483  0.52343700  1.0
  Zn  Zn4912  1  0.81620833  0.57190817  0.52343700  1.0
  Zn  Zn4913  1  0.81620833  0.90524150  0.52343700  1.0
  Zn  Zn4914  1  0.22595487  0.22707430  0.02343700  1.0
  Zn  Zn4915  1  0.22595487  0.56040763  0.02343700  1.0
  Zn  Zn4916  1  0.22595487  0.89374097  0.02343700  1.0
  Zn  Zn4917  1  0.55928820  0.22707430  0.02343700  1.0
  Zn  Zn4918  1  0.55928820  0.56040763  0.02343700  1.0
  Zn  Zn4919  1  0.55928820  0.89374097  0.02343700  1.0
  Zn  Zn4920  1  0.89262153  0.22707430  0.02343700  1.0
  Zn  Zn4921  1  0.89262153  0.56040763  0.02343700  1.0
  Zn  Zn4922  1  0.89262153  0.89374097  0.02343700  1.0
  Zn  Zn4923  1  0.02595487  0.26040763  0.02343700  1.0
  Zn  Zn4924  1  0.02595487  0.59374097  0.02343700  1.0
  Zn  Zn4925  1  0.02595487  0.92707430  0.02343700  1.0
  Zn  Zn4926  1  0.35928820  0.26040763  0.02343700  1.0
  Zn  Zn4927  1  0.35928820  0.59374097  0.02343700  1.0
  Zn  Zn4928  1  0.35928820  0.92707430  0.02343700  1.0
  Zn  Zn4929  1  0.69262153  0.26040763  0.02343700  1.0
  Zn  Zn4930  1  0.69262153  0.59374097  0.02343700  1.0
  Zn  Zn4931  1  0.69262153  0.92707430  0.02343700  1.0
  Zn  Zn4932  1  0.25688880  0.22258137  0.60155300  1.0
  Zn  Zn4933  1  0.25688880  0.55591470  0.60155300  1.0
  Zn  Zn4934  1  0.25688880  0.88924803  0.60155300  1.0
  Zn  Zn4935  1  0.59022213  0.22258137  0.60155300  1.0
  Zn  Zn4936  1  0.59022213  0.55591470  0.60155300  1.0
  Zn  Zn4937  1  0.59022213  0.88924803  0.60155300  1.0
  Zn  Zn4938  1  0.92355547  0.22258137  0.60155300  1.0
  Zn  Zn4939  1  0.92355547  0.55591470  0.60155300  1.0
  Zn  Zn4940  1  0.92355547  0.88924803  0.60155300  1.0
  Zn  Zn4941  1  0.05688880  0.25591470  0.60155300  1.0
  Zn  Zn4942  1  0.05688880  0.58924803  0.60155300  1.0
  Zn  Zn4943  1  0.05688880  0.92258137  0.60155300  1.0
  Zn  Zn4944  1  0.39022213  0.25591470  0.60155300  1.0
  Zn  Zn4945  1  0.39022213  0.58924803  0.60155300  1.0
  Zn  Zn4946  1  0.39022213  0.92258137  0.60155300  1.0
  Zn  Zn4947  1  0.72355547  0.25591470  0.60155300  1.0
  Zn  Zn4948  1  0.72355547  0.58924803  0.60155300  1.0
  Zn  Zn4949  1  0.72355547  0.92258137  0.60155300  1.0
  Zn  Zn4950  1  0.21946960  0.25426340  0.65401100  1.0
  Zn  Zn4951  1  0.21946960  0.58759673  0.65401100  1.0
  Zn  Zn4952  1  0.21946960  0.92093007  0.65401100  1.0
  Zn  Zn4953  1  0.55280293  0.25426340  0.65401100  1.0
  Zn  Zn4954  1  0.55280293  0.58759673  0.65401100  1.0
  Zn  Zn4955  1  0.55280293  0.92093007  0.65401100  1.0
  Zn  Zn4956  1  0.88613627  0.25426340  0.65401100  1.0
  Zn  Zn4957  1  0.88613627  0.58759673  0.65401100  1.0
  Zn  Zn4958  1  0.88613627  0.92093007  0.65401100  1.0
  Zn  Zn4959  1  0.08613627  0.22093007  0.65401100  1.0
  Zn  Zn4960  1  0.08613627  0.55426340  0.65401100  1.0
  Zn  Zn4961  1  0.08613627  0.88759673  0.65401100  1.0
  Zn  Zn4962  1  0.41946960  0.22093007  0.65401100  1.0
  Zn  Zn4963  1  0.41946960  0.55426340  0.65401100  1.0
  Zn  Zn4964  1  0.41946960  0.88759673  0.65401100  1.0
  Zn  Zn4965  1  0.75280293  0.22093007  0.65401100  1.0
  Zn  Zn4966  1  0.75280293  0.55426340  0.65401100  1.0
  Zn  Zn4967  1  0.75280293  0.88759673  0.65401100  1.0
