# generated using pymatgen
data_Zn53Ni16
_symmetry_space_group_name_H-M   'P 1'
_cell_length_a   99.98093400
_cell_length_b   57.91318028
_cell_length_c   38.39513985
_cell_angle_alpha   131.32090395
_cell_angle_beta   90.00000000
_cell_angle_gamma   90.00000000
_symmetry_Int_Tables_number   1
_chemical_formula_structural   Zn53Ni16
_chemical_formula_sum   'Zn3816 Ni1152'
_cell_volume   166964.54610724
_cell_formula_units_Z   72
loop_
 _symmetry_equiv_pos_site_id
 _symmetry_equiv_pos_as_xyz
  1  'x, y, z'
loop_
 _atom_site_type_symbol
 _atom_site_label
 _atom_site_symmetry_multiplicity
 _atom_site_fract_x
 _atom_site_fract_y
 _atom_site_fract_z
 _atom_site_occupancy
  Zn  Zn0  1  0.25905267  0.12249567  0.18343620  1.0
  Zn  Zn1  1  0.25905267  0.45582900  0.18343620  1.0
  Zn  Zn2  1  0.25905267  0.78916233  0.18343620  1.0
  Zn  Zn3  1  0.59238600  0.12249567  0.18343620  1.0
  Zn  Zn4  1  0.59238600  0.45582900  0.18343620  1.0
  Zn  Zn5  1  0.59238600  0.78916233  0.18343620  1.0
  Zn  Zn6  1  0.92571933  0.12249567  0.18343620  1.0
  Zn  Zn7  1  0.92571933  0.45582900  0.18343620  1.0
  Zn  Zn8  1  0.92571933  0.78916233  0.18343620  1.0
  Zn  Zn9  1  0.25905267  0.28916233  0.08343620  1.0
  Zn  Zn10  1  0.25905267  0.62249567  0.08343620  1.0
  Zn  Zn11  1  0.25905267  0.95582900  0.08343620  1.0
  Zn  Zn12  1  0.59238600  0.28916233  0.08343620  1.0
  Zn  Zn13  1  0.59238600  0.62249567  0.08343620  1.0
  Zn  Zn14  1  0.59238600  0.95582900  0.08343620  1.0
  Zn  Zn15  1  0.92571933  0.28916233  0.08343620  1.0
  Zn  Zn16  1  0.92571933  0.62249567  0.08343620  1.0
  Zn  Zn17  1  0.92571933  0.95582900  0.08343620  1.0
  Zn  Zn18  1  0.13281567  0.01339000  0.04563360  1.0
  Zn  Zn19  1  0.13281567  0.34672333  0.04563360  1.0
  Zn  Zn20  1  0.13281567  0.68005667  0.04563360  1.0
  Zn  Zn21  1  0.46614900  0.01339000  0.04563360  1.0
  Zn  Zn22  1  0.46614900  0.34672333  0.04563360  1.0
  Zn  Zn23  1  0.46614900  0.68005667  0.04563360  1.0
  Zn  Zn24  1  0.79948233  0.01339000  0.04563360  1.0
  Zn  Zn25  1  0.79948233  0.34672333  0.04563360  1.0
  Zn  Zn26  1  0.79948233  0.68005667  0.04563360  1.0
  Zn  Zn27  1  0.13281567  0.18005667  0.14563360  1.0
  Zn  Zn28  1  0.13281567  0.51339000  0.14563360  1.0
  Zn  Zn29  1  0.13281567  0.84672333  0.14563360  1.0
  Zn  Zn30  1  0.46614900  0.18005667  0.14563360  1.0
  Zn  Zn31  1  0.46614900  0.51339000  0.14563360  1.0
  Zn  Zn32  1  0.46614900  0.84672333  0.14563360  1.0
  Zn  Zn33  1  0.79948233  0.18005667  0.14563360  1.0
  Zn  Zn34  1  0.79948233  0.51339000  0.14563360  1.0
  Zn  Zn35  1  0.79948233  0.84672333  0.14563360  1.0
  Zn  Zn36  1  0.30786800  0.07759117  0.03231730  1.0
  Zn  Zn37  1  0.30786800  0.41092450  0.03231730  1.0
  Zn  Zn38  1  0.30786800  0.74425783  0.03231730  1.0
  Zn  Zn39  1  0.64120133  0.07759117  0.03231730  1.0
  Zn  Zn40  1  0.64120133  0.41092450  0.03231730  1.0
  Zn  Zn41  1  0.64120133  0.74425783  0.03231730  1.0
  Zn  Zn42  1  0.97453467  0.07759117  0.03231730  1.0
  Zn  Zn43  1  0.97453467  0.41092450  0.03231730  1.0
  Zn  Zn44  1  0.97453467  0.74425783  0.03231730  1.0
  Zn  Zn45  1  0.30786800  0.24425783  0.13231730  1.0
  Zn  Zn46  1  0.30786800  0.57759117  0.13231730  1.0
  Zn  Zn47  1  0.30786800  0.91092450  0.13231730  1.0
  Zn  Zn48  1  0.64120133  0.24425783  0.13231730  1.0
  Zn  Zn49  1  0.64120133  0.57759117  0.13231730  1.0
  Zn  Zn50  1  0.64120133  0.91092450  0.13231730  1.0
  Zn  Zn51  1  0.97453467  0.24425783  0.13231730  1.0
  Zn  Zn52  1  0.97453467  0.57759117  0.13231730  1.0
  Zn  Zn53  1  0.97453467  0.91092450  0.13231730  1.0
  Zn  Zn54  1  0.29543467  0.00421833  0.10024620  1.0
  Zn  Zn55  1  0.29543467  0.33755167  0.10024620  1.0
  Zn  Zn56  1  0.29543467  0.67088500  0.10024620  1.0
  Zn  Zn57  1  0.62876800  0.00421833  0.10024620  1.0
  Zn  Zn58  1  0.62876800  0.33755167  0.10024620  1.0
  Zn  Zn59  1  0.62876800  0.67088500  0.10024620  1.0
  Zn  Zn60  1  0.96210133  0.00421833  0.10024620  1.0
  Zn  Zn61  1  0.96210133  0.33755167  0.10024620  1.0
  Zn  Zn62  1  0.96210133  0.67088500  0.10024620  1.0
  Zn  Zn63  1  0.29543467  0.17088500  0.00024620  1.0
  Zn  Zn64  1  0.29543467  0.50421833  0.00024620  1.0
  Zn  Zn65  1  0.29543467  0.83755167  0.00024620  1.0
  Zn  Zn66  1  0.62876800  0.17088500  0.00024620  1.0
  Zn  Zn67  1  0.62876800  0.50421833  0.00024620  1.0
  Zn  Zn68  1  0.62876800  0.83755167  0.00024620  1.0
  Zn  Zn69  1  0.96210133  0.17088500  0.00024620  1.0
  Zn  Zn70  1  0.96210133  0.50421833  0.00024620  1.0
  Zn  Zn71  1  0.96210133  0.83755167  0.00024620  1.0
  Zn  Zn72  1  0.09727200  0.11858400  0.17764660  1.0
  Zn  Zn73  1  0.09727200  0.45191733  0.17764660  1.0
  Zn  Zn74  1  0.09727200  0.78525067  0.17764660  1.0
  Zn  Zn75  1  0.43060533  0.11858400  0.17764660  1.0
  Zn  Zn76  1  0.43060533  0.45191733  0.17764660  1.0
  Zn  Zn77  1  0.43060533  0.78525067  0.17764660  1.0
  Zn  Zn78  1  0.76393867  0.11858400  0.17764660  1.0
  Zn  Zn79  1  0.76393867  0.45191733  0.17764660  1.0
  Zn  Zn80  1  0.76393867  0.78525067  0.17764660  1.0
  Zn  Zn81  1  0.09727200  0.28525067  0.07764660  1.0
  Zn  Zn82  1  0.09727200  0.61858400  0.07764660  1.0
  Zn  Zn83  1  0.09727200  0.95191733  0.07764660  1.0
  Zn  Zn84  1  0.43060533  0.28525067  0.07764660  1.0
  Zn  Zn85  1  0.43060533  0.61858400  0.07764660  1.0
  Zn  Zn86  1  0.43060533  0.95191733  0.07764660  1.0
  Zn  Zn87  1  0.76393867  0.28525067  0.07764660  1.0
  Zn  Zn88  1  0.76393867  0.61858400  0.07764660  1.0
  Zn  Zn89  1  0.76393867  0.95191733  0.07764660  1.0
  Zn  Zn90  1  0.21787067  0.00801800  0.10708560  1.0
  Zn  Zn91  1  0.21787067  0.34135133  0.10708560  1.0
  Zn  Zn92  1  0.21787067  0.67468467  0.10708560  1.0
  Zn  Zn93  1  0.55120400  0.00801800  0.10708560  1.0
  Zn  Zn94  1  0.55120400  0.34135133  0.10708560  1.0
  Zn  Zn95  1  0.55120400  0.67468467  0.10708560  1.0
  Zn  Zn96  1  0.88453733  0.00801800  0.10708560  1.0
  Zn  Zn97  1  0.88453733  0.34135133  0.10708560  1.0
  Zn  Zn98  1  0.88453733  0.67468467  0.10708560  1.0
  Zn  Zn99  1  0.21787067  0.17468467  0.00708560  1.0
  Zn  Zn100  1  0.21787067  0.50801800  0.00708560  1.0
  Zn  Zn101  1  0.21787067  0.84135133  0.00708560  1.0
  Zn  Zn102  1  0.55120400  0.17468467  0.00708560  1.0
  Zn  Zn103  1  0.55120400  0.50801800  0.00708560  1.0
  Zn  Zn104  1  0.55120400  0.84135133  0.00708560  1.0
  Zn  Zn105  1  0.88453733  0.17468467  0.00708560  1.0
  Zn  Zn106  1  0.88453733  0.50801800  0.00708560  1.0
  Zn  Zn107  1  0.88453733  0.84135133  0.00708560  1.0
  Zn  Zn108  1  0.09061400  0.00656983  0.10447890  1.0
  Zn  Zn109  1  0.09061400  0.33990317  0.10447890  1.0
  Zn  Zn110  1  0.09061400  0.67323650  0.10447890  1.0
  Zn  Zn111  1  0.42394733  0.00656983  0.10447890  1.0
  Zn  Zn112  1  0.42394733  0.33990317  0.10447890  1.0
  Zn  Zn113  1  0.42394733  0.67323650  0.10447890  1.0
  Zn  Zn114  1  0.75728067  0.00656983  0.10447890  1.0
  Zn  Zn115  1  0.75728067  0.33990317  0.10447890  1.0
  Zn  Zn116  1  0.75728067  0.67323650  0.10447890  1.0
  Zn  Zn117  1  0.09061400  0.17323650  0.00447890  1.0
  Zn  Zn118  1  0.09061400  0.50656983  0.00447890  1.0
  Zn  Zn119  1  0.09061400  0.83990317  0.00447890  1.0
  Zn  Zn120  1  0.42394733  0.17323650  0.00447890  1.0
  Zn  Zn121  1  0.42394733  0.50656983  0.00447890  1.0
  Zn  Zn122  1  0.42394733  0.83990317  0.00447890  1.0
  Zn  Zn123  1  0.75728067  0.17323650  0.00447890  1.0
  Zn  Zn124  1  0.75728067  0.50656983  0.00447890  1.0
  Zn  Zn125  1  0.75728067  0.83990317  0.00447890  1.0
  Zn  Zn126  1  0.17447900  0.07227050  0.09706790  1.0
  Zn  Zn127  1  0.17447900  0.40560383  0.09706790  1.0
  Zn  Zn128  1  0.17447900  0.73893717  0.09706790  1.0
  Zn  Zn129  1  0.50781233  0.07227050  0.09706790  1.0
  Zn  Zn130  1  0.50781233  0.40560383  0.09706790  1.0
  Zn  Zn131  1  0.50781233  0.73893717  0.09706790  1.0
  Zn  Zn132  1  0.84114567  0.07227050  0.09706790  1.0
  Zn  Zn133  1  0.84114567  0.40560383  0.09706790  1.0
  Zn  Zn134  1  0.84114567  0.73893717  0.09706790  1.0
  Zn  Zn135  1  0.17447900  0.23893717  0.19706790  1.0
  Zn  Zn136  1  0.17447900  0.57227050  0.19706790  1.0
  Zn  Zn137  1  0.17447900  0.90560383  0.19706790  1.0
  Zn  Zn138  1  0.50781233  0.23893717  0.19706790  1.0
  Zn  Zn139  1  0.50781233  0.57227050  0.19706790  1.0
  Zn  Zn140  1  0.50781233  0.90560383  0.19706790  1.0
  Zn  Zn141  1  0.84114567  0.23893717  0.19706790  1.0
  Zn  Zn142  1  0.84114567  0.57227050  0.19706790  1.0
  Zn  Zn143  1  0.84114567  0.90560383  0.19706790  1.0
  Zn  Zn144  1  0.23990600  0.09981033  0.12042200  1.0
  Zn  Zn145  1  0.23990600  0.43314367  0.12042200  1.0
  Zn  Zn146  1  0.23990600  0.76647700  0.12042200  1.0
  Zn  Zn147  1  0.57323933  0.09981033  0.12042200  1.0
  Zn  Zn148  1  0.57323933  0.43314367  0.12042200  1.0
  Zn  Zn149  1  0.57323933  0.76647700  0.12042200  1.0
  Zn  Zn150  1  0.90657267  0.09981033  0.12042200  1.0
  Zn  Zn151  1  0.90657267  0.43314367  0.12042200  1.0
  Zn  Zn152  1  0.90657267  0.76647700  0.12042200  1.0
  Zn  Zn153  1  0.23990600  0.26647700  0.02042200  1.0
  Zn  Zn154  1  0.23990600  0.59981033  0.02042200  1.0
  Zn  Zn155  1  0.23990600  0.93314367  0.02042200  1.0
  Zn  Zn156  1  0.57323933  0.26647700  0.02042200  1.0
  Zn  Zn157  1  0.57323933  0.59981033  0.02042200  1.0
  Zn  Zn158  1  0.57323933  0.93314367  0.02042200  1.0
  Zn  Zn159  1  0.90657267  0.26647700  0.02042200  1.0
  Zn  Zn160  1  0.90657267  0.59981033  0.02042200  1.0
  Zn  Zn161  1  0.90657267  0.93314367  0.02042200  1.0
  Zn  Zn162  1  0.11532967  0.13526883  0.09139410  1.0
  Zn  Zn163  1  0.11532967  0.46860217  0.09139410  1.0
  Zn  Zn164  1  0.11532967  0.80193550  0.09139410  1.0
  Zn  Zn165  1  0.44866300  0.13526883  0.09139410  1.0
  Zn  Zn166  1  0.44866300  0.46860217  0.09139410  1.0
  Zn  Zn167  1  0.44866300  0.80193550  0.09139410  1.0
  Zn  Zn168  1  0.78199633  0.13526883  0.09139410  1.0
  Zn  Zn169  1  0.78199633  0.46860217  0.09139410  1.0
  Zn  Zn170  1  0.78199633  0.80193550  0.09139410  1.0
  Zn  Zn171  1  0.11532967  0.30193550  0.19139410  1.0
  Zn  Zn172  1  0.11532967  0.63526883  0.19139410  1.0
  Zn  Zn173  1  0.11532967  0.96860217  0.19139410  1.0
  Zn  Zn174  1  0.44866300  0.30193550  0.19139410  1.0
  Zn  Zn175  1  0.44866300  0.63526883  0.19139410  1.0
  Zn  Zn176  1  0.44866300  0.96860217  0.19139410  1.0
  Zn  Zn177  1  0.78199633  0.30193550  0.19139410  1.0
  Zn  Zn178  1  0.78199633  0.63526883  0.19139410  1.0
  Zn  Zn179  1  0.78199633  0.96860217  0.19139410  1.0
  Zn  Zn180  1  0.02859467  0.15271633  0.03877140  1.0
  Zn  Zn181  1  0.02859467  0.48604967  0.03877140  1.0
  Zn  Zn182  1  0.02859467  0.81938300  0.03877140  1.0
  Zn  Zn183  1  0.36192800  0.15271633  0.03877140  1.0
  Zn  Zn184  1  0.36192800  0.48604967  0.03877140  1.0
  Zn  Zn185  1  0.36192800  0.81938300  0.03877140  1.0
  Zn  Zn186  1  0.69526133  0.15271633  0.03877140  1.0
  Zn  Zn187  1  0.69526133  0.48604967  0.03877140  1.0
  Zn  Zn188  1  0.69526133  0.81938300  0.03877140  1.0
  Zn  Zn189  1  0.02859467  0.31938300  0.13877140  1.0
  Zn  Zn190  1  0.02859467  0.65271633  0.13877140  1.0
  Zn  Zn191  1  0.02859467  0.98604967  0.13877140  1.0
  Zn  Zn192  1  0.36192800  0.31938300  0.13877140  1.0
  Zn  Zn193  1  0.36192800  0.65271633  0.13877140  1.0
  Zn  Zn194  1  0.36192800  0.98604967  0.13877140  1.0
  Zn  Zn195  1  0.69526133  0.31938300  0.13877140  1.0
  Zn  Zn196  1  0.69526133  0.65271633  0.13877140  1.0
  Zn  Zn197  1  0.69526133  0.98604967  0.13877140  1.0
  Zn  Zn198  1  0.32552100  0.05087700  0.10990400  1.0
  Zn  Zn199  1  0.32552100  0.38421033  0.10990400  1.0
  Zn  Zn200  1  0.32552100  0.71754367  0.10990400  1.0
  Zn  Zn201  1  0.65885433  0.05087700  0.10990400  1.0
  Zn  Zn202  1  0.65885433  0.38421033  0.10990400  1.0
  Zn  Zn203  1  0.65885433  0.71754367  0.10990400  1.0
  Zn  Zn204  1  0.99218767  0.05087700  0.10990400  1.0
  Zn  Zn205  1  0.99218767  0.38421033  0.10990400  1.0
  Zn  Zn206  1  0.99218767  0.71754367  0.10990400  1.0
  Zn  Zn207  1  0.32552100  0.21754367  0.00990400  1.0
  Zn  Zn208  1  0.32552100  0.55087700  0.00990400  1.0
  Zn  Zn209  1  0.32552100  0.88421033  0.00990400  1.0
  Zn  Zn210  1  0.65885433  0.21754367  0.00990400  1.0
  Zn  Zn211  1  0.65885433  0.55087700  0.00990400  1.0
  Zn  Zn212  1  0.65885433  0.88421033  0.00990400  1.0
  Zn  Zn213  1  0.99218767  0.21754367  0.00990400  1.0
  Zn  Zn214  1  0.99218767  0.55087700  0.00990400  1.0
  Zn  Zn215  1  0.99218767  0.88421033  0.00990400  1.0
  Zn  Zn216  1  0.16666667  0.16666667  0.19265320  1.0
  Zn  Zn217  1  0.16666667  0.50000000  0.19265320  1.0
  Zn  Zn218  1  0.16666667  0.83333333  0.19265320  1.0
  Zn  Zn219  1  0.50000000  0.16666667  0.19265320  1.0
  Zn  Zn220  1  0.50000000  0.50000000  0.19265320  1.0
  Zn  Zn221  1  0.50000000  0.83333333  0.19265320  1.0
  Zn  Zn222  1  0.83333333  0.16666667  0.19265320  1.0
  Zn  Zn223  1  0.83333333  0.50000000  0.19265320  1.0
  Zn  Zn224  1  0.83333333  0.83333333  0.19265320  1.0
  Zn  Zn225  1  0.16666667  0.00000000  0.09265320  1.0
  Zn  Zn226  1  0.16666667  0.33333333  0.09265320  1.0
  Zn  Zn227  1  0.16666667  0.66666667  0.09265320  1.0
  Zn  Zn228  1  0.50000000  0.00000000  0.09265320  1.0
  Zn  Zn229  1  0.50000000  0.33333333  0.09265320  1.0
  Zn  Zn230  1  0.50000000  0.66666667  0.09265320  1.0
  Zn  Zn231  1  0.83333333  0.00000000  0.09265320  1.0
  Zn  Zn232  1  0.83333333  0.33333333  0.09265320  1.0
  Zn  Zn233  1  0.83333333  0.66666667  0.09265320  1.0
  Zn  Zn234  1  0.28088533  0.09297633  0.18586440  1.0
  Zn  Zn235  1  0.28088533  0.42630967  0.18586440  1.0
  Zn  Zn236  1  0.28088533  0.75964300  0.18586440  1.0
  Zn  Zn237  1  0.61421867  0.09297633  0.18586440  1.0
  Zn  Zn238  1  0.61421867  0.42630967  0.18586440  1.0
  Zn  Zn239  1  0.61421867  0.75964300  0.18586440  1.0
  Zn  Zn240  1  0.94755200  0.09297633  0.18586440  1.0
  Zn  Zn241  1  0.94755200  0.42630967  0.18586440  1.0
  Zn  Zn242  1  0.94755200  0.75964300  0.18586440  1.0
  Zn  Zn243  1  0.28088533  0.25964300  0.08586440  1.0
  Zn  Zn244  1  0.28088533  0.59297633  0.08586440  1.0
  Zn  Zn245  1  0.28088533  0.92630967  0.08586440  1.0
  Zn  Zn246  1  0.61421867  0.25964300  0.08586440  1.0
  Zn  Zn247  1  0.61421867  0.59297633  0.08586440  1.0
  Zn  Zn248  1  0.61421867  0.92630967  0.08586440  1.0
  Zn  Zn249  1  0.94755200  0.25964300  0.08586440  1.0
  Zn  Zn250  1  0.94755200  0.59297633  0.08586440  1.0
  Zn  Zn251  1  0.94755200  0.92630967  0.08586440  1.0
  Zn  Zn252  1  0.26393867  0.07179750  0.09343090  1.0
  Zn  Zn253  1  0.26393867  0.40513083  0.09343090  1.0
  Zn  Zn254  1  0.26393867  0.73846417  0.09343090  1.0
  Zn  Zn255  1  0.59727200  0.07179750  0.09343090  1.0
  Zn  Zn256  1  0.59727200  0.40513083  0.09343090  1.0
  Zn  Zn257  1  0.59727200  0.73846417  0.09343090  1.0
  Zn  Zn258  1  0.93060533  0.07179750  0.09343090  1.0
  Zn  Zn259  1  0.93060533  0.40513083  0.09343090  1.0
  Zn  Zn260  1  0.93060533  0.73846417  0.09343090  1.0
  Zn  Zn261  1  0.26393867  0.23846417  0.19343090  1.0
  Zn  Zn262  1  0.26393867  0.57179750  0.19343090  1.0
  Zn  Zn263  1  0.26393867  0.90513083  0.19343090  1.0
  Zn  Zn264  1  0.59727200  0.23846417  0.19343090  1.0
  Zn  Zn265  1  0.59727200  0.57179750  0.19343090  1.0
  Zn  Zn266  1  0.59727200  0.90513083  0.19343090  1.0
  Zn  Zn267  1  0.93060533  0.23846417  0.19343090  1.0
  Zn  Zn268  1  0.93060533  0.57179750  0.19343090  1.0
  Zn  Zn269  1  0.93060533  0.90513083  0.19343090  1.0
  Zn  Zn270  1  0.30275433  0.06084750  0.15207330  1.0
  Zn  Zn271  1  0.30275433  0.39418083  0.15207330  1.0
  Zn  Zn272  1  0.30275433  0.72751417  0.15207330  1.0
  Zn  Zn273  1  0.63608767  0.06084750  0.15207330  1.0
  Zn  Zn274  1  0.63608767  0.39418083  0.15207330  1.0
  Zn  Zn275  1  0.63608767  0.72751417  0.15207330  1.0
  Zn  Zn276  1  0.96942100  0.06084750  0.15207330  1.0
  Zn  Zn277  1  0.96942100  0.39418083  0.15207330  1.0
  Zn  Zn278  1  0.96942100  0.72751417  0.15207330  1.0
  Zn  Zn279  1  0.30275433  0.22751417  0.05207330  1.0
  Zn  Zn280  1  0.30275433  0.56084750  0.05207330  1.0
  Zn  Zn281  1  0.30275433  0.89418083  0.05207330  1.0
  Zn  Zn282  1  0.63608767  0.22751417  0.05207330  1.0
  Zn  Zn283  1  0.63608767  0.56084750  0.05207330  1.0
  Zn  Zn284  1  0.63608767  0.89418083  0.05207330  1.0
  Zn  Zn285  1  0.96942100  0.22751417  0.05207330  1.0
  Zn  Zn286  1  0.96942100  0.56084750  0.05207330  1.0
  Zn  Zn287  1  0.96942100  0.89418083  0.05207330  1.0
  Zn  Zn288  1  0.19213200  0.16092450  0.18231730  1.0
  Zn  Zn289  1  0.19213200  0.49425783  0.18231730  1.0
  Zn  Zn290  1  0.19213200  0.82759117  0.18231730  1.0
  Zn  Zn291  1  0.52546533  0.16092450  0.18231730  1.0
  Zn  Zn292  1  0.52546533  0.49425783  0.18231730  1.0
  Zn  Zn293  1  0.52546533  0.82759117  0.18231730  1.0
  Zn  Zn294  1  0.85879867  0.16092450  0.18231730  1.0
  Zn  Zn295  1  0.85879867  0.49425783  0.18231730  1.0
  Zn  Zn296  1  0.85879867  0.82759117  0.18231730  1.0
  Zn  Zn297  1  0.19213200  0.32759117  0.08231730  1.0
  Zn  Zn298  1  0.19213200  0.66092450  0.08231730  1.0
  Zn  Zn299  1  0.19213200  0.99425783  0.08231730  1.0
  Zn  Zn300  1  0.52546533  0.32759117  0.08231730  1.0
  Zn  Zn301  1  0.52546533  0.66092450  0.08231730  1.0
  Zn  Zn302  1  0.52546533  0.99425783  0.08231730  1.0
  Zn  Zn303  1  0.85879867  0.32759117  0.08231730  1.0
  Zn  Zn304  1  0.85879867  0.66092450  0.08231730  1.0
  Zn  Zn305  1  0.85879867  0.99425783  0.08231730  1.0
  Zn  Zn306  1  0.29948233  0.06994333  0.08967280  1.0
  Zn  Zn307  1  0.29948233  0.40327667  0.08967280  1.0
  Zn  Zn308  1  0.29948233  0.73661000  0.08967280  1.0
  Zn  Zn309  1  0.63281567  0.06994333  0.08967280  1.0
  Zn  Zn310  1  0.63281567  0.40327667  0.08967280  1.0
  Zn  Zn311  1  0.63281567  0.73661000  0.08967280  1.0
  Zn  Zn312  1  0.96614900  0.06994333  0.08967280  1.0
  Zn  Zn313  1  0.96614900  0.40327667  0.08967280  1.0
  Zn  Zn314  1  0.96614900  0.73661000  0.08967280  1.0
  Zn  Zn315  1  0.29948233  0.23661000  0.18967280  1.0
  Zn  Zn316  1  0.29948233  0.56994333  0.18967280  1.0
  Zn  Zn317  1  0.29948233  0.90327667  0.18967280  1.0
  Zn  Zn318  1  0.63281567  0.23661000  0.18967280  1.0
  Zn  Zn319  1  0.63281567  0.56994333  0.18967280  1.0
  Zn  Zn320  1  0.63281567  0.90327667  0.18967280  1.0
  Zn  Zn321  1  0.96614900  0.23661000  0.18967280  1.0
  Zn  Zn322  1  0.96614900  0.56994333  0.18967280  1.0
  Zn  Zn323  1  0.96614900  0.90327667  0.18967280  1.0
  Zn  Zn324  1  0.07428067  0.15226200  0.03701560  1.0
  Zn  Zn325  1  0.07428067  0.48559533  0.03701560  1.0
  Zn  Zn326  1  0.07428067  0.81892867  0.03701560  1.0
  Zn  Zn327  1  0.40761400  0.15226200  0.03701560  1.0
  Zn  Zn328  1  0.40761400  0.48559533  0.03701560  1.0
  Zn  Zn329  1  0.40761400  0.81892867  0.03701560  1.0
  Zn  Zn330  1  0.74094733  0.15226200  0.03701560  1.0
  Zn  Zn331  1  0.74094733  0.48559533  0.03701560  1.0
  Zn  Zn332  1  0.74094733  0.81892867  0.03701560  1.0
  Zn  Zn333  1  0.07428067  0.31892867  0.13701560  1.0
  Zn  Zn334  1  0.07428067  0.65226200  0.13701560  1.0
  Zn  Zn335  1  0.07428067  0.98559533  0.13701560  1.0
  Zn  Zn336  1  0.40761400  0.31892867  0.13701560  1.0
  Zn  Zn337  1  0.40761400  0.65226200  0.13701560  1.0
  Zn  Zn338  1  0.40761400  0.98559533  0.13701560  1.0
  Zn  Zn339  1  0.74094733  0.31892867  0.13701560  1.0
  Zn  Zn340  1  0.74094733  0.65226200  0.13701560  1.0
  Zn  Zn341  1  0.74094733  0.98559533  0.13701560  1.0
  Zn  Zn342  1  0.30473867  0.12125967  0.18214940  1.0
  Zn  Zn343  1  0.30473867  0.45459300  0.18214940  1.0
  Zn  Zn344  1  0.30473867  0.78792633  0.18214940  1.0
  Zn  Zn345  1  0.63807200  0.12125967  0.18214940  1.0
  Zn  Zn346  1  0.63807200  0.45459300  0.18214940  1.0
  Zn  Zn347  1  0.63807200  0.78792633  0.18214940  1.0
  Zn  Zn348  1  0.97140533  0.12125967  0.18214940  1.0
  Zn  Zn349  1  0.97140533  0.45459300  0.18214940  1.0
  Zn  Zn350  1  0.97140533  0.78792633  0.18214940  1.0
  Zn  Zn351  1  0.30473867  0.28792633  0.08214940  1.0
  Zn  Zn352  1  0.30473867  0.62125967  0.08214940  1.0
  Zn  Zn353  1  0.30473867  0.95459300  0.08214940  1.0
  Zn  Zn354  1  0.63807200  0.28792633  0.08214940  1.0
  Zn  Zn355  1  0.63807200  0.62125967  0.08214940  1.0
  Zn  Zn356  1  0.63807200  0.95459300  0.08214940  1.0
  Zn  Zn357  1  0.97140533  0.28792633  0.08214940  1.0
  Zn  Zn358  1  0.97140533  0.62125967  0.08214940  1.0
  Zn  Zn359  1  0.97140533  0.95459300  0.08214940  1.0
  Zn  Zn360  1  0.00781233  0.01106283  0.03823850  1.0
  Zn  Zn361  1  0.00781233  0.34439617  0.03823850  1.0
  Zn  Zn362  1  0.00781233  0.67772950  0.03823850  1.0
  Zn  Zn363  1  0.34114567  0.01106283  0.03823850  1.0
  Zn  Zn364  1  0.34114567  0.34439617  0.03823850  1.0
  Zn  Zn365  1  0.34114567  0.67772950  0.03823850  1.0
  Zn  Zn366  1  0.67447900  0.01106283  0.03823850  1.0
  Zn  Zn367  1  0.67447900  0.34439617  0.03823850  1.0
  Zn  Zn368  1  0.67447900  0.67772950  0.03823850  1.0
  Zn  Zn369  1  0.00781233  0.17772950  0.13823850  1.0
  Zn  Zn370  1  0.00781233  0.51106283  0.13823850  1.0
  Zn  Zn371  1  0.00781233  0.84439617  0.13823850  1.0
  Zn  Zn372  1  0.34114567  0.17772950  0.13823850  1.0
  Zn  Zn373  1  0.34114567  0.51106283  0.13823850  1.0
  Zn  Zn374  1  0.34114567  0.84439617  0.13823850  1.0
  Zn  Zn375  1  0.67447900  0.17772950  0.13823850  1.0
  Zn  Zn376  1  0.67447900  0.51106283  0.13823850  1.0
  Zn  Zn377  1  0.67447900  0.84439617  0.13823850  1.0
  Zn  Zn378  1  0.15466933  0.09171983  0.05774890  1.0
  Zn  Zn379  1  0.15466933  0.42505317  0.05774890  1.0
  Zn  Zn380  1  0.15466933  0.75838650  0.05774890  1.0
  Zn  Zn381  1  0.48800267  0.09171983  0.05774890  1.0
  Zn  Zn382  1  0.48800267  0.42505317  0.05774890  1.0
  Zn  Zn383  1  0.48800267  0.75838650  0.05774890  1.0
  Zn  Zn384  1  0.82133600  0.09171983  0.05774890  1.0
  Zn  Zn385  1  0.82133600  0.42505317  0.05774890  1.0
  Zn  Zn386  1  0.82133600  0.75838650  0.05774890  1.0
  Zn  Zn387  1  0.15466933  0.25838650  0.15774890  1.0
  Zn  Zn388  1  0.15466933  0.59171983  0.15774890  1.0
  Zn  Zn389  1  0.15466933  0.92505317  0.15774890  1.0
  Zn  Zn390  1  0.48800267  0.25838650  0.15774890  1.0
  Zn  Zn391  1  0.48800267  0.59171983  0.15774890  1.0
  Zn  Zn392  1  0.48800267  0.92505317  0.15774890  1.0
  Zn  Zn393  1  0.82133600  0.25838650  0.15774890  1.0
  Zn  Zn394  1  0.82133600  0.59171983  0.15774890  1.0
  Zn  Zn395  1  0.82133600  0.92505317  0.15774890  1.0
  Zn  Zn396  1  0.11546267  0.15864867  0.17822080  1.0
  Zn  Zn397  1  0.11546267  0.49198200  0.17822080  1.0
  Zn  Zn398  1  0.11546267  0.82531533  0.17822080  1.0
  Zn  Zn399  1  0.44879600  0.15864867  0.17822080  1.0
  Zn  Zn400  1  0.44879600  0.49198200  0.17822080  1.0
  Zn  Zn401  1  0.44879600  0.82531533  0.17822080  1.0
  Zn  Zn402  1  0.78212933  0.15864867  0.17822080  1.0
  Zn  Zn403  1  0.78212933  0.49198200  0.17822080  1.0
  Zn  Zn404  1  0.78212933  0.82531533  0.17822080  1.0
  Zn  Zn405  1  0.11546267  0.32531533  0.07822080  1.0
  Zn  Zn406  1  0.11546267  0.65864867  0.07822080  1.0
  Zn  Zn407  1  0.11546267  0.99198200  0.07822080  1.0
  Zn  Zn408  1  0.44879600  0.32531533  0.07822080  1.0
  Zn  Zn409  1  0.44879600  0.65864867  0.07822080  1.0
  Zn  Zn410  1  0.44879600  0.99198200  0.07822080  1.0
  Zn  Zn411  1  0.78212933  0.32531533  0.07822080  1.0
  Zn  Zn412  1  0.78212933  0.65864867  0.07822080  1.0
  Zn  Zn413  1  0.78212933  0.99198200  0.07822080  1.0
  Zn  Zn414  1  0.19526133  0.03792633  0.03214940  1.0
  Zn  Zn415  1  0.19526133  0.37125967  0.03214940  1.0
  Zn  Zn416  1  0.19526133  0.70459300  0.03214940  1.0
  Zn  Zn417  1  0.52859467  0.03792633  0.03214940  1.0
  Zn  Zn418  1  0.52859467  0.37125967  0.03214940  1.0
  Zn  Zn419  1  0.52859467  0.70459300  0.03214940  1.0
  Zn  Zn420  1  0.86192800  0.03792633  0.03214940  1.0
  Zn  Zn421  1  0.86192800  0.37125967  0.03214940  1.0
  Zn  Zn422  1  0.86192800  0.70459300  0.03214940  1.0
  Zn  Zn423  1  0.19526133  0.20459300  0.13214940  1.0
  Zn  Zn424  1  0.19526133  0.53792633  0.13214940  1.0
  Zn  Zn425  1  0.19526133  0.87125967  0.13214940  1.0
  Zn  Zn426  1  0.52859467  0.20459300  0.13214940  1.0
  Zn  Zn427  1  0.52859467  0.53792633  0.13214940  1.0
  Zn  Zn428  1  0.52859467  0.87125967  0.13214940  1.0
  Zn  Zn429  1  0.86192800  0.20459300  0.13214940  1.0
  Zn  Zn430  1  0.86192800  0.53792633  0.13214940  1.0
  Zn  Zn431  1  0.86192800  0.87125967  0.13214940  1.0
  Zn  Zn432  1  0.25728067  0.07676350  0.03082750  1.0
  Zn  Zn433  1  0.25728067  0.41009683  0.03082750  1.0
  Zn  Zn434  1  0.25728067  0.74343017  0.03082750  1.0
  Zn  Zn435  1  0.59061400  0.07676350  0.03082750  1.0
  Zn  Zn436  1  0.59061400  0.41009683  0.03082750  1.0
  Zn  Zn437  1  0.59061400  0.74343017  0.03082750  1.0
  Zn  Zn438  1  0.92394733  0.07676350  0.03082750  1.0
  Zn  Zn439  1  0.92394733  0.41009683  0.03082750  1.0
  Zn  Zn440  1  0.92394733  0.74343017  0.03082750  1.0
  Zn  Zn441  1  0.25728067  0.24343017  0.13082750  1.0
  Zn  Zn442  1  0.25728067  0.57676350  0.13082750  1.0
  Zn  Zn443  1  0.25728067  0.91009683  0.13082750  1.0
  Zn  Zn444  1  0.59061400  0.24343017  0.13082750  1.0
  Zn  Zn445  1  0.59061400  0.57676350  0.13082750  1.0
  Zn  Zn446  1  0.59061400  0.91009683  0.13082750  1.0
  Zn  Zn447  1  0.92394733  0.24343017  0.13082750  1.0
  Zn  Zn448  1  0.92394733  0.57676350  0.13082750  1.0
  Zn  Zn449  1  0.92394733  0.91009683  0.13082750  1.0
  Zn  Zn450  1  0.03385100  0.03745533  0.03119440  1.0
  Zn  Zn451  1  0.03385100  0.37078867  0.03119440  1.0
  Zn  Zn452  1  0.03385100  0.70412200  0.03119440  1.0
  Zn  Zn453  1  0.36718433  0.03745533  0.03119440  1.0
  Zn  Zn454  1  0.36718433  0.37078867  0.03119440  1.0
  Zn  Zn455  1  0.36718433  0.70412200  0.03119440  1.0
  Zn  Zn456  1  0.70051767  0.03745533  0.03119440  1.0
  Zn  Zn457  1  0.70051767  0.37078867  0.03119440  1.0
  Zn  Zn458  1  0.70051767  0.70412200  0.03119440  1.0
  Zn  Zn459  1  0.03385100  0.20412200  0.13119440  1.0
  Zn  Zn460  1  0.03385100  0.53745533  0.13119440  1.0
  Zn  Zn461  1  0.03385100  0.87078867  0.13119440  1.0
  Zn  Zn462  1  0.36718433  0.20412200  0.13119440  1.0
  Zn  Zn463  1  0.36718433  0.53745533  0.13119440  1.0
  Zn  Zn464  1  0.36718433  0.87078867  0.13119440  1.0
  Zn  Zn465  1  0.70051767  0.20412200  0.13119440  1.0
  Zn  Zn466  1  0.70051767  0.53745533  0.13119440  1.0
  Zn  Zn467  1  0.70051767  0.87078867  0.13119440  1.0
  Zn  Zn468  1  0.09727200  0.01153583  0.04187550  1.0
  Zn  Zn469  1  0.09727200  0.34486917  0.04187550  1.0
  Zn  Zn470  1  0.09727200  0.67820250  0.04187550  1.0
  Zn  Zn471  1  0.43060533  0.01153583  0.04187550  1.0
  Zn  Zn472  1  0.43060533  0.34486917  0.04187550  1.0
  Zn  Zn473  1  0.43060533  0.67820250  0.04187550  1.0
  Zn  Zn474  1  0.76393867  0.01153583  0.04187550  1.0
  Zn  Zn475  1  0.76393867  0.34486917  0.04187550  1.0
  Zn  Zn476  1  0.76393867  0.67820250  0.04187550  1.0
  Zn  Zn477  1  0.09727200  0.17820250  0.14187550  1.0
  Zn  Zn478  1  0.09727200  0.51153583  0.14187550  1.0
  Zn  Zn479  1  0.09727200  0.84486917  0.14187550  1.0
  Zn  Zn480  1  0.43060533  0.17820250  0.14187550  1.0
  Zn  Zn481  1  0.43060533  0.51153583  0.14187550  1.0
  Zn  Zn482  1  0.43060533  0.84486917  0.14187550  1.0
  Zn  Zn483  1  0.76393867  0.17820250  0.14187550  1.0
  Zn  Zn484  1  0.76393867  0.51153583  0.14187550  1.0
  Zn  Zn485  1  0.76393867  0.84486917  0.14187550  1.0
  Zn  Zn486  1  0.01199733  0.00838650  0.10774890  1.0
  Zn  Zn487  1  0.01199733  0.34171983  0.10774890  1.0
  Zn  Zn488  1  0.01199733  0.67505317  0.10774890  1.0
  Zn  Zn489  1  0.34533067  0.00838650  0.10774890  1.0
  Zn  Zn490  1  0.34533067  0.34171983  0.10774890  1.0
  Zn  Zn491  1  0.34533067  0.67505317  0.10774890  1.0
  Zn  Zn492  1  0.67866400  0.00838650  0.10774890  1.0
  Zn  Zn493  1  0.67866400  0.34171983  0.10774890  1.0
  Zn  Zn494  1  0.67866400  0.67505317  0.10774890  1.0
  Zn  Zn495  1  0.01199733  0.17505317  0.00774890  1.0
  Zn  Zn496  1  0.01199733  0.50838650  0.00774890  1.0
  Zn  Zn497  1  0.01199733  0.84171983  0.00774890  1.0
  Zn  Zn498  1  0.34533067  0.17505317  0.00774890  1.0
  Zn  Zn499  1  0.34533067  0.50838650  0.00774890  1.0
  Zn  Zn500  1  0.34533067  0.84171983  0.00774890  1.0
  Zn  Zn501  1  0.67866400  0.17505317  0.00774890  1.0
  Zn  Zn502  1  0.67866400  0.50838650  0.00774890  1.0
  Zn  Zn503  1  0.67866400  0.84171983  0.00774890  1.0
  Zn  Zn504  1  0.26009400  0.05656883  0.14636690  1.0
  Zn  Zn505  1  0.26009400  0.38990217  0.14636690  1.0
  Zn  Zn506  1  0.26009400  0.72323550  0.14636690  1.0
  Zn  Zn507  1  0.59342733  0.05656883  0.14636690  1.0
  Zn  Zn508  1  0.59342733  0.38990217  0.14636690  1.0
  Zn  Zn509  1  0.59342733  0.72323550  0.14636690  1.0
  Zn  Zn510  1  0.92676067  0.05656883  0.14636690  1.0
  Zn  Zn511  1  0.92676067  0.38990217  0.14636690  1.0
  Zn  Zn512  1  0.92676067  0.72323550  0.14636690  1.0
  Zn  Zn513  1  0.26009400  0.22323550  0.04636690  1.0
  Zn  Zn514  1  0.26009400  0.55656883  0.04636690  1.0
  Zn  Zn515  1  0.26009400  0.88990217  0.04636690  1.0
  Zn  Zn516  1  0.59342733  0.22323550  0.04636690  1.0
  Zn  Zn517  1  0.59342733  0.55656883  0.04636690  1.0
  Zn  Zn518  1  0.59342733  0.88990217  0.04636690  1.0
  Zn  Zn519  1  0.92676067  0.22323550  0.04636690  1.0
  Zn  Zn520  1  0.92676067  0.55656883  0.04636690  1.0
  Zn  Zn521  1  0.92676067  0.88990217  0.04636690  1.0
  Zn  Zn522  1  0.05244800  0.13547883  0.06236890  1.0
  Zn  Zn523  1  0.05244800  0.46881217  0.06236890  1.0
  Zn  Zn524  1  0.05244800  0.80214550  0.06236890  1.0
  Zn  Zn525  1  0.38578133  0.13547883  0.06236890  1.0
  Zn  Zn526  1  0.38578133  0.46881217  0.06236890  1.0
  Zn  Zn527  1  0.38578133  0.80214550  0.06236890  1.0
  Zn  Zn528  1  0.71911467  0.13547883  0.06236890  1.0
  Zn  Zn529  1  0.71911467  0.46881217  0.06236890  1.0
  Zn  Zn530  1  0.71911467  0.80214550  0.06236890  1.0
  Zn  Zn531  1  0.05244800  0.30214550  0.16236890  1.0
  Zn  Zn532  1  0.05244800  0.63547883  0.16236890  1.0
  Zn  Zn533  1  0.05244800  0.96881217  0.16236890  1.0
  Zn  Zn534  1  0.38578133  0.30214550  0.16236890  1.0
  Zn  Zn535  1  0.38578133  0.63547883  0.16236890  1.0
  Zn  Zn536  1  0.38578133  0.96881217  0.16236890  1.0
  Zn  Zn537  1  0.71911467  0.30214550  0.16236890  1.0
  Zn  Zn538  1  0.71911467  0.63547883  0.16236890  1.0
  Zn  Zn539  1  0.71911467  0.96881217  0.16236890  1.0
  Zn  Zn540  1  0.17866400  0.07494683  0.02755750  1.0
  Zn  Zn541  1  0.17866400  0.40828017  0.02755750  1.0
  Zn  Zn542  1  0.17866400  0.74161350  0.02755750  1.0
  Zn  Zn543  1  0.51199733  0.07494683  0.02755750  1.0
  Zn  Zn544  1  0.51199733  0.40828017  0.02755750  1.0
  Zn  Zn545  1  0.51199733  0.74161350  0.02755750  1.0
  Zn  Zn546  1  0.84533067  0.07494683  0.02755750  1.0
  Zn  Zn547  1  0.84533067  0.40828017  0.02755750  1.0
  Zn  Zn548  1  0.84533067  0.74161350  0.02755750  1.0
  Zn  Zn549  1  0.17866400  0.24161350  0.12755750  1.0
  Zn  Zn550  1  0.17866400  0.57494683  0.12755750  1.0
  Zn  Zn551  1  0.17866400  0.90828017  0.12755750  1.0
  Zn  Zn552  1  0.51199733  0.24161350  0.12755750  1.0
  Zn  Zn553  1  0.51199733  0.57494683  0.12755750  1.0
  Zn  Zn554  1  0.51199733  0.90828017  0.12755750  1.0
  Zn  Zn555  1  0.84533067  0.24161350  0.12755750  1.0
  Zn  Zn556  1  0.84533067  0.57494683  0.12755750  1.0
  Zn  Zn557  1  0.84533067  0.90828017  0.12755750  1.0
  Zn  Zn558  1  0.03057900  0.14757367  0.10818040  1.0
  Zn  Zn559  1  0.03057900  0.48090700  0.10818040  1.0
  Zn  Zn560  1  0.03057900  0.81424033  0.10818040  1.0
  Zn  Zn561  1  0.36391233  0.14757367  0.10818040  1.0
  Zn  Zn562  1  0.36391233  0.48090700  0.10818040  1.0
  Zn  Zn563  1  0.36391233  0.81424033  0.10818040  1.0
  Zn  Zn564  1  0.69724567  0.14757367  0.10818040  1.0
  Zn  Zn565  1  0.69724567  0.48090700  0.10818040  1.0
  Zn  Zn566  1  0.69724567  0.81424033  0.10818040  1.0
  Zn  Zn567  1  0.03057900  0.31424033  0.00818040  1.0
  Zn  Zn568  1  0.03057900  0.64757367  0.00818040  1.0
  Zn  Zn569  1  0.03057900  0.98090700  0.00818040  1.0
  Zn  Zn570  1  0.36391233  0.31424033  0.00818040  1.0
  Zn  Zn571  1  0.36391233  0.64757367  0.00818040  1.0
  Zn  Zn572  1  0.36391233  0.98090700  0.00818040  1.0
  Zn  Zn573  1  0.69724567  0.31424033  0.00818040  1.0
  Zn  Zn574  1  0.69724567  0.64757367  0.00818040  1.0
  Zn  Zn575  1  0.69724567  0.98090700  0.00818040  1.0
  Zn  Zn576  1  0.05244800  0.07369033  0.09944200  1.0
  Zn  Zn577  1  0.05244800  0.40702367  0.09944200  1.0
  Zn  Zn578  1  0.05244800  0.74035700  0.09944200  1.0
  Zn  Zn579  1  0.38578133  0.07369033  0.09944200  1.0
  Zn  Zn580  1  0.38578133  0.40702367  0.09944200  1.0
  Zn  Zn581  1  0.38578133  0.74035700  0.09944200  1.0
  Zn  Zn582  1  0.71911467  0.07369033  0.09944200  1.0
  Zn  Zn583  1  0.71911467  0.40702367  0.09944200  1.0
  Zn  Zn584  1  0.71911467  0.74035700  0.09944200  1.0
  Zn  Zn585  1  0.05244800  0.24035700  0.19944200  1.0
  Zn  Zn586  1  0.05244800  0.57369033  0.19944200  1.0
  Zn  Zn587  1  0.05244800  0.90702367  0.19944200  1.0
  Zn  Zn588  1  0.38578133  0.24035700  0.19944200  1.0
  Zn  Zn589  1  0.38578133  0.57369033  0.19944200  1.0
  Zn  Zn590  1  0.38578133  0.90702367  0.19944200  1.0
  Zn  Zn591  1  0.71911467  0.24035700  0.19944200  1.0
  Zn  Zn592  1  0.71911467  0.57369033  0.19944200  1.0
  Zn  Zn593  1  0.71911467  0.90702367  0.19944200  1.0
  Zn  Zn594  1  0.15605000  0.15250450  0.12046890  1.0
  Zn  Zn595  1  0.15605000  0.48583783  0.12046890  1.0
  Zn  Zn596  1  0.15605000  0.81917117  0.12046890  1.0
  Zn  Zn597  1  0.48938333  0.15250450  0.12046890  1.0
  Zn  Zn598  1  0.48938333  0.48583783  0.12046890  1.0
  Zn  Zn599  1  0.48938333  0.81917117  0.12046890  1.0
  Zn  Zn600  1  0.82271667  0.15250450  0.12046890  1.0
  Zn  Zn601  1  0.82271667  0.48583783  0.12046890  1.0
  Zn  Zn602  1  0.82271667  0.81917117  0.12046890  1.0
  Zn  Zn603  1  0.15605000  0.31917117  0.02046890  1.0
  Zn  Zn604  1  0.15605000  0.65250450  0.02046890  1.0
  Zn  Zn605  1  0.15605000  0.98583783  0.02046890  1.0
  Zn  Zn606  1  0.48938333  0.31917117  0.02046890  1.0
  Zn  Zn607  1  0.48938333  0.65250450  0.02046890  1.0
  Zn  Zn608  1  0.48938333  0.98583783  0.02046890  1.0
  Zn  Zn609  1  0.82271667  0.31917117  0.02046890  1.0
  Zn  Zn610  1  0.82271667  0.65250450  0.02046890  1.0
  Zn  Zn611  1  0.82271667  0.98583783  0.02046890  1.0
  Zn  Zn612  1  0.01061667  0.06917117  0.17046890  1.0
  Zn  Zn613  1  0.01061667  0.40250450  0.17046890  1.0
  Zn  Zn614  1  0.01061667  0.73583783  0.17046890  1.0
  Zn  Zn615  1  0.34395000  0.06917117  0.17046890  1.0
  Zn  Zn616  1  0.34395000  0.40250450  0.17046890  1.0
  Zn  Zn617  1  0.34395000  0.73583783  0.17046890  1.0
  Zn  Zn618  1  0.67728333  0.06917117  0.17046890  1.0
  Zn  Zn619  1  0.67728333  0.40250450  0.17046890  1.0
  Zn  Zn620  1  0.67728333  0.73583783  0.17046890  1.0
  Zn  Zn621  1  0.01061667  0.23583783  0.07046890  1.0
  Zn  Zn622  1  0.01061667  0.56917117  0.07046890  1.0
  Zn  Zn623  1  0.01061667  0.90250450  0.07046890  1.0
  Zn  Zn624  1  0.34395000  0.23583783  0.07046890  1.0
  Zn  Zn625  1  0.34395000  0.56917117  0.07046890  1.0
  Zn  Zn626  1  0.34395000  0.90250450  0.07046890  1.0
  Zn  Zn627  1  0.67728333  0.23583783  0.07046890  1.0
  Zn  Zn628  1  0.67728333  0.56917117  0.07046890  1.0
  Zn  Zn629  1  0.67728333  0.90250450  0.07046890  1.0
  Zn  Zn630  1  0.06939467  0.03525067  0.02764660  1.0
  Zn  Zn631  1  0.06939467  0.36858400  0.02764660  1.0
  Zn  Zn632  1  0.06939467  0.70191733  0.02764660  1.0
  Zn  Zn633  1  0.40272800  0.03525067  0.02764660  1.0
  Zn  Zn634  1  0.40272800  0.36858400  0.02764660  1.0
  Zn  Zn635  1  0.40272800  0.70191733  0.02764660  1.0
  Zn  Zn636  1  0.73606133  0.03525067  0.02764660  1.0
  Zn  Zn637  1  0.73606133  0.36858400  0.02764660  1.0
  Zn  Zn638  1  0.73606133  0.70191733  0.02764660  1.0
  Zn  Zn639  1  0.06939467  0.20191733  0.12764660  1.0
  Zn  Zn640  1  0.06939467  0.53525067  0.12764660  1.0
  Zn  Zn641  1  0.06939467  0.86858400  0.12764660  1.0
  Zn  Zn642  1  0.40272800  0.20191733  0.12764660  1.0
  Zn  Zn643  1  0.40272800  0.53525067  0.12764660  1.0
  Zn  Zn644  1  0.40272800  0.86858400  0.12764660  1.0
  Zn  Zn645  1  0.73606133  0.20191733  0.12764660  1.0
  Zn  Zn646  1  0.73606133  0.53525067  0.12764660  1.0
  Zn  Zn647  1  0.73606133  0.86858400  0.12764660  1.0
  Zn  Zn648  1  0.11532967  0.09798300  0.11376560  1.0
  Zn  Zn649  1  0.11532967  0.43131633  0.11376560  1.0
  Zn  Zn650  1  0.11532967  0.76464967  0.11376560  1.0
  Zn  Zn651  1  0.44866300  0.09798300  0.11376560  1.0
  Zn  Zn652  1  0.44866300  0.43131633  0.11376560  1.0
  Zn  Zn653  1  0.44866300  0.76464967  0.11376560  1.0
  Zn  Zn654  1  0.78199633  0.09798300  0.11376560  1.0
  Zn  Zn655  1  0.78199633  0.43131633  0.11376560  1.0
  Zn  Zn656  1  0.78199633  0.76464967  0.11376560  1.0
  Zn  Zn657  1  0.11532967  0.26464967  0.01376560  1.0
  Zn  Zn658  1  0.11532967  0.59798300  0.01376560  1.0
  Zn  Zn659  1  0.11532967  0.93131633  0.01376560  1.0
  Zn  Zn660  1  0.44866300  0.26464967  0.01376560  1.0
  Zn  Zn661  1  0.44866300  0.59798300  0.01376560  1.0
  Zn  Zn662  1  0.44866300  0.93131633  0.01376560  1.0
  Zn  Zn663  1  0.78199633  0.26464967  0.01376560  1.0
  Zn  Zn664  1  0.78199633  0.59798300  0.01376560  1.0
  Zn  Zn665  1  0.78199633  0.93131633  0.01376560  1.0
  Zn  Zn666  1  0.03057900  0.10581917  0.13323310  1.0
  Zn  Zn667  1  0.03057900  0.43915250  0.13323310  1.0
  Zn  Zn668  1  0.03057900  0.77248583  0.13323310  1.0
  Zn  Zn669  1  0.36391233  0.10581917  0.13323310  1.0
  Zn  Zn670  1  0.36391233  0.43915250  0.13323310  1.0
  Zn  Zn671  1  0.36391233  0.77248583  0.13323310  1.0
  Zn  Zn672  1  0.69724567  0.10581917  0.13323310  1.0
  Zn  Zn673  1  0.69724567  0.43915250  0.13323310  1.0
  Zn  Zn674  1  0.69724567  0.77248583  0.13323310  1.0
  Zn  Zn675  1  0.03057900  0.27248583  0.03323310  1.0
  Zn  Zn676  1  0.03057900  0.60581917  0.03323310  1.0
  Zn  Zn677  1  0.03057900  0.93915250  0.03323310  1.0
  Zn  Zn678  1  0.36391233  0.27248583  0.03323310  1.0
  Zn  Zn679  1  0.36391233  0.60581917  0.03323310  1.0
  Zn  Zn680  1  0.36391233  0.93915250  0.03323310  1.0
  Zn  Zn681  1  0.69724567  0.27248583  0.03323310  1.0
  Zn  Zn682  1  0.69724567  0.60581917  0.03323310  1.0
  Zn  Zn683  1  0.69724567  0.93915250  0.03323310  1.0
  Zn  Zn684  1  0.23019300  0.08550800  0.04656760  1.0
  Zn  Zn685  1  0.23019300  0.41884133  0.04656760  1.0
  Zn  Zn686  1  0.23019300  0.75217467  0.04656760  1.0
  Zn  Zn687  1  0.56352633  0.08550800  0.04656760  1.0
  Zn  Zn688  1  0.56352633  0.41884133  0.04656760  1.0
  Zn  Zn689  1  0.56352633  0.75217467  0.04656760  1.0
  Zn  Zn690  1  0.89685967  0.08550800  0.04656760  1.0
  Zn  Zn691  1  0.89685967  0.41884133  0.04656760  1.0
  Zn  Zn692  1  0.89685967  0.75217467  0.04656760  1.0
  Zn  Zn693  1  0.23019300  0.25217467  0.14656760  1.0
  Zn  Zn694  1  0.23019300  0.58550800  0.14656760  1.0
  Zn  Zn695  1  0.23019300  0.91884133  0.14656760  1.0
  Zn  Zn696  1  0.56352633  0.25217467  0.14656760  1.0
  Zn  Zn697  1  0.56352633  0.58550800  0.14656760  1.0
  Zn  Zn698  1  0.56352633  0.91884133  0.14656760  1.0
  Zn  Zn699  1  0.89685967  0.25217467  0.14656760  1.0
  Zn  Zn700  1  0.89685967  0.58550800  0.14656760  1.0
  Zn  Zn701  1  0.89685967  0.91884133  0.14656760  1.0
  Zn  Zn702  1  0.09342733  0.06685633  0.16488440  1.0
  Zn  Zn703  1  0.09342733  0.40018967  0.16488440  1.0
  Zn  Zn704  1  0.09342733  0.73352300  0.16488440  1.0
  Zn  Zn705  1  0.42676067  0.06685633  0.16488440  1.0
  Zn  Zn706  1  0.42676067  0.40018967  0.16488440  1.0
  Zn  Zn707  1  0.42676067  0.73352300  0.16488440  1.0
  Zn  Zn708  1  0.76009400  0.06685633  0.16488440  1.0
  Zn  Zn709  1  0.76009400  0.40018967  0.16488440  1.0
  Zn  Zn710  1  0.76009400  0.73352300  0.16488440  1.0
  Zn  Zn711  1  0.09342733  0.23352300  0.06488440  1.0
  Zn  Zn712  1  0.09342733  0.56685633  0.06488440  1.0
  Zn  Zn713  1  0.09342733  0.90018967  0.06488440  1.0
  Zn  Zn714  1  0.42676067  0.23352300  0.06488440  1.0
  Zn  Zn715  1  0.42676067  0.56685633  0.06488440  1.0
  Zn  Zn716  1  0.42676067  0.90018967  0.06488440  1.0
  Zn  Zn717  1  0.76009400  0.23352300  0.06488440  1.0
  Zn  Zn718  1  0.76009400  0.56685633  0.06488440  1.0
  Zn  Zn719  1  0.76009400  0.90018967  0.06488440  1.0
  Zn  Zn720  1  0.32271667  0.13640583  0.09149130  1.0
  Zn  Zn721  1  0.32271667  0.46973917  0.09149130  1.0
  Zn  Zn722  1  0.32271667  0.80307250  0.09149130  1.0
  Zn  Zn723  1  0.65605000  0.13640583  0.09149130  1.0
  Zn  Zn724  1  0.65605000  0.46973917  0.09149130  1.0
  Zn  Zn725  1  0.65605000  0.80307250  0.09149130  1.0
  Zn  Zn726  1  0.98938333  0.13640583  0.09149130  1.0
  Zn  Zn727  1  0.98938333  0.46973917  0.09149130  1.0
  Zn  Zn728  1  0.98938333  0.80307250  0.09149130  1.0
  Zn  Zn729  1  0.32271667  0.30307250  0.19149130  1.0
  Zn  Zn730  1  0.32271667  0.63640583  0.19149130  1.0
  Zn  Zn731  1  0.32271667  0.96973917  0.19149130  1.0
  Zn  Zn732  1  0.65605000  0.30307250  0.19149130  1.0
  Zn  Zn733  1  0.65605000  0.63640583  0.19149130  1.0
  Zn  Zn734  1  0.65605000  0.96973917  0.19149130  1.0
  Zn  Zn735  1  0.98938333  0.30307250  0.19149130  1.0
  Zn  Zn736  1  0.98938333  0.63640583  0.19149130  1.0
  Zn  Zn737  1  0.98938333  0.96973917  0.19149130  1.0
  Zn  Zn738  1  0.11421867  0.05214550  0.11236890  1.0
  Zn  Zn739  1  0.11421867  0.38547883  0.11236890  1.0
  Zn  Zn740  1  0.11421867  0.71881217  0.11236890  1.0
  Zn  Zn741  1  0.44755200  0.05214550  0.11236890  1.0
  Zn  Zn742  1  0.44755200  0.38547883  0.11236890  1.0
  Zn  Zn743  1  0.44755200  0.71881217  0.11236890  1.0
  Zn  Zn744  1  0.78088533  0.05214550  0.11236890  1.0
  Zn  Zn745  1  0.78088533  0.38547883  0.11236890  1.0
  Zn  Zn746  1  0.78088533  0.71881217  0.11236890  1.0
  Zn  Zn747  1  0.11421867  0.21881217  0.01236890  1.0
  Zn  Zn748  1  0.11421867  0.55214550  0.01236890  1.0
  Zn  Zn749  1  0.11421867  0.88547883  0.01236890  1.0
  Zn  Zn750  1  0.44755200  0.21881217  0.01236890  1.0
  Zn  Zn751  1  0.44755200  0.55214550  0.01236890  1.0
  Zn  Zn752  1  0.44755200  0.88547883  0.01236890  1.0
  Zn  Zn753  1  0.78088533  0.21881217  0.01236890  1.0
  Zn  Zn754  1  0.78088533  0.55214550  0.01236890  1.0
  Zn  Zn755  1  0.78088533  0.88547883  0.01236890  1.0
  Zn  Zn756  1  0.07428067  0.04417100  0.10187020  1.0
  Zn  Zn757  1  0.07428067  0.37750433  0.10187020  1.0
  Zn  Zn758  1  0.07428067  0.71083767  0.10187020  1.0
  Zn  Zn759  1  0.40761400  0.04417100  0.10187020  1.0
  Zn  Zn760  1  0.40761400  0.37750433  0.10187020  1.0
  Zn  Zn761  1  0.40761400  0.71083767  0.10187020  1.0
  Zn  Zn762  1  0.74094733  0.04417100  0.10187020  1.0
  Zn  Zn763  1  0.74094733  0.37750433  0.10187020  1.0
  Zn  Zn764  1  0.74094733  0.71083767  0.10187020  1.0
  Zn  Zn765  1  0.07428067  0.21083767  0.00187020  1.0
  Zn  Zn766  1  0.07428067  0.54417100  0.00187020  1.0
  Zn  Zn767  1  0.07428067  0.87750433  0.00187020  1.0
  Zn  Zn768  1  0.40761400  0.21083767  0.00187020  1.0
  Zn  Zn769  1  0.40761400  0.54417100  0.00187020  1.0
  Zn  Zn770  1  0.40761400  0.87750433  0.00187020  1.0
  Zn  Zn771  1  0.74094733  0.21083767  0.00187020  1.0
  Zn  Zn772  1  0.74094733  0.54417100  0.00187020  1.0
  Zn  Zn773  1  0.74094733  0.87750433  0.00187020  1.0
  Zn  Zn774  1  0.17728333  0.01416217  0.16483750  1.0
  Zn  Zn775  1  0.17728333  0.34749550  0.16483750  1.0
  Zn  Zn776  1  0.17728333  0.68082883  0.16483750  1.0
  Zn  Zn777  1  0.51061667  0.01416217  0.16483750  1.0
  Zn  Zn778  1  0.51061667  0.34749550  0.16483750  1.0
  Zn  Zn779  1  0.51061667  0.68082883  0.16483750  1.0
  Zn  Zn780  1  0.84395000  0.01416217  0.16483750  1.0
  Zn  Zn781  1  0.84395000  0.34749550  0.16483750  1.0
  Zn  Zn782  1  0.84395000  0.68082883  0.16483750  1.0
  Zn  Zn783  1  0.17728333  0.18082883  0.06483750  1.0
  Zn  Zn784  1  0.17728333  0.51416217  0.06483750  1.0
  Zn  Zn785  1  0.17728333  0.84749550  0.06483750  1.0
  Zn  Zn786  1  0.51061667  0.18082883  0.06483750  1.0
  Zn  Zn787  1  0.51061667  0.51416217  0.06483750  1.0
  Zn  Zn788  1  0.51061667  0.84749550  0.06483750  1.0
  Zn  Zn789  1  0.84395000  0.18082883  0.06483750  1.0
  Zn  Zn790  1  0.84395000  0.51416217  0.06483750  1.0
  Zn  Zn791  1  0.84395000  0.84749550  0.06483750  1.0
  Zn  Zn792  1  0.13807200  0.06938300  0.08877140  1.0
  Zn  Zn793  1  0.13807200  0.40271633  0.08877140  1.0
  Zn  Zn794  1  0.13807200  0.73604967  0.08877140  1.0
  Zn  Zn795  1  0.47140533  0.06938300  0.08877140  1.0
  Zn  Zn796  1  0.47140533  0.40271633  0.08877140  1.0
  Zn  Zn797  1  0.47140533  0.73604967  0.08877140  1.0
  Zn  Zn798  1  0.80473867  0.06938300  0.08877140  1.0
  Zn  Zn799  1  0.80473867  0.40271633  0.08877140  1.0
  Zn  Zn800  1  0.80473867  0.73604967  0.08877140  1.0
  Zn  Zn801  1  0.13807200  0.23604967  0.18877140  1.0
  Zn  Zn802  1  0.13807200  0.56938300  0.18877140  1.0
  Zn  Zn803  1  0.13807200  0.90271633  0.18877140  1.0
  Zn  Zn804  1  0.47140533  0.23604967  0.18877140  1.0
  Zn  Zn805  1  0.47140533  0.56938300  0.18877140  1.0
  Zn  Zn806  1  0.47140533  0.90271633  0.18877140  1.0
  Zn  Zn807  1  0.80473867  0.23604967  0.18877140  1.0
  Zn  Zn808  1  0.80473867  0.56938300  0.18877140  1.0
  Zn  Zn809  1  0.80473867  0.90271633  0.18877140  1.0
  Zn  Zn810  1  0.15885433  0.09439617  0.18823850  1.0
  Zn  Zn811  1  0.15885433  0.42772950  0.18823850  1.0
  Zn  Zn812  1  0.15885433  0.76106283  0.18823850  1.0
  Zn  Zn813  1  0.49218767  0.09439617  0.18823850  1.0
  Zn  Zn814  1  0.49218767  0.42772950  0.18823850  1.0
  Zn  Zn815  1  0.49218767  0.76106283  0.18823850  1.0
  Zn  Zn816  1  0.82552100  0.09439617  0.18823850  1.0
  Zn  Zn817  1  0.82552100  0.42772950  0.18823850  1.0
  Zn  Zn818  1  0.82552100  0.76106283  0.18823850  1.0
  Zn  Zn819  1  0.15885433  0.26106283  0.08823850  1.0
  Zn  Zn820  1  0.15885433  0.59439617  0.08823850  1.0
  Zn  Zn821  1  0.15885433  0.92772950  0.08823850  1.0
  Zn  Zn822  1  0.49218767  0.26106283  0.08823850  1.0
  Zn  Zn823  1  0.49218767  0.59439617  0.08823850  1.0
  Zn  Zn824  1  0.49218767  0.92772950  0.08823850  1.0
  Zn  Zn825  1  0.82552100  0.26106283  0.08823850  1.0
  Zn  Zn826  1  0.82552100  0.59439617  0.08823850  1.0
  Zn  Zn827  1  0.82552100  0.92772950  0.08823850  1.0
  Zn  Zn828  1  0.23990600  0.13990217  0.09636690  1.0
  Zn  Zn829  1  0.23990600  0.47323550  0.09636690  1.0
  Zn  Zn830  1  0.23990600  0.80656883  0.09636690  1.0
  Zn  Zn831  1  0.57323933  0.13990217  0.09636690  1.0
  Zn  Zn832  1  0.57323933  0.47323550  0.09636690  1.0
  Zn  Zn833  1  0.57323933  0.80656883  0.09636690  1.0
  Zn  Zn834  1  0.90657267  0.13990217  0.09636690  1.0
  Zn  Zn835  1  0.90657267  0.47323550  0.09636690  1.0
  Zn  Zn836  1  0.90657267  0.80656883  0.09636690  1.0
  Zn  Zn837  1  0.23990600  0.30656883  0.19636690  1.0
  Zn  Zn838  1  0.23990600  0.63990217  0.19636690  1.0
  Zn  Zn839  1  0.23990600  0.97323550  0.19636690  1.0
  Zn  Zn840  1  0.57323933  0.30656883  0.19636690  1.0
  Zn  Zn841  1  0.57323933  0.63990217  0.19636690  1.0
  Zn  Zn842  1  0.57323933  0.97323550  0.19636690  1.0
  Zn  Zn843  1  0.90657267  0.30656883  0.19636690  1.0
  Zn  Zn844  1  0.90657267  0.63990217  0.19636690  1.0
  Zn  Zn845  1  0.90657267  0.97323550  0.19636690  1.0
  Zn  Zn846  1  0.28212933  0.09135133  0.05708560  1.0
  Zn  Zn847  1  0.28212933  0.42468467  0.05708560  1.0
  Zn  Zn848  1  0.28212933  0.75801800  0.05708560  1.0
  Zn  Zn849  1  0.61546267  0.09135133  0.05708560  1.0
  Zn  Zn850  1  0.61546267  0.42468467  0.05708560  1.0
  Zn  Zn851  1  0.61546267  0.75801800  0.05708560  1.0
  Zn  Zn852  1  0.94879600  0.09135133  0.05708560  1.0
  Zn  Zn853  1  0.94879600  0.42468467  0.05708560  1.0
  Zn  Zn854  1  0.94879600  0.75801800  0.05708560  1.0
  Zn  Zn855  1  0.28212933  0.25801800  0.15708560  1.0
  Zn  Zn856  1  0.28212933  0.59135133  0.15708560  1.0
  Zn  Zn857  1  0.28212933  0.92468467  0.15708560  1.0
  Zn  Zn858  1  0.61546267  0.25801800  0.15708560  1.0
  Zn  Zn859  1  0.61546267  0.59135133  0.15708560  1.0
  Zn  Zn860  1  0.61546267  0.92468467  0.15708560  1.0
  Zn  Zn861  1  0.94879600  0.25801800  0.15708560  1.0
  Zn  Zn862  1  0.94879600  0.59135133  0.15708560  1.0
  Zn  Zn863  1  0.94879600  0.92468467  0.15708560  1.0
  Zn  Zn864  1  0.07605267  0.08990317  0.05447890  1.0
  Zn  Zn865  1  0.07605267  0.42323650  0.05447890  1.0
  Zn  Zn866  1  0.07605267  0.75656983  0.05447890  1.0
  Zn  Zn867  1  0.40938600  0.08990317  0.05447890  1.0
  Zn  Zn868  1  0.40938600  0.42323650  0.05447890  1.0
  Zn  Zn869  1  0.40938600  0.75656983  0.05447890  1.0
  Zn  Zn870  1  0.74271933  0.08990317  0.05447890  1.0
  Zn  Zn871  1  0.74271933  0.42323650  0.05447890  1.0
  Zn  Zn872  1  0.74271933  0.75656983  0.05447890  1.0
  Zn  Zn873  1  0.07605267  0.25656983  0.15447890  1.0
  Zn  Zn874  1  0.07605267  0.58990317  0.15447890  1.0
  Zn  Zn875  1  0.07605267  0.92323650  0.15447890  1.0
  Zn  Zn876  1  0.40938600  0.25656983  0.15447890  1.0
  Zn  Zn877  1  0.40938600  0.58990317  0.15447890  1.0
  Zn  Zn878  1  0.40938600  0.92323650  0.15447890  1.0
  Zn  Zn879  1  0.74271933  0.25656983  0.15447890  1.0
  Zn  Zn880  1  0.74271933  0.58990317  0.15447890  1.0
  Zn  Zn881  1  0.74271933  0.92323650  0.15447890  1.0
  Zn  Zn882  1  0.09238600  0.06892867  0.08701560  1.0
  Zn  Zn883  1  0.09238600  0.40226200  0.08701560  1.0
  Zn  Zn884  1  0.09238600  0.73559533  0.08701560  1.0
  Zn  Zn885  1  0.42571933  0.06892867  0.08701560  1.0
  Zn  Zn886  1  0.42571933  0.40226200  0.08701560  1.0
  Zn  Zn887  1  0.42571933  0.73559533  0.08701560  1.0
  Zn  Zn888  1  0.75905267  0.06892867  0.08701560  1.0
  Zn  Zn889  1  0.75905267  0.40226200  0.08701560  1.0
  Zn  Zn890  1  0.75905267  0.73559533  0.08701560  1.0
  Zn  Zn891  1  0.09238600  0.23559533  0.18701560  1.0
  Zn  Zn892  1  0.09238600  0.56892867  0.18701560  1.0
  Zn  Zn893  1  0.09238600  0.90226200  0.18701560  1.0
  Zn  Zn894  1  0.42571933  0.23559533  0.18701560  1.0
  Zn  Zn895  1  0.42571933  0.56892867  0.18701560  1.0
  Zn  Zn896  1  0.42571933  0.90226200  0.18701560  1.0
  Zn  Zn897  1  0.75905267  0.23559533  0.18701560  1.0
  Zn  Zn898  1  0.75905267  0.56892867  0.18701560  1.0
  Zn  Zn899  1  0.75905267  0.90226200  0.18701560  1.0
  Zn  Zn900  1  0.05133700  0.05193550  0.14139410  1.0
  Zn  Zn901  1  0.05133700  0.38526883  0.14139410  1.0
  Zn  Zn902  1  0.05133700  0.71860217  0.14139410  1.0
  Zn  Zn903  1  0.38467033  0.05193550  0.14139410  1.0
  Zn  Zn904  1  0.38467033  0.38526883  0.14139410  1.0
  Zn  Zn905  1  0.38467033  0.71860217  0.14139410  1.0
  Zn  Zn906  1  0.71800367  0.05193550  0.14139410  1.0
  Zn  Zn907  1  0.71800367  0.38526883  0.14139410  1.0
  Zn  Zn908  1  0.71800367  0.71860217  0.14139410  1.0
  Zn  Zn909  1  0.05133700  0.21860217  0.04139410  1.0
  Zn  Zn910  1  0.05133700  0.55193550  0.04139410  1.0
  Zn  Zn911  1  0.05133700  0.88526883  0.04139410  1.0
  Zn  Zn912  1  0.38467033  0.21860217  0.04139410  1.0
  Zn  Zn913  1  0.38467033  0.55193550  0.04139410  1.0
  Zn  Zn914  1  0.38467033  0.88526883  0.04139410  1.0
  Zn  Zn915  1  0.71800367  0.21860217  0.04139410  1.0
  Zn  Zn916  1  0.71800367  0.55193550  0.04139410  1.0
  Zn  Zn917  1  0.71800367  0.88526883  0.04139410  1.0
  Zn  Zn918  1  0.03385100  0.09672333  0.19563360  1.0
  Zn  Zn919  1  0.03385100  0.43005667  0.19563360  1.0
  Zn  Zn920  1  0.03385100  0.76339000  0.19563360  1.0
  Zn  Zn921  1  0.36718433  0.09672333  0.19563360  1.0
  Zn  Zn922  1  0.36718433  0.43005667  0.19563360  1.0
  Zn  Zn923  1  0.36718433  0.76339000  0.19563360  1.0
  Zn  Zn924  1  0.70051767  0.09672333  0.19563360  1.0
  Zn  Zn925  1  0.70051767  0.43005667  0.19563360  1.0
  Zn  Zn926  1  0.70051767  0.76339000  0.19563360  1.0
  Zn  Zn927  1  0.03385100  0.26339000  0.09563360  1.0
  Zn  Zn928  1  0.03385100  0.59672333  0.09563360  1.0
  Zn  Zn929  1  0.03385100  0.93005667  0.09563360  1.0
  Zn  Zn930  1  0.36718433  0.26339000  0.09563360  1.0
  Zn  Zn931  1  0.36718433  0.59672333  0.09563360  1.0
  Zn  Zn932  1  0.36718433  0.93005667  0.09563360  1.0
  Zn  Zn933  1  0.70051767  0.26339000  0.09563360  1.0
  Zn  Zn934  1  0.70051767  0.59672333  0.09563360  1.0
  Zn  Zn935  1  0.70051767  0.93005667  0.09563360  1.0
  Zn  Zn936  1  0.06352633  0.16449200  0.18873880  1.0
  Zn  Zn937  1  0.06352633  0.49782533  0.18873880  1.0
  Zn  Zn938  1  0.06352633  0.83115867  0.18873880  1.0
  Zn  Zn939  1  0.39685967  0.16449200  0.18873880  1.0
  Zn  Zn940  1  0.39685967  0.49782533  0.18873880  1.0
  Zn  Zn941  1  0.39685967  0.83115867  0.18873880  1.0
  Zn  Zn942  1  0.73019300  0.16449200  0.18873880  1.0
  Zn  Zn943  1  0.73019300  0.49782533  0.18873880  1.0
  Zn  Zn944  1  0.73019300  0.83115867  0.18873880  1.0
  Zn  Zn945  1  0.06352633  0.33115867  0.08873880  1.0
  Zn  Zn946  1  0.06352633  0.66449200  0.08873880  1.0
  Zn  Zn947  1  0.06352633  0.99782533  0.08873880  1.0
  Zn  Zn948  1  0.39685967  0.33115867  0.08873880  1.0
  Zn  Zn949  1  0.39685967  0.66449200  0.08873880  1.0
  Zn  Zn950  1  0.39685967  0.99782533  0.08873880  1.0
  Zn  Zn951  1  0.73019300  0.33115867  0.08873880  1.0
  Zn  Zn952  1  0.73019300  0.66449200  0.08873880  1.0
  Zn  Zn953  1  0.73019300  0.99782533  0.08873880  1.0
  Zn  Zn954  1  0.13807200  0.12874033  0.05315700  1.0
  Zn  Zn955  1  0.13807200  0.46207367  0.05315700  1.0
  Zn  Zn956  1  0.13807200  0.79540700  0.05315700  1.0
  Zn  Zn957  1  0.47140533  0.12874033  0.05315700  1.0
  Zn  Zn958  1  0.47140533  0.46207367  0.05315700  1.0
  Zn  Zn959  1  0.47140533  0.79540700  0.05315700  1.0
  Zn  Zn960  1  0.80473867  0.12874033  0.05315700  1.0
  Zn  Zn961  1  0.80473867  0.46207367  0.05315700  1.0
  Zn  Zn962  1  0.80473867  0.79540700  0.05315700  1.0
  Zn  Zn963  1  0.13807200  0.29540700  0.15315700  1.0
  Zn  Zn964  1  0.13807200  0.62874033  0.15315700  1.0
  Zn  Zn965  1  0.13807200  0.96207367  0.15315700  1.0
  Zn  Zn966  1  0.47140533  0.29540700  0.15315700  1.0
  Zn  Zn967  1  0.47140533  0.62874033  0.15315700  1.0
  Zn  Zn968  1  0.47140533  0.96207367  0.15315700  1.0
  Zn  Zn969  1  0.80473867  0.29540700  0.15315700  1.0
  Zn  Zn970  1  0.80473867  0.62874033  0.15315700  1.0
  Zn  Zn971  1  0.80473867  0.96207367  0.15315700  1.0
  Zn  Zn972  1  0.11421867  0.15702367  0.04944200  1.0
  Zn  Zn973  1  0.11421867  0.49035700  0.04944200  1.0
  Zn  Zn974  1  0.11421867  0.82369033  0.04944200  1.0
  Zn  Zn975  1  0.44755200  0.15702367  0.04944200  1.0
  Zn  Zn976  1  0.44755200  0.49035700  0.04944200  1.0
  Zn  Zn977  1  0.44755200  0.82369033  0.04944200  1.0
  Zn  Zn978  1  0.78088533  0.15702367  0.04944200  1.0
  Zn  Zn979  1  0.78088533  0.49035700  0.04944200  1.0
  Zn  Zn980  1  0.78088533  0.82369033  0.04944200  1.0
  Zn  Zn981  1  0.11421867  0.32369033  0.14944200  1.0
  Zn  Zn982  1  0.11421867  0.65702367  0.14944200  1.0
  Zn  Zn983  1  0.11421867  0.99035700  0.14944200  1.0
  Zn  Zn984  1  0.44755200  0.32369033  0.14944200  1.0
  Zn  Zn985  1  0.44755200  0.65702367  0.14944200  1.0
  Zn  Zn986  1  0.44755200  0.99035700  0.14944200  1.0
  Zn  Zn987  1  0.78088533  0.32369033  0.14944200  1.0
  Zn  Zn988  1  0.78088533  0.65702367  0.14944200  1.0
  Zn  Zn989  1  0.78088533  0.99035700  0.14944200  1.0
  Zn  Zn990  1  0.26980700  0.00217467  0.09656760  1.0
  Zn  Zn991  1  0.26980700  0.33550800  0.09656760  1.0
  Zn  Zn992  1  0.26980700  0.66884133  0.09656760  1.0
  Zn  Zn993  1  0.60314033  0.00217467  0.09656760  1.0
  Zn  Zn994  1  0.60314033  0.33550800  0.09656760  1.0
  Zn  Zn995  1  0.60314033  0.66884133  0.09656760  1.0
  Zn  Zn996  1  0.93647367  0.00217467  0.09656760  1.0
  Zn  Zn997  1  0.93647367  0.33550800  0.09656760  1.0
  Zn  Zn998  1  0.93647367  0.66884133  0.09656760  1.0
  Zn  Zn999  1  0.26980700  0.16884133  0.19656760  1.0
  Zn  Zn1000  1  0.26980700  0.50217467  0.19656760  1.0
  Zn  Zn1001  1  0.26980700  0.83550800  0.19656760  1.0
  Zn  Zn1002  1  0.60314033  0.16884133  0.19656760  1.0
  Zn  Zn1003  1  0.60314033  0.50217467  0.19656760  1.0
  Zn  Zn1004  1  0.60314033  0.83550800  0.19656760  1.0
  Zn  Zn1005  1  0.93647367  0.16884133  0.19656760  1.0
  Zn  Zn1006  1  0.93647367  0.50217467  0.19656760  1.0
  Zn  Zn1007  1  0.93647367  0.83550800  0.19656760  1.0
  Zn  Zn1008  1  0.05133700  0.01464967  0.16376560  1.0
  Zn  Zn1009  1  0.05133700  0.34798300  0.16376560  1.0
  Zn  Zn1010  1  0.05133700  0.68131633  0.16376560  1.0
  Zn  Zn1011  1  0.38467033  0.01464967  0.16376560  1.0
  Zn  Zn1012  1  0.38467033  0.34798300  0.16376560  1.0
  Zn  Zn1013  1  0.38467033  0.68131633  0.16376560  1.0
  Zn  Zn1014  1  0.71800367  0.01464967  0.16376560  1.0
  Zn  Zn1015  1  0.71800367  0.34798300  0.16376560  1.0
  Zn  Zn1016  1  0.71800367  0.68131633  0.16376560  1.0
  Zn  Zn1017  1  0.05133700  0.18131633  0.06376560  1.0
  Zn  Zn1018  1  0.05133700  0.51464967  0.06376560  1.0
  Zn  Zn1019  1  0.05133700  0.84798300  0.06376560  1.0
  Zn  Zn1020  1  0.38467033  0.18131633  0.06376560  1.0
  Zn  Zn1021  1  0.38467033  0.51464967  0.06376560  1.0
  Zn  Zn1022  1  0.38467033  0.84798300  0.06376560  1.0
  Zn  Zn1023  1  0.71800367  0.18131633  0.06376560  1.0
  Zn  Zn1024  1  0.71800367  0.51464967  0.06376560  1.0
  Zn  Zn1025  1  0.71800367  0.84798300  0.06376560  1.0
  Zn  Zn1026  1  0.21800367  0.06868367  0.17154080  1.0
  Zn  Zn1027  1  0.21800367  0.40201700  0.17154080  1.0
  Zn  Zn1028  1  0.21800367  0.73535033  0.17154080  1.0
  Zn  Zn1029  1  0.55133700  0.06868367  0.17154080  1.0
  Zn  Zn1030  1  0.55133700  0.40201700  0.17154080  1.0
  Zn  Zn1031  1  0.55133700  0.73535033  0.17154080  1.0
  Zn  Zn1032  1  0.88467033  0.06868367  0.17154080  1.0
  Zn  Zn1033  1  0.88467033  0.40201700  0.17154080  1.0
  Zn  Zn1034  1  0.88467033  0.73535033  0.17154080  1.0
  Zn  Zn1035  1  0.21800367  0.23535033  0.07154080  1.0
  Zn  Zn1036  1  0.21800367  0.56868367  0.07154080  1.0
  Zn  Zn1037  1  0.21800367  0.90201700  0.07154080  1.0
  Zn  Zn1038  1  0.55133700  0.23535033  0.07154080  1.0
  Zn  Zn1039  1  0.55133700  0.56868367  0.07154080  1.0
  Zn  Zn1040  1  0.55133700  0.90201700  0.07154080  1.0
  Zn  Zn1041  1  0.88467033  0.23535033  0.07154080  1.0
  Zn  Zn1042  1  0.88467033  0.56868367  0.07154080  1.0
  Zn  Zn1043  1  0.88467033  0.90201700  0.07154080  1.0
  Zn  Zn1044  1  0.28199633  0.15201700  0.12154080  1.0
  Zn  Zn1045  1  0.28199633  0.48535033  0.12154080  1.0
  Zn  Zn1046  1  0.28199633  0.81868367  0.12154080  1.0
  Zn  Zn1047  1  0.61532967  0.15201700  0.12154080  1.0
  Zn  Zn1048  1  0.61532967  0.48535033  0.12154080  1.0
  Zn  Zn1049  1  0.61532967  0.81868367  0.12154080  1.0
  Zn  Zn1050  1  0.94866300  0.15201700  0.12154080  1.0
  Zn  Zn1051  1  0.94866300  0.48535033  0.12154080  1.0
  Zn  Zn1052  1  0.94866300  0.81868367  0.12154080  1.0
  Zn  Zn1053  1  0.28199633  0.31868367  0.02154080  1.0
  Zn  Zn1054  1  0.28199633  0.65201700  0.02154080  1.0
  Zn  Zn1055  1  0.28199633  0.98535033  0.02154080  1.0
  Zn  Zn1056  1  0.61532967  0.31868367  0.02154080  1.0
  Zn  Zn1057  1  0.61532967  0.65201700  0.02154080  1.0
  Zn  Zn1058  1  0.61532967  0.98535033  0.02154080  1.0
  Zn  Zn1059  1  0.94866300  0.31868367  0.02154080  1.0
  Zn  Zn1060  1  0.94866300  0.65201700  0.02154080  1.0
  Zn  Zn1061  1  0.94866300  0.98535033  0.02154080  1.0
  Zn  Zn1062  1  0.24271933  0.16009683  0.18082750  1.0
  Zn  Zn1063  1  0.24271933  0.49343017  0.18082750  1.0
  Zn  Zn1064  1  0.24271933  0.82676350  0.18082750  1.0
  Zn  Zn1065  1  0.57605267  0.16009683  0.18082750  1.0
  Zn  Zn1066  1  0.57605267  0.49343017  0.18082750  1.0
  Zn  Zn1067  1  0.57605267  0.82676350  0.18082750  1.0
  Zn  Zn1068  1  0.90938600  0.16009683  0.18082750  1.0
  Zn  Zn1069  1  0.90938600  0.49343017  0.18082750  1.0
  Zn  Zn1070  1  0.90938600  0.82676350  0.18082750  1.0
  Zn  Zn1071  1  0.24271933  0.32676350  0.08082750  1.0
  Zn  Zn1072  1  0.24271933  0.66009683  0.08082750  1.0
  Zn  Zn1073  1  0.24271933  0.99343017  0.08082750  1.0
  Zn  Zn1074  1  0.57605267  0.32676350  0.08082750  1.0
  Zn  Zn1075  1  0.57605267  0.66009683  0.08082750  1.0
  Zn  Zn1076  1  0.57605267  0.99343017  0.08082750  1.0
  Zn  Zn1077  1  0.90938600  0.32676350  0.08082750  1.0
  Zn  Zn1078  1  0.90938600  0.66009683  0.08082750  1.0
  Zn  Zn1079  1  0.90938600  0.99343017  0.08082750  1.0
  Zn  Zn1080  1  0.09238600  0.12750433  0.05187020  1.0
  Zn  Zn1081  1  0.09238600  0.46083767  0.05187020  1.0
  Zn  Zn1082  1  0.09238600  0.79417100  0.05187020  1.0
  Zn  Zn1083  1  0.42571933  0.12750433  0.05187020  1.0
  Zn  Zn1084  1  0.42571933  0.46083767  0.05187020  1.0
  Zn  Zn1085  1  0.42571933  0.79417100  0.05187020  1.0
  Zn  Zn1086  1  0.75905267  0.12750433  0.05187020  1.0
  Zn  Zn1087  1  0.75905267  0.46083767  0.05187020  1.0
  Zn  Zn1088  1  0.75905267  0.79417100  0.05187020  1.0
  Zn  Zn1089  1  0.09238600  0.29417100  0.15187020  1.0
  Zn  Zn1090  1  0.09238600  0.62750433  0.15187020  1.0
  Zn  Zn1091  1  0.09238600  0.96083767  0.15187020  1.0
  Zn  Zn1092  1  0.42571933  0.29417100  0.15187020  1.0
  Zn  Zn1093  1  0.42571933  0.62750433  0.15187020  1.0
  Zn  Zn1094  1  0.42571933  0.96083767  0.15187020  1.0
  Zn  Zn1095  1  0.75905267  0.29417100  0.15187020  1.0
  Zn  Zn1096  1  0.75905267  0.62750433  0.15187020  1.0
  Zn  Zn1097  1  0.75905267  0.96083767  0.15187020  1.0
  Zn  Zn1098  1  0.07323933  0.15018967  0.11488440  1.0
  Zn  Zn1099  1  0.07323933  0.48352300  0.11488440  1.0
  Zn  Zn1100  1  0.07323933  0.81685633  0.11488440  1.0
  Zn  Zn1101  1  0.40657267  0.15018967  0.11488440  1.0
  Zn  Zn1102  1  0.40657267  0.48352300  0.11488440  1.0
  Zn  Zn1103  1  0.40657267  0.81685633  0.11488440  1.0
  Zn  Zn1104  1  0.73990600  0.15018967  0.11488440  1.0
  Zn  Zn1105  1  0.73990600  0.48352300  0.11488440  1.0
  Zn  Zn1106  1  0.73990600  0.81685633  0.11488440  1.0
  Zn  Zn1107  1  0.07323933  0.31685633  0.01488440  1.0
  Zn  Zn1108  1  0.07323933  0.65018967  0.01488440  1.0
  Zn  Zn1109  1  0.07323933  0.98352300  0.01488440  1.0
  Zn  Zn1110  1  0.40657267  0.31685633  0.01488440  1.0
  Zn  Zn1111  1  0.40657267  0.65018967  0.01488440  1.0
  Zn  Zn1112  1  0.40657267  0.98352300  0.01488440  1.0
  Zn  Zn1113  1  0.73990600  0.31685633  0.01488440  1.0
  Zn  Zn1114  1  0.73990600  0.65018967  0.01488440  1.0
  Zn  Zn1115  1  0.73990600  0.98352300  0.01488440  1.0
  Zn  Zn1116  1  0.21911467  0.11452117  0.17293750  1.0
  Zn  Zn1117  1  0.21911467  0.44785450  0.17293750  1.0
  Zn  Zn1118  1  0.21911467  0.78118783  0.17293750  1.0
  Zn  Zn1119  1  0.55244800  0.11452117  0.17293750  1.0
  Zn  Zn1120  1  0.55244800  0.44785450  0.17293750  1.0
  Zn  Zn1121  1  0.55244800  0.78118783  0.17293750  1.0
  Zn  Zn1122  1  0.88578133  0.11452117  0.17293750  1.0
  Zn  Zn1123  1  0.88578133  0.44785450  0.17293750  1.0
  Zn  Zn1124  1  0.88578133  0.78118783  0.17293750  1.0
  Zn  Zn1125  1  0.21911467  0.28118783  0.07293750  1.0
  Zn  Zn1126  1  0.21911467  0.61452117  0.07293750  1.0
  Zn  Zn1127  1  0.21911467  0.94785450  0.07293750  1.0
  Zn  Zn1128  1  0.55244800  0.28118783  0.07293750  1.0
  Zn  Zn1129  1  0.55244800  0.61452117  0.07293750  1.0
  Zn  Zn1130  1  0.55244800  0.94785450  0.07293750  1.0
  Zn  Zn1131  1  0.88578133  0.28118783  0.07293750  1.0
  Zn  Zn1132  1  0.88578133  0.61452117  0.07293750  1.0
  Zn  Zn1133  1  0.88578133  0.94785450  0.07293750  1.0
  Zn  Zn1134  1  0.21911467  0.00964300  0.03586440  1.0
  Zn  Zn1135  1  0.21911467  0.34297633  0.03586440  1.0
  Zn  Zn1136  1  0.21911467  0.67630967  0.03586440  1.0
  Zn  Zn1137  1  0.55244800  0.00964300  0.03586440  1.0
  Zn  Zn1138  1  0.55244800  0.34297633  0.03586440  1.0
  Zn  Zn1139  1  0.55244800  0.67630967  0.03586440  1.0
  Zn  Zn1140  1  0.88578133  0.00964300  0.03586440  1.0
  Zn  Zn1141  1  0.88578133  0.34297633  0.03586440  1.0
  Zn  Zn1142  1  0.88578133  0.67630967  0.03586440  1.0
  Zn  Zn1143  1  0.21911467  0.17630967  0.13586440  1.0
  Zn  Zn1144  1  0.21911467  0.50964300  0.13586440  1.0
  Zn  Zn1145  1  0.21911467  0.84297633  0.13586440  1.0
  Zn  Zn1146  1  0.55244800  0.17630967  0.13586440  1.0
  Zn  Zn1147  1  0.55244800  0.50964300  0.13586440  1.0
  Zn  Zn1148  1  0.55244800  0.84297633  0.13586440  1.0
  Zn  Zn1149  1  0.88578133  0.17630967  0.13586440  1.0
  Zn  Zn1150  1  0.88578133  0.50964300  0.13586440  1.0
  Zn  Zn1151  1  0.88578133  0.84297633  0.13586440  1.0
  Zn  Zn1152  1  0.14120133  0.00574217  0.10298910  1.0
  Zn  Zn1153  1  0.14120133  0.33907550  0.10298910  1.0
  Zn  Zn1154  1  0.14120133  0.67240883  0.10298910  1.0
  Zn  Zn1155  1  0.47453467  0.00574217  0.10298910  1.0
  Zn  Zn1156  1  0.47453467  0.33907550  0.10298910  1.0
  Zn  Zn1157  1  0.47453467  0.67240883  0.10298910  1.0
  Zn  Zn1158  1  0.80786800  0.00574217  0.10298910  1.0
  Zn  Zn1159  1  0.80786800  0.33907550  0.10298910  1.0
  Zn  Zn1160  1  0.80786800  0.67240883  0.10298910  1.0
  Zn  Zn1161  1  0.14120133  0.17240883  0.00298910  1.0
  Zn  Zn1162  1  0.14120133  0.50574217  0.00298910  1.0
  Zn  Zn1163  1  0.14120133  0.83907550  0.00298910  1.0
  Zn  Zn1164  1  0.47453467  0.17240883  0.00298910  1.0
  Zn  Zn1165  1  0.47453467  0.50574217  0.00298910  1.0
  Zn  Zn1166  1  0.47453467  0.83907550  0.00298910  1.0
  Zn  Zn1167  1  0.80786800  0.17240883  0.00298910  1.0
  Zn  Zn1168  1  0.80786800  0.50574217  0.00298910  1.0
  Zn  Zn1169  1  0.80786800  0.83907550  0.00298910  1.0
  Zn  Zn1170  1  0.03789867  0.16244833  0.18506020  1.0
  Zn  Zn1171  1  0.03789867  0.49578167  0.18506020  1.0
  Zn  Zn1172  1  0.03789867  0.82911500  0.18506020  1.0
  Zn  Zn1173  1  0.37123200  0.16244833  0.18506020  1.0
  Zn  Zn1174  1  0.37123200  0.49578167  0.18506020  1.0
  Zn  Zn1175  1  0.37123200  0.82911500  0.18506020  1.0
  Zn  Zn1176  1  0.70456533  0.16244833  0.18506020  1.0
  Zn  Zn1177  1  0.70456533  0.49578167  0.18506020  1.0
  Zn  Zn1178  1  0.70456533  0.82911500  0.18506020  1.0
  Zn  Zn1179  1  0.03789867  0.32911500  0.08506020  1.0
  Zn  Zn1180  1  0.03789867  0.66244833  0.08506020  1.0
  Zn  Zn1181  1  0.03789867  0.99578167  0.08506020  1.0
  Zn  Zn1182  1  0.37123200  0.32911500  0.08506020  1.0
  Zn  Zn1183  1  0.37123200  0.66244833  0.08506020  1.0
  Zn  Zn1184  1  0.37123200  0.99578167  0.08506020  1.0
  Zn  Zn1185  1  0.70456533  0.32911500  0.08506020  1.0
  Zn  Zn1186  1  0.70456533  0.66244833  0.08506020  1.0
  Zn  Zn1187  1  0.70456533  0.99578167  0.08506020  1.0
  Zn  Zn1188  1  0.26393867  0.13141600  0.05765980  1.0
  Zn  Zn1189  1  0.26393867  0.46474933  0.05765980  1.0
  Zn  Zn1190  1  0.26393867  0.79808267  0.05765980  1.0
  Zn  Zn1191  1  0.59727200  0.13141600  0.05765980  1.0
  Zn  Zn1192  1  0.59727200  0.46474933  0.05765980  1.0
  Zn  Zn1193  1  0.59727200  0.79808267  0.05765980  1.0
  Zn  Zn1194  1  0.93060533  0.13141600  0.05765980  1.0
  Zn  Zn1195  1  0.93060533  0.46474933  0.05765980  1.0
  Zn  Zn1196  1  0.93060533  0.79808267  0.05765980  1.0
  Zn  Zn1197  1  0.26393867  0.29808267  0.15765980  1.0
  Zn  Zn1198  1  0.26393867  0.63141600  0.15765980  1.0
  Zn  Zn1199  1  0.26393867  0.96474933  0.15765980  1.0
  Zn  Zn1200  1  0.59727200  0.29808267  0.15765980  1.0
  Zn  Zn1201  1  0.59727200  0.63141600  0.15765980  1.0
  Zn  Zn1202  1  0.59727200  0.96474933  0.15765980  1.0
  Zn  Zn1203  1  0.93060533  0.29808267  0.15765980  1.0
  Zn  Zn1204  1  0.93060533  0.63141600  0.15765980  1.0
  Zn  Zn1205  1  0.93060533  0.96474933  0.15765980  1.0
  Zn  Zn1206  1  0.10314033  0.08115867  0.03873880  1.0
  Zn  Zn1207  1  0.10314033  0.41449200  0.03873880  1.0
  Zn  Zn1208  1  0.10314033  0.74782533  0.03873880  1.0
  Zn  Zn1209  1  0.43647367  0.08115867  0.03873880  1.0
  Zn  Zn1210  1  0.43647367  0.41449200  0.03873880  1.0
  Zn  Zn1211  1  0.43647367  0.74782533  0.03873880  1.0
  Zn  Zn1212  1  0.76980700  0.08115867  0.03873880  1.0
  Zn  Zn1213  1  0.76980700  0.41449200  0.03873880  1.0
  Zn  Zn1214  1  0.76980700  0.74782533  0.03873880  1.0
  Zn  Zn1215  1  0.10314033  0.24782533  0.13873880  1.0
  Zn  Zn1216  1  0.10314033  0.58115867  0.13873880  1.0
  Zn  Zn1217  1  0.10314033  0.91449200  0.13873880  1.0
  Zn  Zn1218  1  0.43647367  0.24782533  0.13873880  1.0
  Zn  Zn1219  1  0.43647367  0.58115867  0.13873880  1.0
  Zn  Zn1220  1  0.43647367  0.91449200  0.13873880  1.0
  Zn  Zn1221  1  0.76980700  0.24782533  0.13873880  1.0
  Zn  Zn1222  1  0.76980700  0.58115867  0.13873880  1.0
  Zn  Zn1223  1  0.76980700  0.91449200  0.13873880  1.0
  Zn  Zn1224  1  0.06939467  0.09486917  0.19187550  1.0
  Zn  Zn1225  1  0.06939467  0.42820250  0.19187550  1.0
  Zn  Zn1226  1  0.06939467  0.76153583  0.19187550  1.0
  Zn  Zn1227  1  0.40272800  0.09486917  0.19187550  1.0
  Zn  Zn1228  1  0.40272800  0.42820250  0.19187550  1.0
  Zn  Zn1229  1  0.40272800  0.76153583  0.19187550  1.0
  Zn  Zn1230  1  0.73606133  0.09486917  0.19187550  1.0
  Zn  Zn1231  1  0.73606133  0.42820250  0.19187550  1.0
  Zn  Zn1232  1  0.73606133  0.76153583  0.19187550  1.0
  Zn  Zn1233  1  0.06939467  0.26153583  0.09187550  1.0
  Zn  Zn1234  1  0.06939467  0.59486917  0.09187550  1.0
  Zn  Zn1235  1  0.06939467  0.92820250  0.09187550  1.0
  Zn  Zn1236  1  0.40272800  0.26153583  0.09187550  1.0
  Zn  Zn1237  1  0.40272800  0.59486917  0.09187550  1.0
  Zn  Zn1238  1  0.40272800  0.92820250  0.09187550  1.0
  Zn  Zn1239  1  0.73606133  0.26153583  0.09187550  1.0
  Zn  Zn1240  1  0.73606133  0.59486917  0.09187550  1.0
  Zn  Zn1241  1  0.73606133  0.92820250  0.09187550  1.0
  Zn  Zn1242  1  0.25905267  0.01440467  0.04829080  1.0
  Zn  Zn1243  1  0.25905267  0.34773800  0.04829080  1.0
  Zn  Zn1244  1  0.25905267  0.68107133  0.04829080  1.0
  Zn  Zn1245  1  0.59238600  0.01440467  0.04829080  1.0
  Zn  Zn1246  1  0.59238600  0.34773800  0.04829080  1.0
  Zn  Zn1247  1  0.59238600  0.68107133  0.04829080  1.0
  Zn  Zn1248  1  0.92571933  0.01440467  0.04829080  1.0
  Zn  Zn1249  1  0.92571933  0.34773800  0.04829080  1.0
  Zn  Zn1250  1  0.92571933  0.68107133  0.04829080  1.0
  Zn  Zn1251  1  0.25905267  0.18107133  0.14829080  1.0
  Zn  Zn1252  1  0.25905267  0.51440467  0.14829080  1.0
  Zn  Zn1253  1  0.25905267  0.84773800  0.14829080  1.0
  Zn  Zn1254  1  0.59238600  0.18107133  0.14829080  1.0
  Zn  Zn1255  1  0.59238600  0.51440467  0.14829080  1.0
  Zn  Zn1256  1  0.59238600  0.84773800  0.14829080  1.0
  Zn  Zn1257  1  0.92571933  0.18107133  0.14829080  1.0
  Zn  Zn1258  1  0.92571933  0.51440467  0.14829080  1.0
  Zn  Zn1259  1  0.92571933  0.84773800  0.14829080  1.0
  Zn  Zn1260  1  0.32133600  0.15828017  0.17755750  1.0
  Zn  Zn1261  1  0.32133600  0.49161350  0.17755750  1.0
  Zn  Zn1262  1  0.32133600  0.82494683  0.17755750  1.0
  Zn  Zn1263  1  0.65466933  0.15828017  0.17755750  1.0
  Zn  Zn1264  1  0.65466933  0.49161350  0.17755750  1.0
  Zn  Zn1265  1  0.65466933  0.82494683  0.17755750  1.0
  Zn  Zn1266  1  0.98800267  0.15828017  0.17755750  1.0
  Zn  Zn1267  1  0.98800267  0.49161350  0.17755750  1.0
  Zn  Zn1268  1  0.98800267  0.82494683  0.17755750  1.0
  Zn  Zn1269  1  0.32133600  0.32494683  0.07755750  1.0
  Zn  Zn1270  1  0.32133600  0.65828017  0.07755750  1.0
  Zn  Zn1271  1  0.32133600  0.99161350  0.07755750  1.0
  Zn  Zn1272  1  0.65466933  0.32494683  0.07755750  1.0
  Zn  Zn1273  1  0.65466933  0.65828017  0.07755750  1.0
  Zn  Zn1274  1  0.65466933  0.99161350  0.07755750  1.0
  Zn  Zn1275  1  0.98800267  0.32494683  0.07755750  1.0
  Zn  Zn1276  1  0.98800267  0.65828017  0.07755750  1.0
  Zn  Zn1277  1  0.98800267  0.99161350  0.07755750  1.0
  Zn  Zn1278  1  0.24094733  0.03916233  0.03343620  1.0
  Zn  Zn1279  1  0.24094733  0.37249567  0.03343620  1.0
  Zn  Zn1280  1  0.24094733  0.70582900  0.03343620  1.0
  Zn  Zn1281  1  0.57428067  0.03916233  0.03343620  1.0
  Zn  Zn1282  1  0.57428067  0.37249567  0.03343620  1.0
  Zn  Zn1283  1  0.57428067  0.70582900  0.03343620  1.0
  Zn  Zn1284  1  0.90761400  0.03916233  0.03343620  1.0
  Zn  Zn1285  1  0.90761400  0.37249567  0.03343620  1.0
  Zn  Zn1286  1  0.90761400  0.70582900  0.03343620  1.0
  Zn  Zn1287  1  0.24094733  0.20582900  0.13343620  1.0
  Zn  Zn1288  1  0.24094733  0.53916233  0.13343620  1.0
  Zn  Zn1289  1  0.24094733  0.87249567  0.13343620  1.0
  Zn  Zn1290  1  0.57428067  0.20582900  0.13343620  1.0
  Zn  Zn1291  1  0.57428067  0.53916233  0.13343620  1.0
  Zn  Zn1292  1  0.57428067  0.87249567  0.13343620  1.0
  Zn  Zn1293  1  0.90761400  0.20582900  0.13343620  1.0
  Zn  Zn1294  1  0.90761400  0.53916233  0.13343620  1.0
  Zn  Zn1295  1  0.90761400  0.87249567  0.13343620  1.0
  Zn  Zn1296  1  0.19724567  0.10242633  0.12712600  1.0
  Zn  Zn1297  1  0.19724567  0.43575967  0.12712600  1.0
  Zn  Zn1298  1  0.19724567  0.76909300  0.12712600  1.0
  Zn  Zn1299  1  0.53057900  0.10242633  0.12712600  1.0
  Zn  Zn1300  1  0.53057900  0.43575967  0.12712600  1.0
  Zn  Zn1301  1  0.53057900  0.76909300  0.12712600  1.0
  Zn  Zn1302  1  0.86391233  0.10242633  0.12712600  1.0
  Zn  Zn1303  1  0.86391233  0.43575967  0.12712600  1.0
  Zn  Zn1304  1  0.86391233  0.76909300  0.12712600  1.0
  Zn  Zn1305  1  0.19724567  0.26909300  0.02712600  1.0
  Zn  Zn1306  1  0.19724567  0.60242633  0.02712600  1.0
  Zn  Zn1307  1  0.19724567  0.93575967  0.02712600  1.0
  Zn  Zn1308  1  0.53057900  0.26909300  0.02712600  1.0
  Zn  Zn1309  1  0.53057900  0.60242633  0.02712600  1.0
  Zn  Zn1310  1  0.53057900  0.93575967  0.02712600  1.0
  Zn  Zn1311  1  0.86391233  0.26909300  0.02712600  1.0
  Zn  Zn1312  1  0.86391233  0.60242633  0.02712600  1.0
  Zn  Zn1313  1  0.86391233  0.93575967  0.02712600  1.0
  Zn  Zn1314  1  0.05120400  0.07531533  0.02822080  1.0
  Zn  Zn1315  1  0.05120400  0.40864867  0.02822080  1.0
  Zn  Zn1316  1  0.05120400  0.74198200  0.02822080  1.0
  Zn  Zn1317  1  0.38453733  0.07531533  0.02822080  1.0
  Zn  Zn1318  1  0.38453733  0.40864867  0.02822080  1.0
  Zn  Zn1319  1  0.38453733  0.74198200  0.02822080  1.0
  Zn  Zn1320  1  0.71787067  0.07531533  0.02822080  1.0
  Zn  Zn1321  1  0.71787067  0.40864867  0.02822080  1.0
  Zn  Zn1322  1  0.71787067  0.74198200  0.02822080  1.0
  Zn  Zn1323  1  0.05120400  0.24198200  0.12822080  1.0
  Zn  Zn1324  1  0.05120400  0.57531533  0.12822080  1.0
  Zn  Zn1325  1  0.05120400  0.90864867  0.12822080  1.0
  Zn  Zn1326  1  0.38453733  0.24198200  0.12822080  1.0
  Zn  Zn1327  1  0.38453733  0.57531533  0.12822080  1.0
  Zn  Zn1328  1  0.38453733  0.90864867  0.12822080  1.0
  Zn  Zn1329  1  0.71787067  0.24198200  0.12822080  1.0
  Zn  Zn1330  1  0.71787067  0.57531533  0.12822080  1.0
  Zn  Zn1331  1  0.71787067  0.90864867  0.12822080  1.0
  Zn  Zn1332  1  0.23606133  0.04808267  0.10765980  1.0
  Zn  Zn1333  1  0.23606133  0.38141600  0.10765980  1.0
  Zn  Zn1334  1  0.23606133  0.71474933  0.10765980  1.0
  Zn  Zn1335  1  0.56939467  0.04808267  0.10765980  1.0
  Zn  Zn1336  1  0.56939467  0.38141600  0.10765980  1.0
  Zn  Zn1337  1  0.56939467  0.71474933  0.10765980  1.0
  Zn  Zn1338  1  0.90272800  0.04808267  0.10765980  1.0
  Zn  Zn1339  1  0.90272800  0.38141600  0.10765980  1.0
  Zn  Zn1340  1  0.90272800  0.71474933  0.10765980  1.0
  Zn  Zn1341  1  0.23606133  0.21474933  0.00765980  1.0
  Zn  Zn1342  1  0.23606133  0.54808267  0.00765980  1.0
  Zn  Zn1343  1  0.23606133  0.88141600  0.00765980  1.0
  Zn  Zn1344  1  0.56939467  0.21474933  0.00765980  1.0
  Zn  Zn1345  1  0.56939467  0.54808267  0.00765980  1.0
  Zn  Zn1346  1  0.56939467  0.88141600  0.00765980  1.0
  Zn  Zn1347  1  0.90272800  0.21474933  0.00765980  1.0
  Zn  Zn1348  1  0.90272800  0.54808267  0.00765980  1.0
  Zn  Zn1349  1  0.90272800  0.88141600  0.00765980  1.0
  Zn  Zn1350  1  0.19724567  0.14418083  0.10207330  1.0
  Zn  Zn1351  1  0.19724567  0.47751417  0.10207330  1.0
  Zn  Zn1352  1  0.19724567  0.81084750  0.10207330  1.0
  Zn  Zn1353  1  0.53057900  0.14418083  0.10207330  1.0
  Zn  Zn1354  1  0.53057900  0.47751417  0.10207330  1.0
  Zn  Zn1355  1  0.53057900  0.81084750  0.10207330  1.0
  Zn  Zn1356  1  0.86391233  0.14418083  0.10207330  1.0
  Zn  Zn1357  1  0.86391233  0.47751417  0.10207330  1.0
  Zn  Zn1358  1  0.86391233  0.81084750  0.10207330  1.0
  Zn  Zn1359  1  0.19724567  0.31084750  0.00207330  1.0
  Zn  Zn1360  1  0.19724567  0.64418083  0.00207330  1.0
  Zn  Zn1361  1  0.19724567  0.97751417  0.00207330  1.0
  Zn  Zn1362  1  0.53057900  0.31084750  0.00207330  1.0
  Zn  Zn1363  1  0.53057900  0.64418083  0.00207330  1.0
  Zn  Zn1364  1  0.53057900  0.97751417  0.00207330  1.0
  Zn  Zn1365  1  0.86391233  0.31084750  0.00207330  1.0
  Zn  Zn1366  1  0.86391233  0.64418083  0.00207330  1.0
  Zn  Zn1367  1  0.86391233  0.97751417  0.00207330  1.0
  Zn  Zn1368  1  0.15605000  0.11359417  0.14381510  1.0
  Zn  Zn1369  1  0.15605000  0.44692750  0.14381510  1.0
  Zn  Zn1370  1  0.15605000  0.78026083  0.14381510  1.0
  Zn  Zn1371  1  0.48938333  0.11359417  0.14381510  1.0
  Zn  Zn1372  1  0.48938333  0.44692750  0.14381510  1.0
  Zn  Zn1373  1  0.48938333  0.78026083  0.14381510  1.0
  Zn  Zn1374  1  0.82271667  0.11359417  0.14381510  1.0
  Zn  Zn1375  1  0.82271667  0.44692750  0.14381510  1.0
  Zn  Zn1376  1  0.82271667  0.78026083  0.14381510  1.0
  Zn  Zn1377  1  0.15605000  0.28026083  0.04381510  1.0
  Zn  Zn1378  1  0.15605000  0.61359417  0.04381510  1.0
  Zn  Zn1379  1  0.15605000  0.94692750  0.04381510  1.0
  Zn  Zn1380  1  0.48938333  0.28026083  0.04381510  1.0
  Zn  Zn1381  1  0.48938333  0.61359417  0.04381510  1.0
  Zn  Zn1382  1  0.48938333  0.94692750  0.04381510  1.0
  Zn  Zn1383  1  0.82271667  0.28026083  0.04381510  1.0
  Zn  Zn1384  1  0.82271667  0.61359417  0.04381510  1.0
  Zn  Zn1385  1  0.82271667  0.94692750  0.04381510  1.0
  Zn  Zn1386  1  0.13281567  0.12078867  0.18119440  1.0
  Zn  Zn1387  1  0.13281567  0.45412200  0.18119440  1.0
  Zn  Zn1388  1  0.13281567  0.78745533  0.18119440  1.0
  Zn  Zn1389  1  0.46614900  0.12078867  0.18119440  1.0
  Zn  Zn1390  1  0.46614900  0.45412200  0.18119440  1.0
  Zn  Zn1391  1  0.46614900  0.78745533  0.18119440  1.0
  Zn  Zn1392  1  0.79948233  0.12078867  0.18119440  1.0
  Zn  Zn1393  1  0.79948233  0.45412200  0.18119440  1.0
  Zn  Zn1394  1  0.79948233  0.78745533  0.18119440  1.0
  Zn  Zn1395  1  0.13281567  0.28745533  0.08119440  1.0
  Zn  Zn1396  1  0.13281567  0.62078867  0.08119440  1.0
  Zn  Zn1397  1  0.13281567  0.95412200  0.08119440  1.0
  Zn  Zn1398  1  0.46614900  0.28745533  0.08119440  1.0
  Zn  Zn1399  1  0.46614900  0.62078867  0.08119440  1.0
  Zn  Zn1400  1  0.46614900  0.95412200  0.08119440  1.0
  Zn  Zn1401  1  0.79948233  0.28745533  0.08119440  1.0
  Zn  Zn1402  1  0.79948233  0.62078867  0.08119440  1.0
  Zn  Zn1403  1  0.79948233  0.95412200  0.08119440  1.0
  Zn  Zn1404  1  0.32552100  0.15560383  0.04706790  1.0
  Zn  Zn1405  1  0.32552100  0.48893717  0.04706790  1.0
  Zn  Zn1406  1  0.32552100  0.82227050  0.04706790  1.0
  Zn  Zn1407  1  0.65885433  0.15560383  0.04706790  1.0
  Zn  Zn1408  1  0.65885433  0.48893717  0.04706790  1.0
  Zn  Zn1409  1  0.65885433  0.82227050  0.04706790  1.0
  Zn  Zn1410  1  0.99218767  0.15560383  0.04706790  1.0
  Zn  Zn1411  1  0.99218767  0.48893717  0.04706790  1.0
  Zn  Zn1412  1  0.99218767  0.82227050  0.04706790  1.0
  Zn  Zn1413  1  0.32552100  0.32227050  0.14706790  1.0
  Zn  Zn1414  1  0.32552100  0.65560383  0.14706790  1.0
  Zn  Zn1415  1  0.32552100  0.98893717  0.14706790  1.0
  Zn  Zn1416  1  0.65885433  0.32227050  0.14706790  1.0
  Zn  Zn1417  1  0.65885433  0.65560383  0.14706790  1.0
  Zn  Zn1418  1  0.65885433  0.98893717  0.14706790  1.0
  Zn  Zn1419  1  0.99218767  0.32227050  0.14706790  1.0
  Zn  Zn1420  1  0.99218767  0.65560383  0.14706790  1.0
  Zn  Zn1421  1  0.99218767  0.98893717  0.14706790  1.0
  Zn  Zn1422  1  0.20051767  0.15327667  0.03967280  1.0
  Zn  Zn1423  1  0.20051767  0.48661000  0.03967280  1.0
  Zn  Zn1424  1  0.20051767  0.81994333  0.03967280  1.0
  Zn  Zn1425  1  0.53385100  0.15327667  0.03967280  1.0
  Zn  Zn1426  1  0.53385100  0.48661000  0.03967280  1.0
  Zn  Zn1427  1  0.53385100  0.81994333  0.03967280  1.0
  Zn  Zn1428  1  0.86718433  0.15327667  0.03967280  1.0
  Zn  Zn1429  1  0.86718433  0.48661000  0.03967280  1.0
  Zn  Zn1430  1  0.86718433  0.81994333  0.03967280  1.0
  Zn  Zn1431  1  0.20051767  0.31994333  0.13967280  1.0
  Zn  Zn1432  1  0.20051767  0.65327667  0.13967280  1.0
  Zn  Zn1433  1  0.20051767  0.98661000  0.13967280  1.0
  Zn  Zn1434  1  0.53385100  0.31994333  0.13967280  1.0
  Zn  Zn1435  1  0.53385100  0.65327667  0.13967280  1.0
  Zn  Zn1436  1  0.53385100  0.98661000  0.13967280  1.0
  Zn  Zn1437  1  0.86718433  0.31994333  0.13967280  1.0
  Zn  Zn1438  1  0.86718433  0.65327667  0.13967280  1.0
  Zn  Zn1439  1  0.86718433  0.98661000  0.13967280  1.0
  Zn  Zn1440  1  0.29948233  0.12921133  0.05411200  1.0
  Zn  Zn1441  1  0.29948233  0.46254467  0.05411200  1.0
  Zn  Zn1442  1  0.29948233  0.79587800  0.05411200  1.0
  Zn  Zn1443  1  0.63281567  0.12921133  0.05411200  1.0
  Zn  Zn1444  1  0.63281567  0.46254467  0.05411200  1.0
  Zn  Zn1445  1  0.63281567  0.79587800  0.05411200  1.0
  Zn  Zn1446  1  0.96614900  0.12921133  0.05411200  1.0
  Zn  Zn1447  1  0.96614900  0.46254467  0.05411200  1.0
  Zn  Zn1448  1  0.96614900  0.79587800  0.05411200  1.0
  Zn  Zn1449  1  0.29948233  0.29587800  0.15411200  1.0
  Zn  Zn1450  1  0.29948233  0.62921133  0.15411200  1.0
  Zn  Zn1451  1  0.29948233  0.96254467  0.15411200  1.0
  Zn  Zn1452  1  0.63281567  0.29587800  0.15411200  1.0
  Zn  Zn1453  1  0.63281567  0.62921133  0.15411200  1.0
  Zn  Zn1454  1  0.63281567  0.96254467  0.15411200  1.0
  Zn  Zn1455  1  0.96614900  0.29587800  0.15411200  1.0
  Zn  Zn1456  1  0.96614900  0.62921133  0.15411200  1.0
  Zn  Zn1457  1  0.96614900  0.96254467  0.15411200  1.0
  Zn  Zn1458  1  0.17728333  0.05307250  0.14149130  1.0
  Zn  Zn1459  1  0.17728333  0.38640583  0.14149130  1.0
  Zn  Zn1460  1  0.17728333  0.71973917  0.14149130  1.0
  Zn  Zn1461  1  0.51061667  0.05307250  0.14149130  1.0
  Zn  Zn1462  1  0.51061667  0.38640583  0.14149130  1.0
  Zn  Zn1463  1  0.51061667  0.71973917  0.14149130  1.0
  Zn  Zn1464  1  0.84395000  0.05307250  0.14149130  1.0
  Zn  Zn1465  1  0.84395000  0.38640583  0.14149130  1.0
  Zn  Zn1466  1  0.84395000  0.71973917  0.14149130  1.0
  Zn  Zn1467  1  0.17728333  0.21973917  0.04149130  1.0
  Zn  Zn1468  1  0.17728333  0.55307250  0.04149130  1.0
  Zn  Zn1469  1  0.17728333  0.88640583  0.04149130  1.0
  Zn  Zn1470  1  0.51061667  0.21973917  0.04149130  1.0
  Zn  Zn1471  1  0.51061667  0.55307250  0.04149130  1.0
  Zn  Zn1472  1  0.51061667  0.88640583  0.04149130  1.0
  Zn  Zn1473  1  0.84395000  0.21973917  0.04149130  1.0
  Zn  Zn1474  1  0.84395000  0.55307250  0.04149130  1.0
  Zn  Zn1475  1  0.84395000  0.88640583  0.04149130  1.0
  Zn  Zn1476  1  0.02546533  0.08907550  0.05298910  1.0
  Zn  Zn1477  1  0.02546533  0.42240883  0.05298910  1.0
  Zn  Zn1478  1  0.02546533  0.75574217  0.05298910  1.0
  Zn  Zn1479  1  0.35879867  0.08907550  0.05298910  1.0
  Zn  Zn1480  1  0.35879867  0.42240883  0.05298910  1.0
  Zn  Zn1481  1  0.35879867  0.75574217  0.05298910  1.0
  Zn  Zn1482  1  0.69213200  0.08907550  0.05298910  1.0
  Zn  Zn1483  1  0.69213200  0.42240883  0.05298910  1.0
  Zn  Zn1484  1  0.69213200  0.75574217  0.05298910  1.0
  Zn  Zn1485  1  0.02546533  0.25574217  0.15298910  1.0
  Zn  Zn1486  1  0.02546533  0.58907550  0.15298910  1.0
  Zn  Zn1487  1  0.02546533  0.92240883  0.15298910  1.0
  Zn  Zn1488  1  0.35879867  0.25574217  0.15298910  1.0
  Zn  Zn1489  1  0.35879867  0.58907550  0.15298910  1.0
  Zn  Zn1490  1  0.35879867  0.92240883  0.15298910  1.0
  Zn  Zn1491  1  0.69213200  0.25574217  0.15298910  1.0
  Zn  Zn1492  1  0.69213200  0.58907550  0.15298910  1.0
  Zn  Zn1493  1  0.69213200  0.92240883  0.15298910  1.0
  Zn  Zn1494  1  0.23606133  0.15513083  0.04343090  1.0
  Zn  Zn1495  1  0.23606133  0.48846417  0.04343090  1.0
  Zn  Zn1496  1  0.23606133  0.82179750  0.04343090  1.0
  Zn  Zn1497  1  0.56939467  0.15513083  0.04343090  1.0
  Zn  Zn1498  1  0.56939467  0.48846417  0.04343090  1.0
  Zn  Zn1499  1  0.56939467  0.82179750  0.04343090  1.0
  Zn  Zn1500  1  0.90272800  0.15513083  0.04343090  1.0
  Zn  Zn1501  1  0.90272800  0.48846417  0.04343090  1.0
  Zn  Zn1502  1  0.90272800  0.82179750  0.04343090  1.0
  Zn  Zn1503  1  0.23606133  0.32179750  0.14343090  1.0
  Zn  Zn1504  1  0.23606133  0.65513083  0.14343090  1.0
  Zn  Zn1505  1  0.23606133  0.98846417  0.14343090  1.0
  Zn  Zn1506  1  0.56939467  0.32179750  0.14343090  1.0
  Zn  Zn1507  1  0.56939467  0.65513083  0.14343090  1.0
  Zn  Zn1508  1  0.56939467  0.98846417  0.14343090  1.0
  Zn  Zn1509  1  0.90272800  0.32179750  0.14343090  1.0
  Zn  Zn1510  1  0.90272800  0.65513083  0.14343090  1.0
  Zn  Zn1511  1  0.90272800  0.98846417  0.14343090  1.0
  Zn  Zn1512  1  0.15885433  0.03245633  0.02540240  1.0
  Zn  Zn1513  1  0.15885433  0.36578967  0.02540240  1.0
  Zn  Zn1514  1  0.15885433  0.69912300  0.02540240  1.0
  Zn  Zn1515  1  0.49218767  0.03245633  0.02540240  1.0
  Zn  Zn1516  1  0.49218767  0.36578967  0.02540240  1.0
  Zn  Zn1517  1  0.49218767  0.69912300  0.02540240  1.0
  Zn  Zn1518  1  0.82552100  0.03245633  0.02540240  1.0
  Zn  Zn1519  1  0.82552100  0.36578967  0.02540240  1.0
  Zn  Zn1520  1  0.82552100  0.69912300  0.02540240  1.0
  Zn  Zn1521  1  0.15885433  0.19912300  0.12540240  1.0
  Zn  Zn1522  1  0.15885433  0.53245633  0.12540240  1.0
  Zn  Zn1523  1  0.15885433  0.86578967  0.12540240  1.0
  Zn  Zn1524  1  0.49218767  0.19912300  0.12540240  1.0
  Zn  Zn1525  1  0.49218767  0.53245633  0.12540240  1.0
  Zn  Zn1526  1  0.49218767  0.86578967  0.12540240  1.0
  Zn  Zn1527  1  0.82552100  0.19912300  0.12540240  1.0
  Zn  Zn1528  1  0.82552100  0.53245633  0.12540240  1.0
  Zn  Zn1529  1  0.82552100  0.86578967  0.12540240  1.0
  Zn  Zn1530  1  0.13608767  0.06424033  0.15818040  1.0
  Zn  Zn1531  1  0.13608767  0.39757367  0.15818040  1.0
  Zn  Zn1532  1  0.13608767  0.73090700  0.15818040  1.0
  Zn  Zn1533  1  0.46942100  0.06424033  0.15818040  1.0
  Zn  Zn1534  1  0.46942100  0.39757367  0.15818040  1.0
  Zn  Zn1535  1  0.46942100  0.73090700  0.15818040  1.0
  Zn  Zn1536  1  0.80275433  0.06424033  0.15818040  1.0
  Zn  Zn1537  1  0.80275433  0.39757367  0.15818040  1.0
  Zn  Zn1538  1  0.80275433  0.73090700  0.15818040  1.0
  Zn  Zn1539  1  0.13608767  0.23090700  0.05818040  1.0
  Zn  Zn1540  1  0.13608767  0.56424033  0.05818040  1.0
  Zn  Zn1541  1  0.13608767  0.89757367  0.05818040  1.0
  Zn  Zn1542  1  0.46942100  0.23090700  0.05818040  1.0
  Zn  Zn1543  1  0.46942100  0.56424033  0.05818040  1.0
  Zn  Zn1544  1  0.46942100  0.89757367  0.05818040  1.0
  Zn  Zn1545  1  0.80275433  0.23090700  0.05818040  1.0
  Zn  Zn1546  1  0.80275433  0.56424033  0.05818040  1.0
  Zn  Zn1547  1  0.80275433  0.89757367  0.05818040  1.0
  Zn  Zn1548  1  0.28199633  0.11473117  0.14391230  1.0
  Zn  Zn1549  1  0.28199633  0.44806450  0.14391230  1.0
  Zn  Zn1550  1  0.28199633  0.78139783  0.14391230  1.0
  Zn  Zn1551  1  0.61532967  0.11473117  0.14391230  1.0
  Zn  Zn1552  1  0.61532967  0.44806450  0.14391230  1.0
  Zn  Zn1553  1  0.61532967  0.78139783  0.14391230  1.0
  Zn  Zn1554  1  0.94866300  0.11473117  0.14391230  1.0
  Zn  Zn1555  1  0.94866300  0.44806450  0.14391230  1.0
  Zn  Zn1556  1  0.94866300  0.78139783  0.14391230  1.0
  Zn  Zn1557  1  0.28199633  0.28139783  0.04391230  1.0
  Zn  Zn1558  1  0.28199633  0.61473117  0.04391230  1.0
  Zn  Zn1559  1  0.28199633  0.94806450  0.04391230  1.0
  Zn  Zn1560  1  0.61532967  0.28139783  0.04391230  1.0
  Zn  Zn1561  1  0.61532967  0.61473117  0.04391230  1.0
  Zn  Zn1562  1  0.61532967  0.94806450  0.04391230  1.0
  Zn  Zn1563  1  0.94866300  0.28139783  0.04391230  1.0
  Zn  Zn1564  1  0.94866300  0.61473117  0.04391230  1.0
  Zn  Zn1565  1  0.94866300  0.94806450  0.04391230  1.0
  Zn  Zn1566  1  0.13608767  0.02248583  0.18323310  1.0
  Zn  Zn1567  1  0.13608767  0.35581917  0.18323310  1.0
  Zn  Zn1568  1  0.13608767  0.68915250  0.18323310  1.0
  Zn  Zn1569  1  0.46942100  0.02248583  0.18323310  1.0
  Zn  Zn1570  1  0.46942100  0.35581917  0.18323310  1.0
  Zn  Zn1571  1  0.46942100  0.68915250  0.18323310  1.0
  Zn  Zn1572  1  0.80275433  0.02248583  0.18323310  1.0
  Zn  Zn1573  1  0.80275433  0.35581917  0.18323310  1.0
  Zn  Zn1574  1  0.80275433  0.68915250  0.18323310  1.0
  Zn  Zn1575  1  0.13608767  0.18915250  0.08323310  1.0
  Zn  Zn1576  1  0.13608767  0.52248583  0.08323310  1.0
  Zn  Zn1577  1  0.13608767  0.85581917  0.08323310  1.0
  Zn  Zn1578  1  0.46942100  0.18915250  0.08323310  1.0
  Zn  Zn1579  1  0.46942100  0.52248583  0.08323310  1.0
  Zn  Zn1580  1  0.46942100  0.85581917  0.08323310  1.0
  Zn  Zn1581  1  0.80275433  0.18915250  0.08323310  1.0
  Zn  Zn1582  1  0.80275433  0.52248583  0.08323310  1.0
  Zn  Zn1583  1  0.80275433  0.85581917  0.08323310  1.0
  Zn  Zn1584  1  0.32271667  0.09749550  0.11483750  1.0
  Zn  Zn1585  1  0.32271667  0.43082883  0.11483750  1.0
  Zn  Zn1586  1  0.32271667  0.76416217  0.11483750  1.0
  Zn  Zn1587  1  0.65605000  0.09749550  0.11483750  1.0
  Zn  Zn1588  1  0.65605000  0.43082883  0.11483750  1.0
  Zn  Zn1589  1  0.65605000  0.76416217  0.11483750  1.0
  Zn  Zn1590  1  0.98938333  0.09749550  0.11483750  1.0
  Zn  Zn1591  1  0.98938333  0.43082883  0.11483750  1.0
  Zn  Zn1592  1  0.98938333  0.76416217  0.11483750  1.0
  Zn  Zn1593  1  0.32271667  0.26416217  0.01483750  1.0
  Zn  Zn1594  1  0.32271667  0.59749550  0.01483750  1.0
  Zn  Zn1595  1  0.32271667  0.93082883  0.01483750  1.0
  Zn  Zn1596  1  0.65605000  0.26416217  0.01483750  1.0
  Zn  Zn1597  1  0.65605000  0.59749550  0.01483750  1.0
  Zn  Zn1598  1  0.65605000  0.93082883  0.01483750  1.0
  Zn  Zn1599  1  0.98938333  0.26416217  0.01483750  1.0
  Zn  Zn1600  1  0.98938333  0.59749550  0.01483750  1.0
  Zn  Zn1601  1  0.98938333  0.93082883  0.01483750  1.0
  Zn  Zn1602  1  0.12876800  0.07911500  0.03506020  1.0
  Zn  Zn1603  1  0.12876800  0.41244833  0.03506020  1.0
  Zn  Zn1604  1  0.12876800  0.74578167  0.03506020  1.0
  Zn  Zn1605  1  0.46210133  0.07911500  0.03506020  1.0
  Zn  Zn1606  1  0.46210133  0.41244833  0.03506020  1.0
  Zn  Zn1607  1  0.46210133  0.74578167  0.03506020  1.0
  Zn  Zn1608  1  0.79543467  0.07911500  0.03506020  1.0
  Zn  Zn1609  1  0.79543467  0.41244833  0.03506020  1.0
  Zn  Zn1610  1  0.79543467  0.74578167  0.03506020  1.0
  Zn  Zn1611  1  0.12876800  0.24578167  0.13506020  1.0
  Zn  Zn1612  1  0.12876800  0.57911500  0.13506020  1.0
  Zn  Zn1613  1  0.12876800  0.91244833  0.13506020  1.0
  Zn  Zn1614  1  0.46210133  0.24578167  0.13506020  1.0
  Zn  Zn1615  1  0.46210133  0.57911500  0.13506020  1.0
  Zn  Zn1616  1  0.46210133  0.91244833  0.13506020  1.0
  Zn  Zn1617  1  0.79543467  0.24578167  0.13506020  1.0
  Zn  Zn1618  1  0.79543467  0.57911500  0.13506020  1.0
  Zn  Zn1619  1  0.79543467  0.91244833  0.13506020  1.0
  Zn  Zn1620  1  0.00000000  0.08333333  0.04265320  1.0
  Zn  Zn1621  1  0.00000000  0.41666667  0.04265320  1.0
  Zn  Zn1622  1  0.00000000  0.75000000  0.04265320  1.0
  Zn  Zn1623  1  0.33333333  0.08333333  0.04265320  1.0
  Zn  Zn1624  1  0.33333333  0.41666667  0.04265320  1.0
  Zn  Zn1625  1  0.33333333  0.75000000  0.04265320  1.0
  Zn  Zn1626  1  0.66666667  0.08333333  0.04265320  1.0
  Zn  Zn1627  1  0.66666667  0.41666667  0.04265320  1.0
  Zn  Zn1628  1  0.66666667  0.75000000  0.04265320  1.0
  Zn  Zn1629  1  0.00000000  0.25000000  0.14265320  1.0
  Zn  Zn1630  1  0.00000000  0.58333333  0.14265320  1.0
  Zn  Zn1631  1  0.00000000  0.91666667  0.14265320  1.0
  Zn  Zn1632  1  0.33333333  0.25000000  0.14265320  1.0
  Zn  Zn1633  1  0.33333333  0.58333333  0.14265320  1.0
  Zn  Zn1634  1  0.33333333  0.91666667  0.14265320  1.0
  Zn  Zn1635  1  0.66666667  0.25000000  0.14265320  1.0
  Zn  Zn1636  1  0.66666667  0.58333333  0.14265320  1.0
  Zn  Zn1637  1  0.66666667  0.91666667  0.14265320  1.0
  Zn  Zn1638  1  0.26009400  0.01647700  0.17042200  1.0
  Zn  Zn1639  1  0.26009400  0.34981033  0.17042200  1.0
  Zn  Zn1640  1  0.26009400  0.68314367  0.17042200  1.0
  Zn  Zn1641  1  0.59342733  0.01647700  0.17042200  1.0
  Zn  Zn1642  1  0.59342733  0.34981033  0.17042200  1.0
  Zn  Zn1643  1  0.59342733  0.68314367  0.17042200  1.0
  Zn  Zn1644  1  0.92676067  0.01647700  0.17042200  1.0
  Zn  Zn1645  1  0.92676067  0.34981033  0.17042200  1.0
  Zn  Zn1646  1  0.92676067  0.68314367  0.17042200  1.0
  Zn  Zn1647  1  0.26009400  0.18314367  0.07042200  1.0
  Zn  Zn1648  1  0.26009400  0.51647700  0.07042200  1.0
  Zn  Zn1649  1  0.26009400  0.84981033  0.07042200  1.0
  Zn  Zn1650  1  0.59342733  0.18314367  0.07042200  1.0
  Zn  Zn1651  1  0.59342733  0.51647700  0.07042200  1.0
  Zn  Zn1652  1  0.59342733  0.84981033  0.07042200  1.0
  Zn  Zn1653  1  0.92676067  0.18314367  0.07042200  1.0
  Zn  Zn1654  1  0.92676067  0.51647700  0.07042200  1.0
  Zn  Zn1655  1  0.92676067  0.84981033  0.07042200  1.0
  Zn  Zn1656  1  0.07323933  0.11009783  0.13893950  1.0
  Zn  Zn1657  1  0.07323933  0.44343117  0.13893950  1.0
  Zn  Zn1658  1  0.07323933  0.77676450  0.13893950  1.0
  Zn  Zn1659  1  0.40657267  0.11009783  0.13893950  1.0
  Zn  Zn1660  1  0.40657267  0.44343117  0.13893950  1.0
  Zn  Zn1661  1  0.40657267  0.77676450  0.13893950  1.0
  Zn  Zn1662  1  0.73990600  0.11009783  0.13893950  1.0
  Zn  Zn1663  1  0.73990600  0.44343117  0.13893950  1.0
  Zn  Zn1664  1  0.73990600  0.77676450  0.13893950  1.0
  Zn  Zn1665  1  0.07323933  0.27676450  0.03893950  1.0
  Zn  Zn1666  1  0.07323933  0.61009783  0.03893950  1.0
  Zn  Zn1667  1  0.07323933  0.94343117  0.03893950  1.0
  Zn  Zn1668  1  0.40657267  0.27676450  0.03893950  1.0
  Zn  Zn1669  1  0.40657267  0.61009783  0.03893950  1.0
  Zn  Zn1670  1  0.40657267  0.94343117  0.03893950  1.0
  Zn  Zn1671  1  0.73990600  0.27676450  0.03893950  1.0
  Zn  Zn1672  1  0.73990600  0.61009783  0.03893950  1.0
  Zn  Zn1673  1  0.73990600  0.94343117  0.03893950  1.0
  Zn  Zn1674  1  0.30473867  0.01395033  0.04653500  1.0
  Zn  Zn1675  1  0.30473867  0.34728367  0.04653500  1.0
  Zn  Zn1676  1  0.30473867  0.68061700  0.04653500  1.0
  Zn  Zn1677  1  0.63807200  0.01395033  0.04653500  1.0
  Zn  Zn1678  1  0.63807200  0.34728367  0.04653500  1.0
  Zn  Zn1679  1  0.63807200  0.68061700  0.04653500  1.0
  Zn  Zn1680  1  0.97140533  0.01395033  0.04653500  1.0
  Zn  Zn1681  1  0.97140533  0.34728367  0.04653500  1.0
  Zn  Zn1682  1  0.97140533  0.68061700  0.04653500  1.0
  Zn  Zn1683  1  0.30473867  0.18061700  0.14653500  1.0
  Zn  Zn1684  1  0.30473867  0.51395033  0.14653500  1.0
  Zn  Zn1685  1  0.30473867  0.84728367  0.14653500  1.0
  Zn  Zn1686  1  0.63807200  0.18061700  0.14653500  1.0
  Zn  Zn1687  1  0.63807200  0.51395033  0.14653500  1.0
  Zn  Zn1688  1  0.63807200  0.84728367  0.14653500  1.0
  Zn  Zn1689  1  0.97140533  0.18061700  0.14653500  1.0
  Zn  Zn1690  1  0.97140533  0.51395033  0.14653500  1.0
  Zn  Zn1691  1  0.97140533  0.84728367  0.14653500  1.0
  Zn  Zn1692  1  0.30275433  0.01909300  0.17712600  1.0
  Zn  Zn1693  1  0.30275433  0.35242633  0.17712600  1.0
  Zn  Zn1694  1  0.30275433  0.68575967  0.17712600  1.0
  Zn  Zn1695  1  0.63608767  0.01909300  0.17712600  1.0
  Zn  Zn1696  1  0.63608767  0.35242633  0.17712600  1.0
  Zn  Zn1697  1  0.63608767  0.68575967  0.17712600  1.0
  Zn  Zn1698  1  0.96942100  0.01909300  0.17712600  1.0
  Zn  Zn1699  1  0.96942100  0.35242633  0.17712600  1.0
  Zn  Zn1700  1  0.96942100  0.68575967  0.17712600  1.0
  Zn  Zn1701  1  0.30275433  0.18575967  0.07712600  1.0
  Zn  Zn1702  1  0.30275433  0.51909300  0.07712600  1.0
  Zn  Zn1703  1  0.30275433  0.85242633  0.07712600  1.0
  Zn  Zn1704  1  0.63608767  0.18575967  0.07712600  1.0
  Zn  Zn1705  1  0.63608767  0.51909300  0.07712600  1.0
  Zn  Zn1706  1  0.63608767  0.85242633  0.07712600  1.0
  Zn  Zn1707  1  0.96942100  0.18575967  0.07712600  1.0
  Zn  Zn1708  1  0.96942100  0.51909300  0.07712600  1.0
  Zn  Zn1709  1  0.96942100  0.85242633  0.07712600  1.0
  Zn  Zn1710  1  0.24094733  0.09773800  0.19829080  1.0
  Zn  Zn1711  1  0.24094733  0.43107133  0.19829080  1.0
  Zn  Zn1712  1  0.24094733  0.76440467  0.19829080  1.0
  Zn  Zn1713  1  0.57428067  0.09773800  0.19829080  1.0
  Zn  Zn1714  1  0.57428067  0.43107133  0.19829080  1.0
  Zn  Zn1715  1  0.57428067  0.76440467  0.19829080  1.0
  Zn  Zn1716  1  0.90761400  0.09773800  0.19829080  1.0
  Zn  Zn1717  1  0.90761400  0.43107133  0.19829080  1.0
  Zn  Zn1718  1  0.90761400  0.76440467  0.19829080  1.0
  Zn  Zn1719  1  0.24094733  0.26440467  0.09829080  1.0
  Zn  Zn1720  1  0.24094733  0.59773800  0.09829080  1.0
  Zn  Zn1721  1  0.24094733  0.93107133  0.09829080  1.0
  Zn  Zn1722  1  0.57428067  0.26440467  0.09829080  1.0
  Zn  Zn1723  1  0.57428067  0.59773800  0.09829080  1.0
  Zn  Zn1724  1  0.57428067  0.93107133  0.09829080  1.0
  Zn  Zn1725  1  0.90761400  0.26440467  0.09829080  1.0
  Zn  Zn1726  1  0.90761400  0.59773800  0.09829080  1.0
  Zn  Zn1727  1  0.90761400  0.93107133  0.09829080  1.0
  Zn  Zn1728  1  0.20456533  0.08755167  0.05024620  1.0
  Zn  Zn1729  1  0.20456533  0.42088500  0.05024620  1.0
  Zn  Zn1730  1  0.20456533  0.75421833  0.05024620  1.0
  Zn  Zn1731  1  0.53789867  0.08755167  0.05024620  1.0
  Zn  Zn1732  1  0.53789867  0.42088500  0.05024620  1.0
  Zn  Zn1733  1  0.53789867  0.75421833  0.05024620  1.0
  Zn  Zn1734  1  0.87123200  0.08755167  0.05024620  1.0
  Zn  Zn1735  1  0.87123200  0.42088500  0.05024620  1.0
  Zn  Zn1736  1  0.87123200  0.75421833  0.05024620  1.0
  Zn  Zn1737  1  0.20456533  0.25421833  0.15024620  1.0
  Zn  Zn1738  1  0.20456533  0.58755167  0.15024620  1.0
  Zn  Zn1739  1  0.20456533  0.92088500  0.15024620  1.0
  Zn  Zn1740  1  0.53789867  0.25421833  0.15024620  1.0
  Zn  Zn1741  1  0.53789867  0.58755167  0.15024620  1.0
  Zn  Zn1742  1  0.53789867  0.92088500  0.15024620  1.0
  Zn  Zn1743  1  0.87123200  0.25421833  0.15024620  1.0
  Zn  Zn1744  1  0.87123200  0.58755167  0.15024620  1.0
  Zn  Zn1745  1  0.87123200  0.92088500  0.15024620  1.0
  Zn  Zn1746  1  0.28088533  0.03118783  0.02293750  1.0
  Zn  Zn1747  1  0.28088533  0.36452117  0.02293750  1.0
  Zn  Zn1748  1  0.28088533  0.69785450  0.02293750  1.0
  Zn  Zn1749  1  0.61421867  0.03118783  0.02293750  1.0
  Zn  Zn1750  1  0.61421867  0.36452117  0.02293750  1.0
  Zn  Zn1751  1  0.61421867  0.69785450  0.02293750  1.0
  Zn  Zn1752  1  0.94755200  0.03118783  0.02293750  1.0
  Zn  Zn1753  1  0.94755200  0.36452117  0.02293750  1.0
  Zn  Zn1754  1  0.94755200  0.69785450  0.02293750  1.0
  Zn  Zn1755  1  0.28088533  0.19785450  0.12293750  1.0
  Zn  Zn1756  1  0.28088533  0.53118783  0.12293750  1.0
  Zn  Zn1757  1  0.28088533  0.86452117  0.12293750  1.0
  Zn  Zn1758  1  0.61421867  0.19785450  0.12293750  1.0
  Zn  Zn1759  1  0.61421867  0.53118783  0.12293750  1.0
  Zn  Zn1760  1  0.61421867  0.86452117  0.12293750  1.0
  Zn  Zn1761  1  0.94755200  0.19785450  0.12293750  1.0
  Zn  Zn1762  1  0.94755200  0.53118783  0.12293750  1.0
  Zn  Zn1763  1  0.94755200  0.86452117  0.12293750  1.0
  Zn  Zn1764  1  0.01061667  0.03026083  0.19381510  1.0
  Zn  Zn1765  1  0.01061667  0.36359417  0.19381510  1.0
  Zn  Zn1766  1  0.01061667  0.69692750  0.19381510  1.0
  Zn  Zn1767  1  0.34395000  0.03026083  0.19381510  1.0
  Zn  Zn1768  1  0.34395000  0.36359417  0.19381510  1.0
  Zn  Zn1769  1  0.34395000  0.69692750  0.19381510  1.0
  Zn  Zn1770  1  0.67728333  0.03026083  0.19381510  1.0
  Zn  Zn1771  1  0.67728333  0.36359417  0.19381510  1.0
  Zn  Zn1772  1  0.67728333  0.69692750  0.19381510  1.0
  Zn  Zn1773  1  0.01061667  0.19692750  0.09381510  1.0
  Zn  Zn1774  1  0.01061667  0.53026083  0.09381510  1.0
  Zn  Zn1775  1  0.01061667  0.86359417  0.09381510  1.0
  Zn  Zn1776  1  0.34395000  0.19692750  0.09381510  1.0
  Zn  Zn1777  1  0.34395000  0.53026083  0.09381510  1.0
  Zn  Zn1778  1  0.34395000  0.86359417  0.09381510  1.0
  Zn  Zn1779  1  0.67728333  0.19692750  0.09381510  1.0
  Zn  Zn1780  1  0.67728333  0.53026083  0.09381510  1.0
  Zn  Zn1781  1  0.67728333  0.86359417  0.09381510  1.0
  Zn  Zn1782  1  0.02859467  0.04540700  0.10315700  1.0
  Zn  Zn1783  1  0.02859467  0.37874033  0.10315700  1.0
  Zn  Zn1784  1  0.02859467  0.71207367  0.10315700  1.0
  Zn  Zn1785  1  0.36192800  0.04540700  0.10315700  1.0
  Zn  Zn1786  1  0.36192800  0.37874033  0.10315700  1.0
  Zn  Zn1787  1  0.36192800  0.71207367  0.10315700  1.0
  Zn  Zn1788  1  0.69526133  0.04540700  0.10315700  1.0
  Zn  Zn1789  1  0.69526133  0.37874033  0.10315700  1.0
  Zn  Zn1790  1  0.69526133  0.71207367  0.10315700  1.0
  Zn  Zn1791  1  0.02859467  0.21207367  0.00315700  1.0
  Zn  Zn1792  1  0.02859467  0.54540700  0.00315700  1.0
  Zn  Zn1793  1  0.02859467  0.87874033  0.00315700  1.0
  Zn  Zn1794  1  0.36192800  0.21207367  0.00315700  1.0
  Zn  Zn1795  1  0.36192800  0.54540700  0.00315700  1.0
  Zn  Zn1796  1  0.36192800  0.87874033  0.00315700  1.0
  Zn  Zn1797  1  0.69526133  0.21207367  0.00315700  1.0
  Zn  Zn1798  1  0.69526133  0.54540700  0.00315700  1.0
  Zn  Zn1799  1  0.69526133  0.87874033  0.00315700  1.0
  Zn  Zn1800  1  0.09342733  0.02676450  0.18893950  1.0
  Zn  Zn1801  1  0.09342733  0.36009783  0.18893950  1.0
  Zn  Zn1802  1  0.09342733  0.69343117  0.18893950  1.0
  Zn  Zn1803  1  0.42676067  0.02676450  0.18893950  1.0
  Zn  Zn1804  1  0.42676067  0.36009783  0.18893950  1.0
  Zn  Zn1805  1  0.42676067  0.69343117  0.18893950  1.0
  Zn  Zn1806  1  0.76009400  0.02676450  0.18893950  1.0
  Zn  Zn1807  1  0.76009400  0.36009783  0.18893950  1.0
  Zn  Zn1808  1  0.76009400  0.69343117  0.18893950  1.0
  Zn  Zn1809  1  0.09342733  0.19343117  0.08893950  1.0
  Zn  Zn1810  1  0.09342733  0.52676450  0.08893950  1.0
  Zn  Zn1811  1  0.09342733  0.86009783  0.08893950  1.0
  Zn  Zn1812  1  0.42676067  0.19343117  0.08893950  1.0
  Zn  Zn1813  1  0.42676067  0.52676450  0.08893950  1.0
  Zn  Zn1814  1  0.42676067  0.86009783  0.08893950  1.0
  Zn  Zn1815  1  0.76009400  0.19343117  0.08893950  1.0
  Zn  Zn1816  1  0.76009400  0.52676450  0.08893950  1.0
  Zn  Zn1817  1  0.76009400  0.86009783  0.08893950  1.0
  Zn  Zn1818  1  0.19526133  0.09728367  0.19653500  1.0
  Zn  Zn1819  1  0.19526133  0.43061700  0.19653500  1.0
  Zn  Zn1820  1  0.19526133  0.76395033  0.19653500  1.0
  Zn  Zn1821  1  0.52859467  0.09728367  0.19653500  1.0
  Zn  Zn1822  1  0.52859467  0.43061700  0.19653500  1.0
  Zn  Zn1823  1  0.52859467  0.76395033  0.19653500  1.0
  Zn  Zn1824  1  0.86192800  0.09728367  0.19653500  1.0
  Zn  Zn1825  1  0.86192800  0.43061700  0.19653500  1.0
  Zn  Zn1826  1  0.86192800  0.76395033  0.19653500  1.0
  Zn  Zn1827  1  0.19526133  0.26395033  0.09653500  1.0
  Zn  Zn1828  1  0.19526133  0.59728367  0.09653500  1.0
  Zn  Zn1829  1  0.19526133  0.93061700  0.09653500  1.0
  Zn  Zn1830  1  0.52859467  0.26395033  0.09653500  1.0
  Zn  Zn1831  1  0.52859467  0.59728367  0.09653500  1.0
  Zn  Zn1832  1  0.52859467  0.93061700  0.09653500  1.0
  Zn  Zn1833  1  0.86192800  0.26395033  0.09653500  1.0
  Zn  Zn1834  1  0.86192800  0.59728367  0.09653500  1.0
  Zn  Zn1835  1  0.86192800  0.93061700  0.09653500  1.0
  Zn  Zn1836  1  0.17447900  0.13421033  0.05990400  1.0
  Zn  Zn1837  1  0.17447900  0.46754367  0.05990400  1.0
  Zn  Zn1838  1  0.17447900  0.80087700  0.05990400  1.0
  Zn  Zn1839  1  0.50781233  0.13421033  0.05990400  1.0
  Zn  Zn1840  1  0.50781233  0.46754367  0.05990400  1.0
  Zn  Zn1841  1  0.50781233  0.80087700  0.05990400  1.0
  Zn  Zn1842  1  0.84114567  0.13421033  0.05990400  1.0
  Zn  Zn1843  1  0.84114567  0.46754367  0.05990400  1.0
  Zn  Zn1844  1  0.84114567  0.80087700  0.05990400  1.0
  Zn  Zn1845  1  0.17447900  0.30087700  0.15990400  1.0
  Zn  Zn1846  1  0.17447900  0.63421033  0.15990400  1.0
  Zn  Zn1847  1  0.17447900  0.96754367  0.15990400  1.0
  Zn  Zn1848  1  0.50781233  0.30087700  0.15990400  1.0
  Zn  Zn1849  1  0.50781233  0.63421033  0.15990400  1.0
  Zn  Zn1850  1  0.50781233  0.96754367  0.15990400  1.0
  Zn  Zn1851  1  0.84114567  0.30087700  0.15990400  1.0
  Zn  Zn1852  1  0.84114567  0.63421033  0.15990400  1.0
  Zn  Zn1853  1  0.84114567  0.96754367  0.15990400  1.0
  Zn  Zn1854  1  0.00781233  0.11578967  0.17540240  1.0
  Zn  Zn1855  1  0.00781233  0.44912300  0.17540240  1.0
  Zn  Zn1856  1  0.00781233  0.78245633  0.17540240  1.0
  Zn  Zn1857  1  0.34114567  0.11578967  0.17540240  1.0
  Zn  Zn1858  1  0.34114567  0.44912300  0.17540240  1.0
  Zn  Zn1859  1  0.34114567  0.78245633  0.17540240  1.0
  Zn  Zn1860  1  0.67447900  0.11578967  0.17540240  1.0
  Zn  Zn1861  1  0.67447900  0.44912300  0.17540240  1.0
  Zn  Zn1862  1  0.67447900  0.78245633  0.17540240  1.0
  Zn  Zn1863  1  0.00781233  0.28245633  0.07540240  1.0
  Zn  Zn1864  1  0.00781233  0.61578967  0.07540240  1.0
  Zn  Zn1865  1  0.00781233  0.94912300  0.07540240  1.0
  Zn  Zn1866  1  0.34114567  0.28245633  0.07540240  1.0
  Zn  Zn1867  1  0.34114567  0.61578967  0.07540240  1.0
  Zn  Zn1868  1  0.34114567  0.94912300  0.07540240  1.0
  Zn  Zn1869  1  0.67447900  0.28245633  0.07540240  1.0
  Zn  Zn1870  1  0.67447900  0.61578967  0.07540240  1.0
  Zn  Zn1871  1  0.67447900  0.94912300  0.07540240  1.0
  Zn  Zn1872  1  0.20051767  0.04587800  0.10411200  1.0
  Zn  Zn1873  1  0.20051767  0.37921133  0.10411200  1.0
  Zn  Zn1874  1  0.20051767  0.71254467  0.10411200  1.0
  Zn  Zn1875  1  0.53385100  0.04587800  0.10411200  1.0
  Zn  Zn1876  1  0.53385100  0.37921133  0.10411200  1.0
  Zn  Zn1877  1  0.53385100  0.71254467  0.10411200  1.0
  Zn  Zn1878  1  0.86718433  0.04587800  0.10411200  1.0
  Zn  Zn1879  1  0.86718433  0.37921133  0.10411200  1.0
  Zn  Zn1880  1  0.86718433  0.71254467  0.10411200  1.0
  Zn  Zn1881  1  0.20051767  0.21254467  0.00411200  1.0
  Zn  Zn1882  1  0.20051767  0.54587800  0.00411200  1.0
  Zn  Zn1883  1  0.20051767  0.87921133  0.00411200  1.0
  Zn  Zn1884  1  0.53385100  0.21254467  0.00411200  1.0
  Zn  Zn1885  1  0.53385100  0.54587800  0.00411200  1.0
  Zn  Zn1886  1  0.53385100  0.87921133  0.00411200  1.0
  Zn  Zn1887  1  0.86718433  0.21254467  0.00411200  1.0
  Zn  Zn1888  1  0.86718433  0.54587800  0.00411200  1.0
  Zn  Zn1889  1  0.86718433  0.87921133  0.00411200  1.0
  Zn  Zn1890  1  0.21800367  0.03139783  0.19391230  1.0
  Zn  Zn1891  1  0.21800367  0.36473117  0.19391230  1.0
  Zn  Zn1892  1  0.21800367  0.69806450  0.19391230  1.0
  Zn  Zn1893  1  0.55133700  0.03139783  0.19391230  1.0
  Zn  Zn1894  1  0.55133700  0.36473117  0.19391230  1.0
  Zn  Zn1895  1  0.55133700  0.69806450  0.19391230  1.0
  Zn  Zn1896  1  0.88467033  0.03139783  0.19391230  1.0
  Zn  Zn1897  1  0.88467033  0.36473117  0.19391230  1.0
  Zn  Zn1898  1  0.88467033  0.69806450  0.19391230  1.0
  Zn  Zn1899  1  0.21800367  0.19806450  0.09391230  1.0
  Zn  Zn1900  1  0.21800367  0.53139783  0.09391230  1.0
  Zn  Zn1901  1  0.21800367  0.86473117  0.09391230  1.0
  Zn  Zn1902  1  0.55133700  0.19806450  0.09391230  1.0
  Zn  Zn1903  1  0.55133700  0.53139783  0.09391230  1.0
  Zn  Zn1904  1  0.55133700  0.86473117  0.09391230  1.0
  Zn  Zn1905  1  0.88467033  0.19806450  0.09391230  1.0
  Zn  Zn1906  1  0.88467033  0.53139783  0.09391230  1.0
  Zn  Zn1907  1  0.88467033  0.86473117  0.09391230  1.0
  Ni  Ni1908  1  0.07285900  0.04263617  0.16939830  1.0
  Ni  Ni1909  1  0.07285900  0.37596950  0.16939830  1.0
  Ni  Ni1910  1  0.07285900  0.70930283  0.16939830  1.0
  Ni  Ni1911  1  0.40619233  0.04263617  0.16939830  1.0
  Ni  Ni1912  1  0.40619233  0.37596950  0.16939830  1.0
  Ni  Ni1913  1  0.40619233  0.70930283  0.16939830  1.0
  Ni  Ni1914  1  0.73952567  0.04263617  0.16939830  1.0
  Ni  Ni1915  1  0.73952567  0.37596950  0.16939830  1.0
  Ni  Ni1916  1  0.73952567  0.70930283  0.16939830  1.0
  Ni  Ni1917  1  0.07285900  0.20930283  0.06939830  1.0
  Ni  Ni1918  1  0.07285900  0.54263617  0.06939830  1.0
  Ni  Ni1919  1  0.07285900  0.87596950  0.06939830  1.0
  Ni  Ni1920  1  0.40619233  0.20930283  0.06939830  1.0
  Ni  Ni1921  1  0.40619233  0.54263617  0.06939830  1.0
  Ni  Ni1922  1  0.40619233  0.87596950  0.06939830  1.0
  Ni  Ni1923  1  0.73952567  0.20930283  0.06939830  1.0
  Ni  Ni1924  1  0.73952567  0.54263617  0.06939830  1.0
  Ni  Ni1925  1  0.73952567  0.87596950  0.06939830  1.0
  Ni  Ni1926  1  0.28126967  0.04442133  0.17261160  1.0
  Ni  Ni1927  1  0.28126967  0.37775467  0.17261160  1.0
  Ni  Ni1928  1  0.28126967  0.71108800  0.17261160  1.0
  Ni  Ni1929  1  0.61460300  0.04442133  0.17261160  1.0
  Ni  Ni1930  1  0.61460300  0.37775467  0.17261160  1.0
  Ni  Ni1931  1  0.61460300  0.71108800  0.17261160  1.0
  Ni  Ni1932  1  0.94793633  0.04442133  0.17261160  1.0
  Ni  Ni1933  1  0.94793633  0.37775467  0.17261160  1.0
  Ni  Ni1934  1  0.94793633  0.71108800  0.17261160  1.0
  Ni  Ni1935  1  0.28126967  0.21108800  0.07261160  1.0
  Ni  Ni1936  1  0.28126967  0.54442133  0.07261160  1.0
  Ni  Ni1937  1  0.28126967  0.87775467  0.07261160  1.0
  Ni  Ni1938  1  0.61460300  0.21108800  0.07261160  1.0
  Ni  Ni1939  1  0.61460300  0.54442133  0.07261160  1.0
  Ni  Ni1940  1  0.61460300  0.87775467  0.07261160  1.0
  Ni  Ni1941  1  0.94793633  0.21108800  0.07261160  1.0
  Ni  Ni1942  1  0.94793633  0.54442133  0.07261160  1.0
  Ni  Ni1943  1  0.94793633  0.87775467  0.07261160  1.0
  Ni  Ni1944  1  0.01158933  0.06808867  0.08530640  1.0
  Ni  Ni1945  1  0.01158933  0.40142200  0.08530640  1.0
  Ni  Ni1946  1  0.01158933  0.73475533  0.08530640  1.0
  Ni  Ni1947  1  0.34492267  0.06808867  0.08530640  1.0
  Ni  Ni1948  1  0.34492267  0.40142200  0.08530640  1.0
  Ni  Ni1949  1  0.34492267  0.73475533  0.08530640  1.0
  Ni  Ni1950  1  0.67825600  0.06808867  0.08530640  1.0
  Ni  Ni1951  1  0.67825600  0.40142200  0.08530640  1.0
  Ni  Ni1952  1  0.67825600  0.73475533  0.08530640  1.0
  Ni  Ni1953  1  0.01158933  0.23475533  0.18530640  1.0
  Ni  Ni1954  1  0.01158933  0.56808867  0.18530640  1.0
  Ni  Ni1955  1  0.01158933  0.90142200  0.18530640  1.0
  Ni  Ni1956  1  0.34492267  0.23475533  0.18530640  1.0
  Ni  Ni1957  1  0.34492267  0.56808867  0.18530640  1.0
  Ni  Ni1958  1  0.34492267  0.90142200  0.18530640  1.0
  Ni  Ni1959  1  0.67825600  0.23475533  0.18530640  1.0
  Ni  Ni1960  1  0.67825600  0.56808867  0.18530640  1.0
  Ni  Ni1961  1  0.67825600  0.90142200  0.18530640  1.0
  Ni  Ni1962  1  0.32321967  0.03861100  0.16215300  1.0
  Ni  Ni1963  1  0.32321967  0.37194433  0.16215300  1.0
  Ni  Ni1964  1  0.32321967  0.70527767  0.16215300  1.0
  Ni  Ni1965  1  0.65655300  0.03861100  0.16215300  1.0
  Ni  Ni1966  1  0.65655300  0.37194433  0.16215300  1.0
  Ni  Ni1967  1  0.65655300  0.70527767  0.16215300  1.0
  Ni  Ni1968  1  0.98988633  0.03861100  0.16215300  1.0
  Ni  Ni1969  1  0.98988633  0.37194433  0.16215300  1.0
  Ni  Ni1970  1  0.98988633  0.70527767  0.16215300  1.0
  Ni  Ni1971  1  0.32321967  0.20527767  0.06215300  1.0
  Ni  Ni1972  1  0.32321967  0.53861100  0.06215300  1.0
  Ni  Ni1973  1  0.32321967  0.87194433  0.06215300  1.0
  Ni  Ni1974  1  0.65655300  0.20527767  0.06215300  1.0
  Ni  Ni1975  1  0.65655300  0.53861100  0.06215300  1.0
  Ni  Ni1976  1  0.65655300  0.87194433  0.06215300  1.0
  Ni  Ni1977  1  0.98988633  0.20527767  0.06215300  1.0
  Ni  Ni1978  1  0.98988633  0.53861100  0.06215300  1.0
  Ni  Ni1979  1  0.98988633  0.87194433  0.06215300  1.0
  Ni  Ni1980  1  0.01158933  0.12650000  0.05025960  1.0
  Ni  Ni1981  1  0.01158933  0.45983333  0.05025960  1.0
  Ni  Ni1982  1  0.01158933  0.79316667  0.05025960  1.0
  Ni  Ni1983  1  0.34492267  0.12650000  0.05025960  1.0
  Ni  Ni1984  1  0.34492267  0.45983333  0.05025960  1.0
  Ni  Ni1985  1  0.34492267  0.79316667  0.05025960  1.0
  Ni  Ni1986  1  0.67825600  0.12650000  0.05025960  1.0
  Ni  Ni1987  1  0.67825600  0.45983333  0.05025960  1.0
  Ni  Ni1988  1  0.67825600  0.79316667  0.05025960  1.0
  Ni  Ni1989  1  0.01158933  0.29316667  0.15025960  1.0
  Ni  Ni1990  1  0.01158933  0.62650000  0.15025960  1.0
  Ni  Ni1991  1  0.01158933  0.95983333  0.15025960  1.0
  Ni  Ni1992  1  0.34492267  0.29316667  0.15025960  1.0
  Ni  Ni1993  1  0.34492267  0.62650000  0.15025960  1.0
  Ni  Ni1994  1  0.34492267  0.95983333  0.15025960  1.0
  Ni  Ni1995  1  0.67825600  0.29316667  0.15025960  1.0
  Ni  Ni1996  1  0.67825600  0.62650000  0.15025960  1.0
  Ni  Ni1997  1  0.67825600  0.95983333  0.15025960  1.0
  Ni  Ni1998  1  0.17825600  0.12350000  0.18504680  1.0
  Ni  Ni1999  1  0.17825600  0.45683333  0.18504680  1.0
  Ni  Ni2000  1  0.17825600  0.79016667  0.18504680  1.0
  Ni  Ni2001  1  0.51158933  0.12350000  0.18504680  1.0
  Ni  Ni2002  1  0.51158933  0.45683333  0.18504680  1.0
  Ni  Ni2003  1  0.51158933  0.79016667  0.18504680  1.0
  Ni  Ni2004  1  0.84492267  0.12350000  0.18504680  1.0
  Ni  Ni2005  1  0.84492267  0.45683333  0.18504680  1.0
  Ni  Ni2006  1  0.84492267  0.79016667  0.18504680  1.0
  Ni  Ni2007  1  0.17825600  0.29016667  0.08504680  1.0
  Ni  Ni2008  1  0.17825600  0.62350000  0.08504680  1.0
  Ni  Ni2009  1  0.17825600  0.95683333  0.08504680  1.0
  Ni  Ni2010  1  0.51158933  0.29016667  0.08504680  1.0
  Ni  Ni2011  1  0.51158933  0.62350000  0.08504680  1.0
  Ni  Ni2012  1  0.51158933  0.95683333  0.08504680  1.0
  Ni  Ni2013  1  0.84492267  0.29016667  0.08504680  1.0
  Ni  Ni2014  1  0.84492267  0.62350000  0.08504680  1.0
  Ni  Ni2015  1  0.84492267  0.95683333  0.08504680  1.0
  Ni  Ni2016  1  0.30253867  0.12434717  0.11647810  1.0
  Ni  Ni2017  1  0.30253867  0.45768050  0.11647810  1.0
  Ni  Ni2018  1  0.30253867  0.79101383  0.11647810  1.0
  Ni  Ni2019  1  0.63587200  0.12434717  0.11647810  1.0
  Ni  Ni2020  1  0.63587200  0.45768050  0.11647810  1.0
  Ni  Ni2021  1  0.63587200  0.79101383  0.11647810  1.0
  Ni  Ni2022  1  0.96920533  0.12434717  0.11647810  1.0
  Ni  Ni2023  1  0.96920533  0.45768050  0.11647810  1.0
  Ni  Ni2024  1  0.96920533  0.79101383  0.11647810  1.0
  Ni  Ni2025  1  0.30253867  0.29101383  0.01647810  1.0
  Ni  Ni2026  1  0.30253867  0.62434717  0.01647810  1.0
  Ni  Ni2027  1  0.30253867  0.95768050  0.01647810  1.0
  Ni  Ni2028  1  0.63587200  0.29101383  0.01647810  1.0
  Ni  Ni2029  1  0.63587200  0.62434717  0.01647810  1.0
  Ni  Ni2030  1  0.63587200  0.95768050  0.01647810  1.0
  Ni  Ni2031  1  0.96920533  0.29101383  0.01647810  1.0
  Ni  Ni2032  1  0.96920533  0.62434717  0.01647810  1.0
  Ni  Ni2033  1  0.96920533  0.95768050  0.01647810  1.0
  Ni  Ni2034  1  0.05206367  0.12224533  0.11269480  1.0
  Ni  Ni2035  1  0.05206367  0.45557867  0.11269480  1.0
  Ni  Ni2036  1  0.05206367  0.78891200  0.11269480  1.0
  Ni  Ni2037  1  0.38539700  0.12224533  0.11269480  1.0
  Ni  Ni2038  1  0.38539700  0.45557867  0.11269480  1.0
  Ni  Ni2039  1  0.38539700  0.78891200  0.11269480  1.0
  Ni  Ni2040  1  0.71873033  0.12224533  0.11269480  1.0
  Ni  Ni2041  1  0.71873033  0.45557867  0.11269480  1.0
  Ni  Ni2042  1  0.71873033  0.78891200  0.11269480  1.0
  Ni  Ni2043  1  0.05206367  0.28891200  0.01269480  1.0
  Ni  Ni2044  1  0.05206367  0.62224533  0.01269480  1.0
  Ni  Ni2045  1  0.05206367  0.95557867  0.01269480  1.0
  Ni  Ni2046  1  0.38539700  0.28891200  0.01269480  1.0
  Ni  Ni2047  1  0.38539700  0.62224533  0.01269480  1.0
  Ni  Ni2048  1  0.38539700  0.95557867  0.01269480  1.0
  Ni  Ni2049  1  0.71873033  0.28891200  0.01269480  1.0
  Ni  Ni2050  1  0.71873033  0.62224533  0.01269480  1.0
  Ni  Ni2051  1  0.71873033  0.95557867  0.01269480  1.0
  Ni  Ni2052  1  0.17678033  0.12194433  0.11215300  1.0
  Ni  Ni2053  1  0.17678033  0.45527767  0.11215300  1.0
  Ni  Ni2054  1  0.17678033  0.78861100  0.11215300  1.0
  Ni  Ni2055  1  0.51011367  0.12194433  0.11215300  1.0
  Ni  Ni2056  1  0.51011367  0.45527767  0.11215300  1.0
  Ni  Ni2057  1  0.51011367  0.78861100  0.11215300  1.0
  Ni  Ni2058  1  0.84344700  0.12194433  0.11215300  1.0
  Ni  Ni2059  1  0.84344700  0.45527767  0.11215300  1.0
  Ni  Ni2060  1  0.84344700  0.78861100  0.11215300  1.0
  Ni  Ni2061  1  0.17678033  0.28861100  0.01215300  1.0
  Ni  Ni2062  1  0.17678033  0.62194433  0.01215300  1.0
  Ni  Ni2063  1  0.17678033  0.95527767  0.01215300  1.0
  Ni  Ni2064  1  0.51011367  0.28861100  0.01215300  1.0
  Ni  Ni2065  1  0.51011367  0.62194433  0.01215300  1.0
  Ni  Ni2066  1  0.51011367  0.95527767  0.01215300  1.0
  Ni  Ni2067  1  0.84344700  0.28861100  0.01215300  1.0
  Ni  Ni2068  1  0.84344700  0.62194433  0.01215300  1.0
  Ni  Ni2069  1  0.84344700  0.95527767  0.01215300  1.0
  Ni  Ni2070  1  0.26047433  0.12403050  0.11590810  1.0
  Ni  Ni2071  1  0.26047433  0.45736383  0.11590810  1.0
  Ni  Ni2072  1  0.26047433  0.79069717  0.11590810  1.0
  Ni  Ni2073  1  0.59380767  0.12403050  0.11590810  1.0
  Ni  Ni2074  1  0.59380767  0.45736383  0.11590810  1.0
  Ni  Ni2075  1  0.59380767  0.79069717  0.11590810  1.0
  Ni  Ni2076  1  0.92714100  0.12403050  0.11590810  1.0
  Ni  Ni2077  1  0.92714100  0.45736383  0.11590810  1.0
  Ni  Ni2078  1  0.92714100  0.79069717  0.11590810  1.0
  Ni  Ni2079  1  0.26047433  0.29069717  0.01590810  1.0
  Ni  Ni2080  1  0.26047433  0.62403050  0.01590810  1.0
  Ni  Ni2081  1  0.26047433  0.95736383  0.01590810  1.0
  Ni  Ni2082  1  0.59380767  0.29069717  0.01590810  1.0
  Ni  Ni2083  1  0.59380767  0.62403050  0.01590810  1.0
  Ni  Ni2084  1  0.59380767  0.95736383  0.01590810  1.0
  Ni  Ni2085  1  0.92714100  0.29069717  0.01590810  1.0
  Ni  Ni2086  1  0.92714100  0.62403050  0.01590810  1.0
  Ni  Ni2087  1  0.92714100  0.95736383  0.01590810  1.0
  Ni  Ni2088  1  0.01011367  0.12805567  0.12315340  1.0
  Ni  Ni2089  1  0.01011367  0.46138900  0.12315340  1.0
  Ni  Ni2090  1  0.01011367  0.79472233  0.12315340  1.0
  Ni  Ni2091  1  0.34344700  0.12805567  0.12315340  1.0
  Ni  Ni2092  1  0.34344700  0.46138900  0.12315340  1.0
  Ni  Ni2093  1  0.34344700  0.79472233  0.12315340  1.0
  Ni  Ni2094  1  0.67678033  0.12805567  0.12315340  1.0
  Ni  Ni2095  1  0.67678033  0.46138900  0.12315340  1.0
  Ni  Ni2096  1  0.67678033  0.79472233  0.12315340  1.0
  Ni  Ni2097  1  0.01011367  0.29472233  0.02315340  1.0
  Ni  Ni2098  1  0.01011367  0.62805567  0.02315340  1.0
  Ni  Ni2099  1  0.01011367  0.96138900  0.02315340  1.0
  Ni  Ni2100  1  0.34344700  0.29472233  0.02315340  1.0
  Ni  Ni2101  1  0.34344700  0.62805567  0.02315340  1.0
  Ni  Ni2102  1  0.34344700  0.96138900  0.02315340  1.0
  Ni  Ni2103  1  0.67678033  0.29472233  0.02315340  1.0
  Ni  Ni2104  1  0.67678033  0.62805567  0.02315340  1.0
  Ni  Ni2105  1  0.67678033  0.96138900  0.02315340  1.0
  Ni  Ni2106  1  0.28177233  0.15084000  0.03488620  1.0
  Ni  Ni2107  1  0.28177233  0.48417333  0.03488620  1.0
  Ni  Ni2108  1  0.28177233  0.81750667  0.03488620  1.0
  Ni  Ni2109  1  0.61510567  0.15084000  0.03488620  1.0
  Ni  Ni2110  1  0.61510567  0.48417333  0.03488620  1.0
  Ni  Ni2111  1  0.61510567  0.81750667  0.03488620  1.0
  Ni  Ni2112  1  0.94843900  0.15084000  0.03488620  1.0
  Ni  Ni2113  1  0.94843900  0.48417333  0.03488620  1.0
  Ni  Ni2114  1  0.94843900  0.81750667  0.03488620  1.0
  Ni  Ni2115  1  0.28177233  0.31750667  0.13488620  1.0
  Ni  Ni2116  1  0.28177233  0.65084000  0.13488620  1.0
  Ni  Ni2117  1  0.28177233  0.98417333  0.13488620  1.0
  Ni  Ni2118  1  0.61510567  0.31750667  0.13488620  1.0
  Ni  Ni2119  1  0.61510567  0.65084000  0.13488620  1.0
  Ni  Ni2120  1  0.61510567  0.98417333  0.13488620  1.0
  Ni  Ni2121  1  0.94843900  0.31750667  0.13488620  1.0
  Ni  Ni2122  1  0.94843900  0.65084000  0.13488620  1.0
  Ni  Ni2123  1  0.94843900  0.98417333  0.13488620  1.0
  Ni  Ni2124  1  0.11460300  0.03891200  0.16269480  1.0
  Ni  Ni2125  1  0.11460300  0.37224533  0.16269480  1.0
  Ni  Ni2126  1  0.11460300  0.70557867  0.16269480  1.0
  Ni  Ni2127  1  0.44793633  0.03891200  0.16269480  1.0
  Ni  Ni2128  1  0.44793633  0.37224533  0.16269480  1.0
  Ni  Ni2129  1  0.44793633  0.70557867  0.16269480  1.0
  Ni  Ni2130  1  0.78126967  0.03891200  0.16269480  1.0
  Ni  Ni2131  1  0.78126967  0.37224533  0.16269480  1.0
  Ni  Ni2132  1  0.78126967  0.70557867  0.16269480  1.0
  Ni  Ni2133  1  0.11460300  0.20557867  0.06269480  1.0
  Ni  Ni2134  1  0.11460300  0.53891200  0.06269480  1.0
  Ni  Ni2135  1  0.11460300  0.87224533  0.06269480  1.0
  Ni  Ni2136  1  0.44793633  0.20557867  0.06269480  1.0
  Ni  Ni2137  1  0.44793633  0.53891200  0.06269480  1.0
  Ni  Ni2138  1  0.44793633  0.87224533  0.06269480  1.0
  Ni  Ni2139  1  0.78126967  0.20557867  0.06269480  1.0
  Ni  Ni2140  1  0.78126967  0.53891200  0.06269480  1.0
  Ni  Ni2141  1  0.78126967  0.87224533  0.06269480  1.0
  Ni  Ni2142  1  0.05156100  0.12355917  0.18578070  1.0
  Ni  Ni2143  1  0.05156100  0.45689250  0.18578070  1.0
  Ni  Ni2144  1  0.05156100  0.79022583  0.18578070  1.0
  Ni  Ni2145  1  0.38489433  0.12355917  0.18578070  1.0
  Ni  Ni2146  1  0.38489433  0.45689250  0.18578070  1.0
  Ni  Ni2147  1  0.38489433  0.79022583  0.18578070  1.0
  Ni  Ni2148  1  0.71822767  0.12355917  0.18578070  1.0
  Ni  Ni2149  1  0.71822767  0.45689250  0.18578070  1.0
  Ni  Ni2150  1  0.71822767  0.79022583  0.18578070  1.0
  Ni  Ni2151  1  0.05156100  0.29022583  0.08578070  1.0
  Ni  Ni2152  1  0.05156100  0.62355917  0.08578070  1.0
  Ni  Ni2153  1  0.05156100  0.95689250  0.08578070  1.0
  Ni  Ni2154  1  0.38489433  0.29022583  0.08578070  1.0
  Ni  Ni2155  1  0.38489433  0.62355917  0.08578070  1.0
  Ni  Ni2156  1  0.38489433  0.95689250  0.08578070  1.0
  Ni  Ni2157  1  0.71822767  0.29022583  0.08578070  1.0
  Ni  Ni2158  1  0.71822767  0.62355917  0.08578070  1.0
  Ni  Ni2159  1  0.71822767  0.95689250  0.08578070  1.0
  Ni  Ni2160  1  0.09380767  0.12596950  0.11939830  1.0
  Ni  Ni2161  1  0.09380767  0.45930283  0.11939830  1.0
  Ni  Ni2162  1  0.09380767  0.79263617  0.11939830  1.0
  Ni  Ni2163  1  0.42714100  0.12596950  0.11939830  1.0
  Ni  Ni2164  1  0.42714100  0.45930283  0.11939830  1.0
  Ni  Ni2165  1  0.42714100  0.79263617  0.11939830  1.0
  Ni  Ni2166  1  0.76047433  0.12596950  0.11939830  1.0
  Ni  Ni2167  1  0.76047433  0.45930283  0.11939830  1.0
  Ni  Ni2168  1  0.76047433  0.79263617  0.11939830  1.0
  Ni  Ni2169  1  0.09380767  0.29263617  0.01939830  1.0
  Ni  Ni2170  1  0.09380767  0.62596950  0.01939830  1.0
  Ni  Ni2171  1  0.09380767  0.95930283  0.01939830  1.0
  Ni  Ni2172  1  0.42714100  0.29263617  0.01939830  1.0
  Ni  Ni2173  1  0.42714100  0.62596950  0.01939830  1.0
  Ni  Ni2174  1  0.42714100  0.95930283  0.01939830  1.0
  Ni  Ni2175  1  0.76047433  0.29263617  0.01939830  1.0
  Ni  Ni2176  1  0.76047433  0.62596950  0.01939830  1.0
  Ni  Ni2177  1  0.76047433  0.95930283  0.01939830  1.0
  Ni  Ni2178  1  0.28177233  0.04310750  0.09952570  1.0
  Ni  Ni2179  1  0.28177233  0.37644083  0.09952570  1.0
  Ni  Ni2180  1  0.28177233  0.70977417  0.09952570  1.0
  Ni  Ni2181  1  0.61510567  0.04310750  0.09952570  1.0
  Ni  Ni2182  1  0.61510567  0.37644083  0.09952570  1.0
  Ni  Ni2183  1  0.61510567  0.70977417  0.09952570  1.0
  Ni  Ni2184  1  0.94843900  0.04310750  0.09952570  1.0
  Ni  Ni2185  1  0.94843900  0.37644083  0.09952570  1.0
  Ni  Ni2186  1  0.94843900  0.70977417  0.09952570  1.0
  Ni  Ni2187  1  0.28177233  0.20977417  0.19952570  1.0
  Ni  Ni2188  1  0.28177233  0.54310750  0.19952570  1.0
  Ni  Ni2189  1  0.28177233  0.87644083  0.19952570  1.0
  Ni  Ni2190  1  0.61510567  0.20977417  0.19952570  1.0
  Ni  Ni2191  1  0.61510567  0.54310750  0.19952570  1.0
  Ni  Ni2192  1  0.61510567  0.87644083  0.19952570  1.0
  Ni  Ni2193  1  0.94843900  0.20977417  0.19952570  1.0
  Ni  Ni2194  1  0.94843900  0.54310750  0.19952570  1.0
  Ni  Ni2195  1  0.94843900  0.87644083  0.19952570  1.0
  Ni  Ni2196  1  0.11510567  0.09916000  0.00042020  1.0
  Ni  Ni2197  1  0.11510567  0.43249333  0.00042020  1.0
  Ni  Ni2198  1  0.11510567  0.76582667  0.00042020  1.0
  Ni  Ni2199  1  0.44843900  0.09916000  0.00042020  1.0
  Ni  Ni2200  1  0.44843900  0.43249333  0.00042020  1.0
  Ni  Ni2201  1  0.44843900  0.76582667  0.00042020  1.0
  Ni  Ni2202  1  0.78177233  0.09916000  0.00042020  1.0
  Ni  Ni2203  1  0.78177233  0.43249333  0.00042020  1.0
  Ni  Ni2204  1  0.78177233  0.76582667  0.00042020  1.0
  Ni  Ni2205  1  0.11510567  0.26582667  0.10042020  1.0
  Ni  Ni2206  1  0.11510567  0.59916000  0.10042020  1.0
  Ni  Ni2207  1  0.11510567  0.93249333  0.10042020  1.0
  Ni  Ni2208  1  0.44843900  0.26582667  0.10042020  1.0
  Ni  Ni2209  1  0.44843900  0.59916000  0.10042020  1.0
  Ni  Ni2210  1  0.44843900  0.93249333  0.10042020  1.0
  Ni  Ni2211  1  0.78177233  0.26582667  0.10042020  1.0
  Ni  Ni2212  1  0.78177233  0.59916000  0.10042020  1.0
  Ni  Ni2213  1  0.78177233  0.93249333  0.10042020  1.0
  Ni  Ni2214  1  0.15655300  0.04472233  0.17315340  1.0
  Ni  Ni2215  1  0.15655300  0.37805567  0.17315340  1.0
  Ni  Ni2216  1  0.15655300  0.71138900  0.17315340  1.0
  Ni  Ni2217  1  0.48988633  0.04472233  0.17315340  1.0
  Ni  Ni2218  1  0.48988633  0.37805567  0.17315340  1.0
  Ni  Ni2219  1  0.48988633  0.71138900  0.17315340  1.0
  Ni  Ni2220  1  0.82321967  0.04472233  0.17315340  1.0
  Ni  Ni2221  1  0.82321967  0.37805567  0.17315340  1.0
  Ni  Ni2222  1  0.82321967  0.71138900  0.17315340  1.0
  Ni  Ni2223  1  0.15655300  0.21138900  0.07315340  1.0
  Ni  Ni2224  1  0.15655300  0.54472233  0.07315340  1.0
  Ni  Ni2225  1  0.15655300  0.87805567  0.07315340  1.0
  Ni  Ni2226  1  0.48988633  0.21138900  0.07315340  1.0
  Ni  Ni2227  1  0.48988633  0.54472233  0.07315340  1.0
  Ni  Ni2228  1  0.48988633  0.87805567  0.07315340  1.0
  Ni  Ni2229  1  0.82321967  0.21138900  0.07315340  1.0
  Ni  Ni2230  1  0.82321967  0.54472233  0.07315340  1.0
  Ni  Ni2231  1  0.82321967  0.87805567  0.07315340  1.0
  Ni  Ni2232  1  0.17825600  0.01524467  0.05000000  1.0
  Ni  Ni2233  1  0.17825600  0.34857800  0.05000000  1.0
  Ni  Ni2234  1  0.17825600  0.68191133  0.05000000  1.0
  Ni  Ni2235  1  0.51158933  0.01524467  0.05000000  1.0
  Ni  Ni2236  1  0.51158933  0.34857800  0.05000000  1.0
  Ni  Ni2237  1  0.51158933  0.68191133  0.05000000  1.0
  Ni  Ni2238  1  0.84492267  0.01524467  0.05000000  1.0
  Ni  Ni2239  1  0.84492267  0.34857800  0.05000000  1.0
  Ni  Ni2240  1  0.84492267  0.68191133  0.05000000  1.0
  Ni  Ni2241  1  0.17825600  0.18191133  0.15000000  1.0
  Ni  Ni2242  1  0.17825600  0.51524467  0.15000000  1.0
  Ni  Ni2243  1  0.17825600  0.84857800  0.15000000  1.0
  Ni  Ni2244  1  0.51158933  0.18191133  0.15000000  1.0
  Ni  Ni2245  1  0.51158933  0.51524467  0.15000000  1.0
  Ni  Ni2246  1  0.51158933  0.84857800  0.15000000  1.0
  Ni  Ni2247  1  0.84492267  0.18191133  0.15000000  1.0
  Ni  Ni2248  1  0.84492267  0.51524467  0.15000000  1.0
  Ni  Ni2249  1  0.84492267  0.84857800  0.15000000  1.0
  Ni  Ni2250  1  0.11510567  0.04022583  0.03578070  1.0
  Ni  Ni2251  1  0.11510567  0.37355917  0.03578070  1.0
  Ni  Ni2252  1  0.11510567  0.70689250  0.03578070  1.0
  Ni  Ni2253  1  0.44843900  0.04022583  0.03578070  1.0
  Ni  Ni2254  1  0.44843900  0.37355917  0.03578070  1.0
  Ni  Ni2255  1  0.44843900  0.70689250  0.03578070  1.0
  Ni  Ni2256  1  0.78177233  0.04022583  0.03578070  1.0
  Ni  Ni2257  1  0.78177233  0.37355917  0.03578070  1.0
  Ni  Ni2258  1  0.78177233  0.70689250  0.03578070  1.0
  Ni  Ni2259  1  0.11510567  0.20689250  0.13578070  1.0
  Ni  Ni2260  1  0.11510567  0.54022583  0.13578070  1.0
  Ni  Ni2261  1  0.11510567  0.87355917  0.13578070  1.0
  Ni  Ni2262  1  0.44843900  0.20689250  0.13578070  1.0
  Ni  Ni2263  1  0.44843900  0.54022583  0.13578070  1.0
  Ni  Ni2264  1  0.44843900  0.87355917  0.13578070  1.0
  Ni  Ni2265  1  0.78177233  0.20689250  0.13578070  1.0
  Ni  Ni2266  1  0.78177233  0.54022583  0.13578070  1.0
  Ni  Ni2267  1  0.78177233  0.87355917  0.13578070  1.0
  Ni  Ni2268  1  0.03079467  0.04231950  0.16882830  1.0
  Ni  Ni2269  1  0.03079467  0.37565283  0.16882830  1.0
  Ni  Ni2270  1  0.03079467  0.70898617  0.16882830  1.0
  Ni  Ni2271  1  0.36412800  0.04231950  0.16882830  1.0
  Ni  Ni2272  1  0.36412800  0.37565283  0.16882830  1.0
  Ni  Ni2273  1  0.36412800  0.70898617  0.16882830  1.0
  Ni  Ni2274  1  0.69746133  0.04231950  0.16882830  1.0
  Ni  Ni2275  1  0.69746133  0.37565283  0.16882830  1.0
  Ni  Ni2276  1  0.69746133  0.70898617  0.16882830  1.0
  Ni  Ni2277  1  0.03079467  0.20898617  0.06882830  1.0
  Ni  Ni2278  1  0.03079467  0.54231950  0.06882830  1.0
  Ni  Ni2279  1  0.03079467  0.87565283  0.06882830  1.0
  Ni  Ni2280  1  0.36412800  0.20898617  0.06882830  1.0
  Ni  Ni2281  1  0.36412800  0.54231950  0.06882830  1.0
  Ni  Ni2282  1  0.36412800  0.87565283  0.06882830  1.0
  Ni  Ni2283  1  0.69746133  0.20898617  0.06882830  1.0
  Ni  Ni2284  1  0.69746133  0.54231950  0.06882830  1.0
  Ni  Ni2285  1  0.69746133  0.87565283  0.06882830  1.0
  Ni  Ni2286  1  0.15507733  0.04316667  0.10025960  1.0
  Ni  Ni2287  1  0.15507733  0.37650000  0.10025960  1.0
  Ni  Ni2288  1  0.15507733  0.70983333  0.10025960  1.0
  Ni  Ni2289  1  0.48841067  0.04316667  0.10025960  1.0
  Ni  Ni2290  1  0.48841067  0.37650000  0.10025960  1.0
  Ni  Ni2291  1  0.48841067  0.70983333  0.10025960  1.0
  Ni  Ni2292  1  0.82174400  0.04316667  0.10025960  1.0
  Ni  Ni2293  1  0.82174400  0.37650000  0.10025960  1.0
  Ni  Ni2294  1  0.82174400  0.70983333  0.10025960  1.0
  Ni  Ni2295  1  0.15507733  0.20983333  0.00025960  1.0
  Ni  Ni2296  1  0.15507733  0.54316667  0.00025960  1.0
  Ni  Ni2297  1  0.15507733  0.87650000  0.00025960  1.0
  Ni  Ni2298  1  0.48841067  0.20983333  0.00025960  1.0
  Ni  Ni2299  1  0.48841067  0.54316667  0.00025960  1.0
  Ni  Ni2300  1  0.48841067  0.87650000  0.00025960  1.0
  Ni  Ni2301  1  0.82174400  0.20983333  0.00025960  1.0
  Ni  Ni2302  1  0.82174400  0.54316667  0.00025960  1.0
  Ni  Ni2303  1  0.82174400  0.87650000  0.00025960  1.0
  Ni  Ni2304  1  0.05156100  0.01582667  0.05042020  1.0
  Ni  Ni2305  1  0.05156100  0.34916000  0.05042020  1.0
  Ni  Ni2306  1  0.05156100  0.68249333  0.05042020  1.0
  Ni  Ni2307  1  0.38489433  0.01582667  0.05042020  1.0
  Ni  Ni2308  1  0.38489433  0.34916000  0.05042020  1.0
  Ni  Ni2309  1  0.38489433  0.68249333  0.05042020  1.0
  Ni  Ni2310  1  0.71822767  0.01582667  0.05042020  1.0
  Ni  Ni2311  1  0.71822767  0.34916000  0.05042020  1.0
  Ni  Ni2312  1  0.71822767  0.68249333  0.05042020  1.0
  Ni  Ni2313  1  0.05156100  0.18249333  0.15042020  1.0
  Ni  Ni2314  1  0.05156100  0.51582667  0.15042020  1.0
  Ni  Ni2315  1  0.05156100  0.84916000  0.15042020  1.0
  Ni  Ni2316  1  0.38489433  0.18249333  0.15042020  1.0
  Ni  Ni2317  1  0.38489433  0.51582667  0.15042020  1.0
  Ni  Ni2318  1  0.38489433  0.84916000  0.15042020  1.0
  Ni  Ni2319  1  0.71822767  0.18249333  0.15042020  1.0
  Ni  Ni2320  1  0.71822767  0.51582667  0.15042020  1.0
  Ni  Ni2321  1  0.71822767  0.84916000  0.15042020  1.0
  Ni  Ni2322  1  0.13587200  0.12565283  0.11882830  1.0
  Ni  Ni2323  1  0.13587200  0.45898617  0.11882830  1.0
  Ni  Ni2324  1  0.13587200  0.79231950  0.11882830  1.0
  Ni  Ni2325  1  0.46920533  0.12565283  0.11882830  1.0
  Ni  Ni2326  1  0.46920533  0.45898617  0.11882830  1.0
  Ni  Ni2327  1  0.46920533  0.79231950  0.11882830  1.0
  Ni  Ni2328  1  0.80253867  0.12565283  0.11882830  1.0
  Ni  Ni2329  1  0.80253867  0.45898617  0.11882830  1.0
  Ni  Ni2330  1  0.80253867  0.79231950  0.11882830  1.0
  Ni  Ni2331  1  0.13587200  0.29231950  0.01882830  1.0
  Ni  Ni2332  1  0.13587200  0.62565283  0.01882830  1.0
  Ni  Ni2333  1  0.13587200  0.95898617  0.01882830  1.0
  Ni  Ni2334  1  0.46920533  0.29231950  0.01882830  1.0
  Ni  Ni2335  1  0.46920533  0.62565283  0.01882830  1.0
  Ni  Ni2336  1  0.46920533  0.95898617  0.01882830  1.0
  Ni  Ni2337  1  0.80253867  0.29231950  0.01882830  1.0
  Ni  Ni2338  1  0.80253867  0.62565283  0.01882830  1.0
  Ni  Ni2339  1  0.80253867  0.95898617  0.01882830  1.0
  Ni  Ni2340  1  0.21822767  0.12644083  0.04952570  1.0
  Ni  Ni2341  1  0.21822767  0.45977417  0.04952570  1.0
  Ni  Ni2342  1  0.21822767  0.79310750  0.04952570  1.0
  Ni  Ni2343  1  0.55156100  0.12644083  0.04952570  1.0
  Ni  Ni2344  1  0.55156100  0.45977417  0.04952570  1.0
  Ni  Ni2345  1  0.55156100  0.79310750  0.04952570  1.0
  Ni  Ni2346  1  0.88489433  0.12644083  0.04952570  1.0
  Ni  Ni2347  1  0.88489433  0.45977417  0.04952570  1.0
  Ni  Ni2348  1  0.88489433  0.79310750  0.04952570  1.0
  Ni  Ni2349  1  0.21822767  0.29310750  0.14952570  1.0
  Ni  Ni2350  1  0.21822767  0.62644083  0.14952570  1.0
  Ni  Ni2351  1  0.21822767  0.95977417  0.14952570  1.0
  Ni  Ni2352  1  0.55156100  0.29310750  0.14952570  1.0
  Ni  Ni2353  1  0.55156100  0.62644083  0.14952570  1.0
  Ni  Ni2354  1  0.55156100  0.95977417  0.14952570  1.0
  Ni  Ni2355  1  0.88489433  0.29310750  0.14952570  1.0
  Ni  Ni2356  1  0.88489433  0.62644083  0.14952570  1.0
  Ni  Ni2357  1  0.88489433  0.95977417  0.14952570  1.0
  Ni  Ni2358  1  0.32174400  0.04016667  0.03504680  1.0
  Ni  Ni2359  1  0.32174400  0.37350000  0.03504680  1.0
  Ni  Ni2360  1  0.32174400  0.70683333  0.03504680  1.0
  Ni  Ni2361  1  0.65507733  0.04016667  0.03504680  1.0
  Ni  Ni2362  1  0.65507733  0.37350000  0.03504680  1.0
  Ni  Ni2363  1  0.65507733  0.70683333  0.03504680  1.0
  Ni  Ni2364  1  0.98841067  0.04016667  0.03504680  1.0
  Ni  Ni2365  1  0.98841067  0.37350000  0.03504680  1.0
  Ni  Ni2366  1  0.98841067  0.70683333  0.03504680  1.0
  Ni  Ni2367  1  0.32174400  0.20683333  0.13504680  1.0
  Ni  Ni2368  1  0.32174400  0.54016667  0.13504680  1.0
  Ni  Ni2369  1  0.32174400  0.87350000  0.13504680  1.0
  Ni  Ni2370  1  0.65507733  0.20683333  0.13504680  1.0
  Ni  Ni2371  1  0.65507733  0.54016667  0.13504680  1.0
  Ni  Ni2372  1  0.65507733  0.87350000  0.13504680  1.0
  Ni  Ni2373  1  0.98841067  0.20683333  0.13504680  1.0
  Ni  Ni2374  1  0.98841067  0.54016667  0.13504680  1.0
  Ni  Ni2375  1  0.98841067  0.87350000  0.13504680  1.0
  Ni  Ni2376  1  0.23952567  0.04069717  0.16590810  1.0
  Ni  Ni2377  1  0.23952567  0.37403050  0.16590810  1.0
  Ni  Ni2378  1  0.23952567  0.70736383  0.16590810  1.0
  Ni  Ni2379  1  0.57285900  0.04069717  0.16590810  1.0
  Ni  Ni2380  1  0.57285900  0.37403050  0.16590810  1.0
  Ni  Ni2381  1  0.57285900  0.70736383  0.16590810  1.0
  Ni  Ni2382  1  0.90619233  0.04069717  0.16590810  1.0
  Ni  Ni2383  1  0.90619233  0.37403050  0.16590810  1.0
  Ni  Ni2384  1  0.90619233  0.70736383  0.16590810  1.0
  Ni  Ni2385  1  0.23952567  0.20736383  0.06590810  1.0
  Ni  Ni2386  1  0.23952567  0.54069717  0.06590810  1.0
  Ni  Ni2387  1  0.23952567  0.87403050  0.06590810  1.0
  Ni  Ni2388  1  0.57285900  0.20736383  0.06590810  1.0
  Ni  Ni2389  1  0.57285900  0.54069717  0.06590810  1.0
  Ni  Ni2390  1  0.57285900  0.87403050  0.06590810  1.0
  Ni  Ni2391  1  0.90619233  0.20736383  0.06590810  1.0
  Ni  Ni2392  1  0.90619233  0.54069717  0.06590810  1.0
  Ni  Ni2393  1  0.90619233  0.87403050  0.06590810  1.0
  Ni  Ni2394  1  0.15507733  0.15142200  0.03530640  1.0
  Ni  Ni2395  1  0.15507733  0.48475533  0.03530640  1.0
  Ni  Ni2396  1  0.15507733  0.81808867  0.03530640  1.0
  Ni  Ni2397  1  0.48841067  0.15142200  0.03530640  1.0
  Ni  Ni2398  1  0.48841067  0.48475533  0.03530640  1.0
  Ni  Ni2399  1  0.48841067  0.81808867  0.03530640  1.0
  Ni  Ni2400  1  0.82174400  0.15142200  0.03530640  1.0
  Ni  Ni2401  1  0.82174400  0.48475533  0.03530640  1.0
  Ni  Ni2402  1  0.82174400  0.81808867  0.03530640  1.0
  Ni  Ni2403  1  0.15507733  0.31808867  0.13530640  1.0
  Ni  Ni2404  1  0.15507733  0.65142200  0.13530640  1.0
  Ni  Ni2405  1  0.15507733  0.98475533  0.13530640  1.0
  Ni  Ni2406  1  0.48841067  0.31808867  0.13530640  1.0
  Ni  Ni2407  1  0.48841067  0.65142200  0.13530640  1.0
  Ni  Ni2408  1  0.48841067  0.98475533  0.13530640  1.0
  Ni  Ni2409  1  0.82174400  0.31808867  0.13530640  1.0
  Ni  Ni2410  1  0.82174400  0.65142200  0.13530640  1.0
  Ni  Ni2411  1  0.82174400  0.98475533  0.13530640  1.0
  Ni  Ni2412  1  0.21873033  0.12775467  0.12261160  1.0
  Ni  Ni2413  1  0.21873033  0.46108800  0.12261160  1.0
  Ni  Ni2414  1  0.21873033  0.79442133  0.12261160  1.0
  Ni  Ni2415  1  0.55206367  0.12775467  0.12261160  1.0
  Ni  Ni2416  1  0.55206367  0.46108800  0.12261160  1.0
  Ni  Ni2417  1  0.55206367  0.79442133  0.12261160  1.0
  Ni  Ni2418  1  0.88539700  0.12775467  0.12261160  1.0
  Ni  Ni2419  1  0.88539700  0.46108800  0.12261160  1.0
  Ni  Ni2420  1  0.88539700  0.79442133  0.12261160  1.0
  Ni  Ni2421  1  0.21873033  0.29442133  0.02261160  1.0
  Ni  Ni2422  1  0.21873033  0.62775467  0.02261160  1.0
  Ni  Ni2423  1  0.21873033  0.96108800  0.02261160  1.0
  Ni  Ni2424  1  0.55206367  0.29442133  0.02261160  1.0
  Ni  Ni2425  1  0.55206367  0.62775467  0.02261160  1.0
  Ni  Ni2426  1  0.55206367  0.96108800  0.02261160  1.0
  Ni  Ni2427  1  0.88539700  0.29442133  0.02261160  1.0
  Ni  Ni2428  1  0.88539700  0.62775467  0.02261160  1.0
  Ni  Ni2429  1  0.88539700  0.96108800  0.02261160  1.0
  Ni  Ni2430  1  0.21822767  0.06750667  0.08488620  1.0
  Ni  Ni2431  1  0.21822767  0.40084000  0.08488620  1.0
  Ni  Ni2432  1  0.21822767  0.73417333  0.08488620  1.0
  Ni  Ni2433  1  0.55156100  0.06750667  0.08488620  1.0
  Ni  Ni2434  1  0.55156100  0.40084000  0.08488620  1.0
  Ni  Ni2435  1  0.55156100  0.73417333  0.08488620  1.0
  Ni  Ni2436  1  0.88489433  0.06750667  0.08488620  1.0
  Ni  Ni2437  1  0.88489433  0.40084000  0.08488620  1.0
  Ni  Ni2438  1  0.88489433  0.73417333  0.08488620  1.0
  Ni  Ni2439  1  0.21822767  0.23417333  0.18488620  1.0
  Ni  Ni2440  1  0.21822767  0.56750667  0.18488620  1.0
  Ni  Ni2441  1  0.21822767  0.90084000  0.18488620  1.0
  Ni  Ni2442  1  0.55156100  0.23417333  0.18488620  1.0
  Ni  Ni2443  1  0.55156100  0.56750667  0.18488620  1.0
  Ni  Ni2444  1  0.55156100  0.90084000  0.18488620  1.0
  Ni  Ni2445  1  0.88489433  0.23417333  0.18488620  1.0
  Ni  Ni2446  1  0.88489433  0.56750667  0.18488620  1.0
  Ni  Ni2447  1  0.88489433  0.90084000  0.18488620  1.0
  Ni  Ni2448  1  0.19746133  0.04101383  0.16647810  1.0
  Ni  Ni2449  1  0.19746133  0.37434717  0.16647810  1.0
  Ni  Ni2450  1  0.19746133  0.70768050  0.16647810  1.0
  Ni  Ni2451  1  0.53079467  0.04101383  0.16647810  1.0
  Ni  Ni2452  1  0.53079467  0.37434717  0.16647810  1.0
  Ni  Ni2453  1  0.53079467  0.70768050  0.16647810  1.0
  Ni  Ni2454  1  0.86412800  0.04101383  0.16647810  1.0
  Ni  Ni2455  1  0.86412800  0.37434717  0.16647810  1.0
  Ni  Ni2456  1  0.86412800  0.70768050  0.16647810  1.0
  Ni  Ni2457  1  0.19746133  0.20768050  0.06647810  1.0
  Ni  Ni2458  1  0.19746133  0.54101383  0.06647810  1.0
  Ni  Ni2459  1  0.19746133  0.87434717  0.06647810  1.0
  Ni  Ni2460  1  0.53079467  0.20768050  0.06647810  1.0
  Ni  Ni2461  1  0.53079467  0.54101383  0.06647810  1.0
  Ni  Ni2462  1  0.53079467  0.87434717  0.06647810  1.0
  Ni  Ni2463  1  0.86412800  0.20768050  0.06647810  1.0
  Ni  Ni2464  1  0.86412800  0.54101383  0.06647810  1.0
  Ni  Ni2465  1  0.86412800  0.87434717  0.06647810  1.0
  Ni  Ni2466  1  0.32174400  0.09857800  0.00000000  1.0
  Ni  Ni2467  1  0.32174400  0.43191133  0.00000000  1.0
  Ni  Ni2468  1  0.32174400  0.76524467  0.00000000  1.0
  Ni  Ni2469  1  0.65507733  0.09857800  0.00000000  1.0
  Ni  Ni2470  1  0.65507733  0.43191133  0.00000000  1.0
  Ni  Ni2471  1  0.65507733  0.76524467  0.00000000  1.0
  Ni  Ni2472  1  0.98841067  0.09857800  0.00000000  1.0
  Ni  Ni2473  1  0.98841067  0.43191133  0.00000000  1.0
  Ni  Ni2474  1  0.98841067  0.76524467  0.00000000  1.0
  Ni  Ni2475  1  0.32174400  0.26524467  0.10000000  1.0
  Ni  Ni2476  1  0.32174400  0.59857800  0.10000000  1.0
  Ni  Ni2477  1  0.32174400  0.93191133  0.10000000  1.0
  Ni  Ni2478  1  0.65507733  0.26524467  0.10000000  1.0
  Ni  Ni2479  1  0.65507733  0.59857800  0.10000000  1.0
  Ni  Ni2480  1  0.65507733  0.93191133  0.10000000  1.0
  Ni  Ni2481  1  0.98841067  0.26524467  0.10000000  1.0
  Ni  Ni2482  1  0.98841067  0.59857800  0.10000000  1.0
  Ni  Ni2483  1  0.98841067  0.93191133  0.10000000  1.0
  Zn  Zn2484  1  0.25905267  0.12249567  0.38343620  1.0
  Zn  Zn2485  1  0.25905267  0.45582900  0.38343620  1.0
  Zn  Zn2486  1  0.25905267  0.78916233  0.38343620  1.0
  Zn  Zn2487  1  0.59238600  0.12249567  0.38343620  1.0
  Zn  Zn2488  1  0.59238600  0.45582900  0.38343620  1.0
  Zn  Zn2489  1  0.59238600  0.78916233  0.38343620  1.0
  Zn  Zn2490  1  0.92571933  0.12249567  0.38343620  1.0
  Zn  Zn2491  1  0.92571933  0.45582900  0.38343620  1.0
  Zn  Zn2492  1  0.92571933  0.78916233  0.38343620  1.0
  Zn  Zn2493  1  0.25905267  0.28916233  0.28343620  1.0
  Zn  Zn2494  1  0.25905267  0.62249567  0.28343620  1.0
  Zn  Zn2495  1  0.25905267  0.95582900  0.28343620  1.0
  Zn  Zn2496  1  0.59238600  0.28916233  0.28343620  1.0
  Zn  Zn2497  1  0.59238600  0.62249567  0.28343620  1.0
  Zn  Zn2498  1  0.59238600  0.95582900  0.28343620  1.0
  Zn  Zn2499  1  0.92571933  0.28916233  0.28343620  1.0
  Zn  Zn2500  1  0.92571933  0.62249567  0.28343620  1.0
  Zn  Zn2501  1  0.92571933  0.95582900  0.28343620  1.0
  Zn  Zn2502  1  0.13281567  0.01339000  0.24563360  1.0
  Zn  Zn2503  1  0.13281567  0.34672333  0.24563360  1.0
  Zn  Zn2504  1  0.13281567  0.68005667  0.24563360  1.0
  Zn  Zn2505  1  0.46614900  0.01339000  0.24563360  1.0
  Zn  Zn2506  1  0.46614900  0.34672333  0.24563360  1.0
  Zn  Zn2507  1  0.46614900  0.68005667  0.24563360  1.0
  Zn  Zn2508  1  0.79948233  0.01339000  0.24563360  1.0
  Zn  Zn2509  1  0.79948233  0.34672333  0.24563360  1.0
  Zn  Zn2510  1  0.79948233  0.68005667  0.24563360  1.0
  Zn  Zn2511  1  0.13281567  0.18005667  0.34563360  1.0
  Zn  Zn2512  1  0.13281567  0.51339000  0.34563360  1.0
  Zn  Zn2513  1  0.13281567  0.84672333  0.34563360  1.0
  Zn  Zn2514  1  0.46614900  0.18005667  0.34563360  1.0
  Zn  Zn2515  1  0.46614900  0.51339000  0.34563360  1.0
  Zn  Zn2516  1  0.46614900  0.84672333  0.34563360  1.0
  Zn  Zn2517  1  0.79948233  0.18005667  0.34563360  1.0
  Zn  Zn2518  1  0.79948233  0.51339000  0.34563360  1.0
  Zn  Zn2519  1  0.79948233  0.84672333  0.34563360  1.0
  Zn  Zn2520  1  0.30786800  0.07759117  0.23231730  1.0
  Zn  Zn2521  1  0.30786800  0.41092450  0.23231730  1.0
  Zn  Zn2522  1  0.30786800  0.74425783  0.23231730  1.0
  Zn  Zn2523  1  0.64120133  0.07759117  0.23231730  1.0
  Zn  Zn2524  1  0.64120133  0.41092450  0.23231730  1.0
  Zn  Zn2525  1  0.64120133  0.74425783  0.23231730  1.0
  Zn  Zn2526  1  0.97453467  0.07759117  0.23231730  1.0
  Zn  Zn2527  1  0.97453467  0.41092450  0.23231730  1.0
  Zn  Zn2528  1  0.97453467  0.74425783  0.23231730  1.0
  Zn  Zn2529  1  0.30786800  0.24425783  0.33231730  1.0
  Zn  Zn2530  1  0.30786800  0.57759117  0.33231730  1.0
  Zn  Zn2531  1  0.30786800  0.91092450  0.33231730  1.0
  Zn  Zn2532  1  0.64120133  0.24425783  0.33231730  1.0
  Zn  Zn2533  1  0.64120133  0.57759117  0.33231730  1.0
  Zn  Zn2534  1  0.64120133  0.91092450  0.33231730  1.0
  Zn  Zn2535  1  0.97453467  0.24425783  0.33231730  1.0
  Zn  Zn2536  1  0.97453467  0.57759117  0.33231730  1.0
  Zn  Zn2537  1  0.97453467  0.91092450  0.33231730  1.0
  Zn  Zn2538  1  0.29543467  0.00421833  0.30024620  1.0
  Zn  Zn2539  1  0.29543467  0.33755167  0.30024620  1.0
  Zn  Zn2540  1  0.29543467  0.67088500  0.30024620  1.0
  Zn  Zn2541  1  0.62876800  0.00421833  0.30024620  1.0
  Zn  Zn2542  1  0.62876800  0.33755167  0.30024620  1.0
  Zn  Zn2543  1  0.62876800  0.67088500  0.30024620  1.0
  Zn  Zn2544  1  0.96210133  0.00421833  0.30024620  1.0
  Zn  Zn2545  1  0.96210133  0.33755167  0.30024620  1.0
  Zn  Zn2546  1  0.96210133  0.67088500  0.30024620  1.0
  Zn  Zn2547  1  0.29543467  0.17088500  0.20024620  1.0
  Zn  Zn2548  1  0.29543467  0.50421833  0.20024620  1.0
  Zn  Zn2549  1  0.29543467  0.83755167  0.20024620  1.0
  Zn  Zn2550  1  0.62876800  0.17088500  0.20024620  1.0
  Zn  Zn2551  1  0.62876800  0.50421833  0.20024620  1.0
  Zn  Zn2552  1  0.62876800  0.83755167  0.20024620  1.0
  Zn  Zn2553  1  0.96210133  0.17088500  0.20024620  1.0
  Zn  Zn2554  1  0.96210133  0.50421833  0.20024620  1.0
  Zn  Zn2555  1  0.96210133  0.83755167  0.20024620  1.0
  Zn  Zn2556  1  0.09727200  0.11858400  0.37764660  1.0
  Zn  Zn2557  1  0.09727200  0.45191733  0.37764660  1.0
  Zn  Zn2558  1  0.09727200  0.78525067  0.37764660  1.0
  Zn  Zn2559  1  0.43060533  0.11858400  0.37764660  1.0
  Zn  Zn2560  1  0.43060533  0.45191733  0.37764660  1.0
  Zn  Zn2561  1  0.43060533  0.78525067  0.37764660  1.0
  Zn  Zn2562  1  0.76393867  0.11858400  0.37764660  1.0
  Zn  Zn2563  1  0.76393867  0.45191733  0.37764660  1.0
  Zn  Zn2564  1  0.76393867  0.78525067  0.37764660  1.0
  Zn  Zn2565  1  0.09727200  0.28525067  0.27764660  1.0
  Zn  Zn2566  1  0.09727200  0.61858400  0.27764660  1.0
  Zn  Zn2567  1  0.09727200  0.95191733  0.27764660  1.0
  Zn  Zn2568  1  0.43060533  0.28525067  0.27764660  1.0
  Zn  Zn2569  1  0.43060533  0.61858400  0.27764660  1.0
  Zn  Zn2570  1  0.43060533  0.95191733  0.27764660  1.0
  Zn  Zn2571  1  0.76393867  0.28525067  0.27764660  1.0
  Zn  Zn2572  1  0.76393867  0.61858400  0.27764660  1.0
  Zn  Zn2573  1  0.76393867  0.95191733  0.27764660  1.0
  Zn  Zn2574  1  0.21787067  0.00801800  0.30708560  1.0
  Zn  Zn2575  1  0.21787067  0.34135133  0.30708560  1.0
  Zn  Zn2576  1  0.21787067  0.67468467  0.30708560  1.0
  Zn  Zn2577  1  0.55120400  0.00801800  0.30708560  1.0
  Zn  Zn2578  1  0.55120400  0.34135133  0.30708560  1.0
  Zn  Zn2579  1  0.55120400  0.67468467  0.30708560  1.0
  Zn  Zn2580  1  0.88453733  0.00801800  0.30708560  1.0
  Zn  Zn2581  1  0.88453733  0.34135133  0.30708560  1.0
  Zn  Zn2582  1  0.88453733  0.67468467  0.30708560  1.0
  Zn  Zn2583  1  0.21787067  0.17468467  0.20708560  1.0
  Zn  Zn2584  1  0.21787067  0.50801800  0.20708560  1.0
  Zn  Zn2585  1  0.21787067  0.84135133  0.20708560  1.0
  Zn  Zn2586  1  0.55120400  0.17468467  0.20708560  1.0
  Zn  Zn2587  1  0.55120400  0.50801800  0.20708560  1.0
  Zn  Zn2588  1  0.55120400  0.84135133  0.20708560  1.0
  Zn  Zn2589  1  0.88453733  0.17468467  0.20708560  1.0
  Zn  Zn2590  1  0.88453733  0.50801800  0.20708560  1.0
  Zn  Zn2591  1  0.88453733  0.84135133  0.20708560  1.0
  Zn  Zn2592  1  0.09061400  0.00656983  0.30447890  1.0
  Zn  Zn2593  1  0.09061400  0.33990317  0.30447890  1.0
  Zn  Zn2594  1  0.09061400  0.67323650  0.30447890  1.0
  Zn  Zn2595  1  0.42394733  0.00656983  0.30447890  1.0
  Zn  Zn2596  1  0.42394733  0.33990317  0.30447890  1.0
  Zn  Zn2597  1  0.42394733  0.67323650  0.30447890  1.0
  Zn  Zn2598  1  0.75728067  0.00656983  0.30447890  1.0
  Zn  Zn2599  1  0.75728067  0.33990317  0.30447890  1.0
  Zn  Zn2600  1  0.75728067  0.67323650  0.30447890  1.0
  Zn  Zn2601  1  0.09061400  0.17323650  0.20447890  1.0
  Zn  Zn2602  1  0.09061400  0.50656983  0.20447890  1.0
  Zn  Zn2603  1  0.09061400  0.83990317  0.20447890  1.0
  Zn  Zn2604  1  0.42394733  0.17323650  0.20447890  1.0
  Zn  Zn2605  1  0.42394733  0.50656983  0.20447890  1.0
  Zn  Zn2606  1  0.42394733  0.83990317  0.20447890  1.0
  Zn  Zn2607  1  0.75728067  0.17323650  0.20447890  1.0
  Zn  Zn2608  1  0.75728067  0.50656983  0.20447890  1.0
  Zn  Zn2609  1  0.75728067  0.83990317  0.20447890  1.0
  Zn  Zn2610  1  0.17447900  0.07227050  0.29706790  1.0
  Zn  Zn2611  1  0.17447900  0.40560383  0.29706790  1.0
  Zn  Zn2612  1  0.17447900  0.73893717  0.29706790  1.0
  Zn  Zn2613  1  0.50781233  0.07227050  0.29706790  1.0
  Zn  Zn2614  1  0.50781233  0.40560383  0.29706790  1.0
  Zn  Zn2615  1  0.50781233  0.73893717  0.29706790  1.0
  Zn  Zn2616  1  0.84114567  0.07227050  0.29706790  1.0
  Zn  Zn2617  1  0.84114567  0.40560383  0.29706790  1.0
  Zn  Zn2618  1  0.84114567  0.73893717  0.29706790  1.0
  Zn  Zn2619  1  0.17447900  0.23893717  0.39706790  1.0
  Zn  Zn2620  1  0.17447900  0.57227050  0.39706790  1.0
  Zn  Zn2621  1  0.17447900  0.90560383  0.39706790  1.0
  Zn  Zn2622  1  0.50781233  0.23893717  0.39706790  1.0
  Zn  Zn2623  1  0.50781233  0.57227050  0.39706790  1.0
  Zn  Zn2624  1  0.50781233  0.90560383  0.39706790  1.0
  Zn  Zn2625  1  0.84114567  0.23893717  0.39706790  1.0
  Zn  Zn2626  1  0.84114567  0.57227050  0.39706790  1.0
  Zn  Zn2627  1  0.84114567  0.90560383  0.39706790  1.0
  Zn  Zn2628  1  0.23990600  0.09981033  0.32042200  1.0
  Zn  Zn2629  1  0.23990600  0.43314367  0.32042200  1.0
  Zn  Zn2630  1  0.23990600  0.76647700  0.32042200  1.0
  Zn  Zn2631  1  0.57323933  0.09981033  0.32042200  1.0
  Zn  Zn2632  1  0.57323933  0.43314367  0.32042200  1.0
  Zn  Zn2633  1  0.57323933  0.76647700  0.32042200  1.0
  Zn  Zn2634  1  0.90657267  0.09981033  0.32042200  1.0
  Zn  Zn2635  1  0.90657267  0.43314367  0.32042200  1.0
  Zn  Zn2636  1  0.90657267  0.76647700  0.32042200  1.0
  Zn  Zn2637  1  0.23990600  0.26647700  0.22042200  1.0
  Zn  Zn2638  1  0.23990600  0.59981033  0.22042200  1.0
  Zn  Zn2639  1  0.23990600  0.93314367  0.22042200  1.0
  Zn  Zn2640  1  0.57323933  0.26647700  0.22042200  1.0
  Zn  Zn2641  1  0.57323933  0.59981033  0.22042200  1.0
  Zn  Zn2642  1  0.57323933  0.93314367  0.22042200  1.0
  Zn  Zn2643  1  0.90657267  0.26647700  0.22042200  1.0
  Zn  Zn2644  1  0.90657267  0.59981033  0.22042200  1.0
  Zn  Zn2645  1  0.90657267  0.93314367  0.22042200  1.0
  Zn  Zn2646  1  0.11532967  0.13526883  0.29139410  1.0
  Zn  Zn2647  1  0.11532967  0.46860217  0.29139410  1.0
  Zn  Zn2648  1  0.11532967  0.80193550  0.29139410  1.0
  Zn  Zn2649  1  0.44866300  0.13526883  0.29139410  1.0
  Zn  Zn2650  1  0.44866300  0.46860217  0.29139410  1.0
  Zn  Zn2651  1  0.44866300  0.80193550  0.29139410  1.0
  Zn  Zn2652  1  0.78199633  0.13526883  0.29139410  1.0
  Zn  Zn2653  1  0.78199633  0.46860217  0.29139410  1.0
  Zn  Zn2654  1  0.78199633  0.80193550  0.29139410  1.0
  Zn  Zn2655  1  0.11532967  0.30193550  0.39139410  1.0
  Zn  Zn2656  1  0.11532967  0.63526883  0.39139410  1.0
  Zn  Zn2657  1  0.11532967  0.96860217  0.39139410  1.0
  Zn  Zn2658  1  0.44866300  0.30193550  0.39139410  1.0
  Zn  Zn2659  1  0.44866300  0.63526883  0.39139410  1.0
  Zn  Zn2660  1  0.44866300  0.96860217  0.39139410  1.0
  Zn  Zn2661  1  0.78199633  0.30193550  0.39139410  1.0
  Zn  Zn2662  1  0.78199633  0.63526883  0.39139410  1.0
  Zn  Zn2663  1  0.78199633  0.96860217  0.39139410  1.0
  Zn  Zn2664  1  0.02859467  0.15271633  0.23877140  1.0
  Zn  Zn2665  1  0.02859467  0.48604967  0.23877140  1.0
  Zn  Zn2666  1  0.02859467  0.81938300  0.23877140  1.0
  Zn  Zn2667  1  0.36192800  0.15271633  0.23877140  1.0
  Zn  Zn2668  1  0.36192800  0.48604967  0.23877140  1.0
  Zn  Zn2669  1  0.36192800  0.81938300  0.23877140  1.0
  Zn  Zn2670  1  0.69526133  0.15271633  0.23877140  1.0
  Zn  Zn2671  1  0.69526133  0.48604967  0.23877140  1.0
  Zn  Zn2672  1  0.69526133  0.81938300  0.23877140  1.0
  Zn  Zn2673  1  0.02859467  0.31938300  0.33877140  1.0
  Zn  Zn2674  1  0.02859467  0.65271633  0.33877140  1.0
  Zn  Zn2675  1  0.02859467  0.98604967  0.33877140  1.0
  Zn  Zn2676  1  0.36192800  0.31938300  0.33877140  1.0
  Zn  Zn2677  1  0.36192800  0.65271633  0.33877140  1.0
  Zn  Zn2678  1  0.36192800  0.98604967  0.33877140  1.0
  Zn  Zn2679  1  0.69526133  0.31938300  0.33877140  1.0
  Zn  Zn2680  1  0.69526133  0.65271633  0.33877140  1.0
  Zn  Zn2681  1  0.69526133  0.98604967  0.33877140  1.0
  Zn  Zn2682  1  0.32552100  0.05087700  0.30990400  1.0
  Zn  Zn2683  1  0.32552100  0.38421033  0.30990400  1.0
  Zn  Zn2684  1  0.32552100  0.71754367  0.30990400  1.0
  Zn  Zn2685  1  0.65885433  0.05087700  0.30990400  1.0
  Zn  Zn2686  1  0.65885433  0.38421033  0.30990400  1.0
  Zn  Zn2687  1  0.65885433  0.71754367  0.30990400  1.0
  Zn  Zn2688  1  0.99218767  0.05087700  0.30990400  1.0
  Zn  Zn2689  1  0.99218767  0.38421033  0.30990400  1.0
  Zn  Zn2690  1  0.99218767  0.71754367  0.30990400  1.0
  Zn  Zn2691  1  0.32552100  0.21754367  0.20990400  1.0
  Zn  Zn2692  1  0.32552100  0.55087700  0.20990400  1.0
  Zn  Zn2693  1  0.32552100  0.88421033  0.20990400  1.0
  Zn  Zn2694  1  0.65885433  0.21754367  0.20990400  1.0
  Zn  Zn2695  1  0.65885433  0.55087700  0.20990400  1.0
  Zn  Zn2696  1  0.65885433  0.88421033  0.20990400  1.0
  Zn  Zn2697  1  0.99218767  0.21754367  0.20990400  1.0
  Zn  Zn2698  1  0.99218767  0.55087700  0.20990400  1.0
  Zn  Zn2699  1  0.99218767  0.88421033  0.20990400  1.0
  Zn  Zn2700  1  0.16666667  0.16666667  0.39265320  1.0
  Zn  Zn2701  1  0.16666667  0.50000000  0.39265320  1.0
  Zn  Zn2702  1  0.16666667  0.83333333  0.39265320  1.0
  Zn  Zn2703  1  0.50000000  0.16666667  0.39265320  1.0
  Zn  Zn2704  1  0.50000000  0.50000000  0.39265320  1.0
  Zn  Zn2705  1  0.50000000  0.83333333  0.39265320  1.0
  Zn  Zn2706  1  0.83333333  0.16666667  0.39265320  1.0
  Zn  Zn2707  1  0.83333333  0.50000000  0.39265320  1.0
  Zn  Zn2708  1  0.83333333  0.83333333  0.39265320  1.0
  Zn  Zn2709  1  0.16666667  0.00000000  0.29265320  1.0
  Zn  Zn2710  1  0.16666667  0.33333333  0.29265320  1.0
  Zn  Zn2711  1  0.16666667  0.66666667  0.29265320  1.0
  Zn  Zn2712  1  0.50000000  0.00000000  0.29265320  1.0
  Zn  Zn2713  1  0.50000000  0.33333333  0.29265320  1.0
  Zn  Zn2714  1  0.50000000  0.66666667  0.29265320  1.0
  Zn  Zn2715  1  0.83333333  0.00000000  0.29265320  1.0
  Zn  Zn2716  1  0.83333333  0.33333333  0.29265320  1.0
  Zn  Zn2717  1  0.83333333  0.66666667  0.29265320  1.0
  Zn  Zn2718  1  0.28088533  0.09297633  0.38586440  1.0
  Zn  Zn2719  1  0.28088533  0.42630967  0.38586440  1.0
  Zn  Zn2720  1  0.28088533  0.75964300  0.38586440  1.0
  Zn  Zn2721  1  0.61421867  0.09297633  0.38586440  1.0
  Zn  Zn2722  1  0.61421867  0.42630967  0.38586440  1.0
  Zn  Zn2723  1  0.61421867  0.75964300  0.38586440  1.0
  Zn  Zn2724  1  0.94755200  0.09297633  0.38586440  1.0
  Zn  Zn2725  1  0.94755200  0.42630967  0.38586440  1.0
  Zn  Zn2726  1  0.94755200  0.75964300  0.38586440  1.0
  Zn  Zn2727  1  0.28088533  0.25964300  0.28586440  1.0
  Zn  Zn2728  1  0.28088533  0.59297633  0.28586440  1.0
  Zn  Zn2729  1  0.28088533  0.92630967  0.28586440  1.0
  Zn  Zn2730  1  0.61421867  0.25964300  0.28586440  1.0
  Zn  Zn2731  1  0.61421867  0.59297633  0.28586440  1.0
  Zn  Zn2732  1  0.61421867  0.92630967  0.28586440  1.0
  Zn  Zn2733  1  0.94755200  0.25964300  0.28586440  1.0
  Zn  Zn2734  1  0.94755200  0.59297633  0.28586440  1.0
  Zn  Zn2735  1  0.94755200  0.92630967  0.28586440  1.0
  Zn  Zn2736  1  0.26393867  0.07179750  0.29343090  1.0
  Zn  Zn2737  1  0.26393867  0.40513083  0.29343090  1.0
  Zn  Zn2738  1  0.26393867  0.73846417  0.29343090  1.0
  Zn  Zn2739  1  0.59727200  0.07179750  0.29343090  1.0
  Zn  Zn2740  1  0.59727200  0.40513083  0.29343090  1.0
  Zn  Zn2741  1  0.59727200  0.73846417  0.29343090  1.0
  Zn  Zn2742  1  0.93060533  0.07179750  0.29343090  1.0
  Zn  Zn2743  1  0.93060533  0.40513083  0.29343090  1.0
  Zn  Zn2744  1  0.93060533  0.73846417  0.29343090  1.0
  Zn  Zn2745  1  0.26393867  0.23846417  0.39343090  1.0
  Zn  Zn2746  1  0.26393867  0.57179750  0.39343090  1.0
  Zn  Zn2747  1  0.26393867  0.90513083  0.39343090  1.0
  Zn  Zn2748  1  0.59727200  0.23846417  0.39343090  1.0
  Zn  Zn2749  1  0.59727200  0.57179750  0.39343090  1.0
  Zn  Zn2750  1  0.59727200  0.90513083  0.39343090  1.0
  Zn  Zn2751  1  0.93060533  0.23846417  0.39343090  1.0
  Zn  Zn2752  1  0.93060533  0.57179750  0.39343090  1.0
  Zn  Zn2753  1  0.93060533  0.90513083  0.39343090  1.0
  Zn  Zn2754  1  0.30275433  0.06084750  0.35207330  1.0
  Zn  Zn2755  1  0.30275433  0.39418083  0.35207330  1.0
  Zn  Zn2756  1  0.30275433  0.72751417  0.35207330  1.0
  Zn  Zn2757  1  0.63608767  0.06084750  0.35207330  1.0
  Zn  Zn2758  1  0.63608767  0.39418083  0.35207330  1.0
  Zn  Zn2759  1  0.63608767  0.72751417  0.35207330  1.0
  Zn  Zn2760  1  0.96942100  0.06084750  0.35207330  1.0
  Zn  Zn2761  1  0.96942100  0.39418083  0.35207330  1.0
  Zn  Zn2762  1  0.96942100  0.72751417  0.35207330  1.0
  Zn  Zn2763  1  0.30275433  0.22751417  0.25207330  1.0
  Zn  Zn2764  1  0.30275433  0.56084750  0.25207330  1.0
  Zn  Zn2765  1  0.30275433  0.89418083  0.25207330  1.0
  Zn  Zn2766  1  0.63608767  0.22751417  0.25207330  1.0
  Zn  Zn2767  1  0.63608767  0.56084750  0.25207330  1.0
  Zn  Zn2768  1  0.63608767  0.89418083  0.25207330  1.0
  Zn  Zn2769  1  0.96942100  0.22751417  0.25207330  1.0
  Zn  Zn2770  1  0.96942100  0.56084750  0.25207330  1.0
  Zn  Zn2771  1  0.96942100  0.89418083  0.25207330  1.0
  Zn  Zn2772  1  0.19213200  0.16092450  0.38231730  1.0
  Zn  Zn2773  1  0.19213200  0.49425783  0.38231730  1.0
  Zn  Zn2774  1  0.19213200  0.82759117  0.38231730  1.0
  Zn  Zn2775  1  0.52546533  0.16092450  0.38231730  1.0
  Zn  Zn2776  1  0.52546533  0.49425783  0.38231730  1.0
  Zn  Zn2777  1  0.52546533  0.82759117  0.38231730  1.0
  Zn  Zn2778  1  0.85879867  0.16092450  0.38231730  1.0
  Zn  Zn2779  1  0.85879867  0.49425783  0.38231730  1.0
  Zn  Zn2780  1  0.85879867  0.82759117  0.38231730  1.0
  Zn  Zn2781  1  0.19213200  0.32759117  0.28231730  1.0
  Zn  Zn2782  1  0.19213200  0.66092450  0.28231730  1.0
  Zn  Zn2783  1  0.19213200  0.99425783  0.28231730  1.0
  Zn  Zn2784  1  0.52546533  0.32759117  0.28231730  1.0
  Zn  Zn2785  1  0.52546533  0.66092450  0.28231730  1.0
  Zn  Zn2786  1  0.52546533  0.99425783  0.28231730  1.0
  Zn  Zn2787  1  0.85879867  0.32759117  0.28231730  1.0
  Zn  Zn2788  1  0.85879867  0.66092450  0.28231730  1.0
  Zn  Zn2789  1  0.85879867  0.99425783  0.28231730  1.0
  Zn  Zn2790  1  0.29948233  0.06994333  0.28967280  1.0
  Zn  Zn2791  1  0.29948233  0.40327667  0.28967280  1.0
  Zn  Zn2792  1  0.29948233  0.73661000  0.28967280  1.0
  Zn  Zn2793  1  0.63281567  0.06994333  0.28967280  1.0
  Zn  Zn2794  1  0.63281567  0.40327667  0.28967280  1.0
  Zn  Zn2795  1  0.63281567  0.73661000  0.28967280  1.0
  Zn  Zn2796  1  0.96614900  0.06994333  0.28967280  1.0
  Zn  Zn2797  1  0.96614900  0.40327667  0.28967280  1.0
  Zn  Zn2798  1  0.96614900  0.73661000  0.28967280  1.0
  Zn  Zn2799  1  0.29948233  0.23661000  0.38967280  1.0
  Zn  Zn2800  1  0.29948233  0.56994333  0.38967280  1.0
  Zn  Zn2801  1  0.29948233  0.90327667  0.38967280  1.0
  Zn  Zn2802  1  0.63281567  0.23661000  0.38967280  1.0
  Zn  Zn2803  1  0.63281567  0.56994333  0.38967280  1.0
  Zn  Zn2804  1  0.63281567  0.90327667  0.38967280  1.0
  Zn  Zn2805  1  0.96614900  0.23661000  0.38967280  1.0
  Zn  Zn2806  1  0.96614900  0.56994333  0.38967280  1.0
  Zn  Zn2807  1  0.96614900  0.90327667  0.38967280  1.0
  Zn  Zn2808  1  0.07428067  0.15226200  0.23701560  1.0
  Zn  Zn2809  1  0.07428067  0.48559533  0.23701560  1.0
  Zn  Zn2810  1  0.07428067  0.81892867  0.23701560  1.0
  Zn  Zn2811  1  0.40761400  0.15226200  0.23701560  1.0
  Zn  Zn2812  1  0.40761400  0.48559533  0.23701560  1.0
  Zn  Zn2813  1  0.40761400  0.81892867  0.23701560  1.0
  Zn  Zn2814  1  0.74094733  0.15226200  0.23701560  1.0
  Zn  Zn2815  1  0.74094733  0.48559533  0.23701560  1.0
  Zn  Zn2816  1  0.74094733  0.81892867  0.23701560  1.0
  Zn  Zn2817  1  0.07428067  0.31892867  0.33701560  1.0
  Zn  Zn2818  1  0.07428067  0.65226200  0.33701560  1.0
  Zn  Zn2819  1  0.07428067  0.98559533  0.33701560  1.0
  Zn  Zn2820  1  0.40761400  0.31892867  0.33701560  1.0
  Zn  Zn2821  1  0.40761400  0.65226200  0.33701560  1.0
  Zn  Zn2822  1  0.40761400  0.98559533  0.33701560  1.0
  Zn  Zn2823  1  0.74094733  0.31892867  0.33701560  1.0
  Zn  Zn2824  1  0.74094733  0.65226200  0.33701560  1.0
  Zn  Zn2825  1  0.74094733  0.98559533  0.33701560  1.0
  Zn  Zn2826  1  0.30473867  0.12125967  0.38214940  1.0
  Zn  Zn2827  1  0.30473867  0.45459300  0.38214940  1.0
  Zn  Zn2828  1  0.30473867  0.78792633  0.38214940  1.0
  Zn  Zn2829  1  0.63807200  0.12125967  0.38214940  1.0
  Zn  Zn2830  1  0.63807200  0.45459300  0.38214940  1.0
  Zn  Zn2831  1  0.63807200  0.78792633  0.38214940  1.0
  Zn  Zn2832  1  0.97140533  0.12125967  0.38214940  1.0
  Zn  Zn2833  1  0.97140533  0.45459300  0.38214940  1.0
  Zn  Zn2834  1  0.97140533  0.78792633  0.38214940  1.0
  Zn  Zn2835  1  0.30473867  0.28792633  0.28214940  1.0
  Zn  Zn2836  1  0.30473867  0.62125967  0.28214940  1.0
  Zn  Zn2837  1  0.30473867  0.95459300  0.28214940  1.0
  Zn  Zn2838  1  0.63807200  0.28792633  0.28214940  1.0
  Zn  Zn2839  1  0.63807200  0.62125967  0.28214940  1.0
  Zn  Zn2840  1  0.63807200  0.95459300  0.28214940  1.0
  Zn  Zn2841  1  0.97140533  0.28792633  0.28214940  1.0
  Zn  Zn2842  1  0.97140533  0.62125967  0.28214940  1.0
  Zn  Zn2843  1  0.97140533  0.95459300  0.28214940  1.0
  Zn  Zn2844  1  0.00781233  0.01106283  0.23823850  1.0
  Zn  Zn2845  1  0.00781233  0.34439617  0.23823850  1.0
  Zn  Zn2846  1  0.00781233  0.67772950  0.23823850  1.0
  Zn  Zn2847  1  0.34114567  0.01106283  0.23823850  1.0
  Zn  Zn2848  1  0.34114567  0.34439617  0.23823850  1.0
  Zn  Zn2849  1  0.34114567  0.67772950  0.23823850  1.0
  Zn  Zn2850  1  0.67447900  0.01106283  0.23823850  1.0
  Zn  Zn2851  1  0.67447900  0.34439617  0.23823850  1.0
  Zn  Zn2852  1  0.67447900  0.67772950  0.23823850  1.0
  Zn  Zn2853  1  0.00781233  0.17772950  0.33823850  1.0
  Zn  Zn2854  1  0.00781233  0.51106283  0.33823850  1.0
  Zn  Zn2855  1  0.00781233  0.84439617  0.33823850  1.0
  Zn  Zn2856  1  0.34114567  0.17772950  0.33823850  1.0
  Zn  Zn2857  1  0.34114567  0.51106283  0.33823850  1.0
  Zn  Zn2858  1  0.34114567  0.84439617  0.33823850  1.0
  Zn  Zn2859  1  0.67447900  0.17772950  0.33823850  1.0
  Zn  Zn2860  1  0.67447900  0.51106283  0.33823850  1.0
  Zn  Zn2861  1  0.67447900  0.84439617  0.33823850  1.0
  Zn  Zn2862  1  0.15466933  0.09171983  0.25774890  1.0
  Zn  Zn2863  1  0.15466933  0.42505317  0.25774890  1.0
  Zn  Zn2864  1  0.15466933  0.75838650  0.25774890  1.0
  Zn  Zn2865  1  0.48800267  0.09171983  0.25774890  1.0
  Zn  Zn2866  1  0.48800267  0.42505317  0.25774890  1.0
  Zn  Zn2867  1  0.48800267  0.75838650  0.25774890  1.0
  Zn  Zn2868  1  0.82133600  0.09171983  0.25774890  1.0
  Zn  Zn2869  1  0.82133600  0.42505317  0.25774890  1.0
  Zn  Zn2870  1  0.82133600  0.75838650  0.25774890  1.0
  Zn  Zn2871  1  0.15466933  0.25838650  0.35774890  1.0
  Zn  Zn2872  1  0.15466933  0.59171983  0.35774890  1.0
  Zn  Zn2873  1  0.15466933  0.92505317  0.35774890  1.0
  Zn  Zn2874  1  0.48800267  0.25838650  0.35774890  1.0
  Zn  Zn2875  1  0.48800267  0.59171983  0.35774890  1.0
  Zn  Zn2876  1  0.48800267  0.92505317  0.35774890  1.0
  Zn  Zn2877  1  0.82133600  0.25838650  0.35774890  1.0
  Zn  Zn2878  1  0.82133600  0.59171983  0.35774890  1.0
  Zn  Zn2879  1  0.82133600  0.92505317  0.35774890  1.0
  Zn  Zn2880  1  0.11546267  0.15864867  0.37822080  1.0
  Zn  Zn2881  1  0.11546267  0.49198200  0.37822080  1.0
  Zn  Zn2882  1  0.11546267  0.82531533  0.37822080  1.0
  Zn  Zn2883  1  0.44879600  0.15864867  0.37822080  1.0
  Zn  Zn2884  1  0.44879600  0.49198200  0.37822080  1.0
  Zn  Zn2885  1  0.44879600  0.82531533  0.37822080  1.0
  Zn  Zn2886  1  0.78212933  0.15864867  0.37822080  1.0
  Zn  Zn2887  1  0.78212933  0.49198200  0.37822080  1.0
  Zn  Zn2888  1  0.78212933  0.82531533  0.37822080  1.0
  Zn  Zn2889  1  0.11546267  0.32531533  0.27822080  1.0
  Zn  Zn2890  1  0.11546267  0.65864867  0.27822080  1.0
  Zn  Zn2891  1  0.11546267  0.99198200  0.27822080  1.0
  Zn  Zn2892  1  0.44879600  0.32531533  0.27822080  1.0
  Zn  Zn2893  1  0.44879600  0.65864867  0.27822080  1.0
  Zn  Zn2894  1  0.44879600  0.99198200  0.27822080  1.0
  Zn  Zn2895  1  0.78212933  0.32531533  0.27822080  1.0
  Zn  Zn2896  1  0.78212933  0.65864867  0.27822080  1.0
  Zn  Zn2897  1  0.78212933  0.99198200  0.27822080  1.0
  Zn  Zn2898  1  0.19526133  0.03792633  0.23214940  1.0
  Zn  Zn2899  1  0.19526133  0.37125967  0.23214940  1.0
  Zn  Zn2900  1  0.19526133  0.70459300  0.23214940  1.0
  Zn  Zn2901  1  0.52859467  0.03792633  0.23214940  1.0
  Zn  Zn2902  1  0.52859467  0.37125967  0.23214940  1.0
  Zn  Zn2903  1  0.52859467  0.70459300  0.23214940  1.0
  Zn  Zn2904  1  0.86192800  0.03792633  0.23214940  1.0
  Zn  Zn2905  1  0.86192800  0.37125967  0.23214940  1.0
  Zn  Zn2906  1  0.86192800  0.70459300  0.23214940  1.0
  Zn  Zn2907  1  0.19526133  0.20459300  0.33214940  1.0
  Zn  Zn2908  1  0.19526133  0.53792633  0.33214940  1.0
  Zn  Zn2909  1  0.19526133  0.87125967  0.33214940  1.0
  Zn  Zn2910  1  0.52859467  0.20459300  0.33214940  1.0
  Zn  Zn2911  1  0.52859467  0.53792633  0.33214940  1.0
  Zn  Zn2912  1  0.52859467  0.87125967  0.33214940  1.0
  Zn  Zn2913  1  0.86192800  0.20459300  0.33214940  1.0
  Zn  Zn2914  1  0.86192800  0.53792633  0.33214940  1.0
  Zn  Zn2915  1  0.86192800  0.87125967  0.33214940  1.0
  Zn  Zn2916  1  0.25728067  0.07676350  0.23082750  1.0
  Zn  Zn2917  1  0.25728067  0.41009683  0.23082750  1.0
  Zn  Zn2918  1  0.25728067  0.74343017  0.23082750  1.0
  Zn  Zn2919  1  0.59061400  0.07676350  0.23082750  1.0
  Zn  Zn2920  1  0.59061400  0.41009683  0.23082750  1.0
  Zn  Zn2921  1  0.59061400  0.74343017  0.23082750  1.0
  Zn  Zn2922  1  0.92394733  0.07676350  0.23082750  1.0
  Zn  Zn2923  1  0.92394733  0.41009683  0.23082750  1.0
  Zn  Zn2924  1  0.92394733  0.74343017  0.23082750  1.0
  Zn  Zn2925  1  0.25728067  0.24343017  0.33082750  1.0
  Zn  Zn2926  1  0.25728067  0.57676350  0.33082750  1.0
  Zn  Zn2927  1  0.25728067  0.91009683  0.33082750  1.0
  Zn  Zn2928  1  0.59061400  0.24343017  0.33082750  1.0
  Zn  Zn2929  1  0.59061400  0.57676350  0.33082750  1.0
  Zn  Zn2930  1  0.59061400  0.91009683  0.33082750  1.0
  Zn  Zn2931  1  0.92394733  0.24343017  0.33082750  1.0
  Zn  Zn2932  1  0.92394733  0.57676350  0.33082750  1.0
  Zn  Zn2933  1  0.92394733  0.91009683  0.33082750  1.0
  Zn  Zn2934  1  0.03385100  0.03745533  0.23119440  1.0
  Zn  Zn2935  1  0.03385100  0.37078867  0.23119440  1.0
  Zn  Zn2936  1  0.03385100  0.70412200  0.23119440  1.0
  Zn  Zn2937  1  0.36718433  0.03745533  0.23119440  1.0
  Zn  Zn2938  1  0.36718433  0.37078867  0.23119440  1.0
  Zn  Zn2939  1  0.36718433  0.70412200  0.23119440  1.0
  Zn  Zn2940  1  0.70051767  0.03745533  0.23119440  1.0
  Zn  Zn2941  1  0.70051767  0.37078867  0.23119440  1.0
  Zn  Zn2942  1  0.70051767  0.70412200  0.23119440  1.0
  Zn  Zn2943  1  0.03385100  0.20412200  0.33119440  1.0
  Zn  Zn2944  1  0.03385100  0.53745533  0.33119440  1.0
  Zn  Zn2945  1  0.03385100  0.87078867  0.33119440  1.0
  Zn  Zn2946  1  0.36718433  0.20412200  0.33119440  1.0
  Zn  Zn2947  1  0.36718433  0.53745533  0.33119440  1.0
  Zn  Zn2948  1  0.36718433  0.87078867  0.33119440  1.0
  Zn  Zn2949  1  0.70051767  0.20412200  0.33119440  1.0
  Zn  Zn2950  1  0.70051767  0.53745533  0.33119440  1.0
  Zn  Zn2951  1  0.70051767  0.87078867  0.33119440  1.0
  Zn  Zn2952  1  0.09727200  0.01153583  0.24187550  1.0
  Zn  Zn2953  1  0.09727200  0.34486917  0.24187550  1.0
  Zn  Zn2954  1  0.09727200  0.67820250  0.24187550  1.0
  Zn  Zn2955  1  0.43060533  0.01153583  0.24187550  1.0
  Zn  Zn2956  1  0.43060533  0.34486917  0.24187550  1.0
  Zn  Zn2957  1  0.43060533  0.67820250  0.24187550  1.0
  Zn  Zn2958  1  0.76393867  0.01153583  0.24187550  1.0
  Zn  Zn2959  1  0.76393867  0.34486917  0.24187550  1.0
  Zn  Zn2960  1  0.76393867  0.67820250  0.24187550  1.0
  Zn  Zn2961  1  0.09727200  0.17820250  0.34187550  1.0
  Zn  Zn2962  1  0.09727200  0.51153583  0.34187550  1.0
  Zn  Zn2963  1  0.09727200  0.84486917  0.34187550  1.0
  Zn  Zn2964  1  0.43060533  0.17820250  0.34187550  1.0
  Zn  Zn2965  1  0.43060533  0.51153583  0.34187550  1.0
  Zn  Zn2966  1  0.43060533  0.84486917  0.34187550  1.0
  Zn  Zn2967  1  0.76393867  0.17820250  0.34187550  1.0
  Zn  Zn2968  1  0.76393867  0.51153583  0.34187550  1.0
  Zn  Zn2969  1  0.76393867  0.84486917  0.34187550  1.0
  Zn  Zn2970  1  0.01199733  0.00838650  0.30774890  1.0
  Zn  Zn2971  1  0.01199733  0.34171983  0.30774890  1.0
  Zn  Zn2972  1  0.01199733  0.67505317  0.30774890  1.0
  Zn  Zn2973  1  0.34533067  0.00838650  0.30774890  1.0
  Zn  Zn2974  1  0.34533067  0.34171983  0.30774890  1.0
  Zn  Zn2975  1  0.34533067  0.67505317  0.30774890  1.0
  Zn  Zn2976  1  0.67866400  0.00838650  0.30774890  1.0
  Zn  Zn2977  1  0.67866400  0.34171983  0.30774890  1.0
  Zn  Zn2978  1  0.67866400  0.67505317  0.30774890  1.0
  Zn  Zn2979  1  0.01199733  0.17505317  0.20774890  1.0
  Zn  Zn2980  1  0.01199733  0.50838650  0.20774890  1.0
  Zn  Zn2981  1  0.01199733  0.84171983  0.20774890  1.0
  Zn  Zn2982  1  0.34533067  0.17505317  0.20774890  1.0
  Zn  Zn2983  1  0.34533067  0.50838650  0.20774890  1.0
  Zn  Zn2984  1  0.34533067  0.84171983  0.20774890  1.0
  Zn  Zn2985  1  0.67866400  0.17505317  0.20774890  1.0
  Zn  Zn2986  1  0.67866400  0.50838650  0.20774890  1.0
  Zn  Zn2987  1  0.67866400  0.84171983  0.20774890  1.0
  Zn  Zn2988  1  0.26009400  0.05656883  0.34636690  1.0
  Zn  Zn2989  1  0.26009400  0.38990217  0.34636690  1.0
  Zn  Zn2990  1  0.26009400  0.72323550  0.34636690  1.0
  Zn  Zn2991  1  0.59342733  0.05656883  0.34636690  1.0
  Zn  Zn2992  1  0.59342733  0.38990217  0.34636690  1.0
  Zn  Zn2993  1  0.59342733  0.72323550  0.34636690  1.0
  Zn  Zn2994  1  0.92676067  0.05656883  0.34636690  1.0
  Zn  Zn2995  1  0.92676067  0.38990217  0.34636690  1.0
  Zn  Zn2996  1  0.92676067  0.72323550  0.34636690  1.0
  Zn  Zn2997  1  0.26009400  0.22323550  0.24636690  1.0
  Zn  Zn2998  1  0.26009400  0.55656883  0.24636690  1.0
  Zn  Zn2999  1  0.26009400  0.88990217  0.24636690  1.0
  Zn  Zn3000  1  0.59342733  0.22323550  0.24636690  1.0
  Zn  Zn3001  1  0.59342733  0.55656883  0.24636690  1.0
  Zn  Zn3002  1  0.59342733  0.88990217  0.24636690  1.0
  Zn  Zn3003  1  0.92676067  0.22323550  0.24636690  1.0
  Zn  Zn3004  1  0.92676067  0.55656883  0.24636690  1.0
  Zn  Zn3005  1  0.92676067  0.88990217  0.24636690  1.0
  Zn  Zn3006  1  0.05244800  0.13547883  0.26236890  1.0
  Zn  Zn3007  1  0.05244800  0.46881217  0.26236890  1.0
  Zn  Zn3008  1  0.05244800  0.80214550  0.26236890  1.0
  Zn  Zn3009  1  0.38578133  0.13547883  0.26236890  1.0
  Zn  Zn3010  1  0.38578133  0.46881217  0.26236890  1.0
  Zn  Zn3011  1  0.38578133  0.80214550  0.26236890  1.0
  Zn  Zn3012  1  0.71911467  0.13547883  0.26236890  1.0
  Zn  Zn3013  1  0.71911467  0.46881217  0.26236890  1.0
  Zn  Zn3014  1  0.71911467  0.80214550  0.26236890  1.0
  Zn  Zn3015  1  0.05244800  0.30214550  0.36236890  1.0
  Zn  Zn3016  1  0.05244800  0.63547883  0.36236890  1.0
  Zn  Zn3017  1  0.05244800  0.96881217  0.36236890  1.0
  Zn  Zn3018  1  0.38578133  0.30214550  0.36236890  1.0
  Zn  Zn3019  1  0.38578133  0.63547883  0.36236890  1.0
  Zn  Zn3020  1  0.38578133  0.96881217  0.36236890  1.0
  Zn  Zn3021  1  0.71911467  0.30214550  0.36236890  1.0
  Zn  Zn3022  1  0.71911467  0.63547883  0.36236890  1.0
  Zn  Zn3023  1  0.71911467  0.96881217  0.36236890  1.0
  Zn  Zn3024  1  0.17866400  0.07494683  0.22755750  1.0
  Zn  Zn3025  1  0.17866400  0.40828017  0.22755750  1.0
  Zn  Zn3026  1  0.17866400  0.74161350  0.22755750  1.0
  Zn  Zn3027  1  0.51199733  0.07494683  0.22755750  1.0
  Zn  Zn3028  1  0.51199733  0.40828017  0.22755750  1.0
  Zn  Zn3029  1  0.51199733  0.74161350  0.22755750  1.0
  Zn  Zn3030  1  0.84533067  0.07494683  0.22755750  1.0
  Zn  Zn3031  1  0.84533067  0.40828017  0.22755750  1.0
  Zn  Zn3032  1  0.84533067  0.74161350  0.22755750  1.0
  Zn  Zn3033  1  0.17866400  0.24161350  0.32755750  1.0
  Zn  Zn3034  1  0.17866400  0.57494683  0.32755750  1.0
  Zn  Zn3035  1  0.17866400  0.90828017  0.32755750  1.0
  Zn  Zn3036  1  0.51199733  0.24161350  0.32755750  1.0
  Zn  Zn3037  1  0.51199733  0.57494683  0.32755750  1.0
  Zn  Zn3038  1  0.51199733  0.90828017  0.32755750  1.0
  Zn  Zn3039  1  0.84533067  0.24161350  0.32755750  1.0
  Zn  Zn3040  1  0.84533067  0.57494683  0.32755750  1.0
  Zn  Zn3041  1  0.84533067  0.90828017  0.32755750  1.0
  Zn  Zn3042  1  0.03057900  0.14757367  0.30818040  1.0
  Zn  Zn3043  1  0.03057900  0.48090700  0.30818040  1.0
  Zn  Zn3044  1  0.03057900  0.81424033  0.30818040  1.0
  Zn  Zn3045  1  0.36391233  0.14757367  0.30818040  1.0
  Zn  Zn3046  1  0.36391233  0.48090700  0.30818040  1.0
  Zn  Zn3047  1  0.36391233  0.81424033  0.30818040  1.0
  Zn  Zn3048  1  0.69724567  0.14757367  0.30818040  1.0
  Zn  Zn3049  1  0.69724567  0.48090700  0.30818040  1.0
  Zn  Zn3050  1  0.69724567  0.81424033  0.30818040  1.0
  Zn  Zn3051  1  0.03057900  0.31424033  0.20818040  1.0
  Zn  Zn3052  1  0.03057900  0.64757367  0.20818040  1.0
  Zn  Zn3053  1  0.03057900  0.98090700  0.20818040  1.0
  Zn  Zn3054  1  0.36391233  0.31424033  0.20818040  1.0
  Zn  Zn3055  1  0.36391233  0.64757367  0.20818040  1.0
  Zn  Zn3056  1  0.36391233  0.98090700  0.20818040  1.0
  Zn  Zn3057  1  0.69724567  0.31424033  0.20818040  1.0
  Zn  Zn3058  1  0.69724567  0.64757367  0.20818040  1.0
  Zn  Zn3059  1  0.69724567  0.98090700  0.20818040  1.0
  Zn  Zn3060  1  0.05244800  0.07369033  0.29944200  1.0
  Zn  Zn3061  1  0.05244800  0.40702367  0.29944200  1.0
  Zn  Zn3062  1  0.05244800  0.74035700  0.29944200  1.0
  Zn  Zn3063  1  0.38578133  0.07369033  0.29944200  1.0
  Zn  Zn3064  1  0.38578133  0.40702367  0.29944200  1.0
  Zn  Zn3065  1  0.38578133  0.74035700  0.29944200  1.0
  Zn  Zn3066  1  0.71911467  0.07369033  0.29944200  1.0
  Zn  Zn3067  1  0.71911467  0.40702367  0.29944200  1.0
  Zn  Zn3068  1  0.71911467  0.74035700  0.29944200  1.0
  Zn  Zn3069  1  0.05244800  0.24035700  0.39944200  1.0
  Zn  Zn3070  1  0.05244800  0.57369033  0.39944200  1.0
  Zn  Zn3071  1  0.05244800  0.90702367  0.39944200  1.0
  Zn  Zn3072  1  0.38578133  0.24035700  0.39944200  1.0
  Zn  Zn3073  1  0.38578133  0.57369033  0.39944200  1.0
  Zn  Zn3074  1  0.38578133  0.90702367  0.39944200  1.0
  Zn  Zn3075  1  0.71911467  0.24035700  0.39944200  1.0
  Zn  Zn3076  1  0.71911467  0.57369033  0.39944200  1.0
  Zn  Zn3077  1  0.71911467  0.90702367  0.39944200  1.0
  Zn  Zn3078  1  0.15605000  0.15250450  0.32046890  1.0
  Zn  Zn3079  1  0.15605000  0.48583783  0.32046890  1.0
  Zn  Zn3080  1  0.15605000  0.81917117  0.32046890  1.0
  Zn  Zn3081  1  0.48938333  0.15250450  0.32046890  1.0
  Zn  Zn3082  1  0.48938333  0.48583783  0.32046890  1.0
  Zn  Zn3083  1  0.48938333  0.81917117  0.32046890  1.0
  Zn  Zn3084  1  0.82271667  0.15250450  0.32046890  1.0
  Zn  Zn3085  1  0.82271667  0.48583783  0.32046890  1.0
  Zn  Zn3086  1  0.82271667  0.81917117  0.32046890  1.0
  Zn  Zn3087  1  0.15605000  0.31917117  0.22046890  1.0
  Zn  Zn3088  1  0.15605000  0.65250450  0.22046890  1.0
  Zn  Zn3089  1  0.15605000  0.98583783  0.22046890  1.0
  Zn  Zn3090  1  0.48938333  0.31917117  0.22046890  1.0
  Zn  Zn3091  1  0.48938333  0.65250450  0.22046890  1.0
  Zn  Zn3092  1  0.48938333  0.98583783  0.22046890  1.0
  Zn  Zn3093  1  0.82271667  0.31917117  0.22046890  1.0
  Zn  Zn3094  1  0.82271667  0.65250450  0.22046890  1.0
  Zn  Zn3095  1  0.82271667  0.98583783  0.22046890  1.0
  Zn  Zn3096  1  0.01061667  0.06917117  0.37046890  1.0
  Zn  Zn3097  1  0.01061667  0.40250450  0.37046890  1.0
  Zn  Zn3098  1  0.01061667  0.73583783  0.37046890  1.0
  Zn  Zn3099  1  0.34395000  0.06917117  0.37046890  1.0
  Zn  Zn3100  1  0.34395000  0.40250450  0.37046890  1.0
  Zn  Zn3101  1  0.34395000  0.73583783  0.37046890  1.0
  Zn  Zn3102  1  0.67728333  0.06917117  0.37046890  1.0
  Zn  Zn3103  1  0.67728333  0.40250450  0.37046890  1.0
  Zn  Zn3104  1  0.67728333  0.73583783  0.37046890  1.0
  Zn  Zn3105  1  0.01061667  0.23583783  0.27046890  1.0
  Zn  Zn3106  1  0.01061667  0.56917117  0.27046890  1.0
  Zn  Zn3107  1  0.01061667  0.90250450  0.27046890  1.0
  Zn  Zn3108  1  0.34395000  0.23583783  0.27046890  1.0
  Zn  Zn3109  1  0.34395000  0.56917117  0.27046890  1.0
  Zn  Zn3110  1  0.34395000  0.90250450  0.27046890  1.0
  Zn  Zn3111  1  0.67728333  0.23583783  0.27046890  1.0
  Zn  Zn3112  1  0.67728333  0.56917117  0.27046890  1.0
  Zn  Zn3113  1  0.67728333  0.90250450  0.27046890  1.0
  Zn  Zn3114  1  0.06939467  0.03525067  0.22764660  1.0
  Zn  Zn3115  1  0.06939467  0.36858400  0.22764660  1.0
  Zn  Zn3116  1  0.06939467  0.70191733  0.22764660  1.0
  Zn  Zn3117  1  0.40272800  0.03525067  0.22764660  1.0
  Zn  Zn3118  1  0.40272800  0.36858400  0.22764660  1.0
  Zn  Zn3119  1  0.40272800  0.70191733  0.22764660  1.0
  Zn  Zn3120  1  0.73606133  0.03525067  0.22764660  1.0
  Zn  Zn3121  1  0.73606133  0.36858400  0.22764660  1.0
  Zn  Zn3122  1  0.73606133  0.70191733  0.22764660  1.0
  Zn  Zn3123  1  0.06939467  0.20191733  0.32764660  1.0
  Zn  Zn3124  1  0.06939467  0.53525067  0.32764660  1.0
  Zn  Zn3125  1  0.06939467  0.86858400  0.32764660  1.0
  Zn  Zn3126  1  0.40272800  0.20191733  0.32764660  1.0
  Zn  Zn3127  1  0.40272800  0.53525067  0.32764660  1.0
  Zn  Zn3128  1  0.40272800  0.86858400  0.32764660  1.0
  Zn  Zn3129  1  0.73606133  0.20191733  0.32764660  1.0
  Zn  Zn3130  1  0.73606133  0.53525067  0.32764660  1.0
  Zn  Zn3131  1  0.73606133  0.86858400  0.32764660  1.0
  Zn  Zn3132  1  0.11532967  0.09798300  0.31376560  1.0
  Zn  Zn3133  1  0.11532967  0.43131633  0.31376560  1.0
  Zn  Zn3134  1  0.11532967  0.76464967  0.31376560  1.0
  Zn  Zn3135  1  0.44866300  0.09798300  0.31376560  1.0
  Zn  Zn3136  1  0.44866300  0.43131633  0.31376560  1.0
  Zn  Zn3137  1  0.44866300  0.76464967  0.31376560  1.0
  Zn  Zn3138  1  0.78199633  0.09798300  0.31376560  1.0
  Zn  Zn3139  1  0.78199633  0.43131633  0.31376560  1.0
  Zn  Zn3140  1  0.78199633  0.76464967  0.31376560  1.0
  Zn  Zn3141  1  0.11532967  0.26464967  0.21376560  1.0
  Zn  Zn3142  1  0.11532967  0.59798300  0.21376560  1.0
  Zn  Zn3143  1  0.11532967  0.93131633  0.21376560  1.0
  Zn  Zn3144  1  0.44866300  0.26464967  0.21376560  1.0
  Zn  Zn3145  1  0.44866300  0.59798300  0.21376560  1.0
  Zn  Zn3146  1  0.44866300  0.93131633  0.21376560  1.0
  Zn  Zn3147  1  0.78199633  0.26464967  0.21376560  1.0
  Zn  Zn3148  1  0.78199633  0.59798300  0.21376560  1.0
  Zn  Zn3149  1  0.78199633  0.93131633  0.21376560  1.0
  Zn  Zn3150  1  0.03057900  0.10581917  0.33323310  1.0
  Zn  Zn3151  1  0.03057900  0.43915250  0.33323310  1.0
  Zn  Zn3152  1  0.03057900  0.77248583  0.33323310  1.0
  Zn  Zn3153  1  0.36391233  0.10581917  0.33323310  1.0
  Zn  Zn3154  1  0.36391233  0.43915250  0.33323310  1.0
  Zn  Zn3155  1  0.36391233  0.77248583  0.33323310  1.0
  Zn  Zn3156  1  0.69724567  0.10581917  0.33323310  1.0
  Zn  Zn3157  1  0.69724567  0.43915250  0.33323310  1.0
  Zn  Zn3158  1  0.69724567  0.77248583  0.33323310  1.0
  Zn  Zn3159  1  0.03057900  0.27248583  0.23323310  1.0
  Zn  Zn3160  1  0.03057900  0.60581917  0.23323310  1.0
  Zn  Zn3161  1  0.03057900  0.93915250  0.23323310  1.0
  Zn  Zn3162  1  0.36391233  0.27248583  0.23323310  1.0
  Zn  Zn3163  1  0.36391233  0.60581917  0.23323310  1.0
  Zn  Zn3164  1  0.36391233  0.93915250  0.23323310  1.0
  Zn  Zn3165  1  0.69724567  0.27248583  0.23323310  1.0
  Zn  Zn3166  1  0.69724567  0.60581917  0.23323310  1.0
  Zn  Zn3167  1  0.69724567  0.93915250  0.23323310  1.0
  Zn  Zn3168  1  0.23019300  0.08550800  0.24656760  1.0
  Zn  Zn3169  1  0.23019300  0.41884133  0.24656760  1.0
  Zn  Zn3170  1  0.23019300  0.75217467  0.24656760  1.0
  Zn  Zn3171  1  0.56352633  0.08550800  0.24656760  1.0
  Zn  Zn3172  1  0.56352633  0.41884133  0.24656760  1.0
  Zn  Zn3173  1  0.56352633  0.75217467  0.24656760  1.0
  Zn  Zn3174  1  0.89685967  0.08550800  0.24656760  1.0
  Zn  Zn3175  1  0.89685967  0.41884133  0.24656760  1.0
  Zn  Zn3176  1  0.89685967  0.75217467  0.24656760  1.0
  Zn  Zn3177  1  0.23019300  0.25217467  0.34656760  1.0
  Zn  Zn3178  1  0.23019300  0.58550800  0.34656760  1.0
  Zn  Zn3179  1  0.23019300  0.91884133  0.34656760  1.0
  Zn  Zn3180  1  0.56352633  0.25217467  0.34656760  1.0
  Zn  Zn3181  1  0.56352633  0.58550800  0.34656760  1.0
  Zn  Zn3182  1  0.56352633  0.91884133  0.34656760  1.0
  Zn  Zn3183  1  0.89685967  0.25217467  0.34656760  1.0
  Zn  Zn3184  1  0.89685967  0.58550800  0.34656760  1.0
  Zn  Zn3185  1  0.89685967  0.91884133  0.34656760  1.0
  Zn  Zn3186  1  0.09342733  0.06685633  0.36488440  1.0
  Zn  Zn3187  1  0.09342733  0.40018967  0.36488440  1.0
  Zn  Zn3188  1  0.09342733  0.73352300  0.36488440  1.0
  Zn  Zn3189  1  0.42676067  0.06685633  0.36488440  1.0
  Zn  Zn3190  1  0.42676067  0.40018967  0.36488440  1.0
  Zn  Zn3191  1  0.42676067  0.73352300  0.36488440  1.0
  Zn  Zn3192  1  0.76009400  0.06685633  0.36488440  1.0
  Zn  Zn3193  1  0.76009400  0.40018967  0.36488440  1.0
  Zn  Zn3194  1  0.76009400  0.73352300  0.36488440  1.0
  Zn  Zn3195  1  0.09342733  0.23352300  0.26488440  1.0
  Zn  Zn3196  1  0.09342733  0.56685633  0.26488440  1.0
  Zn  Zn3197  1  0.09342733  0.90018967  0.26488440  1.0
  Zn  Zn3198  1  0.42676067  0.23352300  0.26488440  1.0
  Zn  Zn3199  1  0.42676067  0.56685633  0.26488440  1.0
  Zn  Zn3200  1  0.42676067  0.90018967  0.26488440  1.0
  Zn  Zn3201  1  0.76009400  0.23352300  0.26488440  1.0
  Zn  Zn3202  1  0.76009400  0.56685633  0.26488440  1.0
  Zn  Zn3203  1  0.76009400  0.90018967  0.26488440  1.0
  Zn  Zn3204  1  0.32271667  0.13640583  0.29149130  1.0
  Zn  Zn3205  1  0.32271667  0.46973917  0.29149130  1.0
  Zn  Zn3206  1  0.32271667  0.80307250  0.29149130  1.0
  Zn  Zn3207  1  0.65605000  0.13640583  0.29149130  1.0
  Zn  Zn3208  1  0.65605000  0.46973917  0.29149130  1.0
  Zn  Zn3209  1  0.65605000  0.80307250  0.29149130  1.0
  Zn  Zn3210  1  0.98938333  0.13640583  0.29149130  1.0
  Zn  Zn3211  1  0.98938333  0.46973917  0.29149130  1.0
  Zn  Zn3212  1  0.98938333  0.80307250  0.29149130  1.0
  Zn  Zn3213  1  0.32271667  0.30307250  0.39149130  1.0
  Zn  Zn3214  1  0.32271667  0.63640583  0.39149130  1.0
  Zn  Zn3215  1  0.32271667  0.96973917  0.39149130  1.0
  Zn  Zn3216  1  0.65605000  0.30307250  0.39149130  1.0
  Zn  Zn3217  1  0.65605000  0.63640583  0.39149130  1.0
  Zn  Zn3218  1  0.65605000  0.96973917  0.39149130  1.0
  Zn  Zn3219  1  0.98938333  0.30307250  0.39149130  1.0
  Zn  Zn3220  1  0.98938333  0.63640583  0.39149130  1.0
  Zn  Zn3221  1  0.98938333  0.96973917  0.39149130  1.0
  Zn  Zn3222  1  0.11421867  0.05214550  0.31236890  1.0
  Zn  Zn3223  1  0.11421867  0.38547883  0.31236890  1.0
  Zn  Zn3224  1  0.11421867  0.71881217  0.31236890  1.0
  Zn  Zn3225  1  0.44755200  0.05214550  0.31236890  1.0
  Zn  Zn3226  1  0.44755200  0.38547883  0.31236890  1.0
  Zn  Zn3227  1  0.44755200  0.71881217  0.31236890  1.0
  Zn  Zn3228  1  0.78088533  0.05214550  0.31236890  1.0
  Zn  Zn3229  1  0.78088533  0.38547883  0.31236890  1.0
  Zn  Zn3230  1  0.78088533  0.71881217  0.31236890  1.0
  Zn  Zn3231  1  0.11421867  0.21881217  0.21236890  1.0
  Zn  Zn3232  1  0.11421867  0.55214550  0.21236890  1.0
  Zn  Zn3233  1  0.11421867  0.88547883  0.21236890  1.0
  Zn  Zn3234  1  0.44755200  0.21881217  0.21236890  1.0
  Zn  Zn3235  1  0.44755200  0.55214550  0.21236890  1.0
  Zn  Zn3236  1  0.44755200  0.88547883  0.21236890  1.0
  Zn  Zn3237  1  0.78088533  0.21881217  0.21236890  1.0
  Zn  Zn3238  1  0.78088533  0.55214550  0.21236890  1.0
  Zn  Zn3239  1  0.78088533  0.88547883  0.21236890  1.0
  Zn  Zn3240  1  0.07428067  0.04417100  0.30187020  1.0
  Zn  Zn3241  1  0.07428067  0.37750433  0.30187020  1.0
  Zn  Zn3242  1  0.07428067  0.71083767  0.30187020  1.0
  Zn  Zn3243  1  0.40761400  0.04417100  0.30187020  1.0
  Zn  Zn3244  1  0.40761400  0.37750433  0.30187020  1.0
  Zn  Zn3245  1  0.40761400  0.71083767  0.30187020  1.0
  Zn  Zn3246  1  0.74094733  0.04417100  0.30187020  1.0
  Zn  Zn3247  1  0.74094733  0.37750433  0.30187020  1.0
  Zn  Zn3248  1  0.74094733  0.71083767  0.30187020  1.0
  Zn  Zn3249  1  0.07428067  0.21083767  0.20187020  1.0
  Zn  Zn3250  1  0.07428067  0.54417100  0.20187020  1.0
  Zn  Zn3251  1  0.07428067  0.87750433  0.20187020  1.0
  Zn  Zn3252  1  0.40761400  0.21083767  0.20187020  1.0
  Zn  Zn3253  1  0.40761400  0.54417100  0.20187020  1.0
  Zn  Zn3254  1  0.40761400  0.87750433  0.20187020  1.0
  Zn  Zn3255  1  0.74094733  0.21083767  0.20187020  1.0
  Zn  Zn3256  1  0.74094733  0.54417100  0.20187020  1.0
  Zn  Zn3257  1  0.74094733  0.87750433  0.20187020  1.0
  Zn  Zn3258  1  0.17728333  0.01416217  0.36483750  1.0
  Zn  Zn3259  1  0.17728333  0.34749550  0.36483750  1.0
  Zn  Zn3260  1  0.17728333  0.68082883  0.36483750  1.0
  Zn  Zn3261  1  0.51061667  0.01416217  0.36483750  1.0
  Zn  Zn3262  1  0.51061667  0.34749550  0.36483750  1.0
  Zn  Zn3263  1  0.51061667  0.68082883  0.36483750  1.0
  Zn  Zn3264  1  0.84395000  0.01416217  0.36483750  1.0
  Zn  Zn3265  1  0.84395000  0.34749550  0.36483750  1.0
  Zn  Zn3266  1  0.84395000  0.68082883  0.36483750  1.0
  Zn  Zn3267  1  0.17728333  0.18082883  0.26483750  1.0
  Zn  Zn3268  1  0.17728333  0.51416217  0.26483750  1.0
  Zn  Zn3269  1  0.17728333  0.84749550  0.26483750  1.0
  Zn  Zn3270  1  0.51061667  0.18082883  0.26483750  1.0
  Zn  Zn3271  1  0.51061667  0.51416217  0.26483750  1.0
  Zn  Zn3272  1  0.51061667  0.84749550  0.26483750  1.0
  Zn  Zn3273  1  0.84395000  0.18082883  0.26483750  1.0
  Zn  Zn3274  1  0.84395000  0.51416217  0.26483750  1.0
  Zn  Zn3275  1  0.84395000  0.84749550  0.26483750  1.0
  Zn  Zn3276  1  0.13807200  0.06938300  0.28877140  1.0
  Zn  Zn3277  1  0.13807200  0.40271633  0.28877140  1.0
  Zn  Zn3278  1  0.13807200  0.73604967  0.28877140  1.0
  Zn  Zn3279  1  0.47140533  0.06938300  0.28877140  1.0
  Zn  Zn3280  1  0.47140533  0.40271633  0.28877140  1.0
  Zn  Zn3281  1  0.47140533  0.73604967  0.28877140  1.0
  Zn  Zn3282  1  0.80473867  0.06938300  0.28877140  1.0
  Zn  Zn3283  1  0.80473867  0.40271633  0.28877140  1.0
  Zn  Zn3284  1  0.80473867  0.73604967  0.28877140  1.0
  Zn  Zn3285  1  0.13807200  0.23604967  0.38877140  1.0
  Zn  Zn3286  1  0.13807200  0.56938300  0.38877140  1.0
  Zn  Zn3287  1  0.13807200  0.90271633  0.38877140  1.0
  Zn  Zn3288  1  0.47140533  0.23604967  0.38877140  1.0
  Zn  Zn3289  1  0.47140533  0.56938300  0.38877140  1.0
  Zn  Zn3290  1  0.47140533  0.90271633  0.38877140  1.0
  Zn  Zn3291  1  0.80473867  0.23604967  0.38877140  1.0
  Zn  Zn3292  1  0.80473867  0.56938300  0.38877140  1.0
  Zn  Zn3293  1  0.80473867  0.90271633  0.38877140  1.0
  Zn  Zn3294  1  0.15885433  0.09439617  0.38823850  1.0
  Zn  Zn3295  1  0.15885433  0.42772950  0.38823850  1.0
  Zn  Zn3296  1  0.15885433  0.76106283  0.38823850  1.0
  Zn  Zn3297  1  0.49218767  0.09439617  0.38823850  1.0
  Zn  Zn3298  1  0.49218767  0.42772950  0.38823850  1.0
  Zn  Zn3299  1  0.49218767  0.76106283  0.38823850  1.0
  Zn  Zn3300  1  0.82552100  0.09439617  0.38823850  1.0
  Zn  Zn3301  1  0.82552100  0.42772950  0.38823850  1.0
  Zn  Zn3302  1  0.82552100  0.76106283  0.38823850  1.0
  Zn  Zn3303  1  0.15885433  0.26106283  0.28823850  1.0
  Zn  Zn3304  1  0.15885433  0.59439617  0.28823850  1.0
  Zn  Zn3305  1  0.15885433  0.92772950  0.28823850  1.0
  Zn  Zn3306  1  0.49218767  0.26106283  0.28823850  1.0
  Zn  Zn3307  1  0.49218767  0.59439617  0.28823850  1.0
  Zn  Zn3308  1  0.49218767  0.92772950  0.28823850  1.0
  Zn  Zn3309  1  0.82552100  0.26106283  0.28823850  1.0
  Zn  Zn3310  1  0.82552100  0.59439617  0.28823850  1.0
  Zn  Zn3311  1  0.82552100  0.92772950  0.28823850  1.0
  Zn  Zn3312  1  0.23990600  0.13990217  0.29636690  1.0
  Zn  Zn3313  1  0.23990600  0.47323550  0.29636690  1.0
  Zn  Zn3314  1  0.23990600  0.80656883  0.29636690  1.0
  Zn  Zn3315  1  0.57323933  0.13990217  0.29636690  1.0
  Zn  Zn3316  1  0.57323933  0.47323550  0.29636690  1.0
  Zn  Zn3317  1  0.57323933  0.80656883  0.29636690  1.0
  Zn  Zn3318  1  0.90657267  0.13990217  0.29636690  1.0
  Zn  Zn3319  1  0.90657267  0.47323550  0.29636690  1.0
  Zn  Zn3320  1  0.90657267  0.80656883  0.29636690  1.0
  Zn  Zn3321  1  0.23990600  0.30656883  0.39636690  1.0
  Zn  Zn3322  1  0.23990600  0.63990217  0.39636690  1.0
  Zn  Zn3323  1  0.23990600  0.97323550  0.39636690  1.0
  Zn  Zn3324  1  0.57323933  0.30656883  0.39636690  1.0
  Zn  Zn3325  1  0.57323933  0.63990217  0.39636690  1.0
  Zn  Zn3326  1  0.57323933  0.97323550  0.39636690  1.0
  Zn  Zn3327  1  0.90657267  0.30656883  0.39636690  1.0
  Zn  Zn3328  1  0.90657267  0.63990217  0.39636690  1.0
  Zn  Zn3329  1  0.90657267  0.97323550  0.39636690  1.0
  Zn  Zn3330  1  0.28212933  0.09135133  0.25708560  1.0
  Zn  Zn3331  1  0.28212933  0.42468467  0.25708560  1.0
  Zn  Zn3332  1  0.28212933  0.75801800  0.25708560  1.0
  Zn  Zn3333  1  0.61546267  0.09135133  0.25708560  1.0
  Zn  Zn3334  1  0.61546267  0.42468467  0.25708560  1.0
  Zn  Zn3335  1  0.61546267  0.75801800  0.25708560  1.0
  Zn  Zn3336  1  0.94879600  0.09135133  0.25708560  1.0
  Zn  Zn3337  1  0.94879600  0.42468467  0.25708560  1.0
  Zn  Zn3338  1  0.94879600  0.75801800  0.25708560  1.0
  Zn  Zn3339  1  0.28212933  0.25801800  0.35708560  1.0
  Zn  Zn3340  1  0.28212933  0.59135133  0.35708560  1.0
  Zn  Zn3341  1  0.28212933  0.92468467  0.35708560  1.0
  Zn  Zn3342  1  0.61546267  0.25801800  0.35708560  1.0
  Zn  Zn3343  1  0.61546267  0.59135133  0.35708560  1.0
  Zn  Zn3344  1  0.61546267  0.92468467  0.35708560  1.0
  Zn  Zn3345  1  0.94879600  0.25801800  0.35708560  1.0
  Zn  Zn3346  1  0.94879600  0.59135133  0.35708560  1.0
  Zn  Zn3347  1  0.94879600  0.92468467  0.35708560  1.0
  Zn  Zn3348  1  0.07605267  0.08990317  0.25447890  1.0
  Zn  Zn3349  1  0.07605267  0.42323650  0.25447890  1.0
  Zn  Zn3350  1  0.07605267  0.75656983  0.25447890  1.0
  Zn  Zn3351  1  0.40938600  0.08990317  0.25447890  1.0
  Zn  Zn3352  1  0.40938600  0.42323650  0.25447890  1.0
  Zn  Zn3353  1  0.40938600  0.75656983  0.25447890  1.0
  Zn  Zn3354  1  0.74271933  0.08990317  0.25447890  1.0
  Zn  Zn3355  1  0.74271933  0.42323650  0.25447890  1.0
  Zn  Zn3356  1  0.74271933  0.75656983  0.25447890  1.0
  Zn  Zn3357  1  0.07605267  0.25656983  0.35447890  1.0
  Zn  Zn3358  1  0.07605267  0.58990317  0.35447890  1.0
  Zn  Zn3359  1  0.07605267  0.92323650  0.35447890  1.0
  Zn  Zn3360  1  0.40938600  0.25656983  0.35447890  1.0
  Zn  Zn3361  1  0.40938600  0.58990317  0.35447890  1.0
  Zn  Zn3362  1  0.40938600  0.92323650  0.35447890  1.0
  Zn  Zn3363  1  0.74271933  0.25656983  0.35447890  1.0
  Zn  Zn3364  1  0.74271933  0.58990317  0.35447890  1.0
  Zn  Zn3365  1  0.74271933  0.92323650  0.35447890  1.0
  Zn  Zn3366  1  0.09238600  0.06892867  0.28701560  1.0
  Zn  Zn3367  1  0.09238600  0.40226200  0.28701560  1.0
  Zn  Zn3368  1  0.09238600  0.73559533  0.28701560  1.0
  Zn  Zn3369  1  0.42571933  0.06892867  0.28701560  1.0
  Zn  Zn3370  1  0.42571933  0.40226200  0.28701560  1.0
  Zn  Zn3371  1  0.42571933  0.73559533  0.28701560  1.0
  Zn  Zn3372  1  0.75905267  0.06892867  0.28701560  1.0
  Zn  Zn3373  1  0.75905267  0.40226200  0.28701560  1.0
  Zn  Zn3374  1  0.75905267  0.73559533  0.28701560  1.0
  Zn  Zn3375  1  0.09238600  0.23559533  0.38701560  1.0
  Zn  Zn3376  1  0.09238600  0.56892867  0.38701560  1.0
  Zn  Zn3377  1  0.09238600  0.90226200  0.38701560  1.0
  Zn  Zn3378  1  0.42571933  0.23559533  0.38701560  1.0
  Zn  Zn3379  1  0.42571933  0.56892867  0.38701560  1.0
  Zn  Zn3380  1  0.42571933  0.90226200  0.38701560  1.0
  Zn  Zn3381  1  0.75905267  0.23559533  0.38701560  1.0
  Zn  Zn3382  1  0.75905267  0.56892867  0.38701560  1.0
  Zn  Zn3383  1  0.75905267  0.90226200  0.38701560  1.0
  Zn  Zn3384  1  0.05133700  0.05193550  0.34139410  1.0
  Zn  Zn3385  1  0.05133700  0.38526883  0.34139410  1.0
  Zn  Zn3386  1  0.05133700  0.71860217  0.34139410  1.0
  Zn  Zn3387  1  0.38467033  0.05193550  0.34139410  1.0
  Zn  Zn3388  1  0.38467033  0.38526883  0.34139410  1.0
  Zn  Zn3389  1  0.38467033  0.71860217  0.34139410  1.0
  Zn  Zn3390  1  0.71800367  0.05193550  0.34139410  1.0
  Zn  Zn3391  1  0.71800367  0.38526883  0.34139410  1.0
  Zn  Zn3392  1  0.71800367  0.71860217  0.34139410  1.0
  Zn  Zn3393  1  0.05133700  0.21860217  0.24139410  1.0
  Zn  Zn3394  1  0.05133700  0.55193550  0.24139410  1.0
  Zn  Zn3395  1  0.05133700  0.88526883  0.24139410  1.0
  Zn  Zn3396  1  0.38467033  0.21860217  0.24139410  1.0
  Zn  Zn3397  1  0.38467033  0.55193550  0.24139410  1.0
  Zn  Zn3398  1  0.38467033  0.88526883  0.24139410  1.0
  Zn  Zn3399  1  0.71800367  0.21860217  0.24139410  1.0
  Zn  Zn3400  1  0.71800367  0.55193550  0.24139410  1.0
  Zn  Zn3401  1  0.71800367  0.88526883  0.24139410  1.0
  Zn  Zn3402  1  0.03385100  0.09672333  0.39563360  1.0
  Zn  Zn3403  1  0.03385100  0.43005667  0.39563360  1.0
  Zn  Zn3404  1  0.03385100  0.76339000  0.39563360  1.0
  Zn  Zn3405  1  0.36718433  0.09672333  0.39563360  1.0
  Zn  Zn3406  1  0.36718433  0.43005667  0.39563360  1.0
  Zn  Zn3407  1  0.36718433  0.76339000  0.39563360  1.0
  Zn  Zn3408  1  0.70051767  0.09672333  0.39563360  1.0
  Zn  Zn3409  1  0.70051767  0.43005667  0.39563360  1.0
  Zn  Zn3410  1  0.70051767  0.76339000  0.39563360  1.0
  Zn  Zn3411  1  0.03385100  0.26339000  0.29563360  1.0
  Zn  Zn3412  1  0.03385100  0.59672333  0.29563360  1.0
  Zn  Zn3413  1  0.03385100  0.93005667  0.29563360  1.0
  Zn  Zn3414  1  0.36718433  0.26339000  0.29563360  1.0
  Zn  Zn3415  1  0.36718433  0.59672333  0.29563360  1.0
  Zn  Zn3416  1  0.36718433  0.93005667  0.29563360  1.0
  Zn  Zn3417  1  0.70051767  0.26339000  0.29563360  1.0
  Zn  Zn3418  1  0.70051767  0.59672333  0.29563360  1.0
  Zn  Zn3419  1  0.70051767  0.93005667  0.29563360  1.0
  Zn  Zn3420  1  0.06352633  0.16449200  0.38873880  1.0
  Zn  Zn3421  1  0.06352633  0.49782533  0.38873880  1.0
  Zn  Zn3422  1  0.06352633  0.83115867  0.38873880  1.0
  Zn  Zn3423  1  0.39685967  0.16449200  0.38873880  1.0
  Zn  Zn3424  1  0.39685967  0.49782533  0.38873880  1.0
  Zn  Zn3425  1  0.39685967  0.83115867  0.38873880  1.0
  Zn  Zn3426  1  0.73019300  0.16449200  0.38873880  1.0
  Zn  Zn3427  1  0.73019300  0.49782533  0.38873880  1.0
  Zn  Zn3428  1  0.73019300  0.83115867  0.38873880  1.0
  Zn  Zn3429  1  0.06352633  0.33115867  0.28873880  1.0
  Zn  Zn3430  1  0.06352633  0.66449200  0.28873880  1.0
  Zn  Zn3431  1  0.06352633  0.99782533  0.28873880  1.0
  Zn  Zn3432  1  0.39685967  0.33115867  0.28873880  1.0
  Zn  Zn3433  1  0.39685967  0.66449200  0.28873880  1.0
  Zn  Zn3434  1  0.39685967  0.99782533  0.28873880  1.0
  Zn  Zn3435  1  0.73019300  0.33115867  0.28873880  1.0
  Zn  Zn3436  1  0.73019300  0.66449200  0.28873880  1.0
  Zn  Zn3437  1  0.73019300  0.99782533  0.28873880  1.0
  Zn  Zn3438  1  0.13807200  0.12874033  0.25315700  1.0
  Zn  Zn3439  1  0.13807200  0.46207367  0.25315700  1.0
  Zn  Zn3440  1  0.13807200  0.79540700  0.25315700  1.0
  Zn  Zn3441  1  0.47140533  0.12874033  0.25315700  1.0
  Zn  Zn3442  1  0.47140533  0.46207367  0.25315700  1.0
  Zn  Zn3443  1  0.47140533  0.79540700  0.25315700  1.0
  Zn  Zn3444  1  0.80473867  0.12874033  0.25315700  1.0
  Zn  Zn3445  1  0.80473867  0.46207367  0.25315700  1.0
  Zn  Zn3446  1  0.80473867  0.79540700  0.25315700  1.0
  Zn  Zn3447  1  0.13807200  0.29540700  0.35315700  1.0
  Zn  Zn3448  1  0.13807200  0.62874033  0.35315700  1.0
  Zn  Zn3449  1  0.13807200  0.96207367  0.35315700  1.0
  Zn  Zn3450  1  0.47140533  0.29540700  0.35315700  1.0
  Zn  Zn3451  1  0.47140533  0.62874033  0.35315700  1.0
  Zn  Zn3452  1  0.47140533  0.96207367  0.35315700  1.0
  Zn  Zn3453  1  0.80473867  0.29540700  0.35315700  1.0
  Zn  Zn3454  1  0.80473867  0.62874033  0.35315700  1.0
  Zn  Zn3455  1  0.80473867  0.96207367  0.35315700  1.0
  Zn  Zn3456  1  0.11421867  0.15702367  0.24944200  1.0
  Zn  Zn3457  1  0.11421867  0.49035700  0.24944200  1.0
  Zn  Zn3458  1  0.11421867  0.82369033  0.24944200  1.0
  Zn  Zn3459  1  0.44755200  0.15702367  0.24944200  1.0
  Zn  Zn3460  1  0.44755200  0.49035700  0.24944200  1.0
  Zn  Zn3461  1  0.44755200  0.82369033  0.24944200  1.0
  Zn  Zn3462  1  0.78088533  0.15702367  0.24944200  1.0
  Zn  Zn3463  1  0.78088533  0.49035700  0.24944200  1.0
  Zn  Zn3464  1  0.78088533  0.82369033  0.24944200  1.0
  Zn  Zn3465  1  0.11421867  0.32369033  0.34944200  1.0
  Zn  Zn3466  1  0.11421867  0.65702367  0.34944200  1.0
  Zn  Zn3467  1  0.11421867  0.99035700  0.34944200  1.0
  Zn  Zn3468  1  0.44755200  0.32369033  0.34944200  1.0
  Zn  Zn3469  1  0.44755200  0.65702367  0.34944200  1.0
  Zn  Zn3470  1  0.44755200  0.99035700  0.34944200  1.0
  Zn  Zn3471  1  0.78088533  0.32369033  0.34944200  1.0
  Zn  Zn3472  1  0.78088533  0.65702367  0.34944200  1.0
  Zn  Zn3473  1  0.78088533  0.99035700  0.34944200  1.0
  Zn  Zn3474  1  0.26980700  0.00217467  0.29656760  1.0
  Zn  Zn3475  1  0.26980700  0.33550800  0.29656760  1.0
  Zn  Zn3476  1  0.26980700  0.66884133  0.29656760  1.0
  Zn  Zn3477  1  0.60314033  0.00217467  0.29656760  1.0
  Zn  Zn3478  1  0.60314033  0.33550800  0.29656760  1.0
  Zn  Zn3479  1  0.60314033  0.66884133  0.29656760  1.0
  Zn  Zn3480  1  0.93647367  0.00217467  0.29656760  1.0
  Zn  Zn3481  1  0.93647367  0.33550800  0.29656760  1.0
  Zn  Zn3482  1  0.93647367  0.66884133  0.29656760  1.0
  Zn  Zn3483  1  0.26980700  0.16884133  0.39656760  1.0
  Zn  Zn3484  1  0.26980700  0.50217467  0.39656760  1.0
  Zn  Zn3485  1  0.26980700  0.83550800  0.39656760  1.0
  Zn  Zn3486  1  0.60314033  0.16884133  0.39656760  1.0
  Zn  Zn3487  1  0.60314033  0.50217467  0.39656760  1.0
  Zn  Zn3488  1  0.60314033  0.83550800  0.39656760  1.0
  Zn  Zn3489  1  0.93647367  0.16884133  0.39656760  1.0
  Zn  Zn3490  1  0.93647367  0.50217467  0.39656760  1.0
  Zn  Zn3491  1  0.93647367  0.83550800  0.39656760  1.0
  Zn  Zn3492  1  0.05133700  0.01464967  0.36376560  1.0
  Zn  Zn3493  1  0.05133700  0.34798300  0.36376560  1.0
  Zn  Zn3494  1  0.05133700  0.68131633  0.36376560  1.0
  Zn  Zn3495  1  0.38467033  0.01464967  0.36376560  1.0
  Zn  Zn3496  1  0.38467033  0.34798300  0.36376560  1.0
  Zn  Zn3497  1  0.38467033  0.68131633  0.36376560  1.0
  Zn  Zn3498  1  0.71800367  0.01464967  0.36376560  1.0
  Zn  Zn3499  1  0.71800367  0.34798300  0.36376560  1.0
  Zn  Zn3500  1  0.71800367  0.68131633  0.36376560  1.0
  Zn  Zn3501  1  0.05133700  0.18131633  0.26376560  1.0
  Zn  Zn3502  1  0.05133700  0.51464967  0.26376560  1.0
  Zn  Zn3503  1  0.05133700  0.84798300  0.26376560  1.0
  Zn  Zn3504  1  0.38467033  0.18131633  0.26376560  1.0
  Zn  Zn3505  1  0.38467033  0.51464967  0.26376560  1.0
  Zn  Zn3506  1  0.38467033  0.84798300  0.26376560  1.0
  Zn  Zn3507  1  0.71800367  0.18131633  0.26376560  1.0
  Zn  Zn3508  1  0.71800367  0.51464967  0.26376560  1.0
  Zn  Zn3509  1  0.71800367  0.84798300  0.26376560  1.0
  Zn  Zn3510  1  0.21800367  0.06868367  0.37154080  1.0
  Zn  Zn3511  1  0.21800367  0.40201700  0.37154080  1.0
  Zn  Zn3512  1  0.21800367  0.73535033  0.37154080  1.0
  Zn  Zn3513  1  0.55133700  0.06868367  0.37154080  1.0
  Zn  Zn3514  1  0.55133700  0.40201700  0.37154080  1.0
  Zn  Zn3515  1  0.55133700  0.73535033  0.37154080  1.0
  Zn  Zn3516  1  0.88467033  0.06868367  0.37154080  1.0
  Zn  Zn3517  1  0.88467033  0.40201700  0.37154080  1.0
  Zn  Zn3518  1  0.88467033  0.73535033  0.37154080  1.0
  Zn  Zn3519  1  0.21800367  0.23535033  0.27154080  1.0
  Zn  Zn3520  1  0.21800367  0.56868367  0.27154080  1.0
  Zn  Zn3521  1  0.21800367  0.90201700  0.27154080  1.0
  Zn  Zn3522  1  0.55133700  0.23535033  0.27154080  1.0
  Zn  Zn3523  1  0.55133700  0.56868367  0.27154080  1.0
  Zn  Zn3524  1  0.55133700  0.90201700  0.27154080  1.0
  Zn  Zn3525  1  0.88467033  0.23535033  0.27154080  1.0
  Zn  Zn3526  1  0.88467033  0.56868367  0.27154080  1.0
  Zn  Zn3527  1  0.88467033  0.90201700  0.27154080  1.0
  Zn  Zn3528  1  0.28199633  0.15201700  0.32154080  1.0
  Zn  Zn3529  1  0.28199633  0.48535033  0.32154080  1.0
  Zn  Zn3530  1  0.28199633  0.81868367  0.32154080  1.0
  Zn  Zn3531  1  0.61532967  0.15201700  0.32154080  1.0
  Zn  Zn3532  1  0.61532967  0.48535033  0.32154080  1.0
  Zn  Zn3533  1  0.61532967  0.81868367  0.32154080  1.0
  Zn  Zn3534  1  0.94866300  0.15201700  0.32154080  1.0
  Zn  Zn3535  1  0.94866300  0.48535033  0.32154080  1.0
  Zn  Zn3536  1  0.94866300  0.81868367  0.32154080  1.0
  Zn  Zn3537  1  0.28199633  0.31868367  0.22154080  1.0
  Zn  Zn3538  1  0.28199633  0.65201700  0.22154080  1.0
  Zn  Zn3539  1  0.28199633  0.98535033  0.22154080  1.0
  Zn  Zn3540  1  0.61532967  0.31868367  0.22154080  1.0
  Zn  Zn3541  1  0.61532967  0.65201700  0.22154080  1.0
  Zn  Zn3542  1  0.61532967  0.98535033  0.22154080  1.0
  Zn  Zn3543  1  0.94866300  0.31868367  0.22154080  1.0
  Zn  Zn3544  1  0.94866300  0.65201700  0.22154080  1.0
  Zn  Zn3545  1  0.94866300  0.98535033  0.22154080  1.0
  Zn  Zn3546  1  0.24271933  0.16009683  0.38082750  1.0
  Zn  Zn3547  1  0.24271933  0.49343017  0.38082750  1.0
  Zn  Zn3548  1  0.24271933  0.82676350  0.38082750  1.0
  Zn  Zn3549  1  0.57605267  0.16009683  0.38082750  1.0
  Zn  Zn3550  1  0.57605267  0.49343017  0.38082750  1.0
  Zn  Zn3551  1  0.57605267  0.82676350  0.38082750  1.0
  Zn  Zn3552  1  0.90938600  0.16009683  0.38082750  1.0
  Zn  Zn3553  1  0.90938600  0.49343017  0.38082750  1.0
  Zn  Zn3554  1  0.90938600  0.82676350  0.38082750  1.0
  Zn  Zn3555  1  0.24271933  0.32676350  0.28082750  1.0
  Zn  Zn3556  1  0.24271933  0.66009683  0.28082750  1.0
  Zn  Zn3557  1  0.24271933  0.99343017  0.28082750  1.0
  Zn  Zn3558  1  0.57605267  0.32676350  0.28082750  1.0
  Zn  Zn3559  1  0.57605267  0.66009683  0.28082750  1.0
  Zn  Zn3560  1  0.57605267  0.99343017  0.28082750  1.0
  Zn  Zn3561  1  0.90938600  0.32676350  0.28082750  1.0
  Zn  Zn3562  1  0.90938600  0.66009683  0.28082750  1.0
  Zn  Zn3563  1  0.90938600  0.99343017  0.28082750  1.0
  Zn  Zn3564  1  0.09238600  0.12750433  0.25187020  1.0
  Zn  Zn3565  1  0.09238600  0.46083767  0.25187020  1.0
  Zn  Zn3566  1  0.09238600  0.79417100  0.25187020  1.0
  Zn  Zn3567  1  0.42571933  0.12750433  0.25187020  1.0
  Zn  Zn3568  1  0.42571933  0.46083767  0.25187020  1.0
  Zn  Zn3569  1  0.42571933  0.79417100  0.25187020  1.0
  Zn  Zn3570  1  0.75905267  0.12750433  0.25187020  1.0
  Zn  Zn3571  1  0.75905267  0.46083767  0.25187020  1.0
  Zn  Zn3572  1  0.75905267  0.79417100  0.25187020  1.0
  Zn  Zn3573  1  0.09238600  0.29417100  0.35187020  1.0
  Zn  Zn3574  1  0.09238600  0.62750433  0.35187020  1.0
  Zn  Zn3575  1  0.09238600  0.96083767  0.35187020  1.0
  Zn  Zn3576  1  0.42571933  0.29417100  0.35187020  1.0
  Zn  Zn3577  1  0.42571933  0.62750433  0.35187020  1.0
  Zn  Zn3578  1  0.42571933  0.96083767  0.35187020  1.0
  Zn  Zn3579  1  0.75905267  0.29417100  0.35187020  1.0
  Zn  Zn3580  1  0.75905267  0.62750433  0.35187020  1.0
  Zn  Zn3581  1  0.75905267  0.96083767  0.35187020  1.0
  Zn  Zn3582  1  0.07323933  0.15018967  0.31488440  1.0
  Zn  Zn3583  1  0.07323933  0.48352300  0.31488440  1.0
  Zn  Zn3584  1  0.07323933  0.81685633  0.31488440  1.0
  Zn  Zn3585  1  0.40657267  0.15018967  0.31488440  1.0
  Zn  Zn3586  1  0.40657267  0.48352300  0.31488440  1.0
  Zn  Zn3587  1  0.40657267  0.81685633  0.31488440  1.0
  Zn  Zn3588  1  0.73990600  0.15018967  0.31488440  1.0
  Zn  Zn3589  1  0.73990600  0.48352300  0.31488440  1.0
  Zn  Zn3590  1  0.73990600  0.81685633  0.31488440  1.0
  Zn  Zn3591  1  0.07323933  0.31685633  0.21488440  1.0
  Zn  Zn3592  1  0.07323933  0.65018967  0.21488440  1.0
  Zn  Zn3593  1  0.07323933  0.98352300  0.21488440  1.0
  Zn  Zn3594  1  0.40657267  0.31685633  0.21488440  1.0
  Zn  Zn3595  1  0.40657267  0.65018967  0.21488440  1.0
  Zn  Zn3596  1  0.40657267  0.98352300  0.21488440  1.0
  Zn  Zn3597  1  0.73990600  0.31685633  0.21488440  1.0
  Zn  Zn3598  1  0.73990600  0.65018967  0.21488440  1.0
  Zn  Zn3599  1  0.73990600  0.98352300  0.21488440  1.0
  Zn  Zn3600  1  0.21911467  0.11452117  0.37293750  1.0
  Zn  Zn3601  1  0.21911467  0.44785450  0.37293750  1.0
  Zn  Zn3602  1  0.21911467  0.78118783  0.37293750  1.0
  Zn  Zn3603  1  0.55244800  0.11452117  0.37293750  1.0
  Zn  Zn3604  1  0.55244800  0.44785450  0.37293750  1.0
  Zn  Zn3605  1  0.55244800  0.78118783  0.37293750  1.0
  Zn  Zn3606  1  0.88578133  0.11452117  0.37293750  1.0
  Zn  Zn3607  1  0.88578133  0.44785450  0.37293750  1.0
  Zn  Zn3608  1  0.88578133  0.78118783  0.37293750  1.0
  Zn  Zn3609  1  0.21911467  0.28118783  0.27293750  1.0
  Zn  Zn3610  1  0.21911467  0.61452117  0.27293750  1.0
  Zn  Zn3611  1  0.21911467  0.94785450  0.27293750  1.0
  Zn  Zn3612  1  0.55244800  0.28118783  0.27293750  1.0
  Zn  Zn3613  1  0.55244800  0.61452117  0.27293750  1.0
  Zn  Zn3614  1  0.55244800  0.94785450  0.27293750  1.0
  Zn  Zn3615  1  0.88578133  0.28118783  0.27293750  1.0
  Zn  Zn3616  1  0.88578133  0.61452117  0.27293750  1.0
  Zn  Zn3617  1  0.88578133  0.94785450  0.27293750  1.0
  Zn  Zn3618  1  0.21911467  0.00964300  0.23586440  1.0
  Zn  Zn3619  1  0.21911467  0.34297633  0.23586440  1.0
  Zn  Zn3620  1  0.21911467  0.67630967  0.23586440  1.0
  Zn  Zn3621  1  0.55244800  0.00964300  0.23586440  1.0
  Zn  Zn3622  1  0.55244800  0.34297633  0.23586440  1.0
  Zn  Zn3623  1  0.55244800  0.67630967  0.23586440  1.0
  Zn  Zn3624  1  0.88578133  0.00964300  0.23586440  1.0
  Zn  Zn3625  1  0.88578133  0.34297633  0.23586440  1.0
  Zn  Zn3626  1  0.88578133  0.67630967  0.23586440  1.0
  Zn  Zn3627  1  0.21911467  0.17630967  0.33586440  1.0
  Zn  Zn3628  1  0.21911467  0.50964300  0.33586440  1.0
  Zn  Zn3629  1  0.21911467  0.84297633  0.33586440  1.0
  Zn  Zn3630  1  0.55244800  0.17630967  0.33586440  1.0
  Zn  Zn3631  1  0.55244800  0.50964300  0.33586440  1.0
  Zn  Zn3632  1  0.55244800  0.84297633  0.33586440  1.0
  Zn  Zn3633  1  0.88578133  0.17630967  0.33586440  1.0
  Zn  Zn3634  1  0.88578133  0.50964300  0.33586440  1.0
  Zn  Zn3635  1  0.88578133  0.84297633  0.33586440  1.0
  Zn  Zn3636  1  0.14120133  0.00574217  0.30298910  1.0
  Zn  Zn3637  1  0.14120133  0.33907550  0.30298910  1.0
  Zn  Zn3638  1  0.14120133  0.67240883  0.30298910  1.0
  Zn  Zn3639  1  0.47453467  0.00574217  0.30298910  1.0
  Zn  Zn3640  1  0.47453467  0.33907550  0.30298910  1.0
  Zn  Zn3641  1  0.47453467  0.67240883  0.30298910  1.0
  Zn  Zn3642  1  0.80786800  0.00574217  0.30298910  1.0
  Zn  Zn3643  1  0.80786800  0.33907550  0.30298910  1.0
  Zn  Zn3644  1  0.80786800  0.67240883  0.30298910  1.0
  Zn  Zn3645  1  0.14120133  0.17240883  0.20298910  1.0
  Zn  Zn3646  1  0.14120133  0.50574217  0.20298910  1.0
  Zn  Zn3647  1  0.14120133  0.83907550  0.20298910  1.0
  Zn  Zn3648  1  0.47453467  0.17240883  0.20298910  1.0
  Zn  Zn3649  1  0.47453467  0.50574217  0.20298910  1.0
  Zn  Zn3650  1  0.47453467  0.83907550  0.20298910  1.0
  Zn  Zn3651  1  0.80786800  0.17240883  0.20298910  1.0
  Zn  Zn3652  1  0.80786800  0.50574217  0.20298910  1.0
  Zn  Zn3653  1  0.80786800  0.83907550  0.20298910  1.0
  Zn  Zn3654  1  0.03789867  0.16244833  0.38506020  1.0
  Zn  Zn3655  1  0.03789867  0.49578167  0.38506020  1.0
  Zn  Zn3656  1  0.03789867  0.82911500  0.38506020  1.0
  Zn  Zn3657  1  0.37123200  0.16244833  0.38506020  1.0
  Zn  Zn3658  1  0.37123200  0.49578167  0.38506020  1.0
  Zn  Zn3659  1  0.37123200  0.82911500  0.38506020  1.0
  Zn  Zn3660  1  0.70456533  0.16244833  0.38506020  1.0
  Zn  Zn3661  1  0.70456533  0.49578167  0.38506020  1.0
  Zn  Zn3662  1  0.70456533  0.82911500  0.38506020  1.0
  Zn  Zn3663  1  0.03789867  0.32911500  0.28506020  1.0
  Zn  Zn3664  1  0.03789867  0.66244833  0.28506020  1.0
  Zn  Zn3665  1  0.03789867  0.99578167  0.28506020  1.0
  Zn  Zn3666  1  0.37123200  0.32911500  0.28506020  1.0
  Zn  Zn3667  1  0.37123200  0.66244833  0.28506020  1.0
  Zn  Zn3668  1  0.37123200  0.99578167  0.28506020  1.0
  Zn  Zn3669  1  0.70456533  0.32911500  0.28506020  1.0
  Zn  Zn3670  1  0.70456533  0.66244833  0.28506020  1.0
  Zn  Zn3671  1  0.70456533  0.99578167  0.28506020  1.0
  Zn  Zn3672  1  0.26393867  0.13141600  0.25765980  1.0
  Zn  Zn3673  1  0.26393867  0.46474933  0.25765980  1.0
  Zn  Zn3674  1  0.26393867  0.79808267  0.25765980  1.0
  Zn  Zn3675  1  0.59727200  0.13141600  0.25765980  1.0
  Zn  Zn3676  1  0.59727200  0.46474933  0.25765980  1.0
  Zn  Zn3677  1  0.59727200  0.79808267  0.25765980  1.0
  Zn  Zn3678  1  0.93060533  0.13141600  0.25765980  1.0
  Zn  Zn3679  1  0.93060533  0.46474933  0.25765980  1.0
  Zn  Zn3680  1  0.93060533  0.79808267  0.25765980  1.0
  Zn  Zn3681  1  0.26393867  0.29808267  0.35765980  1.0
  Zn  Zn3682  1  0.26393867  0.63141600  0.35765980  1.0
  Zn  Zn3683  1  0.26393867  0.96474933  0.35765980  1.0
  Zn  Zn3684  1  0.59727200  0.29808267  0.35765980  1.0
  Zn  Zn3685  1  0.59727200  0.63141600  0.35765980  1.0
  Zn  Zn3686  1  0.59727200  0.96474933  0.35765980  1.0
  Zn  Zn3687  1  0.93060533  0.29808267  0.35765980  1.0
  Zn  Zn3688  1  0.93060533  0.63141600  0.35765980  1.0
  Zn  Zn3689  1  0.93060533  0.96474933  0.35765980  1.0
  Zn  Zn3690  1  0.10314033  0.08115867  0.23873880  1.0
  Zn  Zn3691  1  0.10314033  0.41449200  0.23873880  1.0
  Zn  Zn3692  1  0.10314033  0.74782533  0.23873880  1.0
  Zn  Zn3693  1  0.43647367  0.08115867  0.23873880  1.0
  Zn  Zn3694  1  0.43647367  0.41449200  0.23873880  1.0
  Zn  Zn3695  1  0.43647367  0.74782533  0.23873880  1.0
  Zn  Zn3696  1  0.76980700  0.08115867  0.23873880  1.0
  Zn  Zn3697  1  0.76980700  0.41449200  0.23873880  1.0
  Zn  Zn3698  1  0.76980700  0.74782533  0.23873880  1.0
  Zn  Zn3699  1  0.10314033  0.24782533  0.33873880  1.0
  Zn  Zn3700  1  0.10314033  0.58115867  0.33873880  1.0
  Zn  Zn3701  1  0.10314033  0.91449200  0.33873880  1.0
  Zn  Zn3702  1  0.43647367  0.24782533  0.33873880  1.0
  Zn  Zn3703  1  0.43647367  0.58115867  0.33873880  1.0
  Zn  Zn3704  1  0.43647367  0.91449200  0.33873880  1.0
  Zn  Zn3705  1  0.76980700  0.24782533  0.33873880  1.0
  Zn  Zn3706  1  0.76980700  0.58115867  0.33873880  1.0
  Zn  Zn3707  1  0.76980700  0.91449200  0.33873880  1.0
  Zn  Zn3708  1  0.06939467  0.09486917  0.39187550  1.0
  Zn  Zn3709  1  0.06939467  0.42820250  0.39187550  1.0
  Zn  Zn3710  1  0.06939467  0.76153583  0.39187550  1.0
  Zn  Zn3711  1  0.40272800  0.09486917  0.39187550  1.0
  Zn  Zn3712  1  0.40272800  0.42820250  0.39187550  1.0
  Zn  Zn3713  1  0.40272800  0.76153583  0.39187550  1.0
  Zn  Zn3714  1  0.73606133  0.09486917  0.39187550  1.0
  Zn  Zn3715  1  0.73606133  0.42820250  0.39187550  1.0
  Zn  Zn3716  1  0.73606133  0.76153583  0.39187550  1.0
  Zn  Zn3717  1  0.06939467  0.26153583  0.29187550  1.0
  Zn  Zn3718  1  0.06939467  0.59486917  0.29187550  1.0
  Zn  Zn3719  1  0.06939467  0.92820250  0.29187550  1.0
  Zn  Zn3720  1  0.40272800  0.26153583  0.29187550  1.0
  Zn  Zn3721  1  0.40272800  0.59486917  0.29187550  1.0
  Zn  Zn3722  1  0.40272800  0.92820250  0.29187550  1.0
  Zn  Zn3723  1  0.73606133  0.26153583  0.29187550  1.0
  Zn  Zn3724  1  0.73606133  0.59486917  0.29187550  1.0
  Zn  Zn3725  1  0.73606133  0.92820250  0.29187550  1.0
  Zn  Zn3726  1  0.25905267  0.01440467  0.24829080  1.0
  Zn  Zn3727  1  0.25905267  0.34773800  0.24829080  1.0
  Zn  Zn3728  1  0.25905267  0.68107133  0.24829080  1.0
  Zn  Zn3729  1  0.59238600  0.01440467  0.24829080  1.0
  Zn  Zn3730  1  0.59238600  0.34773800  0.24829080  1.0
  Zn  Zn3731  1  0.59238600  0.68107133  0.24829080  1.0
  Zn  Zn3732  1  0.92571933  0.01440467  0.24829080  1.0
  Zn  Zn3733  1  0.92571933  0.34773800  0.24829080  1.0
  Zn  Zn3734  1  0.92571933  0.68107133  0.24829080  1.0
  Zn  Zn3735  1  0.25905267  0.18107133  0.34829080  1.0
  Zn  Zn3736  1  0.25905267  0.51440467  0.34829080  1.0
  Zn  Zn3737  1  0.25905267  0.84773800  0.34829080  1.0
  Zn  Zn3738  1  0.59238600  0.18107133  0.34829080  1.0
  Zn  Zn3739  1  0.59238600  0.51440467  0.34829080  1.0
  Zn  Zn3740  1  0.59238600  0.84773800  0.34829080  1.0
  Zn  Zn3741  1  0.92571933  0.18107133  0.34829080  1.0
  Zn  Zn3742  1  0.92571933  0.51440467  0.34829080  1.0
  Zn  Zn3743  1  0.92571933  0.84773800  0.34829080  1.0
  Zn  Zn3744  1  0.32133600  0.15828017  0.37755750  1.0
  Zn  Zn3745  1  0.32133600  0.49161350  0.37755750  1.0
  Zn  Zn3746  1  0.32133600  0.82494683  0.37755750  1.0
  Zn  Zn3747  1  0.65466933  0.15828017  0.37755750  1.0
  Zn  Zn3748  1  0.65466933  0.49161350  0.37755750  1.0
  Zn  Zn3749  1  0.65466933  0.82494683  0.37755750  1.0
  Zn  Zn3750  1  0.98800267  0.15828017  0.37755750  1.0
  Zn  Zn3751  1  0.98800267  0.49161350  0.37755750  1.0
  Zn  Zn3752  1  0.98800267  0.82494683  0.37755750  1.0
  Zn  Zn3753  1  0.32133600  0.32494683  0.27755750  1.0
  Zn  Zn3754  1  0.32133600  0.65828017  0.27755750  1.0
  Zn  Zn3755  1  0.32133600  0.99161350  0.27755750  1.0
  Zn  Zn3756  1  0.65466933  0.32494683  0.27755750  1.0
  Zn  Zn3757  1  0.65466933  0.65828017  0.27755750  1.0
  Zn  Zn3758  1  0.65466933  0.99161350  0.27755750  1.0
  Zn  Zn3759  1  0.98800267  0.32494683  0.27755750  1.0
  Zn  Zn3760  1  0.98800267  0.65828017  0.27755750  1.0
  Zn  Zn3761  1  0.98800267  0.99161350  0.27755750  1.0
  Zn  Zn3762  1  0.24094733  0.03916233  0.23343620  1.0
  Zn  Zn3763  1  0.24094733  0.37249567  0.23343620  1.0
  Zn  Zn3764  1  0.24094733  0.70582900  0.23343620  1.0
  Zn  Zn3765  1  0.57428067  0.03916233  0.23343620  1.0
  Zn  Zn3766  1  0.57428067  0.37249567  0.23343620  1.0
  Zn  Zn3767  1  0.57428067  0.70582900  0.23343620  1.0
  Zn  Zn3768  1  0.90761400  0.03916233  0.23343620  1.0
  Zn  Zn3769  1  0.90761400  0.37249567  0.23343620  1.0
  Zn  Zn3770  1  0.90761400  0.70582900  0.23343620  1.0
  Zn  Zn3771  1  0.24094733  0.20582900  0.33343620  1.0
  Zn  Zn3772  1  0.24094733  0.53916233  0.33343620  1.0
  Zn  Zn3773  1  0.24094733  0.87249567  0.33343620  1.0
  Zn  Zn3774  1  0.57428067  0.20582900  0.33343620  1.0
  Zn  Zn3775  1  0.57428067  0.53916233  0.33343620  1.0
  Zn  Zn3776  1  0.57428067  0.87249567  0.33343620  1.0
  Zn  Zn3777  1  0.90761400  0.20582900  0.33343620  1.0
  Zn  Zn3778  1  0.90761400  0.53916233  0.33343620  1.0
  Zn  Zn3779  1  0.90761400  0.87249567  0.33343620  1.0
  Zn  Zn3780  1  0.19724567  0.10242633  0.32712600  1.0
  Zn  Zn3781  1  0.19724567  0.43575967  0.32712600  1.0
  Zn  Zn3782  1  0.19724567  0.76909300  0.32712600  1.0
  Zn  Zn3783  1  0.53057900  0.10242633  0.32712600  1.0
  Zn  Zn3784  1  0.53057900  0.43575967  0.32712600  1.0
  Zn  Zn3785  1  0.53057900  0.76909300  0.32712600  1.0
  Zn  Zn3786  1  0.86391233  0.10242633  0.32712600  1.0
  Zn  Zn3787  1  0.86391233  0.43575967  0.32712600  1.0
  Zn  Zn3788  1  0.86391233  0.76909300  0.32712600  1.0
  Zn  Zn3789  1  0.19724567  0.26909300  0.22712600  1.0
  Zn  Zn3790  1  0.19724567  0.60242633  0.22712600  1.0
  Zn  Zn3791  1  0.19724567  0.93575967  0.22712600  1.0
  Zn  Zn3792  1  0.53057900  0.26909300  0.22712600  1.0
  Zn  Zn3793  1  0.53057900  0.60242633  0.22712600  1.0
  Zn  Zn3794  1  0.53057900  0.93575967  0.22712600  1.0
  Zn  Zn3795  1  0.86391233  0.26909300  0.22712600  1.0
  Zn  Zn3796  1  0.86391233  0.60242633  0.22712600  1.0
  Zn  Zn3797  1  0.86391233  0.93575967  0.22712600  1.0
  Zn  Zn3798  1  0.05120400  0.07531533  0.22822080  1.0
  Zn  Zn3799  1  0.05120400  0.40864867  0.22822080  1.0
  Zn  Zn3800  1  0.05120400  0.74198200  0.22822080  1.0
  Zn  Zn3801  1  0.38453733  0.07531533  0.22822080  1.0
  Zn  Zn3802  1  0.38453733  0.40864867  0.22822080  1.0
  Zn  Zn3803  1  0.38453733  0.74198200  0.22822080  1.0
  Zn  Zn3804  1  0.71787067  0.07531533  0.22822080  1.0
  Zn  Zn3805  1  0.71787067  0.40864867  0.22822080  1.0
  Zn  Zn3806  1  0.71787067  0.74198200  0.22822080  1.0
  Zn  Zn3807  1  0.05120400  0.24198200  0.32822080  1.0
  Zn  Zn3808  1  0.05120400  0.57531533  0.32822080  1.0
  Zn  Zn3809  1  0.05120400  0.90864867  0.32822080  1.0
  Zn  Zn3810  1  0.38453733  0.24198200  0.32822080  1.0
  Zn  Zn3811  1  0.38453733  0.57531533  0.32822080  1.0
  Zn  Zn3812  1  0.38453733  0.90864867  0.32822080  1.0
  Zn  Zn3813  1  0.71787067  0.24198200  0.32822080  1.0
  Zn  Zn3814  1  0.71787067  0.57531533  0.32822080  1.0
  Zn  Zn3815  1  0.71787067  0.90864867  0.32822080  1.0
  Zn  Zn3816  1  0.23606133  0.04808267  0.30765980  1.0
  Zn  Zn3817  1  0.23606133  0.38141600  0.30765980  1.0
  Zn  Zn3818  1  0.23606133  0.71474933  0.30765980  1.0
  Zn  Zn3819  1  0.56939467  0.04808267  0.30765980  1.0
  Zn  Zn3820  1  0.56939467  0.38141600  0.30765980  1.0
  Zn  Zn3821  1  0.56939467  0.71474933  0.30765980  1.0
  Zn  Zn3822  1  0.90272800  0.04808267  0.30765980  1.0
  Zn  Zn3823  1  0.90272800  0.38141600  0.30765980  1.0
  Zn  Zn3824  1  0.90272800  0.71474933  0.30765980  1.0
  Zn  Zn3825  1  0.23606133  0.21474933  0.20765980  1.0
  Zn  Zn3826  1  0.23606133  0.54808267  0.20765980  1.0
  Zn  Zn3827  1  0.23606133  0.88141600  0.20765980  1.0
  Zn  Zn3828  1  0.56939467  0.21474933  0.20765980  1.0
  Zn  Zn3829  1  0.56939467  0.54808267  0.20765980  1.0
  Zn  Zn3830  1  0.56939467  0.88141600  0.20765980  1.0
  Zn  Zn3831  1  0.90272800  0.21474933  0.20765980  1.0
  Zn  Zn3832  1  0.90272800  0.54808267  0.20765980  1.0
  Zn  Zn3833  1  0.90272800  0.88141600  0.20765980  1.0
  Zn  Zn3834  1  0.19724567  0.14418083  0.30207330  1.0
  Zn  Zn3835  1  0.19724567  0.47751417  0.30207330  1.0
  Zn  Zn3836  1  0.19724567  0.81084750  0.30207330  1.0
  Zn  Zn3837  1  0.53057900  0.14418083  0.30207330  1.0
  Zn  Zn3838  1  0.53057900  0.47751417  0.30207330  1.0
  Zn  Zn3839  1  0.53057900  0.81084750  0.30207330  1.0
  Zn  Zn3840  1  0.86391233  0.14418083  0.30207330  1.0
  Zn  Zn3841  1  0.86391233  0.47751417  0.30207330  1.0
  Zn  Zn3842  1  0.86391233  0.81084750  0.30207330  1.0
  Zn  Zn3843  1  0.19724567  0.31084750  0.20207330  1.0
  Zn  Zn3844  1  0.19724567  0.64418083  0.20207330  1.0
  Zn  Zn3845  1  0.19724567  0.97751417  0.20207330  1.0
  Zn  Zn3846  1  0.53057900  0.31084750  0.20207330  1.0
  Zn  Zn3847  1  0.53057900  0.64418083  0.20207330  1.0
  Zn  Zn3848  1  0.53057900  0.97751417  0.20207330  1.0
  Zn  Zn3849  1  0.86391233  0.31084750  0.20207330  1.0
  Zn  Zn3850  1  0.86391233  0.64418083  0.20207330  1.0
  Zn  Zn3851  1  0.86391233  0.97751417  0.20207330  1.0
  Zn  Zn3852  1  0.15605000  0.11359417  0.34381510  1.0
  Zn  Zn3853  1  0.15605000  0.44692750  0.34381510  1.0
  Zn  Zn3854  1  0.15605000  0.78026083  0.34381510  1.0
  Zn  Zn3855  1  0.48938333  0.11359417  0.34381510  1.0
  Zn  Zn3856  1  0.48938333  0.44692750  0.34381510  1.0
  Zn  Zn3857  1  0.48938333  0.78026083  0.34381510  1.0
  Zn  Zn3858  1  0.82271667  0.11359417  0.34381510  1.0
  Zn  Zn3859  1  0.82271667  0.44692750  0.34381510  1.0
  Zn  Zn3860  1  0.82271667  0.78026083  0.34381510  1.0
  Zn  Zn3861  1  0.15605000  0.28026083  0.24381510  1.0
  Zn  Zn3862  1  0.15605000  0.61359417  0.24381510  1.0
  Zn  Zn3863  1  0.15605000  0.94692750  0.24381510  1.0
  Zn  Zn3864  1  0.48938333  0.28026083  0.24381510  1.0
  Zn  Zn3865  1  0.48938333  0.61359417  0.24381510  1.0
  Zn  Zn3866  1  0.48938333  0.94692750  0.24381510  1.0
  Zn  Zn3867  1  0.82271667  0.28026083  0.24381510  1.0
  Zn  Zn3868  1  0.82271667  0.61359417  0.24381510  1.0
  Zn  Zn3869  1  0.82271667  0.94692750  0.24381510  1.0
  Zn  Zn3870  1  0.13281567  0.12078867  0.38119440  1.0
  Zn  Zn3871  1  0.13281567  0.45412200  0.38119440  1.0
  Zn  Zn3872  1  0.13281567  0.78745533  0.38119440  1.0
  Zn  Zn3873  1  0.46614900  0.12078867  0.38119440  1.0
  Zn  Zn3874  1  0.46614900  0.45412200  0.38119440  1.0
  Zn  Zn3875  1  0.46614900  0.78745533  0.38119440  1.0
  Zn  Zn3876  1  0.79948233  0.12078867  0.38119440  1.0
  Zn  Zn3877  1  0.79948233  0.45412200  0.38119440  1.0
  Zn  Zn3878  1  0.79948233  0.78745533  0.38119440  1.0
  Zn  Zn3879  1  0.13281567  0.28745533  0.28119440  1.0
  Zn  Zn3880  1  0.13281567  0.62078867  0.28119440  1.0
  Zn  Zn3881  1  0.13281567  0.95412200  0.28119440  1.0
  Zn  Zn3882  1  0.46614900  0.28745533  0.28119440  1.0
  Zn  Zn3883  1  0.46614900  0.62078867  0.28119440  1.0
  Zn  Zn3884  1  0.46614900  0.95412200  0.28119440  1.0
  Zn  Zn3885  1  0.79948233  0.28745533  0.28119440  1.0
  Zn  Zn3886  1  0.79948233  0.62078867  0.28119440  1.0
  Zn  Zn3887  1  0.79948233  0.95412200  0.28119440  1.0
  Zn  Zn3888  1  0.32552100  0.15560383  0.24706790  1.0
  Zn  Zn3889  1  0.32552100  0.48893717  0.24706790  1.0
  Zn  Zn3890  1  0.32552100  0.82227050  0.24706790  1.0
  Zn  Zn3891  1  0.65885433  0.15560383  0.24706790  1.0
  Zn  Zn3892  1  0.65885433  0.48893717  0.24706790  1.0
  Zn  Zn3893  1  0.65885433  0.82227050  0.24706790  1.0
  Zn  Zn3894  1  0.99218767  0.15560383  0.24706790  1.0
  Zn  Zn3895  1  0.99218767  0.48893717  0.24706790  1.0
  Zn  Zn3896  1  0.99218767  0.82227050  0.24706790  1.0
  Zn  Zn3897  1  0.32552100  0.32227050  0.34706790  1.0
  Zn  Zn3898  1  0.32552100  0.65560383  0.34706790  1.0
  Zn  Zn3899  1  0.32552100  0.98893717  0.34706790  1.0
  Zn  Zn3900  1  0.65885433  0.32227050  0.34706790  1.0
  Zn  Zn3901  1  0.65885433  0.65560383  0.34706790  1.0
  Zn  Zn3902  1  0.65885433  0.98893717  0.34706790  1.0
  Zn  Zn3903  1  0.99218767  0.32227050  0.34706790  1.0
  Zn  Zn3904  1  0.99218767  0.65560383  0.34706790  1.0
  Zn  Zn3905  1  0.99218767  0.98893717  0.34706790  1.0
  Zn  Zn3906  1  0.20051767  0.15327667  0.23967280  1.0
  Zn  Zn3907  1  0.20051767  0.48661000  0.23967280  1.0
  Zn  Zn3908  1  0.20051767  0.81994333  0.23967280  1.0
  Zn  Zn3909  1  0.53385100  0.15327667  0.23967280  1.0
  Zn  Zn3910  1  0.53385100  0.48661000  0.23967280  1.0
  Zn  Zn3911  1  0.53385100  0.81994333  0.23967280  1.0
  Zn  Zn3912  1  0.86718433  0.15327667  0.23967280  1.0
  Zn  Zn3913  1  0.86718433  0.48661000  0.23967280  1.0
  Zn  Zn3914  1  0.86718433  0.81994333  0.23967280  1.0
  Zn  Zn3915  1  0.20051767  0.31994333  0.33967280  1.0
  Zn  Zn3916  1  0.20051767  0.65327667  0.33967280  1.0
  Zn  Zn3917  1  0.20051767  0.98661000  0.33967280  1.0
  Zn  Zn3918  1  0.53385100  0.31994333  0.33967280  1.0
  Zn  Zn3919  1  0.53385100  0.65327667  0.33967280  1.0
  Zn  Zn3920  1  0.53385100  0.98661000  0.33967280  1.0
  Zn  Zn3921  1  0.86718433  0.31994333  0.33967280  1.0
  Zn  Zn3922  1  0.86718433  0.65327667  0.33967280  1.0
  Zn  Zn3923  1  0.86718433  0.98661000  0.33967280  1.0
  Zn  Zn3924  1  0.29948233  0.12921133  0.25411200  1.0
  Zn  Zn3925  1  0.29948233  0.46254467  0.25411200  1.0
  Zn  Zn3926  1  0.29948233  0.79587800  0.25411200  1.0
  Zn  Zn3927  1  0.63281567  0.12921133  0.25411200  1.0
  Zn  Zn3928  1  0.63281567  0.46254467  0.25411200  1.0
  Zn  Zn3929  1  0.63281567  0.79587800  0.25411200  1.0
  Zn  Zn3930  1  0.96614900  0.12921133  0.25411200  1.0
  Zn  Zn3931  1  0.96614900  0.46254467  0.25411200  1.0
  Zn  Zn3932  1  0.96614900  0.79587800  0.25411200  1.0
  Zn  Zn3933  1  0.29948233  0.29587800  0.35411200  1.0
  Zn  Zn3934  1  0.29948233  0.62921133  0.35411200  1.0
  Zn  Zn3935  1  0.29948233  0.96254467  0.35411200  1.0
  Zn  Zn3936  1  0.63281567  0.29587800  0.35411200  1.0
  Zn  Zn3937  1  0.63281567  0.62921133  0.35411200  1.0
  Zn  Zn3938  1  0.63281567  0.96254467  0.35411200  1.0
  Zn  Zn3939  1  0.96614900  0.29587800  0.35411200  1.0
  Zn  Zn3940  1  0.96614900  0.62921133  0.35411200  1.0
  Zn  Zn3941  1  0.96614900  0.96254467  0.35411200  1.0
  Zn  Zn3942  1  0.17728333  0.05307250  0.34149130  1.0
  Zn  Zn3943  1  0.17728333  0.38640583  0.34149130  1.0
  Zn  Zn3944  1  0.17728333  0.71973917  0.34149130  1.0
  Zn  Zn3945  1  0.51061667  0.05307250  0.34149130  1.0
  Zn  Zn3946  1  0.51061667  0.38640583  0.34149130  1.0
  Zn  Zn3947  1  0.51061667  0.71973917  0.34149130  1.0
  Zn  Zn3948  1  0.84395000  0.05307250  0.34149130  1.0
  Zn  Zn3949  1  0.84395000  0.38640583  0.34149130  1.0
  Zn  Zn3950  1  0.84395000  0.71973917  0.34149130  1.0
  Zn  Zn3951  1  0.17728333  0.21973917  0.24149130  1.0
  Zn  Zn3952  1  0.17728333  0.55307250  0.24149130  1.0
  Zn  Zn3953  1  0.17728333  0.88640583  0.24149130  1.0
  Zn  Zn3954  1  0.51061667  0.21973917  0.24149130  1.0
  Zn  Zn3955  1  0.51061667  0.55307250  0.24149130  1.0
  Zn  Zn3956  1  0.51061667  0.88640583  0.24149130  1.0
  Zn  Zn3957  1  0.84395000  0.21973917  0.24149130  1.0
  Zn  Zn3958  1  0.84395000  0.55307250  0.24149130  1.0
  Zn  Zn3959  1  0.84395000  0.88640583  0.24149130  1.0
  Zn  Zn3960  1  0.02546533  0.08907550  0.25298910  1.0
  Zn  Zn3961  1  0.02546533  0.42240883  0.25298910  1.0
  Zn  Zn3962  1  0.02546533  0.75574217  0.25298910  1.0
  Zn  Zn3963  1  0.35879867  0.08907550  0.25298910  1.0
  Zn  Zn3964  1  0.35879867  0.42240883  0.25298910  1.0
  Zn  Zn3965  1  0.35879867  0.75574217  0.25298910  1.0
  Zn  Zn3966  1  0.69213200  0.08907550  0.25298910  1.0
  Zn  Zn3967  1  0.69213200  0.42240883  0.25298910  1.0
  Zn  Zn3968  1  0.69213200  0.75574217  0.25298910  1.0
  Zn  Zn3969  1  0.02546533  0.25574217  0.35298910  1.0
  Zn  Zn3970  1  0.02546533  0.58907550  0.35298910  1.0
  Zn  Zn3971  1  0.02546533  0.92240883  0.35298910  1.0
  Zn  Zn3972  1  0.35879867  0.25574217  0.35298910  1.0
  Zn  Zn3973  1  0.35879867  0.58907550  0.35298910  1.0
  Zn  Zn3974  1  0.35879867  0.92240883  0.35298910  1.0
  Zn  Zn3975  1  0.69213200  0.25574217  0.35298910  1.0
  Zn  Zn3976  1  0.69213200  0.58907550  0.35298910  1.0
  Zn  Zn3977  1  0.69213200  0.92240883  0.35298910  1.0
  Zn  Zn3978  1  0.23606133  0.15513083  0.24343090  1.0
  Zn  Zn3979  1  0.23606133  0.48846417  0.24343090  1.0
  Zn  Zn3980  1  0.23606133  0.82179750  0.24343090  1.0
  Zn  Zn3981  1  0.56939467  0.15513083  0.24343090  1.0
  Zn  Zn3982  1  0.56939467  0.48846417  0.24343090  1.0
  Zn  Zn3983  1  0.56939467  0.82179750  0.24343090  1.0
  Zn  Zn3984  1  0.90272800  0.15513083  0.24343090  1.0
  Zn  Zn3985  1  0.90272800  0.48846417  0.24343090  1.0
  Zn  Zn3986  1  0.90272800  0.82179750  0.24343090  1.0
  Zn  Zn3987  1  0.23606133  0.32179750  0.34343090  1.0
  Zn  Zn3988  1  0.23606133  0.65513083  0.34343090  1.0
  Zn  Zn3989  1  0.23606133  0.98846417  0.34343090  1.0
  Zn  Zn3990  1  0.56939467  0.32179750  0.34343090  1.0
  Zn  Zn3991  1  0.56939467  0.65513083  0.34343090  1.0
  Zn  Zn3992  1  0.56939467  0.98846417  0.34343090  1.0
  Zn  Zn3993  1  0.90272800  0.32179750  0.34343090  1.0
  Zn  Zn3994  1  0.90272800  0.65513083  0.34343090  1.0
  Zn  Zn3995  1  0.90272800  0.98846417  0.34343090  1.0
  Zn  Zn3996  1  0.15885433  0.03245633  0.22540240  1.0
  Zn  Zn3997  1  0.15885433  0.36578967  0.22540240  1.0
  Zn  Zn3998  1  0.15885433  0.69912300  0.22540240  1.0
  Zn  Zn3999  1  0.49218767  0.03245633  0.22540240  1.0
  Zn  Zn4000  1  0.49218767  0.36578967  0.22540240  1.0
  Zn  Zn4001  1  0.49218767  0.69912300  0.22540240  1.0
  Zn  Zn4002  1  0.82552100  0.03245633  0.22540240  1.0
  Zn  Zn4003  1  0.82552100  0.36578967  0.22540240  1.0
  Zn  Zn4004  1  0.82552100  0.69912300  0.22540240  1.0
  Zn  Zn4005  1  0.15885433  0.19912300  0.32540240  1.0
  Zn  Zn4006  1  0.15885433  0.53245633  0.32540240  1.0
  Zn  Zn4007  1  0.15885433  0.86578967  0.32540240  1.0
  Zn  Zn4008  1  0.49218767  0.19912300  0.32540240  1.0
  Zn  Zn4009  1  0.49218767  0.53245633  0.32540240  1.0
  Zn  Zn4010  1  0.49218767  0.86578967  0.32540240  1.0
  Zn  Zn4011  1  0.82552100  0.19912300  0.32540240  1.0
  Zn  Zn4012  1  0.82552100  0.53245633  0.32540240  1.0
  Zn  Zn4013  1  0.82552100  0.86578967  0.32540240  1.0
  Zn  Zn4014  1  0.13608767  0.06424033  0.35818040  1.0
  Zn  Zn4015  1  0.13608767  0.39757367  0.35818040  1.0
  Zn  Zn4016  1  0.13608767  0.73090700  0.35818040  1.0
  Zn  Zn4017  1  0.46942100  0.06424033  0.35818040  1.0
  Zn  Zn4018  1  0.46942100  0.39757367  0.35818040  1.0
  Zn  Zn4019  1  0.46942100  0.73090700  0.35818040  1.0
  Zn  Zn4020  1  0.80275433  0.06424033  0.35818040  1.0
  Zn  Zn4021  1  0.80275433  0.39757367  0.35818040  1.0
  Zn  Zn4022  1  0.80275433  0.73090700  0.35818040  1.0
  Zn  Zn4023  1  0.13608767  0.23090700  0.25818040  1.0
  Zn  Zn4024  1  0.13608767  0.56424033  0.25818040  1.0
  Zn  Zn4025  1  0.13608767  0.89757367  0.25818040  1.0
  Zn  Zn4026  1  0.46942100  0.23090700  0.25818040  1.0
  Zn  Zn4027  1  0.46942100  0.56424033  0.25818040  1.0
  Zn  Zn4028  1  0.46942100  0.89757367  0.25818040  1.0
  Zn  Zn4029  1  0.80275433  0.23090700  0.25818040  1.0
  Zn  Zn4030  1  0.80275433  0.56424033  0.25818040  1.0
  Zn  Zn4031  1  0.80275433  0.89757367  0.25818040  1.0
  Zn  Zn4032  1  0.28199633  0.11473117  0.34391230  1.0
  Zn  Zn4033  1  0.28199633  0.44806450  0.34391230  1.0
  Zn  Zn4034  1  0.28199633  0.78139783  0.34391230  1.0
  Zn  Zn4035  1  0.61532967  0.11473117  0.34391230  1.0
  Zn  Zn4036  1  0.61532967  0.44806450  0.34391230  1.0
  Zn  Zn4037  1  0.61532967  0.78139783  0.34391230  1.0
  Zn  Zn4038  1  0.94866300  0.11473117  0.34391230  1.0
  Zn  Zn4039  1  0.94866300  0.44806450  0.34391230  1.0
  Zn  Zn4040  1  0.94866300  0.78139783  0.34391230  1.0
  Zn  Zn4041  1  0.28199633  0.28139783  0.24391230  1.0
  Zn  Zn4042  1  0.28199633  0.61473117  0.24391230  1.0
  Zn  Zn4043  1  0.28199633  0.94806450  0.24391230  1.0
  Zn  Zn4044  1  0.61532967  0.28139783  0.24391230  1.0
  Zn  Zn4045  1  0.61532967  0.61473117  0.24391230  1.0
  Zn  Zn4046  1  0.61532967  0.94806450  0.24391230  1.0
  Zn  Zn4047  1  0.94866300  0.28139783  0.24391230  1.0
  Zn  Zn4048  1  0.94866300  0.61473117  0.24391230  1.0
  Zn  Zn4049  1  0.94866300  0.94806450  0.24391230  1.0
  Zn  Zn4050  1  0.13608767  0.02248583  0.38323310  1.0
  Zn  Zn4051  1  0.13608767  0.35581917  0.38323310  1.0
  Zn  Zn4052  1  0.13608767  0.68915250  0.38323310  1.0
  Zn  Zn4053  1  0.46942100  0.02248583  0.38323310  1.0
  Zn  Zn4054  1  0.46942100  0.35581917  0.38323310  1.0
  Zn  Zn4055  1  0.46942100  0.68915250  0.38323310  1.0
  Zn  Zn4056  1  0.80275433  0.02248583  0.38323310  1.0
  Zn  Zn4057  1  0.80275433  0.35581917  0.38323310  1.0
  Zn  Zn4058  1  0.80275433  0.68915250  0.38323310  1.0
  Zn  Zn4059  1  0.13608767  0.18915250  0.28323310  1.0
  Zn  Zn4060  1  0.13608767  0.52248583  0.28323310  1.0
  Zn  Zn4061  1  0.13608767  0.85581917  0.28323310  1.0
  Zn  Zn4062  1  0.46942100  0.18915250  0.28323310  1.0
  Zn  Zn4063  1  0.46942100  0.52248583  0.28323310  1.0
  Zn  Zn4064  1  0.46942100  0.85581917  0.28323310  1.0
  Zn  Zn4065  1  0.80275433  0.18915250  0.28323310  1.0
  Zn  Zn4066  1  0.80275433  0.52248583  0.28323310  1.0
  Zn  Zn4067  1  0.80275433  0.85581917  0.28323310  1.0
  Zn  Zn4068  1  0.32271667  0.09749550  0.31483750  1.0
  Zn  Zn4069  1  0.32271667  0.43082883  0.31483750  1.0
  Zn  Zn4070  1  0.32271667  0.76416217  0.31483750  1.0
  Zn  Zn4071  1  0.65605000  0.09749550  0.31483750  1.0
  Zn  Zn4072  1  0.65605000  0.43082883  0.31483750  1.0
  Zn  Zn4073  1  0.65605000  0.76416217  0.31483750  1.0
  Zn  Zn4074  1  0.98938333  0.09749550  0.31483750  1.0
  Zn  Zn4075  1  0.98938333  0.43082883  0.31483750  1.0
  Zn  Zn4076  1  0.98938333  0.76416217  0.31483750  1.0
  Zn  Zn4077  1  0.32271667  0.26416217  0.21483750  1.0
  Zn  Zn4078  1  0.32271667  0.59749550  0.21483750  1.0
  Zn  Zn4079  1  0.32271667  0.93082883  0.21483750  1.0
  Zn  Zn4080  1  0.65605000  0.26416217  0.21483750  1.0
  Zn  Zn4081  1  0.65605000  0.59749550  0.21483750  1.0
  Zn  Zn4082  1  0.65605000  0.93082883  0.21483750  1.0
  Zn  Zn4083  1  0.98938333  0.26416217  0.21483750  1.0
  Zn  Zn4084  1  0.98938333  0.59749550  0.21483750  1.0
  Zn  Zn4085  1  0.98938333  0.93082883  0.21483750  1.0
  Zn  Zn4086  1  0.12876800  0.07911500  0.23506020  1.0
  Zn  Zn4087  1  0.12876800  0.41244833  0.23506020  1.0
  Zn  Zn4088  1  0.12876800  0.74578167  0.23506020  1.0
  Zn  Zn4089  1  0.46210133  0.07911500  0.23506020  1.0
  Zn  Zn4090  1  0.46210133  0.41244833  0.23506020  1.0
  Zn  Zn4091  1  0.46210133  0.74578167  0.23506020  1.0
  Zn  Zn4092  1  0.79543467  0.07911500  0.23506020  1.0
  Zn  Zn4093  1  0.79543467  0.41244833  0.23506020  1.0
  Zn  Zn4094  1  0.79543467  0.74578167  0.23506020  1.0
  Zn  Zn4095  1  0.12876800  0.24578167  0.33506020  1.0
  Zn  Zn4096  1  0.12876800  0.57911500  0.33506020  1.0
  Zn  Zn4097  1  0.12876800  0.91244833  0.33506020  1.0
  Zn  Zn4098  1  0.46210133  0.24578167  0.33506020  1.0
  Zn  Zn4099  1  0.46210133  0.57911500  0.33506020  1.0
  Zn  Zn4100  1  0.46210133  0.91244833  0.33506020  1.0
  Zn  Zn4101  1  0.79543467  0.24578167  0.33506020  1.0
  Zn  Zn4102  1  0.79543467  0.57911500  0.33506020  1.0
  Zn  Zn4103  1  0.79543467  0.91244833  0.33506020  1.0
  Zn  Zn4104  1  0.00000000  0.08333333  0.24265320  1.0
  Zn  Zn4105  1  0.00000000  0.41666667  0.24265320  1.0
  Zn  Zn4106  1  0.00000000  0.75000000  0.24265320  1.0
  Zn  Zn4107  1  0.33333333  0.08333333  0.24265320  1.0
  Zn  Zn4108  1  0.33333333  0.41666667  0.24265320  1.0
  Zn  Zn4109  1  0.33333333  0.75000000  0.24265320  1.0
  Zn  Zn4110  1  0.66666667  0.08333333  0.24265320  1.0
  Zn  Zn4111  1  0.66666667  0.41666667  0.24265320  1.0
  Zn  Zn4112  1  0.66666667  0.75000000  0.24265320  1.0
  Zn  Zn4113  1  0.00000000  0.25000000  0.34265320  1.0
  Zn  Zn4114  1  0.00000000  0.58333333  0.34265320  1.0
  Zn  Zn4115  1  0.00000000  0.91666667  0.34265320  1.0
  Zn  Zn4116  1  0.33333333  0.25000000  0.34265320  1.0
  Zn  Zn4117  1  0.33333333  0.58333333  0.34265320  1.0
  Zn  Zn4118  1  0.33333333  0.91666667  0.34265320  1.0
  Zn  Zn4119  1  0.66666667  0.25000000  0.34265320  1.0
  Zn  Zn4120  1  0.66666667  0.58333333  0.34265320  1.0
  Zn  Zn4121  1  0.66666667  0.91666667  0.34265320  1.0
  Zn  Zn4122  1  0.26009400  0.01647700  0.37042200  1.0
  Zn  Zn4123  1  0.26009400  0.34981033  0.37042200  1.0
  Zn  Zn4124  1  0.26009400  0.68314367  0.37042200  1.0
  Zn  Zn4125  1  0.59342733  0.01647700  0.37042200  1.0
  Zn  Zn4126  1  0.59342733  0.34981033  0.37042200  1.0
  Zn  Zn4127  1  0.59342733  0.68314367  0.37042200  1.0
  Zn  Zn4128  1  0.92676067  0.01647700  0.37042200  1.0
  Zn  Zn4129  1  0.92676067  0.34981033  0.37042200  1.0
  Zn  Zn4130  1  0.92676067  0.68314367  0.37042200  1.0
  Zn  Zn4131  1  0.26009400  0.18314367  0.27042200  1.0
  Zn  Zn4132  1  0.26009400  0.51647700  0.27042200  1.0
  Zn  Zn4133  1  0.26009400  0.84981033  0.27042200  1.0
  Zn  Zn4134  1  0.59342733  0.18314367  0.27042200  1.0
  Zn  Zn4135  1  0.59342733  0.51647700  0.27042200  1.0
  Zn  Zn4136  1  0.59342733  0.84981033  0.27042200  1.0
  Zn  Zn4137  1  0.92676067  0.18314367  0.27042200  1.0
  Zn  Zn4138  1  0.92676067  0.51647700  0.27042200  1.0
  Zn  Zn4139  1  0.92676067  0.84981033  0.27042200  1.0
  Zn  Zn4140  1  0.07323933  0.11009783  0.33893950  1.0
  Zn  Zn4141  1  0.07323933  0.44343117  0.33893950  1.0
  Zn  Zn4142  1  0.07323933  0.77676450  0.33893950  1.0
  Zn  Zn4143  1  0.40657267  0.11009783  0.33893950  1.0
  Zn  Zn4144  1  0.40657267  0.44343117  0.33893950  1.0
  Zn  Zn4145  1  0.40657267  0.77676450  0.33893950  1.0
  Zn  Zn4146  1  0.73990600  0.11009783  0.33893950  1.0
  Zn  Zn4147  1  0.73990600  0.44343117  0.33893950  1.0
  Zn  Zn4148  1  0.73990600  0.77676450  0.33893950  1.0
  Zn  Zn4149  1  0.07323933  0.27676450  0.23893950  1.0
  Zn  Zn4150  1  0.07323933  0.61009783  0.23893950  1.0
  Zn  Zn4151  1  0.07323933  0.94343117  0.23893950  1.0
  Zn  Zn4152  1  0.40657267  0.27676450  0.23893950  1.0
  Zn  Zn4153  1  0.40657267  0.61009783  0.23893950  1.0
  Zn  Zn4154  1  0.40657267  0.94343117  0.23893950  1.0
  Zn  Zn4155  1  0.73990600  0.27676450  0.23893950  1.0
  Zn  Zn4156  1  0.73990600  0.61009783  0.23893950  1.0
  Zn  Zn4157  1  0.73990600  0.94343117  0.23893950  1.0
  Zn  Zn4158  1  0.30473867  0.01395033  0.24653500  1.0
  Zn  Zn4159  1  0.30473867  0.34728367  0.24653500  1.0
  Zn  Zn4160  1  0.30473867  0.68061700  0.24653500  1.0
  Zn  Zn4161  1  0.63807200  0.01395033  0.24653500  1.0
  Zn  Zn4162  1  0.63807200  0.34728367  0.24653500  1.0
  Zn  Zn4163  1  0.63807200  0.68061700  0.24653500  1.0
  Zn  Zn4164  1  0.97140533  0.01395033  0.24653500  1.0
  Zn  Zn4165  1  0.97140533  0.34728367  0.24653500  1.0
  Zn  Zn4166  1  0.97140533  0.68061700  0.24653500  1.0
  Zn  Zn4167  1  0.30473867  0.18061700  0.34653500  1.0
  Zn  Zn4168  1  0.30473867  0.51395033  0.34653500  1.0
  Zn  Zn4169  1  0.30473867  0.84728367  0.34653500  1.0
  Zn  Zn4170  1  0.63807200  0.18061700  0.34653500  1.0
  Zn  Zn4171  1  0.63807200  0.51395033  0.34653500  1.0
  Zn  Zn4172  1  0.63807200  0.84728367  0.34653500  1.0
  Zn  Zn4173  1  0.97140533  0.18061700  0.34653500  1.0
  Zn  Zn4174  1  0.97140533  0.51395033  0.34653500  1.0
  Zn  Zn4175  1  0.97140533  0.84728367  0.34653500  1.0
  Zn  Zn4176  1  0.30275433  0.01909300  0.37712600  1.0
  Zn  Zn4177  1  0.30275433  0.35242633  0.37712600  1.0
  Zn  Zn4178  1  0.30275433  0.68575967  0.37712600  1.0
  Zn  Zn4179  1  0.63608767  0.01909300  0.37712600  1.0
  Zn  Zn4180  1  0.63608767  0.35242633  0.37712600  1.0
  Zn  Zn4181  1  0.63608767  0.68575967  0.37712600  1.0
  Zn  Zn4182  1  0.96942100  0.01909300  0.37712600  1.0
  Zn  Zn4183  1  0.96942100  0.35242633  0.37712600  1.0
  Zn  Zn4184  1  0.96942100  0.68575967  0.37712600  1.0
  Zn  Zn4185  1  0.30275433  0.18575967  0.27712600  1.0
  Zn  Zn4186  1  0.30275433  0.51909300  0.27712600  1.0
  Zn  Zn4187  1  0.30275433  0.85242633  0.27712600  1.0
  Zn  Zn4188  1  0.63608767  0.18575967  0.27712600  1.0
  Zn  Zn4189  1  0.63608767  0.51909300  0.27712600  1.0
  Zn  Zn4190  1  0.63608767  0.85242633  0.27712600  1.0
  Zn  Zn4191  1  0.96942100  0.18575967  0.27712600  1.0
  Zn  Zn4192  1  0.96942100  0.51909300  0.27712600  1.0
  Zn  Zn4193  1  0.96942100  0.85242633  0.27712600  1.0
  Zn  Zn4194  1  0.24094733  0.09773800  0.39829080  1.0
  Zn  Zn4195  1  0.24094733  0.43107133  0.39829080  1.0
  Zn  Zn4196  1  0.24094733  0.76440467  0.39829080  1.0
  Zn  Zn4197  1  0.57428067  0.09773800  0.39829080  1.0
  Zn  Zn4198  1  0.57428067  0.43107133  0.39829080  1.0
  Zn  Zn4199  1  0.57428067  0.76440467  0.39829080  1.0
  Zn  Zn4200  1  0.90761400  0.09773800  0.39829080  1.0
  Zn  Zn4201  1  0.90761400  0.43107133  0.39829080  1.0
  Zn  Zn4202  1  0.90761400  0.76440467  0.39829080  1.0
  Zn  Zn4203  1  0.24094733  0.26440467  0.29829080  1.0
  Zn  Zn4204  1  0.24094733  0.59773800  0.29829080  1.0
  Zn  Zn4205  1  0.24094733  0.93107133  0.29829080  1.0
  Zn  Zn4206  1  0.57428067  0.26440467  0.29829080  1.0
  Zn  Zn4207  1  0.57428067  0.59773800  0.29829080  1.0
  Zn  Zn4208  1  0.57428067  0.93107133  0.29829080  1.0
  Zn  Zn4209  1  0.90761400  0.26440467  0.29829080  1.0
  Zn  Zn4210  1  0.90761400  0.59773800  0.29829080  1.0
  Zn  Zn4211  1  0.90761400  0.93107133  0.29829080  1.0
  Zn  Zn4212  1  0.20456533  0.08755167  0.25024620  1.0
  Zn  Zn4213  1  0.20456533  0.42088500  0.25024620  1.0
  Zn  Zn4214  1  0.20456533  0.75421833  0.25024620  1.0
  Zn  Zn4215  1  0.53789867  0.08755167  0.25024620  1.0
  Zn  Zn4216  1  0.53789867  0.42088500  0.25024620  1.0
  Zn  Zn4217  1  0.53789867  0.75421833  0.25024620  1.0
  Zn  Zn4218  1  0.87123200  0.08755167  0.25024620  1.0
  Zn  Zn4219  1  0.87123200  0.42088500  0.25024620  1.0
  Zn  Zn4220  1  0.87123200  0.75421833  0.25024620  1.0
  Zn  Zn4221  1  0.20456533  0.25421833  0.35024620  1.0
  Zn  Zn4222  1  0.20456533  0.58755167  0.35024620  1.0
  Zn  Zn4223  1  0.20456533  0.92088500  0.35024620  1.0
  Zn  Zn4224  1  0.53789867  0.25421833  0.35024620  1.0
  Zn  Zn4225  1  0.53789867  0.58755167  0.35024620  1.0
  Zn  Zn4226  1  0.53789867  0.92088500  0.35024620  1.0
  Zn  Zn4227  1  0.87123200  0.25421833  0.35024620  1.0
  Zn  Zn4228  1  0.87123200  0.58755167  0.35024620  1.0
  Zn  Zn4229  1  0.87123200  0.92088500  0.35024620  1.0
  Zn  Zn4230  1  0.28088533  0.03118783  0.22293750  1.0
  Zn  Zn4231  1  0.28088533  0.36452117  0.22293750  1.0
  Zn  Zn4232  1  0.28088533  0.69785450  0.22293750  1.0
  Zn  Zn4233  1  0.61421867  0.03118783  0.22293750  1.0
  Zn  Zn4234  1  0.61421867  0.36452117  0.22293750  1.0
  Zn  Zn4235  1  0.61421867  0.69785450  0.22293750  1.0
  Zn  Zn4236  1  0.94755200  0.03118783  0.22293750  1.0
  Zn  Zn4237  1  0.94755200  0.36452117  0.22293750  1.0
  Zn  Zn4238  1  0.94755200  0.69785450  0.22293750  1.0
  Zn  Zn4239  1  0.28088533  0.19785450  0.32293750  1.0
  Zn  Zn4240  1  0.28088533  0.53118783  0.32293750  1.0
  Zn  Zn4241  1  0.28088533  0.86452117  0.32293750  1.0
  Zn  Zn4242  1  0.61421867  0.19785450  0.32293750  1.0
  Zn  Zn4243  1  0.61421867  0.53118783  0.32293750  1.0
  Zn  Zn4244  1  0.61421867  0.86452117  0.32293750  1.0
  Zn  Zn4245  1  0.94755200  0.19785450  0.32293750  1.0
  Zn  Zn4246  1  0.94755200  0.53118783  0.32293750  1.0
  Zn  Zn4247  1  0.94755200  0.86452117  0.32293750  1.0
  Zn  Zn4248  1  0.01061667  0.03026083  0.39381510  1.0
  Zn  Zn4249  1  0.01061667  0.36359417  0.39381510  1.0
  Zn  Zn4250  1  0.01061667  0.69692750  0.39381510  1.0
  Zn  Zn4251  1  0.34395000  0.03026083  0.39381510  1.0
  Zn  Zn4252  1  0.34395000  0.36359417  0.39381510  1.0
  Zn  Zn4253  1  0.34395000  0.69692750  0.39381510  1.0
  Zn  Zn4254  1  0.67728333  0.03026083  0.39381510  1.0
  Zn  Zn4255  1  0.67728333  0.36359417  0.39381510  1.0
  Zn  Zn4256  1  0.67728333  0.69692750  0.39381510  1.0
  Zn  Zn4257  1  0.01061667  0.19692750  0.29381510  1.0
  Zn  Zn4258  1  0.01061667  0.53026083  0.29381510  1.0
  Zn  Zn4259  1  0.01061667  0.86359417  0.29381510  1.0
  Zn  Zn4260  1  0.34395000  0.19692750  0.29381510  1.0
  Zn  Zn4261  1  0.34395000  0.53026083  0.29381510  1.0
  Zn  Zn4262  1  0.34395000  0.86359417  0.29381510  1.0
  Zn  Zn4263  1  0.67728333  0.19692750  0.29381510  1.0
  Zn  Zn4264  1  0.67728333  0.53026083  0.29381510  1.0
  Zn  Zn4265  1  0.67728333  0.86359417  0.29381510  1.0
  Zn  Zn4266  1  0.02859467  0.04540700  0.30315700  1.0
  Zn  Zn4267  1  0.02859467  0.37874033  0.30315700  1.0
  Zn  Zn4268  1  0.02859467  0.71207367  0.30315700  1.0
  Zn  Zn4269  1  0.36192800  0.04540700  0.30315700  1.0
  Zn  Zn4270  1  0.36192800  0.37874033  0.30315700  1.0
  Zn  Zn4271  1  0.36192800  0.71207367  0.30315700  1.0
  Zn  Zn4272  1  0.69526133  0.04540700  0.30315700  1.0
  Zn  Zn4273  1  0.69526133  0.37874033  0.30315700  1.0
  Zn  Zn4274  1  0.69526133  0.71207367  0.30315700  1.0
  Zn  Zn4275  1  0.02859467  0.21207367  0.20315700  1.0
  Zn  Zn4276  1  0.02859467  0.54540700  0.20315700  1.0
  Zn  Zn4277  1  0.02859467  0.87874033  0.20315700  1.0
  Zn  Zn4278  1  0.36192800  0.21207367  0.20315700  1.0
  Zn  Zn4279  1  0.36192800  0.54540700  0.20315700  1.0
  Zn  Zn4280  1  0.36192800  0.87874033  0.20315700  1.0
  Zn  Zn4281  1  0.69526133  0.21207367  0.20315700  1.0
  Zn  Zn4282  1  0.69526133  0.54540700  0.20315700  1.0
  Zn  Zn4283  1  0.69526133  0.87874033  0.20315700  1.0
  Zn  Zn4284  1  0.09342733  0.02676450  0.38893950  1.0
  Zn  Zn4285  1  0.09342733  0.36009783  0.38893950  1.0
  Zn  Zn4286  1  0.09342733  0.69343117  0.38893950  1.0
  Zn  Zn4287  1  0.42676067  0.02676450  0.38893950  1.0
  Zn  Zn4288  1  0.42676067  0.36009783  0.38893950  1.0
  Zn  Zn4289  1  0.42676067  0.69343117  0.38893950  1.0
  Zn  Zn4290  1  0.76009400  0.02676450  0.38893950  1.0
  Zn  Zn4291  1  0.76009400  0.36009783  0.38893950  1.0
  Zn  Zn4292  1  0.76009400  0.69343117  0.38893950  1.0
  Zn  Zn4293  1  0.09342733  0.19343117  0.28893950  1.0
  Zn  Zn4294  1  0.09342733  0.52676450  0.28893950  1.0
  Zn  Zn4295  1  0.09342733  0.86009783  0.28893950  1.0
  Zn  Zn4296  1  0.42676067  0.19343117  0.28893950  1.0
  Zn  Zn4297  1  0.42676067  0.52676450  0.28893950  1.0
  Zn  Zn4298  1  0.42676067  0.86009783  0.28893950  1.0
  Zn  Zn4299  1  0.76009400  0.19343117  0.28893950  1.0
  Zn  Zn4300  1  0.76009400  0.52676450  0.28893950  1.0
  Zn  Zn4301  1  0.76009400  0.86009783  0.28893950  1.0
  Zn  Zn4302  1  0.19526133  0.09728367  0.39653500  1.0
  Zn  Zn4303  1  0.19526133  0.43061700  0.39653500  1.0
  Zn  Zn4304  1  0.19526133  0.76395033  0.39653500  1.0
  Zn  Zn4305  1  0.52859467  0.09728367  0.39653500  1.0
  Zn  Zn4306  1  0.52859467  0.43061700  0.39653500  1.0
  Zn  Zn4307  1  0.52859467  0.76395033  0.39653500  1.0
  Zn  Zn4308  1  0.86192800  0.09728367  0.39653500  1.0
  Zn  Zn4309  1  0.86192800  0.43061700  0.39653500  1.0
  Zn  Zn4310  1  0.86192800  0.76395033  0.39653500  1.0
  Zn  Zn4311  1  0.19526133  0.26395033  0.29653500  1.0
  Zn  Zn4312  1  0.19526133  0.59728367  0.29653500  1.0
  Zn  Zn4313  1  0.19526133  0.93061700  0.29653500  1.0
  Zn  Zn4314  1  0.52859467  0.26395033  0.29653500  1.0
  Zn  Zn4315  1  0.52859467  0.59728367  0.29653500  1.0
  Zn  Zn4316  1  0.52859467  0.93061700  0.29653500  1.0
  Zn  Zn4317  1  0.86192800  0.26395033  0.29653500  1.0
  Zn  Zn4318  1  0.86192800  0.59728367  0.29653500  1.0
  Zn  Zn4319  1  0.86192800  0.93061700  0.29653500  1.0
  Zn  Zn4320  1  0.17447900  0.13421033  0.25990400  1.0
  Zn  Zn4321  1  0.17447900  0.46754367  0.25990400  1.0
  Zn  Zn4322  1  0.17447900  0.80087700  0.25990400  1.0
  Zn  Zn4323  1  0.50781233  0.13421033  0.25990400  1.0
  Zn  Zn4324  1  0.50781233  0.46754367  0.25990400  1.0
  Zn  Zn4325  1  0.50781233  0.80087700  0.25990400  1.0
  Zn  Zn4326  1  0.84114567  0.13421033  0.25990400  1.0
  Zn  Zn4327  1  0.84114567  0.46754367  0.25990400  1.0
  Zn  Zn4328  1  0.84114567  0.80087700  0.25990400  1.0
  Zn  Zn4329  1  0.17447900  0.30087700  0.35990400  1.0
  Zn  Zn4330  1  0.17447900  0.63421033  0.35990400  1.0
  Zn  Zn4331  1  0.17447900  0.96754367  0.35990400  1.0
  Zn  Zn4332  1  0.50781233  0.30087700  0.35990400  1.0
  Zn  Zn4333  1  0.50781233  0.63421033  0.35990400  1.0
  Zn  Zn4334  1  0.50781233  0.96754367  0.35990400  1.0
  Zn  Zn4335  1  0.84114567  0.30087700  0.35990400  1.0
  Zn  Zn4336  1  0.84114567  0.63421033  0.35990400  1.0
  Zn  Zn4337  1  0.84114567  0.96754367  0.35990400  1.0
  Zn  Zn4338  1  0.00781233  0.11578967  0.37540240  1.0
  Zn  Zn4339  1  0.00781233  0.44912300  0.37540240  1.0
  Zn  Zn4340  1  0.00781233  0.78245633  0.37540240  1.0
  Zn  Zn4341  1  0.34114567  0.11578967  0.37540240  1.0
  Zn  Zn4342  1  0.34114567  0.44912300  0.37540240  1.0
  Zn  Zn4343  1  0.34114567  0.78245633  0.37540240  1.0
  Zn  Zn4344  1  0.67447900  0.11578967  0.37540240  1.0
  Zn  Zn4345  1  0.67447900  0.44912300  0.37540240  1.0
  Zn  Zn4346  1  0.67447900  0.78245633  0.37540240  1.0
  Zn  Zn4347  1  0.00781233  0.28245633  0.27540240  1.0
  Zn  Zn4348  1  0.00781233  0.61578967  0.27540240  1.0
  Zn  Zn4349  1  0.00781233  0.94912300  0.27540240  1.0
  Zn  Zn4350  1  0.34114567  0.28245633  0.27540240  1.0
  Zn  Zn4351  1  0.34114567  0.61578967  0.27540240  1.0
  Zn  Zn4352  1  0.34114567  0.94912300  0.27540240  1.0
  Zn  Zn4353  1  0.67447900  0.28245633  0.27540240  1.0
  Zn  Zn4354  1  0.67447900  0.61578967  0.27540240  1.0
  Zn  Zn4355  1  0.67447900  0.94912300  0.27540240  1.0
  Zn  Zn4356  1  0.20051767  0.04587800  0.30411200  1.0
  Zn  Zn4357  1  0.20051767  0.37921133  0.30411200  1.0
  Zn  Zn4358  1  0.20051767  0.71254467  0.30411200  1.0
  Zn  Zn4359  1  0.53385100  0.04587800  0.30411200  1.0
  Zn  Zn4360  1  0.53385100  0.37921133  0.30411200  1.0
  Zn  Zn4361  1  0.53385100  0.71254467  0.30411200  1.0
  Zn  Zn4362  1  0.86718433  0.04587800  0.30411200  1.0
  Zn  Zn4363  1  0.86718433  0.37921133  0.30411200  1.0
  Zn  Zn4364  1  0.86718433  0.71254467  0.30411200  1.0
  Zn  Zn4365  1  0.20051767  0.21254467  0.20411200  1.0
  Zn  Zn4366  1  0.20051767  0.54587800  0.20411200  1.0
  Zn  Zn4367  1  0.20051767  0.87921133  0.20411200  1.0
  Zn  Zn4368  1  0.53385100  0.21254467  0.20411200  1.0
  Zn  Zn4369  1  0.53385100  0.54587800  0.20411200  1.0
  Zn  Zn4370  1  0.53385100  0.87921133  0.20411200  1.0
  Zn  Zn4371  1  0.86718433  0.21254467  0.20411200  1.0
  Zn  Zn4372  1  0.86718433  0.54587800  0.20411200  1.0
  Zn  Zn4373  1  0.86718433  0.87921133  0.20411200  1.0
  Zn  Zn4374  1  0.21800367  0.03139783  0.39391230  1.0
  Zn  Zn4375  1  0.21800367  0.36473117  0.39391230  1.0
  Zn  Zn4376  1  0.21800367  0.69806450  0.39391230  1.0
  Zn  Zn4377  1  0.55133700  0.03139783  0.39391230  1.0
  Zn  Zn4378  1  0.55133700  0.36473117  0.39391230  1.0
  Zn  Zn4379  1  0.55133700  0.69806450  0.39391230  1.0
  Zn  Zn4380  1  0.88467033  0.03139783  0.39391230  1.0
  Zn  Zn4381  1  0.88467033  0.36473117  0.39391230  1.0
  Zn  Zn4382  1  0.88467033  0.69806450  0.39391230  1.0
  Zn  Zn4383  1  0.21800367  0.19806450  0.29391230  1.0
  Zn  Zn4384  1  0.21800367  0.53139783  0.29391230  1.0
  Zn  Zn4385  1  0.21800367  0.86473117  0.29391230  1.0
  Zn  Zn4386  1  0.55133700  0.19806450  0.29391230  1.0
  Zn  Zn4387  1  0.55133700  0.53139783  0.29391230  1.0
  Zn  Zn4388  1  0.55133700  0.86473117  0.29391230  1.0
  Zn  Zn4389  1  0.88467033  0.19806450  0.29391230  1.0
  Zn  Zn4390  1  0.88467033  0.53139783  0.29391230  1.0
  Zn  Zn4391  1  0.88467033  0.86473117  0.29391230  1.0
  Ni  Ni4392  1  0.07285900  0.04263617  0.36939830  1.0
  Ni  Ni4393  1  0.07285900  0.37596950  0.36939830  1.0
  Ni  Ni4394  1  0.07285900  0.70930283  0.36939830  1.0
  Ni  Ni4395  1  0.40619233  0.04263617  0.36939830  1.0
  Ni  Ni4396  1  0.40619233  0.37596950  0.36939830  1.0
  Ni  Ni4397  1  0.40619233  0.70930283  0.36939830  1.0
  Ni  Ni4398  1  0.73952567  0.04263617  0.36939830  1.0
  Ni  Ni4399  1  0.73952567  0.37596950  0.36939830  1.0
  Ni  Ni4400  1  0.73952567  0.70930283  0.36939830  1.0
  Ni  Ni4401  1  0.07285900  0.20930283  0.26939830  1.0
  Ni  Ni4402  1  0.07285900  0.54263617  0.26939830  1.0
  Ni  Ni4403  1  0.07285900  0.87596950  0.26939830  1.0
  Ni  Ni4404  1  0.40619233  0.20930283  0.26939830  1.0
  Ni  Ni4405  1  0.40619233  0.54263617  0.26939830  1.0
  Ni  Ni4406  1  0.40619233  0.87596950  0.26939830  1.0
  Ni  Ni4407  1  0.73952567  0.20930283  0.26939830  1.0
  Ni  Ni4408  1  0.73952567  0.54263617  0.26939830  1.0
  Ni  Ni4409  1  0.73952567  0.87596950  0.26939830  1.0
  Ni  Ni4410  1  0.28126967  0.04442133  0.37261160  1.0
  Ni  Ni4411  1  0.28126967  0.37775467  0.37261160  1.0
  Ni  Ni4412  1  0.28126967  0.71108800  0.37261160  1.0
  Ni  Ni4413  1  0.61460300  0.04442133  0.37261160  1.0
  Ni  Ni4414  1  0.61460300  0.37775467  0.37261160  1.0
  Ni  Ni4415  1  0.61460300  0.71108800  0.37261160  1.0
  Ni  Ni4416  1  0.94793633  0.04442133  0.37261160  1.0
  Ni  Ni4417  1  0.94793633  0.37775467  0.37261160  1.0
  Ni  Ni4418  1  0.94793633  0.71108800  0.37261160  1.0
  Ni  Ni4419  1  0.28126967  0.21108800  0.27261160  1.0
  Ni  Ni4420  1  0.28126967  0.54442133  0.27261160  1.0
  Ni  Ni4421  1  0.28126967  0.87775467  0.27261160  1.0
  Ni  Ni4422  1  0.61460300  0.21108800  0.27261160  1.0
  Ni  Ni4423  1  0.61460300  0.54442133  0.27261160  1.0
  Ni  Ni4424  1  0.61460300  0.87775467  0.27261160  1.0
  Ni  Ni4425  1  0.94793633  0.21108800  0.27261160  1.0
  Ni  Ni4426  1  0.94793633  0.54442133  0.27261160  1.0
  Ni  Ni4427  1  0.94793633  0.87775467  0.27261160  1.0
  Ni  Ni4428  1  0.01158933  0.06808867  0.28530640  1.0
  Ni  Ni4429  1  0.01158933  0.40142200  0.28530640  1.0
  Ni  Ni4430  1  0.01158933  0.73475533  0.28530640  1.0
  Ni  Ni4431  1  0.34492267  0.06808867  0.28530640  1.0
  Ni  Ni4432  1  0.34492267  0.40142200  0.28530640  1.0
  Ni  Ni4433  1  0.34492267  0.73475533  0.28530640  1.0
  Ni  Ni4434  1  0.67825600  0.06808867  0.28530640  1.0
  Ni  Ni4435  1  0.67825600  0.40142200  0.28530640  1.0
  Ni  Ni4436  1  0.67825600  0.73475533  0.28530640  1.0
  Ni  Ni4437  1  0.01158933  0.23475533  0.38530640  1.0
  Ni  Ni4438  1  0.01158933  0.56808867  0.38530640  1.0
  Ni  Ni4439  1  0.01158933  0.90142200  0.38530640  1.0
  Ni  Ni4440  1  0.34492267  0.23475533  0.38530640  1.0
  Ni  Ni4441  1  0.34492267  0.56808867  0.38530640  1.0
  Ni  Ni4442  1  0.34492267  0.90142200  0.38530640  1.0
  Ni  Ni4443  1  0.67825600  0.23475533  0.38530640  1.0
  Ni  Ni4444  1  0.67825600  0.56808867  0.38530640  1.0
  Ni  Ni4445  1  0.67825600  0.90142200  0.38530640  1.0
  Ni  Ni4446  1  0.32321967  0.03861100  0.36215300  1.0
  Ni  Ni4447  1  0.32321967  0.37194433  0.36215300  1.0
  Ni  Ni4448  1  0.32321967  0.70527767  0.36215300  1.0
  Ni  Ni4449  1  0.65655300  0.03861100  0.36215300  1.0
  Ni  Ni4450  1  0.65655300  0.37194433  0.36215300  1.0
  Ni  Ni4451  1  0.65655300  0.70527767  0.36215300  1.0
  Ni  Ni4452  1  0.98988633  0.03861100  0.36215300  1.0
  Ni  Ni4453  1  0.98988633  0.37194433  0.36215300  1.0
  Ni  Ni4454  1  0.98988633  0.70527767  0.36215300  1.0
  Ni  Ni4455  1  0.32321967  0.20527767  0.26215300  1.0
  Ni  Ni4456  1  0.32321967  0.53861100  0.26215300  1.0
  Ni  Ni4457  1  0.32321967  0.87194433  0.26215300  1.0
  Ni  Ni4458  1  0.65655300  0.20527767  0.26215300  1.0
  Ni  Ni4459  1  0.65655300  0.53861100  0.26215300  1.0
  Ni  Ni4460  1  0.65655300  0.87194433  0.26215300  1.0
  Ni  Ni4461  1  0.98988633  0.20527767  0.26215300  1.0
  Ni  Ni4462  1  0.98988633  0.53861100  0.26215300  1.0
  Ni  Ni4463  1  0.98988633  0.87194433  0.26215300  1.0
  Ni  Ni4464  1  0.01158933  0.12650000  0.25025960  1.0
  Ni  Ni4465  1  0.01158933  0.45983333  0.25025960  1.0
  Ni  Ni4466  1  0.01158933  0.79316667  0.25025960  1.0
  Ni  Ni4467  1  0.34492267  0.12650000  0.25025960  1.0
  Ni  Ni4468  1  0.34492267  0.45983333  0.25025960  1.0
  Ni  Ni4469  1  0.34492267  0.79316667  0.25025960  1.0
  Ni  Ni4470  1  0.67825600  0.12650000  0.25025960  1.0
  Ni  Ni4471  1  0.67825600  0.45983333  0.25025960  1.0
  Ni  Ni4472  1  0.67825600  0.79316667  0.25025960  1.0
  Ni  Ni4473  1  0.01158933  0.29316667  0.35025960  1.0
  Ni  Ni4474  1  0.01158933  0.62650000  0.35025960  1.0
  Ni  Ni4475  1  0.01158933  0.95983333  0.35025960  1.0
  Ni  Ni4476  1  0.34492267  0.29316667  0.35025960  1.0
  Ni  Ni4477  1  0.34492267  0.62650000  0.35025960  1.0
  Ni  Ni4478  1  0.34492267  0.95983333  0.35025960  1.0
  Ni  Ni4479  1  0.67825600  0.29316667  0.35025960  1.0
  Ni  Ni4480  1  0.67825600  0.62650000  0.35025960  1.0
  Ni  Ni4481  1  0.67825600  0.95983333  0.35025960  1.0
  Ni  Ni4482  1  0.17825600  0.12350000  0.38504680  1.0
  Ni  Ni4483  1  0.17825600  0.45683333  0.38504680  1.0
  Ni  Ni4484  1  0.17825600  0.79016667  0.38504680  1.0
  Ni  Ni4485  1  0.51158933  0.12350000  0.38504680  1.0
  Ni  Ni4486  1  0.51158933  0.45683333  0.38504680  1.0
  Ni  Ni4487  1  0.51158933  0.79016667  0.38504680  1.0
  Ni  Ni4488  1  0.84492267  0.12350000  0.38504680  1.0
  Ni  Ni4489  1  0.84492267  0.45683333  0.38504680  1.0
  Ni  Ni4490  1  0.84492267  0.79016667  0.38504680  1.0
  Ni  Ni4491  1  0.17825600  0.29016667  0.28504680  1.0
  Ni  Ni4492  1  0.17825600  0.62350000  0.28504680  1.0
  Ni  Ni4493  1  0.17825600  0.95683333  0.28504680  1.0
  Ni  Ni4494  1  0.51158933  0.29016667  0.28504680  1.0
  Ni  Ni4495  1  0.51158933  0.62350000  0.28504680  1.0
  Ni  Ni4496  1  0.51158933  0.95683333  0.28504680  1.0
  Ni  Ni4497  1  0.84492267  0.29016667  0.28504680  1.0
  Ni  Ni4498  1  0.84492267  0.62350000  0.28504680  1.0
  Ni  Ni4499  1  0.84492267  0.95683333  0.28504680  1.0
  Ni  Ni4500  1  0.30253867  0.12434717  0.31647810  1.0
  Ni  Ni4501  1  0.30253867  0.45768050  0.31647810  1.0
  Ni  Ni4502  1  0.30253867  0.79101383  0.31647810  1.0
  Ni  Ni4503  1  0.63587200  0.12434717  0.31647810  1.0
  Ni  Ni4504  1  0.63587200  0.45768050  0.31647810  1.0
  Ni  Ni4505  1  0.63587200  0.79101383  0.31647810  1.0
  Ni  Ni4506  1  0.96920533  0.12434717  0.31647810  1.0
  Ni  Ni4507  1  0.96920533  0.45768050  0.31647810  1.0
  Ni  Ni4508  1  0.96920533  0.79101383  0.31647810  1.0
  Ni  Ni4509  1  0.30253867  0.29101383  0.21647810  1.0
  Ni  Ni4510  1  0.30253867  0.62434717  0.21647810  1.0
  Ni  Ni4511  1  0.30253867  0.95768050  0.21647810  1.0
  Ni  Ni4512  1  0.63587200  0.29101383  0.21647810  1.0
  Ni  Ni4513  1  0.63587200  0.62434717  0.21647810  1.0
  Ni  Ni4514  1  0.63587200  0.95768050  0.21647810  1.0
  Ni  Ni4515  1  0.96920533  0.29101383  0.21647810  1.0
  Ni  Ni4516  1  0.96920533  0.62434717  0.21647810  1.0
  Ni  Ni4517  1  0.96920533  0.95768050  0.21647810  1.0
  Ni  Ni4518  1  0.05206367  0.12224533  0.31269480  1.0
  Ni  Ni4519  1  0.05206367  0.45557867  0.31269480  1.0
  Ni  Ni4520  1  0.05206367  0.78891200  0.31269480  1.0
  Ni  Ni4521  1  0.38539700  0.12224533  0.31269480  1.0
  Ni  Ni4522  1  0.38539700  0.45557867  0.31269480  1.0
  Ni  Ni4523  1  0.38539700  0.78891200  0.31269480  1.0
  Ni  Ni4524  1  0.71873033  0.12224533  0.31269480  1.0
  Ni  Ni4525  1  0.71873033  0.45557867  0.31269480  1.0
  Ni  Ni4526  1  0.71873033  0.78891200  0.31269480  1.0
  Ni  Ni4527  1  0.05206367  0.28891200  0.21269480  1.0
  Ni  Ni4528  1  0.05206367  0.62224533  0.21269480  1.0
  Ni  Ni4529  1  0.05206367  0.95557867  0.21269480  1.0
  Ni  Ni4530  1  0.38539700  0.28891200  0.21269480  1.0
  Ni  Ni4531  1  0.38539700  0.62224533  0.21269480  1.0
  Ni  Ni4532  1  0.38539700  0.95557867  0.21269480  1.0
  Ni  Ni4533  1  0.71873033  0.28891200  0.21269480  1.0
  Ni  Ni4534  1  0.71873033  0.62224533  0.21269480  1.0
  Ni  Ni4535  1  0.71873033  0.95557867  0.21269480  1.0
  Ni  Ni4536  1  0.17678033  0.12194433  0.31215300  1.0
  Ni  Ni4537  1  0.17678033  0.45527767  0.31215300  1.0
  Ni  Ni4538  1  0.17678033  0.78861100  0.31215300  1.0
  Ni  Ni4539  1  0.51011367  0.12194433  0.31215300  1.0
  Ni  Ni4540  1  0.51011367  0.45527767  0.31215300  1.0
  Ni  Ni4541  1  0.51011367  0.78861100  0.31215300  1.0
  Ni  Ni4542  1  0.84344700  0.12194433  0.31215300  1.0
  Ni  Ni4543  1  0.84344700  0.45527767  0.31215300  1.0
  Ni  Ni4544  1  0.84344700  0.78861100  0.31215300  1.0
  Ni  Ni4545  1  0.17678033  0.28861100  0.21215300  1.0
  Ni  Ni4546  1  0.17678033  0.62194433  0.21215300  1.0
  Ni  Ni4547  1  0.17678033  0.95527767  0.21215300  1.0
  Ni  Ni4548  1  0.51011367  0.28861100  0.21215300  1.0
  Ni  Ni4549  1  0.51011367  0.62194433  0.21215300  1.0
  Ni  Ni4550  1  0.51011367  0.95527767  0.21215300  1.0
  Ni  Ni4551  1  0.84344700  0.28861100  0.21215300  1.0
  Ni  Ni4552  1  0.84344700  0.62194433  0.21215300  1.0
  Ni  Ni4553  1  0.84344700  0.95527767  0.21215300  1.0
  Ni  Ni4554  1  0.26047433  0.12403050  0.31590810  1.0
  Ni  Ni4555  1  0.26047433  0.45736383  0.31590810  1.0
  Ni  Ni4556  1  0.26047433  0.79069717  0.31590810  1.0
  Ni  Ni4557  1  0.59380767  0.12403050  0.31590810  1.0
  Ni  Ni4558  1  0.59380767  0.45736383  0.31590810  1.0
  Ni  Ni4559  1  0.59380767  0.79069717  0.31590810  1.0
  Ni  Ni4560  1  0.92714100  0.12403050  0.31590810  1.0
  Ni  Ni4561  1  0.92714100  0.45736383  0.31590810  1.0
  Ni  Ni4562  1  0.92714100  0.79069717  0.31590810  1.0
  Ni  Ni4563  1  0.26047433  0.29069717  0.21590810  1.0
  Ni  Ni4564  1  0.26047433  0.62403050  0.21590810  1.0
  Ni  Ni4565  1  0.26047433  0.95736383  0.21590810  1.0
  Ni  Ni4566  1  0.59380767  0.29069717  0.21590810  1.0
  Ni  Ni4567  1  0.59380767  0.62403050  0.21590810  1.0
  Ni  Ni4568  1  0.59380767  0.95736383  0.21590810  1.0
  Ni  Ni4569  1  0.92714100  0.29069717  0.21590810  1.0
  Ni  Ni4570  1  0.92714100  0.62403050  0.21590810  1.0
  Ni  Ni4571  1  0.92714100  0.95736383  0.21590810  1.0
  Ni  Ni4572  1  0.01011367  0.12805567  0.32315340  1.0
  Ni  Ni4573  1  0.01011367  0.46138900  0.32315340  1.0
  Ni  Ni4574  1  0.01011367  0.79472233  0.32315340  1.0
  Ni  Ni4575  1  0.34344700  0.12805567  0.32315340  1.0
  Ni  Ni4576  1  0.34344700  0.46138900  0.32315340  1.0
  Ni  Ni4577  1  0.34344700  0.79472233  0.32315340  1.0
  Ni  Ni4578  1  0.67678033  0.12805567  0.32315340  1.0
  Ni  Ni4579  1  0.67678033  0.46138900  0.32315340  1.0
  Ni  Ni4580  1  0.67678033  0.79472233  0.32315340  1.0
  Ni  Ni4581  1  0.01011367  0.29472233  0.22315340  1.0
  Ni  Ni4582  1  0.01011367  0.62805567  0.22315340  1.0
  Ni  Ni4583  1  0.01011367  0.96138900  0.22315340  1.0
  Ni  Ni4584  1  0.34344700  0.29472233  0.22315340  1.0
  Ni  Ni4585  1  0.34344700  0.62805567  0.22315340  1.0
  Ni  Ni4586  1  0.34344700  0.96138900  0.22315340  1.0
  Ni  Ni4587  1  0.67678033  0.29472233  0.22315340  1.0
  Ni  Ni4588  1  0.67678033  0.62805567  0.22315340  1.0
  Ni  Ni4589  1  0.67678033  0.96138900  0.22315340  1.0
  Ni  Ni4590  1  0.28177233  0.15084000  0.23488620  1.0
  Ni  Ni4591  1  0.28177233  0.48417333  0.23488620  1.0
  Ni  Ni4592  1  0.28177233  0.81750667  0.23488620  1.0
  Ni  Ni4593  1  0.61510567  0.15084000  0.23488620  1.0
  Ni  Ni4594  1  0.61510567  0.48417333  0.23488620  1.0
  Ni  Ni4595  1  0.61510567  0.81750667  0.23488620  1.0
  Ni  Ni4596  1  0.94843900  0.15084000  0.23488620  1.0
  Ni  Ni4597  1  0.94843900  0.48417333  0.23488620  1.0
  Ni  Ni4598  1  0.94843900  0.81750667  0.23488620  1.0
  Ni  Ni4599  1  0.28177233  0.31750667  0.33488620  1.0
  Ni  Ni4600  1  0.28177233  0.65084000  0.33488620  1.0
  Ni  Ni4601  1  0.28177233  0.98417333  0.33488620  1.0
  Ni  Ni4602  1  0.61510567  0.31750667  0.33488620  1.0
  Ni  Ni4603  1  0.61510567  0.65084000  0.33488620  1.0
  Ni  Ni4604  1  0.61510567  0.98417333  0.33488620  1.0
  Ni  Ni4605  1  0.94843900  0.31750667  0.33488620  1.0
  Ni  Ni4606  1  0.94843900  0.65084000  0.33488620  1.0
  Ni  Ni4607  1  0.94843900  0.98417333  0.33488620  1.0
  Ni  Ni4608  1  0.11460300  0.03891200  0.36269480  1.0
  Ni  Ni4609  1  0.11460300  0.37224533  0.36269480  1.0
  Ni  Ni4610  1  0.11460300  0.70557867  0.36269480  1.0
  Ni  Ni4611  1  0.44793633  0.03891200  0.36269480  1.0
  Ni  Ni4612  1  0.44793633  0.37224533  0.36269480  1.0
  Ni  Ni4613  1  0.44793633  0.70557867  0.36269480  1.0
  Ni  Ni4614  1  0.78126967  0.03891200  0.36269480  1.0
  Ni  Ni4615  1  0.78126967  0.37224533  0.36269480  1.0
  Ni  Ni4616  1  0.78126967  0.70557867  0.36269480  1.0
  Ni  Ni4617  1  0.11460300  0.20557867  0.26269480  1.0
  Ni  Ni4618  1  0.11460300  0.53891200  0.26269480  1.0
  Ni  Ni4619  1  0.11460300  0.87224533  0.26269480  1.0
  Ni  Ni4620  1  0.44793633  0.20557867  0.26269480  1.0
  Ni  Ni4621  1  0.44793633  0.53891200  0.26269480  1.0
  Ni  Ni4622  1  0.44793633  0.87224533  0.26269480  1.0
  Ni  Ni4623  1  0.78126967  0.20557867  0.26269480  1.0
  Ni  Ni4624  1  0.78126967  0.53891200  0.26269480  1.0
  Ni  Ni4625  1  0.78126967  0.87224533  0.26269480  1.0
  Ni  Ni4626  1  0.05156100  0.12355917  0.38578070  1.0
  Ni  Ni4627  1  0.05156100  0.45689250  0.38578070  1.0
  Ni  Ni4628  1  0.05156100  0.79022583  0.38578070  1.0
  Ni  Ni4629  1  0.38489433  0.12355917  0.38578070  1.0
  Ni  Ni4630  1  0.38489433  0.45689250  0.38578070  1.0
  Ni  Ni4631  1  0.38489433  0.79022583  0.38578070  1.0
  Ni  Ni4632  1  0.71822767  0.12355917  0.38578070  1.0
  Ni  Ni4633  1  0.71822767  0.45689250  0.38578070  1.0
  Ni  Ni4634  1  0.71822767  0.79022583  0.38578070  1.0
  Ni  Ni4635  1  0.05156100  0.29022583  0.28578070  1.0
  Ni  Ni4636  1  0.05156100  0.62355917  0.28578070  1.0
  Ni  Ni4637  1  0.05156100  0.95689250  0.28578070  1.0
  Ni  Ni4638  1  0.38489433  0.29022583  0.28578070  1.0
  Ni  Ni4639  1  0.38489433  0.62355917  0.28578070  1.0
  Ni  Ni4640  1  0.38489433  0.95689250  0.28578070  1.0
  Ni  Ni4641  1  0.71822767  0.29022583  0.28578070  1.0
  Ni  Ni4642  1  0.71822767  0.62355917  0.28578070  1.0
  Ni  Ni4643  1  0.71822767  0.95689250  0.28578070  1.0
  Ni  Ni4644  1  0.09380767  0.12596950  0.31939830  1.0
  Ni  Ni4645  1  0.09380767  0.45930283  0.31939830  1.0
  Ni  Ni4646  1  0.09380767  0.79263617  0.31939830  1.0
  Ni  Ni4647  1  0.42714100  0.12596950  0.31939830  1.0
  Ni  Ni4648  1  0.42714100  0.45930283  0.31939830  1.0
  Ni  Ni4649  1  0.42714100  0.79263617  0.31939830  1.0
  Ni  Ni4650  1  0.76047433  0.12596950  0.31939830  1.0
  Ni  Ni4651  1  0.76047433  0.45930283  0.31939830  1.0
  Ni  Ni4652  1  0.76047433  0.79263617  0.31939830  1.0
  Ni  Ni4653  1  0.09380767  0.29263617  0.21939830  1.0
  Ni  Ni4654  1  0.09380767  0.62596950  0.21939830  1.0
  Ni  Ni4655  1  0.09380767  0.95930283  0.21939830  1.0
  Ni  Ni4656  1  0.42714100  0.29263617  0.21939830  1.0
  Ni  Ni4657  1  0.42714100  0.62596950  0.21939830  1.0
  Ni  Ni4658  1  0.42714100  0.95930283  0.21939830  1.0
  Ni  Ni4659  1  0.76047433  0.29263617  0.21939830  1.0
  Ni  Ni4660  1  0.76047433  0.62596950  0.21939830  1.0
  Ni  Ni4661  1  0.76047433  0.95930283  0.21939830  1.0
  Ni  Ni4662  1  0.28177233  0.04310750  0.29952570  1.0
  Ni  Ni4663  1  0.28177233  0.37644083  0.29952570  1.0
  Ni  Ni4664  1  0.28177233  0.70977417  0.29952570  1.0
  Ni  Ni4665  1  0.61510567  0.04310750  0.29952570  1.0
  Ni  Ni4666  1  0.61510567  0.37644083  0.29952570  1.0
  Ni  Ni4667  1  0.61510567  0.70977417  0.29952570  1.0
  Ni  Ni4668  1  0.94843900  0.04310750  0.29952570  1.0
  Ni  Ni4669  1  0.94843900  0.37644083  0.29952570  1.0
  Ni  Ni4670  1  0.94843900  0.70977417  0.29952570  1.0
  Ni  Ni4671  1  0.28177233  0.20977417  0.39952570  1.0
  Ni  Ni4672  1  0.28177233  0.54310750  0.39952570  1.0
  Ni  Ni4673  1  0.28177233  0.87644083  0.39952570  1.0
  Ni  Ni4674  1  0.61510567  0.20977417  0.39952570  1.0
  Ni  Ni4675  1  0.61510567  0.54310750  0.39952570  1.0
  Ni  Ni4676  1  0.61510567  0.87644083  0.39952570  1.0
  Ni  Ni4677  1  0.94843900  0.20977417  0.39952570  1.0
  Ni  Ni4678  1  0.94843900  0.54310750  0.39952570  1.0
  Ni  Ni4679  1  0.94843900  0.87644083  0.39952570  1.0
  Ni  Ni4680  1  0.11510567  0.09916000  0.20042020  1.0
  Ni  Ni4681  1  0.11510567  0.43249333  0.20042020  1.0
  Ni  Ni4682  1  0.11510567  0.76582667  0.20042020  1.0
  Ni  Ni4683  1  0.44843900  0.09916000  0.20042020  1.0
  Ni  Ni4684  1  0.44843900  0.43249333  0.20042020  1.0
  Ni  Ni4685  1  0.44843900  0.76582667  0.20042020  1.0
  Ni  Ni4686  1  0.78177233  0.09916000  0.20042020  1.0
  Ni  Ni4687  1  0.78177233  0.43249333  0.20042020  1.0
  Ni  Ni4688  1  0.78177233  0.76582667  0.20042020  1.0
  Ni  Ni4689  1  0.11510567  0.26582667  0.30042020  1.0
  Ni  Ni4690  1  0.11510567  0.59916000  0.30042020  1.0
  Ni  Ni4691  1  0.11510567  0.93249333  0.30042020  1.0
  Ni  Ni4692  1  0.44843900  0.26582667  0.30042020  1.0
  Ni  Ni4693  1  0.44843900  0.59916000  0.30042020  1.0
  Ni  Ni4694  1  0.44843900  0.93249333  0.30042020  1.0
  Ni  Ni4695  1  0.78177233  0.26582667  0.30042020  1.0
  Ni  Ni4696  1  0.78177233  0.59916000  0.30042020  1.0
  Ni  Ni4697  1  0.78177233  0.93249333  0.30042020  1.0
  Ni  Ni4698  1  0.15655300  0.04472233  0.37315340  1.0
  Ni  Ni4699  1  0.15655300  0.37805567  0.37315340  1.0
  Ni  Ni4700  1  0.15655300  0.71138900  0.37315340  1.0
  Ni  Ni4701  1  0.48988633  0.04472233  0.37315340  1.0
  Ni  Ni4702  1  0.48988633  0.37805567  0.37315340  1.0
  Ni  Ni4703  1  0.48988633  0.71138900  0.37315340  1.0
  Ni  Ni4704  1  0.82321967  0.04472233  0.37315340  1.0
  Ni  Ni4705  1  0.82321967  0.37805567  0.37315340  1.0
  Ni  Ni4706  1  0.82321967  0.71138900  0.37315340  1.0
  Ni  Ni4707  1  0.15655300  0.21138900  0.27315340  1.0
  Ni  Ni4708  1  0.15655300  0.54472233  0.27315340  1.0
  Ni  Ni4709  1  0.15655300  0.87805567  0.27315340  1.0
  Ni  Ni4710  1  0.48988633  0.21138900  0.27315340  1.0
  Ni  Ni4711  1  0.48988633  0.54472233  0.27315340  1.0
  Ni  Ni4712  1  0.48988633  0.87805567  0.27315340  1.0
  Ni  Ni4713  1  0.82321967  0.21138900  0.27315340  1.0
  Ni  Ni4714  1  0.82321967  0.54472233  0.27315340  1.0
  Ni  Ni4715  1  0.82321967  0.87805567  0.27315340  1.0
  Ni  Ni4716  1  0.17825600  0.01524467  0.25000000  1.0
  Ni  Ni4717  1  0.17825600  0.34857800  0.25000000  1.0
  Ni  Ni4718  1  0.17825600  0.68191133  0.25000000  1.0
  Ni  Ni4719  1  0.51158933  0.01524467  0.25000000  1.0
  Ni  Ni4720  1  0.51158933  0.34857800  0.25000000  1.0
  Ni  Ni4721  1  0.51158933  0.68191133  0.25000000  1.0
  Ni  Ni4722  1  0.84492267  0.01524467  0.25000000  1.0
  Ni  Ni4723  1  0.84492267  0.34857800  0.25000000  1.0
  Ni  Ni4724  1  0.84492267  0.68191133  0.25000000  1.0
  Ni  Ni4725  1  0.17825600  0.18191133  0.35000000  1.0
  Ni  Ni4726  1  0.17825600  0.51524467  0.35000000  1.0
  Ni  Ni4727  1  0.17825600  0.84857800  0.35000000  1.0
  Ni  Ni4728  1  0.51158933  0.18191133  0.35000000  1.0
  Ni  Ni4729  1  0.51158933  0.51524467  0.35000000  1.0
  Ni  Ni4730  1  0.51158933  0.84857800  0.35000000  1.0
  Ni  Ni4731  1  0.84492267  0.18191133  0.35000000  1.0
  Ni  Ni4732  1  0.84492267  0.51524467  0.35000000  1.0
  Ni  Ni4733  1  0.84492267  0.84857800  0.35000000  1.0
  Ni  Ni4734  1  0.11510567  0.04022583  0.23578070  1.0
  Ni  Ni4735  1  0.11510567  0.37355917  0.23578070  1.0
  Ni  Ni4736  1  0.11510567  0.70689250  0.23578070  1.0
  Ni  Ni4737  1  0.44843900  0.04022583  0.23578070  1.0
  Ni  Ni4738  1  0.44843900  0.37355917  0.23578070  1.0
  Ni  Ni4739  1  0.44843900  0.70689250  0.23578070  1.0
  Ni  Ni4740  1  0.78177233  0.04022583  0.23578070  1.0
  Ni  Ni4741  1  0.78177233  0.37355917  0.23578070  1.0
  Ni  Ni4742  1  0.78177233  0.70689250  0.23578070  1.0
  Ni  Ni4743  1  0.11510567  0.20689250  0.33578070  1.0
  Ni  Ni4744  1  0.11510567  0.54022583  0.33578070  1.0
  Ni  Ni4745  1  0.11510567  0.87355917  0.33578070  1.0
  Ni  Ni4746  1  0.44843900  0.20689250  0.33578070  1.0
  Ni  Ni4747  1  0.44843900  0.54022583  0.33578070  1.0
  Ni  Ni4748  1  0.44843900  0.87355917  0.33578070  1.0
  Ni  Ni4749  1  0.78177233  0.20689250  0.33578070  1.0
  Ni  Ni4750  1  0.78177233  0.54022583  0.33578070  1.0
  Ni  Ni4751  1  0.78177233  0.87355917  0.33578070  1.0
  Ni  Ni4752  1  0.03079467  0.04231950  0.36882830  1.0
  Ni  Ni4753  1  0.03079467  0.37565283  0.36882830  1.0
  Ni  Ni4754  1  0.03079467  0.70898617  0.36882830  1.0
  Ni  Ni4755  1  0.36412800  0.04231950  0.36882830  1.0
  Ni  Ni4756  1  0.36412800  0.37565283  0.36882830  1.0
  Ni  Ni4757  1  0.36412800  0.70898617  0.36882830  1.0
  Ni  Ni4758  1  0.69746133  0.04231950  0.36882830  1.0
  Ni  Ni4759  1  0.69746133  0.37565283  0.36882830  1.0
  Ni  Ni4760  1  0.69746133  0.70898617  0.36882830  1.0
  Ni  Ni4761  1  0.03079467  0.20898617  0.26882830  1.0
  Ni  Ni4762  1  0.03079467  0.54231950  0.26882830  1.0
  Ni  Ni4763  1  0.03079467  0.87565283  0.26882830  1.0
  Ni  Ni4764  1  0.36412800  0.20898617  0.26882830  1.0
  Ni  Ni4765  1  0.36412800  0.54231950  0.26882830  1.0
  Ni  Ni4766  1  0.36412800  0.87565283  0.26882830  1.0
  Ni  Ni4767  1  0.69746133  0.20898617  0.26882830  1.0
  Ni  Ni4768  1  0.69746133  0.54231950  0.26882830  1.0
  Ni  Ni4769  1  0.69746133  0.87565283  0.26882830  1.0
  Ni  Ni4770  1  0.15507733  0.04316667  0.30025960  1.0
  Ni  Ni4771  1  0.15507733  0.37650000  0.30025960  1.0
  Ni  Ni4772  1  0.15507733  0.70983333  0.30025960  1.0
  Ni  Ni4773  1  0.48841067  0.04316667  0.30025960  1.0
  Ni  Ni4774  1  0.48841067  0.37650000  0.30025960  1.0
  Ni  Ni4775  1  0.48841067  0.70983333  0.30025960  1.0
  Ni  Ni4776  1  0.82174400  0.04316667  0.30025960  1.0
  Ni  Ni4777  1  0.82174400  0.37650000  0.30025960  1.0
  Ni  Ni4778  1  0.82174400  0.70983333  0.30025960  1.0
  Ni  Ni4779  1  0.15507733  0.20983333  0.20025960  1.0
  Ni  Ni4780  1  0.15507733  0.54316667  0.20025960  1.0
  Ni  Ni4781  1  0.15507733  0.87650000  0.20025960  1.0
  Ni  Ni4782  1  0.48841067  0.20983333  0.20025960  1.0
  Ni  Ni4783  1  0.48841067  0.54316667  0.20025960  1.0
  Ni  Ni4784  1  0.48841067  0.87650000  0.20025960  1.0
  Ni  Ni4785  1  0.82174400  0.20983333  0.20025960  1.0
  Ni  Ni4786  1  0.82174400  0.54316667  0.20025960  1.0
  Ni  Ni4787  1  0.82174400  0.87650000  0.20025960  1.0
  Ni  Ni4788  1  0.05156100  0.01582667  0.25042020  1.0
  Ni  Ni4789  1  0.05156100  0.34916000  0.25042020  1.0
  Ni  Ni4790  1  0.05156100  0.68249333  0.25042020  1.0
  Ni  Ni4791  1  0.38489433  0.01582667  0.25042020  1.0
  Ni  Ni4792  1  0.38489433  0.34916000  0.25042020  1.0
  Ni  Ni4793  1  0.38489433  0.68249333  0.25042020  1.0
  Ni  Ni4794  1  0.71822767  0.01582667  0.25042020  1.0
  Ni  Ni4795  1  0.71822767  0.34916000  0.25042020  1.0
  Ni  Ni4796  1  0.71822767  0.68249333  0.25042020  1.0
  Ni  Ni4797  1  0.05156100  0.18249333  0.35042020  1.0
  Ni  Ni4798  1  0.05156100  0.51582667  0.35042020  1.0
  Ni  Ni4799  1  0.05156100  0.84916000  0.35042020  1.0
  Ni  Ni4800  1  0.38489433  0.18249333  0.35042020  1.0
  Ni  Ni4801  1  0.38489433  0.51582667  0.35042020  1.0
  Ni  Ni4802  1  0.38489433  0.84916000  0.35042020  1.0
  Ni  Ni4803  1  0.71822767  0.18249333  0.35042020  1.0
  Ni  Ni4804  1  0.71822767  0.51582667  0.35042020  1.0
  Ni  Ni4805  1  0.71822767  0.84916000  0.35042020  1.0
  Ni  Ni4806  1  0.13587200  0.12565283  0.31882830  1.0
  Ni  Ni4807  1  0.13587200  0.45898617  0.31882830  1.0
  Ni  Ni4808  1  0.13587200  0.79231950  0.31882830  1.0
  Ni  Ni4809  1  0.46920533  0.12565283  0.31882830  1.0
  Ni  Ni4810  1  0.46920533  0.45898617  0.31882830  1.0
  Ni  Ni4811  1  0.46920533  0.79231950  0.31882830  1.0
  Ni  Ni4812  1  0.80253867  0.12565283  0.31882830  1.0
  Ni  Ni4813  1  0.80253867  0.45898617  0.31882830  1.0
  Ni  Ni4814  1  0.80253867  0.79231950  0.31882830  1.0
  Ni  Ni4815  1  0.13587200  0.29231950  0.21882830  1.0
  Ni  Ni4816  1  0.13587200  0.62565283  0.21882830  1.0
  Ni  Ni4817  1  0.13587200  0.95898617  0.21882830  1.0
  Ni  Ni4818  1  0.46920533  0.29231950  0.21882830  1.0
  Ni  Ni4819  1  0.46920533  0.62565283  0.21882830  1.0
  Ni  Ni4820  1  0.46920533  0.95898617  0.21882830  1.0
  Ni  Ni4821  1  0.80253867  0.29231950  0.21882830  1.0
  Ni  Ni4822  1  0.80253867  0.62565283  0.21882830  1.0
  Ni  Ni4823  1  0.80253867  0.95898617  0.21882830  1.0
  Ni  Ni4824  1  0.21822767  0.12644083  0.24952570  1.0
  Ni  Ni4825  1  0.21822767  0.45977417  0.24952570  1.0
  Ni  Ni4826  1  0.21822767  0.79310750  0.24952570  1.0
  Ni  Ni4827  1  0.55156100  0.12644083  0.24952570  1.0
  Ni  Ni4828  1  0.55156100  0.45977417  0.24952570  1.0
  Ni  Ni4829  1  0.55156100  0.79310750  0.24952570  1.0
  Ni  Ni4830  1  0.88489433  0.12644083  0.24952570  1.0
  Ni  Ni4831  1  0.88489433  0.45977417  0.24952570  1.0
  Ni  Ni4832  1  0.88489433  0.79310750  0.24952570  1.0
  Ni  Ni4833  1  0.21822767  0.29310750  0.34952570  1.0
  Ni  Ni4834  1  0.21822767  0.62644083  0.34952570  1.0
  Ni  Ni4835  1  0.21822767  0.95977417  0.34952570  1.0
  Ni  Ni4836  1  0.55156100  0.29310750  0.34952570  1.0
  Ni  Ni4837  1  0.55156100  0.62644083  0.34952570  1.0
  Ni  Ni4838  1  0.55156100  0.95977417  0.34952570  1.0
  Ni  Ni4839  1  0.88489433  0.29310750  0.34952570  1.0
  Ni  Ni4840  1  0.88489433  0.62644083  0.34952570  1.0
  Ni  Ni4841  1  0.88489433  0.95977417  0.34952570  1.0
  Ni  Ni4842  1  0.32174400  0.04016667  0.23504680  1.0
  Ni  Ni4843  1  0.32174400  0.37350000  0.23504680  1.0
  Ni  Ni4844  1  0.32174400  0.70683333  0.23504680  1.0
  Ni  Ni4845  1  0.65507733  0.04016667  0.23504680  1.0
  Ni  Ni4846  1  0.65507733  0.37350000  0.23504680  1.0
  Ni  Ni4847  1  0.65507733  0.70683333  0.23504680  1.0
  Ni  Ni4848  1  0.98841067  0.04016667  0.23504680  1.0
  Ni  Ni4849  1  0.98841067  0.37350000  0.23504680  1.0
  Ni  Ni4850  1  0.98841067  0.70683333  0.23504680  1.0
  Ni  Ni4851  1  0.32174400  0.20683333  0.33504680  1.0
  Ni  Ni4852  1  0.32174400  0.54016667  0.33504680  1.0
  Ni  Ni4853  1  0.32174400  0.87350000  0.33504680  1.0
  Ni  Ni4854  1  0.65507733  0.20683333  0.33504680  1.0
  Ni  Ni4855  1  0.65507733  0.54016667  0.33504680  1.0
  Ni  Ni4856  1  0.65507733  0.87350000  0.33504680  1.0
  Ni  Ni4857  1  0.98841067  0.20683333  0.33504680  1.0
  Ni  Ni4858  1  0.98841067  0.54016667  0.33504680  1.0
  Ni  Ni4859  1  0.98841067  0.87350000  0.33504680  1.0
  Ni  Ni4860  1  0.23952567  0.04069717  0.36590810  1.0
  Ni  Ni4861  1  0.23952567  0.37403050  0.36590810  1.0
  Ni  Ni4862  1  0.23952567  0.70736383  0.36590810  1.0
  Ni  Ni4863  1  0.57285900  0.04069717  0.36590810  1.0
  Ni  Ni4864  1  0.57285900  0.37403050  0.36590810  1.0
  Ni  Ni4865  1  0.57285900  0.70736383  0.36590810  1.0
  Ni  Ni4866  1  0.90619233  0.04069717  0.36590810  1.0
  Ni  Ni4867  1  0.90619233  0.37403050  0.36590810  1.0
  Ni  Ni4868  1  0.90619233  0.70736383  0.36590810  1.0
  Ni  Ni4869  1  0.23952567  0.20736383  0.26590810  1.0
  Ni  Ni4870  1  0.23952567  0.54069717  0.26590810  1.0
  Ni  Ni4871  1  0.23952567  0.87403050  0.26590810  1.0
  Ni  Ni4872  1  0.57285900  0.20736383  0.26590810  1.0
  Ni  Ni4873  1  0.57285900  0.54069717  0.26590810  1.0
  Ni  Ni4874  1  0.57285900  0.87403050  0.26590810  1.0
  Ni  Ni4875  1  0.90619233  0.20736383  0.26590810  1.0
  Ni  Ni4876  1  0.90619233  0.54069717  0.26590810  1.0
  Ni  Ni4877  1  0.90619233  0.87403050  0.26590810  1.0
  Ni  Ni4878  1  0.15507733  0.15142200  0.23530640  1.0
  Ni  Ni4879  1  0.15507733  0.48475533  0.23530640  1.0
  Ni  Ni4880  1  0.15507733  0.81808867  0.23530640  1.0
  Ni  Ni4881  1  0.48841067  0.15142200  0.23530640  1.0
  Ni  Ni4882  1  0.48841067  0.48475533  0.23530640  1.0
  Ni  Ni4883  1  0.48841067  0.81808867  0.23530640  1.0
  Ni  Ni4884  1  0.82174400  0.15142200  0.23530640  1.0
  Ni  Ni4885  1  0.82174400  0.48475533  0.23530640  1.0
  Ni  Ni4886  1  0.82174400  0.81808867  0.23530640  1.0
  Ni  Ni4887  1  0.15507733  0.31808867  0.33530640  1.0
  Ni  Ni4888  1  0.15507733  0.65142200  0.33530640  1.0
  Ni  Ni4889  1  0.15507733  0.98475533  0.33530640  1.0
  Ni  Ni4890  1  0.48841067  0.31808867  0.33530640  1.0
  Ni  Ni4891  1  0.48841067  0.65142200  0.33530640  1.0
  Ni  Ni4892  1  0.48841067  0.98475533  0.33530640  1.0
  Ni  Ni4893  1  0.82174400  0.31808867  0.33530640  1.0
  Ni  Ni4894  1  0.82174400  0.65142200  0.33530640  1.0
  Ni  Ni4895  1  0.82174400  0.98475533  0.33530640  1.0
  Ni  Ni4896  1  0.21873033  0.12775467  0.32261160  1.0
  Ni  Ni4897  1  0.21873033  0.46108800  0.32261160  1.0
  Ni  Ni4898  1  0.21873033  0.79442133  0.32261160  1.0
  Ni  Ni4899  1  0.55206367  0.12775467  0.32261160  1.0
  Ni  Ni4900  1  0.55206367  0.46108800  0.32261160  1.0
  Ni  Ni4901  1  0.55206367  0.79442133  0.32261160  1.0
  Ni  Ni4902  1  0.88539700  0.12775467  0.32261160  1.0
  Ni  Ni4903  1  0.88539700  0.46108800  0.32261160  1.0
  Ni  Ni4904  1  0.88539700  0.79442133  0.32261160  1.0
  Ni  Ni4905  1  0.21873033  0.29442133  0.22261160  1.0
  Ni  Ni4906  1  0.21873033  0.62775467  0.22261160  1.0
  Ni  Ni4907  1  0.21873033  0.96108800  0.22261160  1.0
  Ni  Ni4908  1  0.55206367  0.29442133  0.22261160  1.0
  Ni  Ni4909  1  0.55206367  0.62775467  0.22261160  1.0
  Ni  Ni4910  1  0.55206367  0.96108800  0.22261160  1.0
  Ni  Ni4911  1  0.88539700  0.29442133  0.22261160  1.0
  Ni  Ni4912  1  0.88539700  0.62775467  0.22261160  1.0
  Ni  Ni4913  1  0.88539700  0.96108800  0.22261160  1.0
  Ni  Ni4914  1  0.21822767  0.06750667  0.28488620  1.0
  Ni  Ni4915  1  0.21822767  0.40084000  0.28488620  1.0
  Ni  Ni4916  1  0.21822767  0.73417333  0.28488620  1.0
  Ni  Ni4917  1  0.55156100  0.06750667  0.28488620  1.0
  Ni  Ni4918  1  0.55156100  0.40084000  0.28488620  1.0
  Ni  Ni4919  1  0.55156100  0.73417333  0.28488620  1.0
  Ni  Ni4920  1  0.88489433  0.06750667  0.28488620  1.0
  Ni  Ni4921  1  0.88489433  0.40084000  0.28488620  1.0
  Ni  Ni4922  1  0.88489433  0.73417333  0.28488620  1.0
  Ni  Ni4923  1  0.21822767  0.23417333  0.38488620  1.0
  Ni  Ni4924  1  0.21822767  0.56750667  0.38488620  1.0
  Ni  Ni4925  1  0.21822767  0.90084000  0.38488620  1.0
  Ni  Ni4926  1  0.55156100  0.23417333  0.38488620  1.0
  Ni  Ni4927  1  0.55156100  0.56750667  0.38488620  1.0
  Ni  Ni4928  1  0.55156100  0.90084000  0.38488620  1.0
  Ni  Ni4929  1  0.88489433  0.23417333  0.38488620  1.0
  Ni  Ni4930  1  0.88489433  0.56750667  0.38488620  1.0
  Ni  Ni4931  1  0.88489433  0.90084000  0.38488620  1.0
  Ni  Ni4932  1  0.19746133  0.04101383  0.36647810  1.0
  Ni  Ni4933  1  0.19746133  0.37434717  0.36647810  1.0
  Ni  Ni4934  1  0.19746133  0.70768050  0.36647810  1.0
  Ni  Ni4935  1  0.53079467  0.04101383  0.36647810  1.0
  Ni  Ni4936  1  0.53079467  0.37434717  0.36647810  1.0
  Ni  Ni4937  1  0.53079467  0.70768050  0.36647810  1.0
  Ni  Ni4938  1  0.86412800  0.04101383  0.36647810  1.0
  Ni  Ni4939  1  0.86412800  0.37434717  0.36647810  1.0
  Ni  Ni4940  1  0.86412800  0.70768050  0.36647810  1.0
  Ni  Ni4941  1  0.19746133  0.20768050  0.26647810  1.0
  Ni  Ni4942  1  0.19746133  0.54101383  0.26647810  1.0
  Ni  Ni4943  1  0.19746133  0.87434717  0.26647810  1.0
  Ni  Ni4944  1  0.53079467  0.20768050  0.26647810  1.0
  Ni  Ni4945  1  0.53079467  0.54101383  0.26647810  1.0
  Ni  Ni4946  1  0.53079467  0.87434717  0.26647810  1.0
  Ni  Ni4947  1  0.86412800  0.20768050  0.26647810  1.0
  Ni  Ni4948  1  0.86412800  0.54101383  0.26647810  1.0
  Ni  Ni4949  1  0.86412800  0.87434717  0.26647810  1.0
  Ni  Ni4950  1  0.32174400  0.09857800  0.20000000  1.0
  Ni  Ni4951  1  0.32174400  0.43191133  0.20000000  1.0
  Ni  Ni4952  1  0.32174400  0.76524467  0.20000000  1.0
  Ni  Ni4953  1  0.65507733  0.09857800  0.20000000  1.0
  Ni  Ni4954  1  0.65507733  0.43191133  0.20000000  1.0
  Ni  Ni4955  1  0.65507733  0.76524467  0.20000000  1.0
  Ni  Ni4956  1  0.98841067  0.09857800  0.20000000  1.0
  Ni  Ni4957  1  0.98841067  0.43191133  0.20000000  1.0
  Ni  Ni4958  1  0.98841067  0.76524467  0.20000000  1.0
  Ni  Ni4959  1  0.32174400  0.26524467  0.30000000  1.0
  Ni  Ni4960  1  0.32174400  0.59857800  0.30000000  1.0
  Ni  Ni4961  1  0.32174400  0.93191133  0.30000000  1.0
  Ni  Ni4962  1  0.65507733  0.26524467  0.30000000  1.0
  Ni  Ni4963  1  0.65507733  0.59857800  0.30000000  1.0
  Ni  Ni4964  1  0.65507733  0.93191133  0.30000000  1.0
  Ni  Ni4965  1  0.98841067  0.26524467  0.30000000  1.0
  Ni  Ni4966  1  0.98841067  0.59857800  0.30000000  1.0
  Ni  Ni4967  1  0.98841067  0.93191133  0.30000000  1.0
