# generated using pymatgen
data_Zn53Ni16
_symmetry_space_group_name_H-M   'P 1'
_cell_length_a   44.19429716
_cell_length_b   92.14833564
_cell_length_c   34.20021832
_cell_angle_alpha   94.24843865
_cell_angle_beta   101.27195297
_cell_angle_gamma   100.21233718
_symmetry_Int_Tables_number   1
_chemical_formula_structural   Zn53Ni16
_chemical_formula_sum   'Zn3816 Ni1152'
_cell_volume   133571.63688579
_cell_formula_units_Z   72
loop_
 _symmetry_equiv_pos_site_id
 _symmetry_equiv_pos_as_xyz
  1  'x, y, z'
loop_
 _atom_site_type_symbol
 _atom_site_label
 _atom_site_symmetry_multiplicity
 _atom_site_fract_x
 _atom_site_fract_y
 _atom_site_fract_z
 _atom_site_occupancy
  Ni  Ni0  1  0.17287333  0.28226315  0.78142300  1.0
  Ni  Ni1  1  0.17287333  0.61559648  0.78142300  1.0
  Ni  Ni2  1  0.17287333  0.94892981  0.78142300  1.0
  Ni  Ni3  1  0.50620667  0.28226315  0.78142300  1.0
  Ni  Ni4  1  0.50620667  0.61559648  0.78142300  1.0
  Ni  Ni5  1  0.50620667  0.94892981  0.78142300  1.0
  Ni  Ni6  1  0.83954000  0.28226315  0.78142300  1.0
  Ni  Ni7  1  0.83954000  0.61559648  0.78142300  1.0
  Ni  Ni8  1  0.83954000  0.94892981  0.78142300  1.0
  Ni  Ni9  1  0.00620667  0.32392981  0.78142300  1.0
  Ni  Ni10  1  0.00620667  0.65726315  0.78142300  1.0
  Ni  Ni11  1  0.00620667  0.99059648  0.78142300  1.0
  Ni  Ni12  1  0.33954000  0.32392981  0.78142300  1.0
  Ni  Ni13  1  0.33954000  0.65726315  0.78142300  1.0
  Ni  Ni14  1  0.33954000  0.99059648  0.78142300  1.0
  Ni  Ni15  1  0.67287333  0.32392981  0.78142300  1.0
  Ni  Ni16  1  0.67287333  0.65726315  0.78142300  1.0
  Ni  Ni17  1  0.67287333  0.99059648  0.78142300  1.0
  Ni  Ni18  1  0.07045317  0.25576552  0.15619100  1.0
  Ni  Ni19  1  0.07045317  0.58909885  0.15619100  1.0
  Ni  Ni20  1  0.07045317  0.92243219  0.15619100  1.0
  Ni  Ni21  1  0.40378650  0.25576552  0.15619100  1.0
  Ni  Ni22  1  0.40378650  0.58909885  0.15619100  1.0
  Ni  Ni23  1  0.40378650  0.92243219  0.15619100  1.0
  Ni  Ni24  1  0.73711983  0.25576552  0.15619100  1.0
  Ni  Ni25  1  0.73711983  0.58909885  0.15619100  1.0
  Ni  Ni26  1  0.73711983  0.92243219  0.15619100  1.0
  Ni  Ni27  1  0.23711983  0.29743219  0.15619100  1.0
  Ni  Ni28  1  0.23711983  0.63076552  0.15619100  1.0
  Ni  Ni29  1  0.23711983  0.96409885  0.15619100  1.0
  Ni  Ni30  1  0.57045317  0.29743219  0.15619100  1.0
  Ni  Ni31  1  0.57045317  0.63076552  0.15619100  1.0
  Ni  Ni32  1  0.57045317  0.96409885  0.15619100  1.0
  Ni  Ni33  1  0.90378650  0.29743219  0.15619100  1.0
  Ni  Ni34  1  0.90378650  0.63076552  0.15619100  1.0
  Ni  Ni35  1  0.90378650  0.96409885  0.15619100  1.0
  Ni  Ni36  1  0.22896067  0.25435306  0.96523200  1.0
  Ni  Ni37  1  0.22896067  0.58768640  0.96523200  1.0
  Ni  Ni38  1  0.22896067  0.92101973  0.96523200  1.0
  Ni  Ni39  1  0.56229400  0.25435306  0.96523200  1.0
  Ni  Ni40  1  0.56229400  0.58768640  0.96523200  1.0
  Ni  Ni41  1  0.56229400  0.92101973  0.96523200  1.0
  Ni  Ni42  1  0.89562733  0.25435306  0.96523200  1.0
  Ni  Ni43  1  0.89562733  0.58768640  0.96523200  1.0
  Ni  Ni44  1  0.89562733  0.92101973  0.96523200  1.0
  Ni  Ni45  1  0.06229400  0.29601973  0.96523200  1.0
  Ni  Ni46  1  0.06229400  0.62935306  0.96523200  1.0
  Ni  Ni47  1  0.06229400  0.96268640  0.96523200  1.0
  Ni  Ni48  1  0.39562733  0.29601973  0.96523200  1.0
  Ni  Ni49  1  0.39562733  0.62935306  0.96523200  1.0
  Ni  Ni50  1  0.39562733  0.96268640  0.96523200  1.0
  Ni  Ni51  1  0.72896067  0.29601973  0.96523200  1.0
  Ni  Ni52  1  0.72896067  0.62935306  0.96523200  1.0
  Ni  Ni53  1  0.72896067  0.96268640  0.96523200  1.0
  Ni  Ni54  1  0.04366783  0.25197435  0.03034100  1.0
  Ni  Ni55  1  0.04366783  0.58530769  0.03034100  1.0
  Ni  Ni56  1  0.04366783  0.91864102  0.03034100  1.0
  Ni  Ni57  1  0.37700117  0.25197435  0.03034100  1.0
  Ni  Ni58  1  0.37700117  0.58530769  0.03034100  1.0
  Ni  Ni59  1  0.37700117  0.91864102  0.03034100  1.0
  Ni  Ni60  1  0.71033450  0.25197435  0.03034100  1.0
  Ni  Ni61  1  0.71033450  0.58530769  0.03034100  1.0
  Ni  Ni62  1  0.71033450  0.91864102  0.03034100  1.0
  Ni  Ni63  1  0.21033450  0.29364102  0.03034100  1.0
  Ni  Ni64  1  0.21033450  0.62697435  0.03034100  1.0
  Ni  Ni65  1  0.21033450  0.96030769  0.03034100  1.0
  Ni  Ni66  1  0.54366783  0.29364102  0.03034100  1.0
  Ni  Ni67  1  0.54366783  0.62697435  0.03034100  1.0
  Ni  Ni68  1  0.54366783  0.96030769  0.03034100  1.0
  Ni  Ni69  1  0.87700117  0.29364102  0.03034100  1.0
  Ni  Ni70  1  0.87700117  0.62697435  0.03034100  1.0
  Ni  Ni71  1  0.87700117  0.96030769  0.03034100  1.0
  Ni  Ni72  1  0.28737200  0.29816156  0.96523200  1.0
  Ni  Ni73  1  0.28737200  0.63149490  0.96523200  1.0
  Ni  Ni74  1  0.28737200  0.96482823  0.96523200  1.0
  Ni  Ni75  1  0.62070533  0.29816156  0.96523200  1.0
  Ni  Ni76  1  0.62070533  0.63149490  0.96523200  1.0
  Ni  Ni77  1  0.62070533  0.96482823  0.96523200  1.0
  Ni  Ni78  1  0.95403867  0.29816156  0.96523200  1.0
  Ni  Ni79  1  0.95403867  0.63149490  0.96523200  1.0
  Ni  Ni80  1  0.95403867  0.96482823  0.96523200  1.0
  Ni  Ni81  1  0.12070533  0.25649490  0.96523200  1.0
  Ni  Ni82  1  0.12070533  0.58982823  0.96523200  1.0
  Ni  Ni83  1  0.12070533  0.92316156  0.96523200  1.0
  Ni  Ni84  1  0.45403867  0.25649490  0.96523200  1.0
  Ni  Ni85  1  0.45403867  0.58982823  0.96523200  1.0
  Ni  Ni86  1  0.45403867  0.92316156  0.96523200  1.0
  Ni  Ni87  1  0.78737200  0.25649490  0.96523200  1.0
  Ni  Ni88  1  0.78737200  0.58982823  0.96523200  1.0
  Ni  Ni89  1  0.78737200  0.92316156  0.96523200  1.0
  Ni  Ni90  1  0.20103867  0.30300023  0.46523200  1.0
  Ni  Ni91  1  0.20103867  0.63633356  0.46523200  1.0
  Ni  Ni92  1  0.20103867  0.96966690  0.46523200  1.0
  Ni  Ni93  1  0.53437200  0.30300023  0.46523200  1.0
  Ni  Ni94  1  0.53437200  0.63633356  0.46523200  1.0
  Ni  Ni95  1  0.53437200  0.96966690  0.46523200  1.0
  Ni  Ni96  1  0.86770533  0.30300023  0.46523200  1.0
  Ni  Ni97  1  0.86770533  0.63633356  0.46523200  1.0
  Ni  Ni98  1  0.86770533  0.96966690  0.46523200  1.0
  Ni  Ni99  1  0.03437200  0.26133356  0.46523200  1.0
  Ni  Ni100  1  0.03437200  0.59466690  0.46523200  1.0
  Ni  Ni101  1  0.03437200  0.92800023  0.46523200  1.0
  Ni  Ni102  1  0.36770533  0.26133356  0.46523200  1.0
  Ni  Ni103  1  0.36770533  0.59466690  0.46523200  1.0
  Ni  Ni104  1  0.36770533  0.92800023  0.46523200  1.0
  Ni  Ni105  1  0.70103867  0.26133356  0.46523200  1.0
  Ni  Ni106  1  0.70103867  0.59466690  0.46523200  1.0
  Ni  Ni107  1  0.70103867  0.92800023  0.46523200  1.0
  Ni  Ni108  1  0.13974450  0.31645877  0.09238400  1.0
  Ni  Ni109  1  0.13974450  0.64979210  0.09238400  1.0
  Ni  Ni110  1  0.13974450  0.98312544  0.09238400  1.0
  Ni  Ni111  1  0.47307783  0.31645877  0.09238400  1.0
  Ni  Ni112  1  0.47307783  0.64979210  0.09238400  1.0
  Ni  Ni113  1  0.47307783  0.98312544  0.09238400  1.0
  Ni  Ni114  1  0.80641117  0.31645877  0.09238400  1.0
  Ni  Ni115  1  0.80641117  0.64979210  0.09238400  1.0
  Ni  Ni116  1  0.80641117  0.98312544  0.09238400  1.0
  Ni  Ni117  1  0.30641117  0.27479210  0.09238400  1.0
  Ni  Ni118  1  0.30641117  0.60812544  0.09238400  1.0
  Ni  Ni119  1  0.30641117  0.94145877  0.09238400  1.0
  Ni  Ni120  1  0.63974450  0.27479210  0.09238400  1.0
  Ni  Ni121  1  0.63974450  0.60812544  0.09238400  1.0
  Ni  Ni122  1  0.63974450  0.94145877  0.09238400  1.0
  Ni  Ni123  1  0.97307783  0.27479210  0.09238400  1.0
  Ni  Ni124  1  0.97307783  0.60812544  0.09238400  1.0
  Ni  Ni125  1  0.97307783  0.94145877  0.09238400  1.0
  Ni  Ni126  1  0.26288017  0.26496027  0.84380900  1.0
  Ni  Ni127  1  0.26288017  0.59829360  0.84380900  1.0
  Ni  Ni128  1  0.26288017  0.93162694  0.84380900  1.0
  Ni  Ni129  1  0.59621350  0.26496027  0.84380900  1.0
  Ni  Ni130  1  0.59621350  0.59829360  0.84380900  1.0
  Ni  Ni131  1  0.59621350  0.93162694  0.84380900  1.0
  Ni  Ni132  1  0.92954683  0.26496027  0.84380900  1.0
  Ni  Ni133  1  0.92954683  0.59829360  0.84380900  1.0
  Ni  Ni134  1  0.92954683  0.93162694  0.84380900  1.0
  Ni  Ni135  1  0.09621350  0.30662694  0.84380900  1.0
  Ni  Ni136  1  0.09621350  0.63996027  0.84380900  1.0
  Ni  Ni137  1  0.09621350  0.97329360  0.84380900  1.0
  Ni  Ni138  1  0.42954683  0.30662694  0.84380900  1.0
  Ni  Ni139  1  0.42954683  0.63996027  0.84380900  1.0
  Ni  Ni140  1  0.42954683  0.97329360  0.84380900  1.0
  Ni  Ni141  1  0.76288017  0.30662694  0.84380900  1.0
  Ni  Ni142  1  0.76288017  0.63996027  0.84380900  1.0
  Ni  Ni143  1  0.76288017  0.97329360  0.84380900  1.0
  Ni  Ni144  1  0.20022083  0.33277927  0.46965900  1.0
  Ni  Ni145  1  0.20022083  0.66611260  0.46965900  1.0
  Ni  Ni146  1  0.20022083  0.99944594  0.46965900  1.0
  Ni  Ni147  1  0.53355417  0.33277927  0.46965900  1.0
  Ni  Ni148  1  0.53355417  0.66611260  0.46965900  1.0
  Ni  Ni149  1  0.53355417  0.99944594  0.46965900  1.0
  Ni  Ni150  1  0.86688750  0.33277927  0.46965900  1.0
  Ni  Ni151  1  0.86688750  0.66611260  0.46965900  1.0
  Ni  Ni152  1  0.86688750  0.99944594  0.46965900  1.0
  Ni  Ni153  1  0.03355417  0.29111260  0.46965900  1.0
  Ni  Ni154  1  0.03355417  0.62444594  0.46965900  1.0
  Ni  Ni155  1  0.03355417  0.95777927  0.46965900  1.0
  Ni  Ni156  1  0.36688750  0.29111260  0.46965900  1.0
  Ni  Ni157  1  0.36688750  0.62444594  0.46965900  1.0
  Ni  Ni158  1  0.36688750  0.95777927  0.46965900  1.0
  Ni  Ni159  1  0.70022083  0.29111260  0.46965900  1.0
  Ni  Ni160  1  0.70022083  0.62444594  0.46965900  1.0
  Ni  Ni161  1  0.70022083  0.95777927  0.46965900  1.0
  Ni  Ni162  1  0.16046000  0.32179598  0.21857700  1.0
  Ni  Ni163  1  0.16046000  0.65512931  0.21857700  1.0
  Ni  Ni164  1  0.16046000  0.98846265  0.21857700  1.0
  Ni  Ni165  1  0.49379333  0.32179598  0.21857700  1.0
  Ni  Ni166  1  0.49379333  0.65512931  0.21857700  1.0
  Ni  Ni167  1  0.49379333  0.98846265  0.21857700  1.0
  Ni  Ni168  1  0.82712667  0.32179598  0.21857700  1.0
  Ni  Ni169  1  0.82712667  0.65512931  0.21857700  1.0
  Ni  Ni170  1  0.82712667  0.98846265  0.21857700  1.0
  Ni  Ni171  1  0.32712667  0.28012931  0.21857700  1.0
  Ni  Ni172  1  0.32712667  0.61346265  0.21857700  1.0
  Ni  Ni173  1  0.32712667  0.94679598  0.21857700  1.0
  Ni  Ni174  1  0.66046000  0.28012931  0.21857700  1.0
  Ni  Ni175  1  0.66046000  0.61346265  0.21857700  1.0
  Ni  Ni176  1  0.66046000  0.94679598  0.21857700  1.0
  Ni  Ni177  1  0.99379333  0.28012931  0.21857700  1.0
  Ni  Ni178  1  0.99379333  0.61346265  0.21857700  1.0
  Ni  Ni179  1  0.99379333  0.94679598  0.21857700  1.0
  Ni  Ni180  1  0.28966550  0.26875144  0.96965900  1.0
  Ni  Ni181  1  0.28966550  0.60208477  0.96965900  1.0
  Ni  Ni182  1  0.28966550  0.93541810  0.96965900  1.0
  Ni  Ni183  1  0.62299883  0.26875144  0.96965900  1.0
  Ni  Ni184  1  0.62299883  0.60208477  0.96965900  1.0
  Ni  Ni185  1  0.62299883  0.93541810  0.96965900  1.0
  Ni  Ni186  1  0.95633217  0.26875144  0.96965900  1.0
  Ni  Ni187  1  0.95633217  0.60208477  0.96965900  1.0
  Ni  Ni188  1  0.95633217  0.93541810  0.96965900  1.0
  Ni  Ni189  1  0.12299883  0.31041810  0.96965900  1.0
  Ni  Ni190  1  0.12299883  0.64375144  0.96965900  1.0
  Ni  Ni191  1  0.12299883  0.97708477  0.96965900  1.0
  Ni  Ni192  1  0.45633217  0.31041810  0.96965900  1.0
  Ni  Ni193  1  0.45633217  0.64375144  0.96965900  1.0
  Ni  Ni194  1  0.45633217  0.97708477  0.96965900  1.0
  Ni  Ni195  1  0.78966550  0.31041810  0.96965900  1.0
  Ni  Ni196  1  0.78966550  0.64375144  0.96965900  1.0
  Ni  Ni197  1  0.78966550  0.97708477  0.96965900  1.0
  Ni  Ni198  1  0.17662050  0.28296427  0.15468300  1.0
  Ni  Ni199  1  0.17662050  0.61629760  0.15468300  1.0
  Ni  Ni200  1  0.17662050  0.94963094  0.15468300  1.0
  Ni  Ni201  1  0.50995383  0.28296427  0.15468300  1.0
  Ni  Ni202  1  0.50995383  0.61629760  0.15468300  1.0
  Ni  Ni203  1  0.50995383  0.94963094  0.15468300  1.0
  Ni  Ni204  1  0.84328717  0.28296427  0.15468300  1.0
  Ni  Ni205  1  0.84328717  0.61629760  0.15468300  1.0
  Ni  Ni206  1  0.84328717  0.94963094  0.15468300  1.0
  Ni  Ni207  1  0.00995383  0.32463094  0.15468300  1.0
  Ni  Ni208  1  0.00995383  0.65796427  0.15468300  1.0
  Ni  Ni209  1  0.00995383  0.99129760  0.15468300  1.0
  Ni  Ni210  1  0.34328717  0.32463094  0.15468300  1.0
  Ni  Ni211  1  0.34328717  0.65796427  0.15468300  1.0
  Ni  Ni212  1  0.34328717  0.99129760  0.15468300  1.0
  Ni  Ni213  1  0.67662050  0.32463094  0.15468300  1.0
  Ni  Ni214  1  0.67662050  0.65796427  0.15468300  1.0
  Ni  Ni215  1  0.67662050  0.99129760  0.15468300  1.0
  Ni  Ni216  1  0.14827717  0.27797619  0.65619100  1.0
  Ni  Ni217  1  0.14827717  0.61130952  0.65619100  1.0
  Ni  Ni218  1  0.14827717  0.94464285  0.65619100  1.0
  Ni  Ni219  1  0.48161050  0.27797619  0.65619100  1.0
  Ni  Ni220  1  0.48161050  0.61130952  0.65619100  1.0
  Ni  Ni221  1  0.48161050  0.94464285  0.65619100  1.0
  Ni  Ni222  1  0.81494383  0.27797619  0.65619100  1.0
  Ni  Ni223  1  0.81494383  0.61130952  0.65619100  1.0
  Ni  Ni224  1  0.81494383  0.94464285  0.65619100  1.0
  Ni  Ni225  1  0.31494383  0.31964285  0.65619100  1.0
  Ni  Ni226  1  0.31494383  0.65297619  0.65619100  1.0
  Ni  Ni227  1  0.31494383  0.98630952  0.65619100  1.0
  Ni  Ni228  1  0.64827717  0.31964285  0.65619100  1.0
  Ni  Ni229  1  0.64827717  0.65297619  0.65619100  1.0
  Ni  Ni230  1  0.64827717  0.98630952  0.65619100  1.0
  Ni  Ni231  1  0.98161050  0.31964285  0.65619100  1.0
  Ni  Ni232  1  0.98161050  0.65297619  0.65619100  1.0
  Ni  Ni233  1  0.98161050  0.98630952  0.65619100  1.0
  Ni  Ni234  1  0.26444533  0.31856090  0.84531700  1.0
  Ni  Ni235  1  0.26444533  0.65189423  0.84531700  1.0
  Ni  Ni236  1  0.26444533  0.98522756  0.84531700  1.0
  Ni  Ni237  1  0.59777867  0.31856090  0.84531700  1.0
  Ni  Ni238  1  0.59777867  0.65189423  0.84531700  1.0
  Ni  Ni239  1  0.59777867  0.98522756  0.84531700  1.0
  Ni  Ni240  1  0.93111200  0.31856090  0.84531700  1.0
  Ni  Ni241  1  0.93111200  0.65189423  0.84531700  1.0
  Ni  Ni242  1  0.93111200  0.98522756  0.84531700  1.0
  Ni  Ni243  1  0.09777867  0.27689423  0.84531700  1.0
  Ni  Ni244  1  0.09777867  0.61022756  0.84531700  1.0
  Ni  Ni245  1  0.09777867  0.94356090  0.84531700  1.0
  Ni  Ni246  1  0.43111200  0.27689423  0.84531700  1.0
  Ni  Ni247  1  0.43111200  0.61022756  0.84531700  1.0
  Ni  Ni248  1  0.43111200  0.94356090  0.84531700  1.0
  Ni  Ni249  1  0.76444533  0.27689423  0.84531700  1.0
  Ni  Ni250  1  0.76444533  0.61022756  0.84531700  1.0
  Ni  Ni251  1  0.76444533  0.94356090  0.84531700  1.0
  Ni  Ni252  1  0.24573233  0.25881123  0.71857700  1.0
  Ni  Ni253  1  0.24573233  0.59214456  0.71857700  1.0
  Ni  Ni254  1  0.24573233  0.92547790  0.71857700  1.0
  Ni  Ni255  1  0.57906567  0.25881123  0.71857700  1.0
  Ni  Ni256  1  0.57906567  0.59214456  0.71857700  1.0
  Ni  Ni257  1  0.57906567  0.92547790  0.71857700  1.0
  Ni  Ni258  1  0.91239900  0.25881123  0.71857700  1.0
  Ni  Ni259  1  0.91239900  0.59214456  0.71857700  1.0
  Ni  Ni260  1  0.91239900  0.92547790  0.71857700  1.0
  Ni  Ni261  1  0.07906567  0.30047790  0.71857700  1.0
  Ni  Ni262  1  0.07906567  0.63381123  0.71857700  1.0
  Ni  Ni263  1  0.07906567  0.96714456  0.71857700  1.0
  Ni  Ni264  1  0.41239900  0.30047790  0.71857700  1.0
  Ni  Ni265  1  0.41239900  0.63381123  0.71857700  1.0
  Ni  Ni266  1  0.41239900  0.96714456  0.71857700  1.0
  Ni  Ni267  1  0.74573233  0.30047790  0.71857700  1.0
  Ni  Ni268  1  0.74573233  0.63381123  0.71857700  1.0
  Ni  Ni269  1  0.74573233  0.96714456  0.71857700  1.0
  Ni  Ni270  1  0.06888800  0.28549823  0.15468300  1.0
  Ni  Ni271  1  0.06888800  0.61883156  0.15468300  1.0
  Ni  Ni272  1  0.06888800  0.95216490  0.15468300  1.0
  Ni  Ni273  1  0.40222133  0.28549823  0.15468300  1.0
  Ni  Ni274  1  0.40222133  0.61883156  0.15468300  1.0
  Ni  Ni275  1  0.40222133  0.95216490  0.15468300  1.0
  Ni  Ni276  1  0.73555467  0.28549823  0.15468300  1.0
  Ni  Ni277  1  0.73555467  0.61883156  0.15468300  1.0
  Ni  Ni278  1  0.73555467  0.95216490  0.15468300  1.0
  Ni  Ni279  1  0.23555467  0.32716490  0.15468300  1.0
  Ni  Ni280  1  0.23555467  0.66049823  0.15468300  1.0
  Ni  Ni281  1  0.23555467  0.99383156  0.15468300  1.0
  Ni  Ni282  1  0.56888800  0.32716490  0.15468300  1.0
  Ni  Ni283  1  0.56888800  0.66049823  0.15468300  1.0
  Ni  Ni284  1  0.56888800  0.99383156  0.15468300  1.0
  Ni  Ni285  1  0.90222133  0.32716490  0.15468300  1.0
  Ni  Ni286  1  0.90222133  0.66049823  0.15468300  1.0
  Ni  Ni287  1  0.90222133  0.99383156  0.15468300  1.0
  Ni  Ni288  1  0.20827383  0.29231844  0.65468300  1.0
  Ni  Ni289  1  0.20827383  0.62565177  0.65468300  1.0
  Ni  Ni290  1  0.20827383  0.95898510  0.65468300  1.0
  Ni  Ni291  1  0.54160717  0.29231844  0.65468300  1.0
  Ni  Ni292  1  0.54160717  0.62565177  0.65468300  1.0
  Ni  Ni293  1  0.54160717  0.95898510  0.65468300  1.0
  Ni  Ni294  1  0.87494050  0.29231844  0.65468300  1.0
  Ni  Ni295  1  0.87494050  0.62565177  0.65468300  1.0
  Ni  Ni296  1  0.87494050  0.95898510  0.65468300  1.0
  Ni  Ni297  1  0.04160717  0.25065177  0.65468300  1.0
  Ni  Ni298  1  0.04160717  0.58398510  0.65468300  1.0
  Ni  Ni299  1  0.04160717  0.91731844  0.65468300  1.0
  Ni  Ni300  1  0.37494050  0.25065177  0.65468300  1.0
  Ni  Ni301  1  0.37494050  0.58398510  0.65468300  1.0
  Ni  Ni302  1  0.37494050  0.91731844  0.65468300  1.0
  Ni  Ni303  1  0.70827383  0.25065177  0.65468300  1.0
  Ni  Ni304  1  0.70827383  0.58398510  0.65468300  1.0
  Ni  Ni305  1  0.70827383  0.91731844  0.65468300  1.0
  Ni  Ni306  1  0.13311250  0.27127985  0.53034100  1.0
  Ni  Ni307  1  0.13311250  0.60461319  0.53034100  1.0
  Ni  Ni308  1  0.13311250  0.93794652  0.53034100  1.0
  Ni  Ni309  1  0.46644583  0.27127985  0.53034100  1.0
  Ni  Ni310  1  0.46644583  0.60461319  0.53034100  1.0
  Ni  Ni311  1  0.46644583  0.93794652  0.53034100  1.0
  Ni  Ni312  1  0.79977917  0.27127985  0.53034100  1.0
  Ni  Ni313  1  0.79977917  0.60461319  0.53034100  1.0
  Ni  Ni314  1  0.79977917  0.93794652  0.53034100  1.0
  Ni  Ni315  1  0.29977917  0.31294652  0.53034100  1.0
  Ni  Ni316  1  0.29977917  0.64627985  0.53034100  1.0
  Ni  Ni317  1  0.29977917  0.97961319  0.53034100  1.0
  Ni  Ni318  1  0.63311250  0.31294652  0.53034100  1.0
  Ni  Ni319  1  0.63311250  0.64627985  0.53034100  1.0
  Ni  Ni320  1  0.63311250  0.97961319  0.53034100  1.0
  Ni  Ni321  1  0.96644583  0.31294652  0.53034100  1.0
  Ni  Ni322  1  0.96644583  0.64627985  0.53034100  1.0
  Ni  Ni323  1  0.96644583  0.97961319  0.53034100  1.0
  Ni  Ni324  1  0.09278333  0.30514206  0.46523200  1.0
  Ni  Ni325  1  0.09278333  0.63847540  0.46523200  1.0
  Ni  Ni326  1  0.09278333  0.97180873  0.46523200  1.0
  Ni  Ni327  1  0.42611667  0.30514206  0.46523200  1.0
  Ni  Ni328  1  0.42611667  0.63847540  0.46523200  1.0
  Ni  Ni329  1  0.42611667  0.97180873  0.46523200  1.0
  Ni  Ni330  1  0.75945000  0.30514206  0.46523200  1.0
  Ni  Ni331  1  0.75945000  0.63847540  0.46523200  1.0
  Ni  Ni332  1  0.75945000  0.97180873  0.46523200  1.0
  Ni  Ni333  1  0.25945000  0.26347540  0.46523200  1.0
  Ni  Ni334  1  0.25945000  0.59680873  0.46523200  1.0
  Ni  Ni335  1  0.25945000  0.93014206  0.46523200  1.0
  Ni  Ni336  1  0.59278333  0.26347540  0.46523200  1.0
  Ni  Ni337  1  0.59278333  0.59680873  0.46523200  1.0
  Ni  Ni338  1  0.59278333  0.93014206  0.46523200  1.0
  Ni  Ni339  1  0.92611667  0.26347540  0.46523200  1.0
  Ni  Ni340  1  0.92611667  0.59680873  0.46523200  1.0
  Ni  Ni341  1  0.92611667  0.93014206  0.46523200  1.0
  Ni  Ni342  1  0.14933967  0.33145115  0.65468300  1.0
  Ni  Ni343  1  0.14933967  0.66478448  0.65468300  1.0
  Ni  Ni344  1  0.14933967  0.99811781  0.65468300  1.0
  Ni  Ni345  1  0.48267300  0.33145115  0.65468300  1.0
  Ni  Ni346  1  0.48267300  0.66478448  0.65468300  1.0
  Ni  Ni347  1  0.48267300  0.99811781  0.65468300  1.0
  Ni  Ni348  1  0.81600633  0.33145115  0.65468300  1.0
  Ni  Ni349  1  0.81600633  0.66478448  0.65468300  1.0
  Ni  Ni350  1  0.81600633  0.99811781  0.65468300  1.0
  Ni  Ni351  1  0.31600633  0.28978448  0.65468300  1.0
  Ni  Ni352  1  0.31600633  0.62311781  0.65468300  1.0
  Ni  Ni353  1  0.31600633  0.95645115  0.65468300  1.0
  Ni  Ni354  1  0.64933967  0.28978448  0.65468300  1.0
  Ni  Ni355  1  0.64933967  0.62311781  0.65468300  1.0
  Ni  Ni356  1  0.64933967  0.95645115  0.65468300  1.0
  Ni  Ni357  1  0.98267300  0.28978448  0.65468300  1.0
  Ni  Ni358  1  0.98267300  0.62311781  0.65468300  1.0
  Ni  Ni359  1  0.98267300  0.95645115  0.65468300  1.0
  Ni  Ni360  1  0.19358883  0.28760035  0.90761600  1.0
  Ni  Ni361  1  0.19358883  0.62093369  0.90761600  1.0
  Ni  Ni362  1  0.19358883  0.95426702  0.90761600  1.0
  Ni  Ni363  1  0.52692217  0.28760035  0.90761600  1.0
  Ni  Ni364  1  0.52692217  0.62093369  0.90761600  1.0
  Ni  Ni365  1  0.52692217  0.95426702  0.90761600  1.0
  Ni  Ni366  1  0.86025550  0.28760035  0.90761600  1.0
  Ni  Ni367  1  0.86025550  0.62093369  0.90761600  1.0
  Ni  Ni368  1  0.86025550  0.95426702  0.90761600  1.0
  Ni  Ni369  1  0.02692217  0.32926702  0.90761600  1.0
  Ni  Ni370  1  0.02692217  0.66260035  0.90761600  1.0
  Ni  Ni371  1  0.02692217  0.99593369  0.90761600  1.0
  Ni  Ni372  1  0.36025550  0.32926702  0.90761600  1.0
  Ni  Ni373  1  0.36025550  0.66260035  0.90761600  1.0
  Ni  Ni374  1  0.36025550  0.99593369  0.90761600  1.0
  Ni  Ni375  1  0.69358883  0.32926702  0.90761600  1.0
  Ni  Ni376  1  0.69358883  0.66260035  0.90761600  1.0
  Ni  Ni377  1  0.69358883  0.99593369  0.90761600  1.0
  Ni  Ni378  1  0.13229467  0.30105890  0.53476800  1.0
  Ni  Ni379  1  0.13229467  0.63439223  0.53476800  1.0
  Ni  Ni380  1  0.13229467  0.96772556  0.53476800  1.0
  Ni  Ni381  1  0.46562800  0.30105890  0.53476800  1.0
  Ni  Ni382  1  0.46562800  0.63439223  0.53476800  1.0
  Ni  Ni383  1  0.46562800  0.96772556  0.53476800  1.0
  Ni  Ni384  1  0.79896133  0.30105890  0.53476800  1.0
  Ni  Ni385  1  0.79896133  0.63439223  0.53476800  1.0
  Ni  Ni386  1  0.79896133  0.96772556  0.53476800  1.0
  Ni  Ni387  1  0.29896133  0.25939223  0.53476800  1.0
  Ni  Ni388  1  0.29896133  0.59272556  0.53476800  1.0
  Ni  Ni389  1  0.29896133  0.92605890  0.53476800  1.0
  Ni  Ni390  1  0.63229467  0.25939223  0.53476800  1.0
  Ni  Ni391  1  0.63229467  0.59272556  0.53476800  1.0
  Ni  Ni392  1  0.63229467  0.92605890  0.53476800  1.0
  Ni  Ni393  1  0.96562800  0.25939223  0.53476800  1.0
  Ni  Ni394  1  0.96562800  0.59272556  0.53476800  1.0
  Ni  Ni395  1  0.96562800  0.92605890  0.53476800  1.0
  Ni  Ni396  1  0.15671283  0.32109485  0.84531700  1.0
  Ni  Ni397  1  0.15671283  0.65442819  0.84531700  1.0
  Ni  Ni398  1  0.15671283  0.98776152  0.84531700  1.0
  Ni  Ni399  1  0.49004617  0.32109485  0.84531700  1.0
  Ni  Ni400  1  0.49004617  0.65442819  0.84531700  1.0
  Ni  Ni401  1  0.49004617  0.98776152  0.84531700  1.0
  Ni  Ni402  1  0.82337950  0.32109485  0.84531700  1.0
  Ni  Ni403  1  0.82337950  0.65442819  0.84531700  1.0
  Ni  Ni404  1  0.82337950  0.98776152  0.84531700  1.0
  Ni  Ni405  1  0.32337950  0.27942819  0.84531700  1.0
  Ni  Ni406  1  0.32337950  0.61276152  0.84531700  1.0
  Ni  Ni407  1  0.32337950  0.94609485  0.84531700  1.0
  Ni  Ni408  1  0.65671283  0.27942819  0.84531700  1.0
  Ni  Ni409  1  0.65671283  0.61276152  0.84531700  1.0
  Ni  Ni410  1  0.65671283  0.94609485  0.84531700  1.0
  Ni  Ni411  1  0.99004617  0.27942819  0.84531700  1.0
  Ni  Ni412  1  0.99004617  0.61276152  0.84531700  1.0
  Ni  Ni413  1  0.99004617  0.94609485  0.84531700  1.0
  Ni  Ni414  1  0.22438350  0.25363235  0.59238400  1.0
  Ni  Ni415  1  0.22438350  0.58696569  0.59238400  1.0
  Ni  Ni416  1  0.22438350  0.92029902  0.59238400  1.0
  Ni  Ni417  1  0.55771683  0.25363235  0.59238400  1.0
  Ni  Ni418  1  0.55771683  0.58696569  0.59238400  1.0
  Ni  Ni419  1  0.55771683  0.92029902  0.59238400  1.0
  Ni  Ni420  1  0.89105017  0.25363235  0.59238400  1.0
  Ni  Ni421  1  0.89105017  0.58696569  0.59238400  1.0
  Ni  Ni422  1  0.89105017  0.92029902  0.59238400  1.0
  Ni  Ni423  1  0.05771683  0.29529902  0.59238400  1.0
  Ni  Ni424  1  0.05771683  0.62863235  0.59238400  1.0
  Ni  Ni425  1  0.05771683  0.96196569  0.59238400  1.0
  Ni  Ni426  1  0.39105017  0.29529902  0.59238400  1.0
  Ni  Ni427  1  0.39105017  0.62863235  0.59238400  1.0
  Ni  Ni428  1  0.39105017  0.96196569  0.59238400  1.0
  Ni  Ni429  1  0.72438350  0.29529902  0.59238400  1.0
  Ni  Ni430  1  0.72438350  0.62863235  0.59238400  1.0
  Ni  Ni431  1  0.72438350  0.96196569  0.59238400  1.0
  Ni  Ni432  1  0.18399367  0.27260798  0.34531700  1.0
  Ni  Ni433  1  0.18399367  0.60594131  0.34531700  1.0
  Ni  Ni434  1  0.18399367  0.93927465  0.34531700  1.0
  Ni  Ni435  1  0.51732700  0.27260798  0.34531700  1.0
  Ni  Ni436  1  0.51732700  0.60594131  0.34531700  1.0
  Ni  Ni437  1  0.51732700  0.93927465  0.34531700  1.0
  Ni  Ni438  1  0.85066033  0.27260798  0.34531700  1.0
  Ni  Ni439  1  0.85066033  0.60594131  0.34531700  1.0
  Ni  Ni440  1  0.85066033  0.93927465  0.34531700  1.0
  Ni  Ni441  1  0.01732700  0.31427465  0.34531700  1.0
  Ni  Ni442  1  0.01732700  0.64760798  0.34531700  1.0
  Ni  Ni443  1  0.01732700  0.98094131  0.34531700  1.0
  Ni  Ni444  1  0.35066033  0.31427465  0.34531700  1.0
  Ni  Ni445  1  0.35066033  0.64760798  0.34531700  1.0
  Ni  Ni446  1  0.35066033  0.98094131  0.34531700  1.0
  Ni  Ni447  1  0.68399367  0.31427465  0.34531700  1.0
  Ni  Ni448  1  0.68399367  0.64760798  0.34531700  1.0
  Ni  Ni449  1  0.68399367  0.98094131  0.34531700  1.0
  Ni  Ni450  1  0.04596133  0.30589756  0.03476800  1.0
  Ni  Ni451  1  0.04596133  0.63923090  0.03476800  1.0
  Ni  Ni452  1  0.04596133  0.97256423  0.03476800  1.0
  Ni  Ni453  1  0.37929467  0.30589756  0.03476800  1.0
  Ni  Ni454  1  0.37929467  0.63923090  0.03476800  1.0
  Ni  Ni455  1  0.37929467  0.97256423  0.03476800  1.0
  Ni  Ni456  1  0.71262800  0.30589756  0.03476800  1.0
  Ni  Ni457  1  0.71262800  0.63923090  0.03476800  1.0
  Ni  Ni458  1  0.71262800  0.97256423  0.03476800  1.0
  Ni  Ni459  1  0.21262800  0.26423090  0.03476800  1.0
  Ni  Ni460  1  0.21262800  0.59756423  0.03476800  1.0
  Ni  Ni461  1  0.21262800  0.93089756  0.03476800  1.0
  Ni  Ni462  1  0.54596133  0.26423090  0.03476800  1.0
  Ni  Ni463  1  0.54596133  0.59756423  0.03476800  1.0
  Ni  Ni464  1  0.54596133  0.93089756  0.03476800  1.0
  Ni  Ni465  1  0.87929467  0.26423090  0.03476800  1.0
  Ni  Ni466  1  0.87929467  0.59756423  0.03476800  1.0
  Ni  Ni467  1  0.87929467  0.93089756  0.03476800  1.0
  Ni  Ni468  1  0.08760100  0.26191456  0.28142300  1.0
  Ni  Ni469  1  0.08760100  0.59524790  0.28142300  1.0
  Ni  Ni470  1  0.08760100  0.92858123  0.28142300  1.0
  Ni  Ni471  1  0.42093433  0.26191456  0.28142300  1.0
  Ni  Ni472  1  0.42093433  0.59524790  0.28142300  1.0
  Ni  Ni473  1  0.42093433  0.92858123  0.28142300  1.0
  Ni  Ni474  1  0.75426767  0.26191456  0.28142300  1.0
  Ni  Ni475  1  0.75426767  0.59524790  0.28142300  1.0
  Ni  Ni476  1  0.75426767  0.92858123  0.28142300  1.0
  Ni  Ni477  1  0.25426767  0.30358123  0.28142300  1.0
  Ni  Ni478  1  0.25426767  0.63691456  0.28142300  1.0
  Ni  Ni479  1  0.25426767  0.97024790  0.28142300  1.0
  Ni  Ni480  1  0.58760100  0.30358123  0.28142300  1.0
  Ni  Ni481  1  0.58760100  0.63691456  0.28142300  1.0
  Ni  Ni482  1  0.58760100  0.97024790  0.28142300  1.0
  Ni  Ni483  1  0.92093433  0.30358123  0.28142300  1.0
  Ni  Ni484  1  0.92093433  0.63691456  0.28142300  1.0
  Ni  Ni485  1  0.92093433  0.97024790  0.28142300  1.0
  Ni  Ni486  1  0.24055000  0.29891706  0.53476800  1.0
  Ni  Ni487  1  0.24055000  0.63225040  0.53476800  1.0
  Ni  Ni488  1  0.24055000  0.96558373  0.53476800  1.0
  Ni  Ni489  1  0.57388333  0.29891706  0.53476800  1.0
  Ni  Ni490  1  0.57388333  0.63225040  0.53476800  1.0
  Ni  Ni491  1  0.57388333  0.96558373  0.53476800  1.0
  Ni  Ni492  1  0.90721667  0.29891706  0.53476800  1.0
  Ni  Ni493  1  0.90721667  0.63225040  0.53476800  1.0
  Ni  Ni494  1  0.90721667  0.96558373  0.53476800  1.0
  Ni  Ni495  1  0.07388333  0.25725040  0.53476800  1.0
  Ni  Ni496  1  0.07388333  0.59058373  0.53476800  1.0
  Ni  Ni497  1  0.07388333  0.92391706  0.53476800  1.0
  Ni  Ni498  1  0.40721667  0.25725040  0.53476800  1.0
  Ni  Ni499  1  0.40721667  0.59058373  0.53476800  1.0
  Ni  Ni500  1  0.40721667  0.92391706  0.53476800  1.0
  Ni  Ni501  1  0.74055000  0.25725040  0.53476800  1.0
  Ni  Ni502  1  0.74055000  0.59058373  0.53476800  1.0
  Ni  Ni503  1  0.74055000  0.92391706  0.53476800  1.0
  Ni  Ni504  1  0.18505617  0.32608294  0.34380900  1.0
  Ni  Ni505  1  0.18505617  0.65941627  0.34380900  1.0
  Ni  Ni506  1  0.18505617  0.99274960  0.34380900  1.0
  Ni  Ni507  1  0.51838950  0.32608294  0.34380900  1.0
  Ni  Ni508  1  0.51838950  0.65941627  0.34380900  1.0
  Ni  Ni509  1  0.51838950  0.99274960  0.34380900  1.0
  Ni  Ni510  1  0.85172283  0.32608294  0.34380900  1.0
  Ni  Ni511  1  0.85172283  0.65941627  0.34380900  1.0
  Ni  Ni512  1  0.85172283  0.99274960  0.34380900  1.0
  Ni  Ni513  1  0.01838950  0.28441627  0.34380900  1.0
  Ni  Ni514  1  0.01838950  0.61774960  0.34380900  1.0
  Ni  Ni515  1  0.01838950  0.95108294  0.34380900  1.0
  Ni  Ni516  1  0.35172283  0.28441627  0.34380900  1.0
  Ni  Ni517  1  0.35172283  0.61774960  0.34380900  1.0
  Ni  Ni518  1  0.35172283  0.95108294  0.34380900  1.0
  Ni  Ni519  1  0.68505617  0.28441627  0.34380900  1.0
  Ni  Ni520  1  0.68505617  0.61774960  0.34380900  1.0
  Ni  Ni521  1  0.68505617  0.95108294  0.34380900  1.0
  Ni  Ni522  1  0.12505950  0.31174069  0.34531700  1.0
  Ni  Ni523  1  0.12505950  0.64507402  0.34531700  1.0
  Ni  Ni524  1  0.12505950  0.97840735  0.34531700  1.0
  Ni  Ni525  1  0.45839283  0.31174069  0.34531700  1.0
  Ni  Ni526  1  0.45839283  0.64507402  0.34531700  1.0
  Ni  Ni527  1  0.45839283  0.97840735  0.34531700  1.0
  Ni  Ni528  1  0.79172617  0.31174069  0.34531700  1.0
  Ni  Ni529  1  0.79172617  0.64507402  0.34531700  1.0
  Ni  Ni530  1  0.79172617  0.97840735  0.34531700  1.0
  Ni  Ni531  1  0.29172617  0.27007402  0.34531700  1.0
  Ni  Ni532  1  0.29172617  0.60340735  0.34531700  1.0
  Ni  Ni533  1  0.29172617  0.93674069  0.34531700  1.0
  Ni  Ni534  1  0.62505950  0.27007402  0.34531700  1.0
  Ni  Ni535  1  0.62505950  0.60340735  0.34531700  1.0
  Ni  Ni536  1  0.62505950  0.93674069  0.34531700  1.0
  Ni  Ni537  1  0.95839283  0.27007402  0.34531700  1.0
  Ni  Ni538  1  0.95839283  0.60340735  0.34531700  1.0
  Ni  Ni539  1  0.95839283  0.93674069  0.34531700  1.0
  Ni  Ni540  1  0.10894983  0.26709344  0.40761600  1.0
  Ni  Ni541  1  0.10894983  0.60042677  0.40761600  1.0
  Ni  Ni542  1  0.10894983  0.93376010  0.40761600  1.0
  Ni  Ni543  1  0.44228317  0.26709344  0.40761600  1.0
  Ni  Ni544  1  0.44228317  0.60042677  0.40761600  1.0
  Ni  Ni545  1  0.44228317  0.93376010  0.40761600  1.0
  Ni  Ni546  1  0.77561650  0.26709344  0.40761600  1.0
  Ni  Ni547  1  0.77561650  0.60042677  0.40761600  1.0
  Ni  Ni548  1  0.77561650  0.93376010  0.40761600  1.0
  Ni  Ni549  1  0.27561650  0.30876010  0.40761600  1.0
  Ni  Ni550  1  0.27561650  0.64209344  0.40761600  1.0
  Ni  Ni551  1  0.27561650  0.97542677  0.40761600  1.0
  Ni  Ni552  1  0.60894983  0.30876010  0.40761600  1.0
  Ni  Ni553  1  0.60894983  0.64209344  0.40761600  1.0
  Ni  Ni554  1  0.60894983  0.97542677  0.40761600  1.0
  Ni  Ni555  1  0.94228317  0.30876010  0.40761600  1.0
  Ni  Ni556  1  0.94228317  0.64209344  0.40761600  1.0
  Ni  Ni557  1  0.94228317  0.97542677  0.40761600  1.0
  Ni  Ni558  1  0.10437267  0.26637273  0.03476800  1.0
  Ni  Ni559  1  0.10437267  0.59970606  0.03476800  1.0
  Ni  Ni560  1  0.10437267  0.93303940  0.03476800  1.0
  Ni  Ni561  1  0.43770600  0.26637273  0.03476800  1.0
  Ni  Ni562  1  0.43770600  0.59970606  0.03476800  1.0
  Ni  Ni563  1  0.43770600  0.93303940  0.03476800  1.0
  Ni  Ni564  1  0.77103933  0.26637273  0.03476800  1.0
  Ni  Ni565  1  0.77103933  0.59970606  0.03476800  1.0
  Ni  Ni566  1  0.77103933  0.93303940  0.03476800  1.0
  Ni  Ni567  1  0.27103933  0.30803940  0.03476800  1.0
  Ni  Ni568  1  0.27103933  0.64137273  0.03476800  1.0
  Ni  Ni569  1  0.27103933  0.97470606  0.03476800  1.0
  Ni  Ni570  1  0.60437267  0.30803940  0.03476800  1.0
  Ni  Ni571  1  0.60437267  0.64137273  0.03476800  1.0
  Ni  Ni572  1  0.60437267  0.97470606  0.03476800  1.0
  Ni  Ni573  1  0.93770600  0.30803940  0.03476800  1.0
  Ni  Ni574  1  0.93770600  0.64137273  0.03476800  1.0
  Ni  Ni575  1  0.93770600  0.97470606  0.03476800  1.0
  Ni  Ni576  1  0.17287333  0.19892981  0.78142300  1.0
  Ni  Ni577  1  0.17287333  0.53226315  0.78142300  1.0
  Ni  Ni578  1  0.17287333  0.86559648  0.78142300  1.0
  Ni  Ni579  1  0.50620667  0.19892981  0.78142300  1.0
  Ni  Ni580  1  0.50620667  0.53226315  0.78142300  1.0
  Ni  Ni581  1  0.50620667  0.86559648  0.78142300  1.0
  Ni  Ni582  1  0.83954000  0.19892981  0.78142300  1.0
  Ni  Ni583  1  0.83954000  0.53226315  0.78142300  1.0
  Ni  Ni584  1  0.83954000  0.86559648  0.78142300  1.0
  Ni  Ni585  1  0.00620667  0.24059648  0.78142300  1.0
  Ni  Ni586  1  0.00620667  0.57392981  0.78142300  1.0
  Ni  Ni587  1  0.00620667  0.90726315  0.78142300  1.0
  Ni  Ni588  1  0.33954000  0.24059648  0.78142300  1.0
  Ni  Ni589  1  0.33954000  0.57392981  0.78142300  1.0
  Ni  Ni590  1  0.33954000  0.90726315  0.78142300  1.0
  Ni  Ni591  1  0.67287333  0.24059648  0.78142300  1.0
  Ni  Ni592  1  0.67287333  0.57392981  0.78142300  1.0
  Ni  Ni593  1  0.67287333  0.90726315  0.78142300  1.0
  Ni  Ni594  1  0.07045317  0.17243219  0.15619100  1.0
  Ni  Ni595  1  0.07045317  0.50576552  0.15619100  1.0
  Ni  Ni596  1  0.07045317  0.83909885  0.15619100  1.0
  Ni  Ni597  1  0.40378650  0.17243219  0.15619100  1.0
  Ni  Ni598  1  0.40378650  0.50576552  0.15619100  1.0
  Ni  Ni599  1  0.40378650  0.83909885  0.15619100  1.0
  Ni  Ni600  1  0.73711983  0.17243219  0.15619100  1.0
  Ni  Ni601  1  0.73711983  0.50576552  0.15619100  1.0
  Ni  Ni602  1  0.73711983  0.83909885  0.15619100  1.0
  Ni  Ni603  1  0.23711983  0.21409885  0.15619100  1.0
  Ni  Ni604  1  0.23711983  0.54743219  0.15619100  1.0
  Ni  Ni605  1  0.23711983  0.88076552  0.15619100  1.0
  Ni  Ni606  1  0.57045317  0.21409885  0.15619100  1.0
  Ni  Ni607  1  0.57045317  0.54743219  0.15619100  1.0
  Ni  Ni608  1  0.57045317  0.88076552  0.15619100  1.0
  Ni  Ni609  1  0.90378650  0.21409885  0.15619100  1.0
  Ni  Ni610  1  0.90378650  0.54743219  0.15619100  1.0
  Ni  Ni611  1  0.90378650  0.88076552  0.15619100  1.0
  Ni  Ni612  1  0.22896067  0.17101973  0.96523200  1.0
  Ni  Ni613  1  0.22896067  0.50435306  0.96523200  1.0
  Ni  Ni614  1  0.22896067  0.83768640  0.96523200  1.0
  Ni  Ni615  1  0.56229400  0.17101973  0.96523200  1.0
  Ni  Ni616  1  0.56229400  0.50435306  0.96523200  1.0
  Ni  Ni617  1  0.56229400  0.83768640  0.96523200  1.0
  Ni  Ni618  1  0.89562733  0.17101973  0.96523200  1.0
  Ni  Ni619  1  0.89562733  0.50435306  0.96523200  1.0
  Ni  Ni620  1  0.89562733  0.83768640  0.96523200  1.0
  Ni  Ni621  1  0.06229400  0.21268640  0.96523200  1.0
  Ni  Ni622  1  0.06229400  0.54601973  0.96523200  1.0
  Ni  Ni623  1  0.06229400  0.87935306  0.96523200  1.0
  Ni  Ni624  1  0.39562733  0.21268640  0.96523200  1.0
  Ni  Ni625  1  0.39562733  0.54601973  0.96523200  1.0
  Ni  Ni626  1  0.39562733  0.87935306  0.96523200  1.0
  Ni  Ni627  1  0.72896067  0.21268640  0.96523200  1.0
  Ni  Ni628  1  0.72896067  0.54601973  0.96523200  1.0
  Ni  Ni629  1  0.72896067  0.87935306  0.96523200  1.0
  Ni  Ni630  1  0.04366783  0.16864102  0.03034100  1.0
  Ni  Ni631  1  0.04366783  0.50197435  0.03034100  1.0
  Ni  Ni632  1  0.04366783  0.83530769  0.03034100  1.0
  Ni  Ni633  1  0.37700117  0.16864102  0.03034100  1.0
  Ni  Ni634  1  0.37700117  0.50197435  0.03034100  1.0
  Ni  Ni635  1  0.37700117  0.83530769  0.03034100  1.0
  Ni  Ni636  1  0.71033450  0.16864102  0.03034100  1.0
  Ni  Ni637  1  0.71033450  0.50197435  0.03034100  1.0
  Ni  Ni638  1  0.71033450  0.83530769  0.03034100  1.0
  Ni  Ni639  1  0.21033450  0.21030769  0.03034100  1.0
  Ni  Ni640  1  0.21033450  0.54364102  0.03034100  1.0
  Ni  Ni641  1  0.21033450  0.87697435  0.03034100  1.0
  Ni  Ni642  1  0.54366783  0.21030769  0.03034100  1.0
  Ni  Ni643  1  0.54366783  0.54364102  0.03034100  1.0
  Ni  Ni644  1  0.54366783  0.87697435  0.03034100  1.0
  Ni  Ni645  1  0.87700117  0.21030769  0.03034100  1.0
  Ni  Ni646  1  0.87700117  0.54364102  0.03034100  1.0
  Ni  Ni647  1  0.87700117  0.87697435  0.03034100  1.0
  Ni  Ni648  1  0.28737200  0.21482823  0.96523200  1.0
  Ni  Ni649  1  0.28737200  0.54816156  0.96523200  1.0
  Ni  Ni650  1  0.28737200  0.88149490  0.96523200  1.0
  Ni  Ni651  1  0.62070533  0.21482823  0.96523200  1.0
  Ni  Ni652  1  0.62070533  0.54816156  0.96523200  1.0
  Ni  Ni653  1  0.62070533  0.88149490  0.96523200  1.0
  Ni  Ni654  1  0.95403867  0.21482823  0.96523200  1.0
  Ni  Ni655  1  0.95403867  0.54816156  0.96523200  1.0
  Ni  Ni656  1  0.95403867  0.88149490  0.96523200  1.0
  Ni  Ni657  1  0.12070533  0.17316156  0.96523200  1.0
  Ni  Ni658  1  0.12070533  0.50649490  0.96523200  1.0
  Ni  Ni659  1  0.12070533  0.83982823  0.96523200  1.0
  Ni  Ni660  1  0.45403867  0.17316156  0.96523200  1.0
  Ni  Ni661  1  0.45403867  0.50649490  0.96523200  1.0
  Ni  Ni662  1  0.45403867  0.83982823  0.96523200  1.0
  Ni  Ni663  1  0.78737200  0.17316156  0.96523200  1.0
  Ni  Ni664  1  0.78737200  0.50649490  0.96523200  1.0
  Ni  Ni665  1  0.78737200  0.83982823  0.96523200  1.0
  Ni  Ni666  1  0.20103867  0.21966690  0.46523200  1.0
  Ni  Ni667  1  0.20103867  0.55300023  0.46523200  1.0
  Ni  Ni668  1  0.20103867  0.88633356  0.46523200  1.0
  Ni  Ni669  1  0.53437200  0.21966690  0.46523200  1.0
  Ni  Ni670  1  0.53437200  0.55300023  0.46523200  1.0
  Ni  Ni671  1  0.53437200  0.88633356  0.46523200  1.0
  Ni  Ni672  1  0.86770533  0.21966690  0.46523200  1.0
  Ni  Ni673  1  0.86770533  0.55300023  0.46523200  1.0
  Ni  Ni674  1  0.86770533  0.88633356  0.46523200  1.0
  Ni  Ni675  1  0.03437200  0.17800023  0.46523200  1.0
  Ni  Ni676  1  0.03437200  0.51133356  0.46523200  1.0
  Ni  Ni677  1  0.03437200  0.84466690  0.46523200  1.0
  Ni  Ni678  1  0.36770533  0.17800023  0.46523200  1.0
  Ni  Ni679  1  0.36770533  0.51133356  0.46523200  1.0
  Ni  Ni680  1  0.36770533  0.84466690  0.46523200  1.0
  Ni  Ni681  1  0.70103867  0.17800023  0.46523200  1.0
  Ni  Ni682  1  0.70103867  0.51133356  0.46523200  1.0
  Ni  Ni683  1  0.70103867  0.84466690  0.46523200  1.0
  Ni  Ni684  1  0.13974450  0.23312544  0.09238400  1.0
  Ni  Ni685  1  0.13974450  0.56645877  0.09238400  1.0
  Ni  Ni686  1  0.13974450  0.89979210  0.09238400  1.0
  Ni  Ni687  1  0.47307783  0.23312544  0.09238400  1.0
  Ni  Ni688  1  0.47307783  0.56645877  0.09238400  1.0
  Ni  Ni689  1  0.47307783  0.89979210  0.09238400  1.0
  Ni  Ni690  1  0.80641117  0.23312544  0.09238400  1.0
  Ni  Ni691  1  0.80641117  0.56645877  0.09238400  1.0
  Ni  Ni692  1  0.80641117  0.89979210  0.09238400  1.0
  Ni  Ni693  1  0.30641117  0.19145877  0.09238400  1.0
  Ni  Ni694  1  0.30641117  0.52479210  0.09238400  1.0
  Ni  Ni695  1  0.30641117  0.85812544  0.09238400  1.0
  Ni  Ni696  1  0.63974450  0.19145877  0.09238400  1.0
  Ni  Ni697  1  0.63974450  0.52479210  0.09238400  1.0
  Ni  Ni698  1  0.63974450  0.85812544  0.09238400  1.0
  Ni  Ni699  1  0.97307783  0.19145877  0.09238400  1.0
  Ni  Ni700  1  0.97307783  0.52479210  0.09238400  1.0
  Ni  Ni701  1  0.97307783  0.85812544  0.09238400  1.0
  Ni  Ni702  1  0.26288017  0.18162694  0.84380900  1.0
  Ni  Ni703  1  0.26288017  0.51496027  0.84380900  1.0
  Ni  Ni704  1  0.26288017  0.84829360  0.84380900  1.0
  Ni  Ni705  1  0.59621350  0.18162694  0.84380900  1.0
  Ni  Ni706  1  0.59621350  0.51496027  0.84380900  1.0
  Ni  Ni707  1  0.59621350  0.84829360  0.84380900  1.0
  Ni  Ni708  1  0.92954683  0.18162694  0.84380900  1.0
  Ni  Ni709  1  0.92954683  0.51496027  0.84380900  1.0
  Ni  Ni710  1  0.92954683  0.84829360  0.84380900  1.0
  Ni  Ni711  1  0.09621350  0.22329360  0.84380900  1.0
  Ni  Ni712  1  0.09621350  0.55662694  0.84380900  1.0
  Ni  Ni713  1  0.09621350  0.88996027  0.84380900  1.0
  Ni  Ni714  1  0.42954683  0.22329360  0.84380900  1.0
  Ni  Ni715  1  0.42954683  0.55662694  0.84380900  1.0
  Ni  Ni716  1  0.42954683  0.88996027  0.84380900  1.0
  Ni  Ni717  1  0.76288017  0.22329360  0.84380900  1.0
  Ni  Ni718  1  0.76288017  0.55662694  0.84380900  1.0
  Ni  Ni719  1  0.76288017  0.88996027  0.84380900  1.0
  Ni  Ni720  1  0.20022083  0.24944594  0.46965900  1.0
  Ni  Ni721  1  0.20022083  0.58277927  0.46965900  1.0
  Ni  Ni722  1  0.20022083  0.91611260  0.46965900  1.0
  Ni  Ni723  1  0.53355417  0.24944594  0.46965900  1.0
  Ni  Ni724  1  0.53355417  0.58277927  0.46965900  1.0
  Ni  Ni725  1  0.53355417  0.91611260  0.46965900  1.0
  Ni  Ni726  1  0.86688750  0.24944594  0.46965900  1.0
  Ni  Ni727  1  0.86688750  0.58277927  0.46965900  1.0
  Ni  Ni728  1  0.86688750  0.91611260  0.46965900  1.0
  Ni  Ni729  1  0.03355417  0.20777927  0.46965900  1.0
  Ni  Ni730  1  0.03355417  0.54111260  0.46965900  1.0
  Ni  Ni731  1  0.03355417  0.87444594  0.46965900  1.0
  Ni  Ni732  1  0.36688750  0.20777927  0.46965900  1.0
  Ni  Ni733  1  0.36688750  0.54111260  0.46965900  1.0
  Ni  Ni734  1  0.36688750  0.87444594  0.46965900  1.0
  Ni  Ni735  1  0.70022083  0.20777927  0.46965900  1.0
  Ni  Ni736  1  0.70022083  0.54111260  0.46965900  1.0
  Ni  Ni737  1  0.70022083  0.87444594  0.46965900  1.0
  Ni  Ni738  1  0.16046000  0.23846265  0.21857700  1.0
  Ni  Ni739  1  0.16046000  0.57179598  0.21857700  1.0
  Ni  Ni740  1  0.16046000  0.90512931  0.21857700  1.0
  Ni  Ni741  1  0.49379333  0.23846265  0.21857700  1.0
  Ni  Ni742  1  0.49379333  0.57179598  0.21857700  1.0
  Ni  Ni743  1  0.49379333  0.90512931  0.21857700  1.0
  Ni  Ni744  1  0.82712667  0.23846265  0.21857700  1.0
  Ni  Ni745  1  0.82712667  0.57179598  0.21857700  1.0
  Ni  Ni746  1  0.82712667  0.90512931  0.21857700  1.0
  Ni  Ni747  1  0.32712667  0.19679598  0.21857700  1.0
  Ni  Ni748  1  0.32712667  0.53012931  0.21857700  1.0
  Ni  Ni749  1  0.32712667  0.86346265  0.21857700  1.0
  Ni  Ni750  1  0.66046000  0.19679598  0.21857700  1.0
  Ni  Ni751  1  0.66046000  0.53012931  0.21857700  1.0
  Ni  Ni752  1  0.66046000  0.86346265  0.21857700  1.0
  Ni  Ni753  1  0.99379333  0.19679598  0.21857700  1.0
  Ni  Ni754  1  0.99379333  0.53012931  0.21857700  1.0
  Ni  Ni755  1  0.99379333  0.86346265  0.21857700  1.0
  Ni  Ni756  1  0.28966550  0.18541810  0.96965900  1.0
  Ni  Ni757  1  0.28966550  0.51875144  0.96965900  1.0
  Ni  Ni758  1  0.28966550  0.85208477  0.96965900  1.0
  Ni  Ni759  1  0.62299883  0.18541810  0.96965900  1.0
  Ni  Ni760  1  0.62299883  0.51875144  0.96965900  1.0
  Ni  Ni761  1  0.62299883  0.85208477  0.96965900  1.0
  Ni  Ni762  1  0.95633217  0.18541810  0.96965900  1.0
  Ni  Ni763  1  0.95633217  0.51875144  0.96965900  1.0
  Ni  Ni764  1  0.95633217  0.85208477  0.96965900  1.0
  Ni  Ni765  1  0.12299883  0.22708477  0.96965900  1.0
  Ni  Ni766  1  0.12299883  0.56041810  0.96965900  1.0
  Ni  Ni767  1  0.12299883  0.89375144  0.96965900  1.0
  Ni  Ni768  1  0.45633217  0.22708477  0.96965900  1.0
  Ni  Ni769  1  0.45633217  0.56041810  0.96965900  1.0
  Ni  Ni770  1  0.45633217  0.89375144  0.96965900  1.0
  Ni  Ni771  1  0.78966550  0.22708477  0.96965900  1.0
  Ni  Ni772  1  0.78966550  0.56041810  0.96965900  1.0
  Ni  Ni773  1  0.78966550  0.89375144  0.96965900  1.0
  Ni  Ni774  1  0.17662050  0.19963094  0.15468300  1.0
  Ni  Ni775  1  0.17662050  0.53296427  0.15468300  1.0
  Ni  Ni776  1  0.17662050  0.86629760  0.15468300  1.0
  Ni  Ni777  1  0.50995383  0.19963094  0.15468300  1.0
  Ni  Ni778  1  0.50995383  0.53296427  0.15468300  1.0
  Ni  Ni779  1  0.50995383  0.86629760  0.15468300  1.0
  Ni  Ni780  1  0.84328717  0.19963094  0.15468300  1.0
  Ni  Ni781  1  0.84328717  0.53296427  0.15468300  1.0
  Ni  Ni782  1  0.84328717  0.86629760  0.15468300  1.0
  Ni  Ni783  1  0.00995383  0.24129760  0.15468300  1.0
  Ni  Ni784  1  0.00995383  0.57463094  0.15468300  1.0
  Ni  Ni785  1  0.00995383  0.90796427  0.15468300  1.0
  Ni  Ni786  1  0.34328717  0.24129760  0.15468300  1.0
  Ni  Ni787  1  0.34328717  0.57463094  0.15468300  1.0
  Ni  Ni788  1  0.34328717  0.90796427  0.15468300  1.0
  Ni  Ni789  1  0.67662050  0.24129760  0.15468300  1.0
  Ni  Ni790  1  0.67662050  0.57463094  0.15468300  1.0
  Ni  Ni791  1  0.67662050  0.90796427  0.15468300  1.0
  Ni  Ni792  1  0.14827717  0.19464285  0.65619100  1.0
  Ni  Ni793  1  0.14827717  0.52797619  0.65619100  1.0
  Ni  Ni794  1  0.14827717  0.86130952  0.65619100  1.0
  Ni  Ni795  1  0.48161050  0.19464285  0.65619100  1.0
  Ni  Ni796  1  0.48161050  0.52797619  0.65619100  1.0
  Ni  Ni797  1  0.48161050  0.86130952  0.65619100  1.0
  Ni  Ni798  1  0.81494383  0.19464285  0.65619100  1.0
  Ni  Ni799  1  0.81494383  0.52797619  0.65619100  1.0
  Ni  Ni800  1  0.81494383  0.86130952  0.65619100  1.0
  Ni  Ni801  1  0.31494383  0.23630952  0.65619100  1.0
  Ni  Ni802  1  0.31494383  0.56964285  0.65619100  1.0
  Ni  Ni803  1  0.31494383  0.90297619  0.65619100  1.0
  Ni  Ni804  1  0.64827717  0.23630952  0.65619100  1.0
  Ni  Ni805  1  0.64827717  0.56964285  0.65619100  1.0
  Ni  Ni806  1  0.64827717  0.90297619  0.65619100  1.0
  Ni  Ni807  1  0.98161050  0.23630952  0.65619100  1.0
  Ni  Ni808  1  0.98161050  0.56964285  0.65619100  1.0
  Ni  Ni809  1  0.98161050  0.90297619  0.65619100  1.0
  Ni  Ni810  1  0.26444533  0.23522756  0.84531700  1.0
  Ni  Ni811  1  0.26444533  0.56856090  0.84531700  1.0
  Ni  Ni812  1  0.26444533  0.90189423  0.84531700  1.0
  Ni  Ni813  1  0.59777867  0.23522756  0.84531700  1.0
  Ni  Ni814  1  0.59777867  0.56856090  0.84531700  1.0
  Ni  Ni815  1  0.59777867  0.90189423  0.84531700  1.0
  Ni  Ni816  1  0.93111200  0.23522756  0.84531700  1.0
  Ni  Ni817  1  0.93111200  0.56856090  0.84531700  1.0
  Ni  Ni818  1  0.93111200  0.90189423  0.84531700  1.0
  Ni  Ni819  1  0.09777867  0.19356090  0.84531700  1.0
  Ni  Ni820  1  0.09777867  0.52689423  0.84531700  1.0
  Ni  Ni821  1  0.09777867  0.86022756  0.84531700  1.0
  Ni  Ni822  1  0.43111200  0.19356090  0.84531700  1.0
  Ni  Ni823  1  0.43111200  0.52689423  0.84531700  1.0
  Ni  Ni824  1  0.43111200  0.86022756  0.84531700  1.0
  Ni  Ni825  1  0.76444533  0.19356090  0.84531700  1.0
  Ni  Ni826  1  0.76444533  0.52689423  0.84531700  1.0
  Ni  Ni827  1  0.76444533  0.86022756  0.84531700  1.0
  Ni  Ni828  1  0.24573233  0.17547790  0.71857700  1.0
  Ni  Ni829  1  0.24573233  0.50881123  0.71857700  1.0
  Ni  Ni830  1  0.24573233  0.84214456  0.71857700  1.0
  Ni  Ni831  1  0.57906567  0.17547790  0.71857700  1.0
  Ni  Ni832  1  0.57906567  0.50881123  0.71857700  1.0
  Ni  Ni833  1  0.57906567  0.84214456  0.71857700  1.0
  Ni  Ni834  1  0.91239900  0.17547790  0.71857700  1.0
  Ni  Ni835  1  0.91239900  0.50881123  0.71857700  1.0
  Ni  Ni836  1  0.91239900  0.84214456  0.71857700  1.0
  Ni  Ni837  1  0.07906567  0.21714456  0.71857700  1.0
  Ni  Ni838  1  0.07906567  0.55047790  0.71857700  1.0
  Ni  Ni839  1  0.07906567  0.88381123  0.71857700  1.0
  Ni  Ni840  1  0.41239900  0.21714456  0.71857700  1.0
  Ni  Ni841  1  0.41239900  0.55047790  0.71857700  1.0
  Ni  Ni842  1  0.41239900  0.88381123  0.71857700  1.0
  Ni  Ni843  1  0.74573233  0.21714456  0.71857700  1.0
  Ni  Ni844  1  0.74573233  0.55047790  0.71857700  1.0
  Ni  Ni845  1  0.74573233  0.88381123  0.71857700  1.0
  Ni  Ni846  1  0.06888800  0.20216490  0.15468300  1.0
  Ni  Ni847  1  0.06888800  0.53549823  0.15468300  1.0
  Ni  Ni848  1  0.06888800  0.86883156  0.15468300  1.0
  Ni  Ni849  1  0.40222133  0.20216490  0.15468300  1.0
  Ni  Ni850  1  0.40222133  0.53549823  0.15468300  1.0
  Ni  Ni851  1  0.40222133  0.86883156  0.15468300  1.0
  Ni  Ni852  1  0.73555467  0.20216490  0.15468300  1.0
  Ni  Ni853  1  0.73555467  0.53549823  0.15468300  1.0
  Ni  Ni854  1  0.73555467  0.86883156  0.15468300  1.0
  Ni  Ni855  1  0.23555467  0.24383156  0.15468300  1.0
  Ni  Ni856  1  0.23555467  0.57716490  0.15468300  1.0
  Ni  Ni857  1  0.23555467  0.91049823  0.15468300  1.0
  Ni  Ni858  1  0.56888800  0.24383156  0.15468300  1.0
  Ni  Ni859  1  0.56888800  0.57716490  0.15468300  1.0
  Ni  Ni860  1  0.56888800  0.91049823  0.15468300  1.0
  Ni  Ni861  1  0.90222133  0.24383156  0.15468300  1.0
  Ni  Ni862  1  0.90222133  0.57716490  0.15468300  1.0
  Ni  Ni863  1  0.90222133  0.91049823  0.15468300  1.0
  Ni  Ni864  1  0.20827383  0.20898510  0.65468300  1.0
  Ni  Ni865  1  0.20827383  0.54231844  0.65468300  1.0
  Ni  Ni866  1  0.20827383  0.87565177  0.65468300  1.0
  Ni  Ni867  1  0.54160717  0.20898510  0.65468300  1.0
  Ni  Ni868  1  0.54160717  0.54231844  0.65468300  1.0
  Ni  Ni869  1  0.54160717  0.87565177  0.65468300  1.0
  Ni  Ni870  1  0.87494050  0.20898510  0.65468300  1.0
  Ni  Ni871  1  0.87494050  0.54231844  0.65468300  1.0
  Ni  Ni872  1  0.87494050  0.87565177  0.65468300  1.0
  Ni  Ni873  1  0.04160717  0.16731844  0.65468300  1.0
  Ni  Ni874  1  0.04160717  0.50065177  0.65468300  1.0
  Ni  Ni875  1  0.04160717  0.83398510  0.65468300  1.0
  Ni  Ni876  1  0.37494050  0.16731844  0.65468300  1.0
  Ni  Ni877  1  0.37494050  0.50065177  0.65468300  1.0
  Ni  Ni878  1  0.37494050  0.83398510  0.65468300  1.0
  Ni  Ni879  1  0.70827383  0.16731844  0.65468300  1.0
  Ni  Ni880  1  0.70827383  0.50065177  0.65468300  1.0
  Ni  Ni881  1  0.70827383  0.83398510  0.65468300  1.0
  Ni  Ni882  1  0.13311250  0.18794652  0.53034100  1.0
  Ni  Ni883  1  0.13311250  0.52127985  0.53034100  1.0
  Ni  Ni884  1  0.13311250  0.85461319  0.53034100  1.0
  Ni  Ni885  1  0.46644583  0.18794652  0.53034100  1.0
  Ni  Ni886  1  0.46644583  0.52127985  0.53034100  1.0
  Ni  Ni887  1  0.46644583  0.85461319  0.53034100  1.0
  Ni  Ni888  1  0.79977917  0.18794652  0.53034100  1.0
  Ni  Ni889  1  0.79977917  0.52127985  0.53034100  1.0
  Ni  Ni890  1  0.79977917  0.85461319  0.53034100  1.0
  Ni  Ni891  1  0.29977917  0.22961319  0.53034100  1.0
  Ni  Ni892  1  0.29977917  0.56294652  0.53034100  1.0
  Ni  Ni893  1  0.29977917  0.89627985  0.53034100  1.0
  Ni  Ni894  1  0.63311250  0.22961319  0.53034100  1.0
  Ni  Ni895  1  0.63311250  0.56294652  0.53034100  1.0
  Ni  Ni896  1  0.63311250  0.89627985  0.53034100  1.0
  Ni  Ni897  1  0.96644583  0.22961319  0.53034100  1.0
  Ni  Ni898  1  0.96644583  0.56294652  0.53034100  1.0
  Ni  Ni899  1  0.96644583  0.89627985  0.53034100  1.0
  Ni  Ni900  1  0.09278333  0.22180873  0.46523200  1.0
  Ni  Ni901  1  0.09278333  0.55514206  0.46523200  1.0
  Ni  Ni902  1  0.09278333  0.88847540  0.46523200  1.0
  Ni  Ni903  1  0.42611667  0.22180873  0.46523200  1.0
  Ni  Ni904  1  0.42611667  0.55514206  0.46523200  1.0
  Ni  Ni905  1  0.42611667  0.88847540  0.46523200  1.0
  Ni  Ni906  1  0.75945000  0.22180873  0.46523200  1.0
  Ni  Ni907  1  0.75945000  0.55514206  0.46523200  1.0
  Ni  Ni908  1  0.75945000  0.88847540  0.46523200  1.0
  Ni  Ni909  1  0.25945000  0.18014206  0.46523200  1.0
  Ni  Ni910  1  0.25945000  0.51347540  0.46523200  1.0
  Ni  Ni911  1  0.25945000  0.84680873  0.46523200  1.0
  Ni  Ni912  1  0.59278333  0.18014206  0.46523200  1.0
  Ni  Ni913  1  0.59278333  0.51347540  0.46523200  1.0
  Ni  Ni914  1  0.59278333  0.84680873  0.46523200  1.0
  Ni  Ni915  1  0.92611667  0.18014206  0.46523200  1.0
  Ni  Ni916  1  0.92611667  0.51347540  0.46523200  1.0
  Ni  Ni917  1  0.92611667  0.84680873  0.46523200  1.0
  Ni  Ni918  1  0.14933967  0.24811781  0.65468300  1.0
  Ni  Ni919  1  0.14933967  0.58145115  0.65468300  1.0
  Ni  Ni920  1  0.14933967  0.91478448  0.65468300  1.0
  Ni  Ni921  1  0.48267300  0.24811781  0.65468300  1.0
  Ni  Ni922  1  0.48267300  0.58145115  0.65468300  1.0
  Ni  Ni923  1  0.48267300  0.91478448  0.65468300  1.0
  Ni  Ni924  1  0.81600633  0.24811781  0.65468300  1.0
  Ni  Ni925  1  0.81600633  0.58145115  0.65468300  1.0
  Ni  Ni926  1  0.81600633  0.91478448  0.65468300  1.0
  Ni  Ni927  1  0.31600633  0.20645115  0.65468300  1.0
  Ni  Ni928  1  0.31600633  0.53978448  0.65468300  1.0
  Ni  Ni929  1  0.31600633  0.87311781  0.65468300  1.0
  Ni  Ni930  1  0.64933967  0.20645115  0.65468300  1.0
  Ni  Ni931  1  0.64933967  0.53978448  0.65468300  1.0
  Ni  Ni932  1  0.64933967  0.87311781  0.65468300  1.0
  Ni  Ni933  1  0.98267300  0.20645115  0.65468300  1.0
  Ni  Ni934  1  0.98267300  0.53978448  0.65468300  1.0
  Ni  Ni935  1  0.98267300  0.87311781  0.65468300  1.0
  Ni  Ni936  1  0.19358883  0.20426702  0.90761600  1.0
  Ni  Ni937  1  0.19358883  0.53760035  0.90761600  1.0
  Ni  Ni938  1  0.19358883  0.87093369  0.90761600  1.0
  Ni  Ni939  1  0.52692217  0.20426702  0.90761600  1.0
  Ni  Ni940  1  0.52692217  0.53760035  0.90761600  1.0
  Ni  Ni941  1  0.52692217  0.87093369  0.90761600  1.0
  Ni  Ni942  1  0.86025550  0.20426702  0.90761600  1.0
  Ni  Ni943  1  0.86025550  0.53760035  0.90761600  1.0
  Ni  Ni944  1  0.86025550  0.87093369  0.90761600  1.0
  Ni  Ni945  1  0.02692217  0.24593369  0.90761600  1.0
  Ni  Ni946  1  0.02692217  0.57926702  0.90761600  1.0
  Ni  Ni947  1  0.02692217  0.91260035  0.90761600  1.0
  Ni  Ni948  1  0.36025550  0.24593369  0.90761600  1.0
  Ni  Ni949  1  0.36025550  0.57926702  0.90761600  1.0
  Ni  Ni950  1  0.36025550  0.91260035  0.90761600  1.0
  Ni  Ni951  1  0.69358883  0.24593369  0.90761600  1.0
  Ni  Ni952  1  0.69358883  0.57926702  0.90761600  1.0
  Ni  Ni953  1  0.69358883  0.91260035  0.90761600  1.0
  Ni  Ni954  1  0.13229467  0.21772556  0.53476800  1.0
  Ni  Ni955  1  0.13229467  0.55105890  0.53476800  1.0
  Ni  Ni956  1  0.13229467  0.88439223  0.53476800  1.0
  Ni  Ni957  1  0.46562800  0.21772556  0.53476800  1.0
  Ni  Ni958  1  0.46562800  0.55105890  0.53476800  1.0
  Ni  Ni959  1  0.46562800  0.88439223  0.53476800  1.0
  Ni  Ni960  1  0.79896133  0.21772556  0.53476800  1.0
  Ni  Ni961  1  0.79896133  0.55105890  0.53476800  1.0
  Ni  Ni962  1  0.79896133  0.88439223  0.53476800  1.0
  Ni  Ni963  1  0.29896133  0.17605890  0.53476800  1.0
  Ni  Ni964  1  0.29896133  0.50939223  0.53476800  1.0
  Ni  Ni965  1  0.29896133  0.84272556  0.53476800  1.0
  Ni  Ni966  1  0.63229467  0.17605890  0.53476800  1.0
  Ni  Ni967  1  0.63229467  0.50939223  0.53476800  1.0
  Ni  Ni968  1  0.63229467  0.84272556  0.53476800  1.0
  Ni  Ni969  1  0.96562800  0.17605890  0.53476800  1.0
  Ni  Ni970  1  0.96562800  0.50939223  0.53476800  1.0
  Ni  Ni971  1  0.96562800  0.84272556  0.53476800  1.0
  Ni  Ni972  1  0.15671283  0.23776152  0.84531700  1.0
  Ni  Ni973  1  0.15671283  0.57109485  0.84531700  1.0
  Ni  Ni974  1  0.15671283  0.90442819  0.84531700  1.0
  Ni  Ni975  1  0.49004617  0.23776152  0.84531700  1.0
  Ni  Ni976  1  0.49004617  0.57109485  0.84531700  1.0
  Ni  Ni977  1  0.49004617  0.90442819  0.84531700  1.0
  Ni  Ni978  1  0.82337950  0.23776152  0.84531700  1.0
  Ni  Ni979  1  0.82337950  0.57109485  0.84531700  1.0
  Ni  Ni980  1  0.82337950  0.90442819  0.84531700  1.0
  Ni  Ni981  1  0.32337950  0.19609485  0.84531700  1.0
  Ni  Ni982  1  0.32337950  0.52942819  0.84531700  1.0
  Ni  Ni983  1  0.32337950  0.86276152  0.84531700  1.0
  Ni  Ni984  1  0.65671283  0.19609485  0.84531700  1.0
  Ni  Ni985  1  0.65671283  0.52942819  0.84531700  1.0
  Ni  Ni986  1  0.65671283  0.86276152  0.84531700  1.0
  Ni  Ni987  1  0.99004617  0.19609485  0.84531700  1.0
  Ni  Ni988  1  0.99004617  0.52942819  0.84531700  1.0
  Ni  Ni989  1  0.99004617  0.86276152  0.84531700  1.0
  Ni  Ni990  1  0.22438350  0.17029902  0.59238400  1.0
  Ni  Ni991  1  0.22438350  0.50363235  0.59238400  1.0
  Ni  Ni992  1  0.22438350  0.83696569  0.59238400  1.0
  Ni  Ni993  1  0.55771683  0.17029902  0.59238400  1.0
  Ni  Ni994  1  0.55771683  0.50363235  0.59238400  1.0
  Ni  Ni995  1  0.55771683  0.83696569  0.59238400  1.0
  Ni  Ni996  1  0.89105017  0.17029902  0.59238400  1.0
  Ni  Ni997  1  0.89105017  0.50363235  0.59238400  1.0
  Ni  Ni998  1  0.89105017  0.83696569  0.59238400  1.0
  Ni  Ni999  1  0.05771683  0.21196569  0.59238400  1.0
  Ni  Ni1000  1  0.05771683  0.54529902  0.59238400  1.0
  Ni  Ni1001  1  0.05771683  0.87863235  0.59238400  1.0
  Ni  Ni1002  1  0.39105017  0.21196569  0.59238400  1.0
  Ni  Ni1003  1  0.39105017  0.54529902  0.59238400  1.0
  Ni  Ni1004  1  0.39105017  0.87863235  0.59238400  1.0
  Ni  Ni1005  1  0.72438350  0.21196569  0.59238400  1.0
  Ni  Ni1006  1  0.72438350  0.54529902  0.59238400  1.0
  Ni  Ni1007  1  0.72438350  0.87863235  0.59238400  1.0
  Ni  Ni1008  1  0.18399367  0.18927465  0.34531700  1.0
  Ni  Ni1009  1  0.18399367  0.52260798  0.34531700  1.0
  Ni  Ni1010  1  0.18399367  0.85594131  0.34531700  1.0
  Ni  Ni1011  1  0.51732700  0.18927465  0.34531700  1.0
  Ni  Ni1012  1  0.51732700  0.52260798  0.34531700  1.0
  Ni  Ni1013  1  0.51732700  0.85594131  0.34531700  1.0
  Ni  Ni1014  1  0.85066033  0.18927465  0.34531700  1.0
  Ni  Ni1015  1  0.85066033  0.52260798  0.34531700  1.0
  Ni  Ni1016  1  0.85066033  0.85594131  0.34531700  1.0
  Ni  Ni1017  1  0.01732700  0.23094131  0.34531700  1.0
  Ni  Ni1018  1  0.01732700  0.56427465  0.34531700  1.0
  Ni  Ni1019  1  0.01732700  0.89760798  0.34531700  1.0
  Ni  Ni1020  1  0.35066033  0.23094131  0.34531700  1.0
  Ni  Ni1021  1  0.35066033  0.56427465  0.34531700  1.0
  Ni  Ni1022  1  0.35066033  0.89760798  0.34531700  1.0
  Ni  Ni1023  1  0.68399367  0.23094131  0.34531700  1.0
  Ni  Ni1024  1  0.68399367  0.56427465  0.34531700  1.0
  Ni  Ni1025  1  0.68399367  0.89760798  0.34531700  1.0
  Ni  Ni1026  1  0.04596133  0.22256423  0.03476800  1.0
  Ni  Ni1027  1  0.04596133  0.55589756  0.03476800  1.0
  Ni  Ni1028  1  0.04596133  0.88923090  0.03476800  1.0
  Ni  Ni1029  1  0.37929467  0.22256423  0.03476800  1.0
  Ni  Ni1030  1  0.37929467  0.55589756  0.03476800  1.0
  Ni  Ni1031  1  0.37929467  0.88923090  0.03476800  1.0
  Ni  Ni1032  1  0.71262800  0.22256423  0.03476800  1.0
  Ni  Ni1033  1  0.71262800  0.55589756  0.03476800  1.0
  Ni  Ni1034  1  0.71262800  0.88923090  0.03476800  1.0
  Ni  Ni1035  1  0.21262800  0.18089756  0.03476800  1.0
  Ni  Ni1036  1  0.21262800  0.51423090  0.03476800  1.0
  Ni  Ni1037  1  0.21262800  0.84756423  0.03476800  1.0
  Ni  Ni1038  1  0.54596133  0.18089756  0.03476800  1.0
  Ni  Ni1039  1  0.54596133  0.51423090  0.03476800  1.0
  Ni  Ni1040  1  0.54596133  0.84756423  0.03476800  1.0
  Ni  Ni1041  1  0.87929467  0.18089756  0.03476800  1.0
  Ni  Ni1042  1  0.87929467  0.51423090  0.03476800  1.0
  Ni  Ni1043  1  0.87929467  0.84756423  0.03476800  1.0
  Ni  Ni1044  1  0.08760100  0.17858123  0.28142300  1.0
  Ni  Ni1045  1  0.08760100  0.51191456  0.28142300  1.0
  Ni  Ni1046  1  0.08760100  0.84524790  0.28142300  1.0
  Ni  Ni1047  1  0.42093433  0.17858123  0.28142300  1.0
  Ni  Ni1048  1  0.42093433  0.51191456  0.28142300  1.0
  Ni  Ni1049  1  0.42093433  0.84524790  0.28142300  1.0
  Ni  Ni1050  1  0.75426767  0.17858123  0.28142300  1.0
  Ni  Ni1051  1  0.75426767  0.51191456  0.28142300  1.0
  Ni  Ni1052  1  0.75426767  0.84524790  0.28142300  1.0
  Ni  Ni1053  1  0.25426767  0.22024790  0.28142300  1.0
  Ni  Ni1054  1  0.25426767  0.55358123  0.28142300  1.0
  Ni  Ni1055  1  0.25426767  0.88691456  0.28142300  1.0
  Ni  Ni1056  1  0.58760100  0.22024790  0.28142300  1.0
  Ni  Ni1057  1  0.58760100  0.55358123  0.28142300  1.0
  Ni  Ni1058  1  0.58760100  0.88691456  0.28142300  1.0
  Ni  Ni1059  1  0.92093433  0.22024790  0.28142300  1.0
  Ni  Ni1060  1  0.92093433  0.55358123  0.28142300  1.0
  Ni  Ni1061  1  0.92093433  0.88691456  0.28142300  1.0
  Ni  Ni1062  1  0.24055000  0.21558373  0.53476800  1.0
  Ni  Ni1063  1  0.24055000  0.54891706  0.53476800  1.0
  Ni  Ni1064  1  0.24055000  0.88225040  0.53476800  1.0
  Ni  Ni1065  1  0.57388333  0.21558373  0.53476800  1.0
  Ni  Ni1066  1  0.57388333  0.54891706  0.53476800  1.0
  Ni  Ni1067  1  0.57388333  0.88225040  0.53476800  1.0
  Ni  Ni1068  1  0.90721667  0.21558373  0.53476800  1.0
  Ni  Ni1069  1  0.90721667  0.54891706  0.53476800  1.0
  Ni  Ni1070  1  0.90721667  0.88225040  0.53476800  1.0
  Ni  Ni1071  1  0.07388333  0.17391706  0.53476800  1.0
  Ni  Ni1072  1  0.07388333  0.50725040  0.53476800  1.0
  Ni  Ni1073  1  0.07388333  0.84058373  0.53476800  1.0
  Ni  Ni1074  1  0.40721667  0.17391706  0.53476800  1.0
  Ni  Ni1075  1  0.40721667  0.50725040  0.53476800  1.0
  Ni  Ni1076  1  0.40721667  0.84058373  0.53476800  1.0
  Ni  Ni1077  1  0.74055000  0.17391706  0.53476800  1.0
  Ni  Ni1078  1  0.74055000  0.50725040  0.53476800  1.0
  Ni  Ni1079  1  0.74055000  0.84058373  0.53476800  1.0
  Ni  Ni1080  1  0.18505617  0.24274960  0.34380900  1.0
  Ni  Ni1081  1  0.18505617  0.57608294  0.34380900  1.0
  Ni  Ni1082  1  0.18505617  0.90941627  0.34380900  1.0
  Ni  Ni1083  1  0.51838950  0.24274960  0.34380900  1.0
  Ni  Ni1084  1  0.51838950  0.57608294  0.34380900  1.0
  Ni  Ni1085  1  0.51838950  0.90941627  0.34380900  1.0
  Ni  Ni1086  1  0.85172283  0.24274960  0.34380900  1.0
  Ni  Ni1087  1  0.85172283  0.57608294  0.34380900  1.0
  Ni  Ni1088  1  0.85172283  0.90941627  0.34380900  1.0
  Ni  Ni1089  1  0.01838950  0.20108294  0.34380900  1.0
  Ni  Ni1090  1  0.01838950  0.53441627  0.34380900  1.0
  Ni  Ni1091  1  0.01838950  0.86774960  0.34380900  1.0
  Ni  Ni1092  1  0.35172283  0.20108294  0.34380900  1.0
  Ni  Ni1093  1  0.35172283  0.53441627  0.34380900  1.0
  Ni  Ni1094  1  0.35172283  0.86774960  0.34380900  1.0
  Ni  Ni1095  1  0.68505617  0.20108294  0.34380900  1.0
  Ni  Ni1096  1  0.68505617  0.53441627  0.34380900  1.0
  Ni  Ni1097  1  0.68505617  0.86774960  0.34380900  1.0
  Ni  Ni1098  1  0.12505950  0.22840735  0.34531700  1.0
  Ni  Ni1099  1  0.12505950  0.56174069  0.34531700  1.0
  Ni  Ni1100  1  0.12505950  0.89507402  0.34531700  1.0
  Ni  Ni1101  1  0.45839283  0.22840735  0.34531700  1.0
  Ni  Ni1102  1  0.45839283  0.56174069  0.34531700  1.0
  Ni  Ni1103  1  0.45839283  0.89507402  0.34531700  1.0
  Ni  Ni1104  1  0.79172617  0.22840735  0.34531700  1.0
  Ni  Ni1105  1  0.79172617  0.56174069  0.34531700  1.0
  Ni  Ni1106  1  0.79172617  0.89507402  0.34531700  1.0
  Ni  Ni1107  1  0.29172617  0.18674069  0.34531700  1.0
  Ni  Ni1108  1  0.29172617  0.52007402  0.34531700  1.0
  Ni  Ni1109  1  0.29172617  0.85340735  0.34531700  1.0
  Ni  Ni1110  1  0.62505950  0.18674069  0.34531700  1.0
  Ni  Ni1111  1  0.62505950  0.52007402  0.34531700  1.0
  Ni  Ni1112  1  0.62505950  0.85340735  0.34531700  1.0
  Ni  Ni1113  1  0.95839283  0.18674069  0.34531700  1.0
  Ni  Ni1114  1  0.95839283  0.52007402  0.34531700  1.0
  Ni  Ni1115  1  0.95839283  0.85340735  0.34531700  1.0
  Ni  Ni1116  1  0.10894983  0.18376010  0.40761600  1.0
  Ni  Ni1117  1  0.10894983  0.51709344  0.40761600  1.0
  Ni  Ni1118  1  0.10894983  0.85042677  0.40761600  1.0
  Ni  Ni1119  1  0.44228317  0.18376010  0.40761600  1.0
  Ni  Ni1120  1  0.44228317  0.51709344  0.40761600  1.0
  Ni  Ni1121  1  0.44228317  0.85042677  0.40761600  1.0
  Ni  Ni1122  1  0.77561650  0.18376010  0.40761600  1.0
  Ni  Ni1123  1  0.77561650  0.51709344  0.40761600  1.0
  Ni  Ni1124  1  0.77561650  0.85042677  0.40761600  1.0
  Ni  Ni1125  1  0.27561650  0.22542677  0.40761600  1.0
  Ni  Ni1126  1  0.27561650  0.55876010  0.40761600  1.0
  Ni  Ni1127  1  0.27561650  0.89209344  0.40761600  1.0
  Ni  Ni1128  1  0.60894983  0.22542677  0.40761600  1.0
  Ni  Ni1129  1  0.60894983  0.55876010  0.40761600  1.0
  Ni  Ni1130  1  0.60894983  0.89209344  0.40761600  1.0
  Ni  Ni1131  1  0.94228317  0.22542677  0.40761600  1.0
  Ni  Ni1132  1  0.94228317  0.55876010  0.40761600  1.0
  Ni  Ni1133  1  0.94228317  0.89209344  0.40761600  1.0
  Ni  Ni1134  1  0.10437267  0.18303940  0.03476800  1.0
  Ni  Ni1135  1  0.10437267  0.51637273  0.03476800  1.0
  Ni  Ni1136  1  0.10437267  0.84970606  0.03476800  1.0
  Ni  Ni1137  1  0.43770600  0.18303940  0.03476800  1.0
  Ni  Ni1138  1  0.43770600  0.51637273  0.03476800  1.0
  Ni  Ni1139  1  0.43770600  0.84970606  0.03476800  1.0
  Ni  Ni1140  1  0.77103933  0.18303940  0.03476800  1.0
  Ni  Ni1141  1  0.77103933  0.51637273  0.03476800  1.0
  Ni  Ni1142  1  0.77103933  0.84970606  0.03476800  1.0
  Ni  Ni1143  1  0.27103933  0.22470606  0.03476800  1.0
  Ni  Ni1144  1  0.27103933  0.55803940  0.03476800  1.0
  Ni  Ni1145  1  0.27103933  0.89137273  0.03476800  1.0
  Ni  Ni1146  1  0.60437267  0.22470606  0.03476800  1.0
  Ni  Ni1147  1  0.60437267  0.55803940  0.03476800  1.0
  Ni  Ni1148  1  0.60437267  0.89137273  0.03476800  1.0
  Ni  Ni1149  1  0.93770600  0.22470606  0.03476800  1.0
  Ni  Ni1150  1  0.93770600  0.55803940  0.03476800  1.0
  Ni  Ni1151  1  0.93770600  0.89137273  0.03476800  1.0
  Zn  Zn1152  1  0.15963600  0.29306956  0.22284200  1.0
  Zn  Zn1153  1  0.15963600  0.62640290  0.22284200  1.0
  Zn  Zn1154  1  0.15963600  0.95973623  0.22284200  1.0
  Zn  Zn1155  1  0.49296933  0.29306956  0.22284200  1.0
  Zn  Zn1156  1  0.49296933  0.62640290  0.22284200  1.0
  Zn  Zn1157  1  0.49296933  0.95973623  0.22284200  1.0
  Zn  Zn1158  1  0.82630267  0.29306956  0.22284200  1.0
  Zn  Zn1159  1  0.82630267  0.62640290  0.22284200  1.0
  Zn  Zn1160  1  0.82630267  0.95973623  0.22284200  1.0
  Zn  Zn1161  1  0.32630267  0.25140290  0.22284200  1.0
  Zn  Zn1162  1  0.32630267  0.58473623  0.22284200  1.0
  Zn  Zn1163  1  0.32630267  0.91806956  0.22284200  1.0
  Zn  Zn1164  1  0.65963600  0.25140290  0.22284200  1.0
  Zn  Zn1165  1  0.65963600  0.58473623  0.22284200  1.0
  Zn  Zn1166  1  0.65963600  0.91806956  0.22284200  1.0
  Zn  Zn1167  1  0.99296933  0.25140290  0.22284200  1.0
  Zn  Zn1168  1  0.99296933  0.58473623  0.22284200  1.0
  Zn  Zn1169  1  0.99296933  0.91806956  0.22284200  1.0
  Zn  Zn1170  1  0.11364883  0.31171410  0.60155300  1.0
  Zn  Zn1171  1  0.11364883  0.64504744  0.60155300  1.0
  Zn  Zn1172  1  0.11364883  0.97838077  0.60155300  1.0
  Zn  Zn1173  1  0.44698217  0.31171410  0.60155300  1.0
  Zn  Zn1174  1  0.44698217  0.64504744  0.60155300  1.0
  Zn  Zn1175  1  0.44698217  0.97838077  0.60155300  1.0
  Zn  Zn1176  1  0.78031550  0.31171410  0.60155300  1.0
  Zn  Zn1177  1  0.78031550  0.64504744  0.60155300  1.0
  Zn  Zn1178  1  0.78031550  0.97838077  0.60155300  1.0
  Zn  Zn1179  1  0.28031550  0.27004744  0.60155300  1.0
  Zn  Zn1180  1  0.28031550  0.60338077  0.60155300  1.0
  Zn  Zn1181  1  0.28031550  0.93671410  0.60155300  1.0
  Zn  Zn1182  1  0.61364883  0.27004744  0.60155300  1.0
  Zn  Zn1183  1  0.61364883  0.60338077  0.60155300  1.0
  Zn  Zn1184  1  0.61364883  0.93671410  0.60155300  1.0
  Zn  Zn1185  1  0.94698217  0.27004744  0.60155300  1.0
  Zn  Zn1186  1  0.94698217  0.60338077  0.60155300  1.0
  Zn  Zn1187  1  0.94698217  0.93671410  0.60155300  1.0
  Zn  Zn1188  1  0.09032383  0.32748160  0.07639600  1.0
  Zn  Zn1189  1  0.09032383  0.66081494  0.07639600  1.0
  Zn  Zn1190  1  0.09032383  0.99414827  0.07639600  1.0
  Zn  Zn1191  1  0.42365717  0.32748160  0.07639600  1.0
  Zn  Zn1192  1  0.42365717  0.66081494  0.07639600  1.0
  Zn  Zn1193  1  0.42365717  0.99414827  0.07639600  1.0
  Zn  Zn1194  1  0.75699050  0.32748160  0.07639600  1.0
  Zn  Zn1195  1  0.75699050  0.66081494  0.07639600  1.0
  Zn  Zn1196  1  0.75699050  0.99414827  0.07639600  1.0
  Zn  Zn1197  1  0.25699050  0.28581494  0.07639600  1.0
  Zn  Zn1198  1  0.25699050  0.61914827  0.07639600  1.0
  Zn  Zn1199  1  0.25699050  0.95248160  0.07639600  1.0
  Zn  Zn1200  1  0.59032383  0.28581494  0.07639600  1.0
  Zn  Zn1201  1  0.59032383  0.61914827  0.07639600  1.0
  Zn  Zn1202  1  0.59032383  0.95248160  0.07639600  1.0
  Zn  Zn1203  1  0.92365717  0.28581494  0.07639600  1.0
  Zn  Zn1204  1  0.92365717  0.61914827  0.07639600  1.0
  Zn  Zn1205  1  0.92365717  0.95248160  0.07639600  1.0
  Zn  Zn1206  1  0.02316767  0.26404565  0.11369600  1.0
  Zn  Zn1207  1  0.02316767  0.59737898  0.11369600  1.0
  Zn  Zn1208  1  0.02316767  0.93071231  0.11369600  1.0
  Zn  Zn1209  1  0.35650100  0.26404565  0.11369600  1.0
  Zn  Zn1210  1  0.35650100  0.59737898  0.11369600  1.0
  Zn  Zn1211  1  0.35650100  0.93071231  0.11369600  1.0
  Zn  Zn1212  1  0.68983433  0.26404565  0.11369600  1.0
  Zn  Zn1213  1  0.68983433  0.59737898  0.11369600  1.0
  Zn  Zn1214  1  0.68983433  0.93071231  0.11369600  1.0
  Zn  Zn1215  1  0.18983433  0.30571231  0.11369600  1.0
  Zn  Zn1216  1  0.18983433  0.63904565  0.11369600  1.0
  Zn  Zn1217  1  0.18983433  0.97237898  0.11369600  1.0
  Zn  Zn1218  1  0.52316767  0.30571231  0.11369600  1.0
  Zn  Zn1219  1  0.52316767  0.63904565  0.11369600  1.0
  Zn  Zn1220  1  0.52316767  0.97237898  0.11369600  1.0
  Zn  Zn1221  1  0.85650100  0.30571231  0.11369600  1.0
  Zn  Zn1222  1  0.85650100  0.63904565  0.11369600  1.0
  Zn  Zn1223  1  0.85650100  0.97237898  0.11369600  1.0
  Zn  Zn1224  1  0.23661467  0.31374865  0.70818400  1.0
  Zn  Zn1225  1  0.23661467  0.64708198  0.70818400  1.0
  Zn  Zn1226  1  0.23661467  0.98041531  0.70818400  1.0
  Zn  Zn1227  1  0.56994800  0.31374865  0.70818400  1.0
  Zn  Zn1228  1  0.56994800  0.64708198  0.70818400  1.0
  Zn  Zn1229  1  0.56994800  0.98041531  0.70818400  1.0
  Zn  Zn1230  1  0.90328133  0.31374865  0.70818400  1.0
  Zn  Zn1231  1  0.90328133  0.64708198  0.70818400  1.0
  Zn  Zn1232  1  0.90328133  0.98041531  0.70818400  1.0
  Zn  Zn1233  1  0.06994800  0.27208198  0.70818400  1.0
  Zn  Zn1234  1  0.06994800  0.60541531  0.70818400  1.0
  Zn  Zn1235  1  0.06994800  0.93874865  0.70818400  1.0
  Zn  Zn1236  1  0.40328133  0.27208198  0.70818400  1.0
  Zn  Zn1237  1  0.40328133  0.60541531  0.70818400  1.0
  Zn  Zn1238  1  0.40328133  0.93874865  0.70818400  1.0
  Zn  Zn1239  1  0.73661467  0.27208198  0.70818400  1.0
  Zn  Zn1240  1  0.73661467  0.60541531  0.70818400  1.0
  Zn  Zn1241  1  0.73661467  0.93874865  0.70818400  1.0
  Zn  Zn1242  1  0.06574933  0.27279123  0.34638800  1.0
  Zn  Zn1243  1  0.06574933  0.60612456  0.34638800  1.0
  Zn  Zn1244  1  0.06574933  0.93945790  0.34638800  1.0
  Zn  Zn1245  1  0.39908267  0.27279123  0.34638800  1.0
  Zn  Zn1246  1  0.39908267  0.60612456  0.34638800  1.0
  Zn  Zn1247  1  0.39908267  0.93945790  0.34638800  1.0
  Zn  Zn1248  1  0.73241600  0.27279123  0.34638800  1.0
  Zn  Zn1249  1  0.73241600  0.60612456  0.34638800  1.0
  Zn  Zn1250  1  0.73241600  0.93945790  0.34638800  1.0
  Zn  Zn1251  1  0.23241600  0.31445790  0.34638800  1.0
  Zn  Zn1252  1  0.23241600  0.64779123  0.34638800  1.0
  Zn  Zn1253  1  0.23241600  0.98112456  0.34638800  1.0
  Zn  Zn1254  1  0.56574933  0.31445790  0.34638800  1.0
  Zn  Zn1255  1  0.56574933  0.64779123  0.34638800  1.0
  Zn  Zn1256  1  0.56574933  0.98112456  0.34638800  1.0
  Zn  Zn1257  1  0.89908267  0.31445790  0.34638800  1.0
  Zn  Zn1258  1  0.89908267  0.64779123  0.34638800  1.0
  Zn  Zn1259  1  0.89908267  0.98112456  0.34638800  1.0
  Zn  Zn1260  1  0.12792950  0.28906035  0.72815800  1.0
  Zn  Zn1261  1  0.12792950  0.62239369  0.72815800  1.0
  Zn  Zn1262  1  0.12792950  0.95572702  0.72815800  1.0
  Zn  Zn1263  1  0.46126283  0.28906035  0.72815800  1.0
  Zn  Zn1264  1  0.46126283  0.62239369  0.72815800  1.0
  Zn  Zn1265  1  0.46126283  0.95572702  0.72815800  1.0
  Zn  Zn1266  1  0.79459617  0.28906035  0.72815800  1.0
  Zn  Zn1267  1  0.79459617  0.62239369  0.72815800  1.0
  Zn  Zn1268  1  0.79459617  0.95572702  0.72815800  1.0
  Zn  Zn1269  1  0.29459617  0.33072702  0.72815800  1.0
  Zn  Zn1270  1  0.29459617  0.66406035  0.72815800  1.0
  Zn  Zn1271  1  0.29459617  0.99739369  0.72815800  1.0
  Zn  Zn1272  1  0.62792950  0.33072702  0.72815800  1.0
  Zn  Zn1273  1  0.62792950  0.66406035  0.72815800  1.0
  Zn  Zn1274  1  0.62792950  0.99739369  0.72815800  1.0
  Zn  Zn1275  1  0.96126283  0.33072702  0.72815800  1.0
  Zn  Zn1276  1  0.96126283  0.66406035  0.72815800  1.0
  Zn  Zn1277  1  0.96126283  0.99739369  0.72815800  1.0
  Zn  Zn1278  1  0.15169767  0.31451548  0.47656300  1.0
  Zn  Zn1279  1  0.15169767  0.64784881  0.47656300  1.0
  Zn  Zn1280  1  0.15169767  0.98118215  0.47656300  1.0
  Zn  Zn1281  1  0.48503100  0.31451548  0.47656300  1.0
  Zn  Zn1282  1  0.48503100  0.64784881  0.47656300  1.0
  Zn  Zn1283  1  0.48503100  0.98118215  0.47656300  1.0
  Zn  Zn1284  1  0.81836433  0.31451548  0.47656300  1.0
  Zn  Zn1285  1  0.81836433  0.64784881  0.47656300  1.0
  Zn  Zn1286  1  0.81836433  0.98118215  0.47656300  1.0
  Zn  Zn1287  1  0.31836433  0.27284881  0.47656300  1.0
  Zn  Zn1288  1  0.31836433  0.60618215  0.47656300  1.0
  Zn  Zn1289  1  0.31836433  0.93951548  0.47656300  1.0
  Zn  Zn1290  1  0.65169767  0.27284881  0.47656300  1.0
  Zn  Zn1291  1  0.65169767  0.60618215  0.47656300  1.0
  Zn  Zn1292  1  0.65169767  0.93951548  0.47656300  1.0
  Zn  Zn1293  1  0.98503100  0.27284881  0.47656300  1.0
  Zn  Zn1294  1  0.98503100  0.60618215  0.47656300  1.0
  Zn  Zn1295  1  0.98503100  0.93951548  0.47656300  1.0
  Zn  Zn1296  1  0.14652400  0.31037615  0.28028200  1.0
  Zn  Zn1297  1  0.14652400  0.64370948  0.28028200  1.0
  Zn  Zn1298  1  0.14652400  0.97704281  0.28028200  1.0
  Zn  Zn1299  1  0.47985733  0.31037615  0.28028200  1.0
  Zn  Zn1300  1  0.47985733  0.64370948  0.28028200  1.0
  Zn  Zn1301  1  0.47985733  0.97704281  0.28028200  1.0
  Zn  Zn1302  1  0.81319067  0.31037615  0.28028200  1.0
  Zn  Zn1303  1  0.81319067  0.64370948  0.28028200  1.0
  Zn  Zn1304  1  0.81319067  0.97704281  0.28028200  1.0
  Zn  Zn1305  1  0.31319067  0.26870948  0.28028200  1.0
  Zn  Zn1306  1  0.31319067  0.60204281  0.28028200  1.0
  Zn  Zn1307  1  0.31319067  0.93537615  0.28028200  1.0
  Zn  Zn1308  1  0.64652400  0.26870948  0.28028200  1.0
  Zn  Zn1309  1  0.64652400  0.60204281  0.28028200  1.0
  Zn  Zn1310  1  0.64652400  0.93537615  0.28028200  1.0
  Zn  Zn1311  1  0.97985733  0.26870948  0.28028200  1.0
  Zn  Zn1312  1  0.97985733  0.60204281  0.28028200  1.0
  Zn  Zn1313  1  0.97985733  0.93537615  0.28028200  1.0
  Zn  Zn1314  1  0.24427067  0.27243906  0.65401100  1.0
  Zn  Zn1315  1  0.24427067  0.60577240  0.65401100  1.0
  Zn  Zn1316  1  0.24427067  0.93910573  0.65401100  1.0
  Zn  Zn1317  1  0.57760400  0.27243906  0.65401100  1.0
  Zn  Zn1318  1  0.57760400  0.60577240  0.65401100  1.0
  Zn  Zn1319  1  0.57760400  0.93910573  0.65401100  1.0
  Zn  Zn1320  1  0.91093733  0.27243906  0.65401100  1.0
  Zn  Zn1321  1  0.91093733  0.60577240  0.65401100  1.0
  Zn  Zn1322  1  0.91093733  0.93910573  0.65401100  1.0
  Zn  Zn1323  1  0.07760400  0.31410573  0.65401100  1.0
  Zn  Zn1324  1  0.07760400  0.64743906  0.65401100  1.0
  Zn  Zn1325  1  0.07760400  0.98077240  0.65401100  1.0
  Zn  Zn1326  1  0.41093733  0.31410573  0.65401100  1.0
  Zn  Zn1327  1  0.41093733  0.64743906  0.65401100  1.0
  Zn  Zn1328  1  0.41093733  0.98077240  0.65401100  1.0
  Zn  Zn1329  1  0.74427067  0.31410573  0.65401100  1.0
  Zn  Zn1330  1  0.74427067  0.64743906  0.65401100  1.0
  Zn  Zn1331  1  0.74427067  0.98077240  0.65401100  1.0
  Zn  Zn1332  1  0.30508567  0.31393081  0.91421600  1.0
  Zn  Zn1333  1  0.30508567  0.64726415  0.91421600  1.0
  Zn  Zn1334  1  0.30508567  0.98059748  0.91421600  1.0
  Zn  Zn1335  1  0.63841900  0.31393081  0.91421600  1.0
  Zn  Zn1336  1  0.63841900  0.64726415  0.91421600  1.0
  Zn  Zn1337  1  0.63841900  0.98059748  0.91421600  1.0
  Zn  Zn1338  1  0.97175233  0.31393081  0.91421600  1.0
  Zn  Zn1339  1  0.97175233  0.64726415  0.91421600  1.0
  Zn  Zn1340  1  0.97175233  0.98059748  0.91421600  1.0
  Zn  Zn1341  1  0.13841900  0.27226415  0.91421600  1.0
  Zn  Zn1342  1  0.13841900  0.60559748  0.91421600  1.0
  Zn  Zn1343  1  0.13841900  0.93893081  0.91421600  1.0
  Zn  Zn1344  1  0.47175233  0.27226415  0.91421600  1.0
  Zn  Zn1345  1  0.47175233  0.60559748  0.91421600  1.0
  Zn  Zn1346  1  0.47175233  0.93893081  0.91421600  1.0
  Zn  Zn1347  1  0.80508567  0.27226415  0.91421600  1.0
  Zn  Zn1348  1  0.80508567  0.60559748  0.91421600  1.0
  Zn  Zn1349  1  0.80508567  0.93893081  0.91421600  1.0
  Zn  Zn1350  1  0.05478317  0.27959010  0.02343700  1.0
  Zn  Zn1351  1  0.05478317  0.61292344  0.02343700  1.0
  Zn  Zn1352  1  0.05478317  0.94625677  0.02343700  1.0
  Zn  Zn1353  1  0.38811650  0.27959010  0.02343700  1.0
  Zn  Zn1354  1  0.38811650  0.61292344  0.02343700  1.0
  Zn  Zn1355  1  0.38811650  0.94625677  0.02343700  1.0
  Zn  Zn1356  1  0.72144983  0.27959010  0.02343700  1.0
  Zn  Zn1357  1  0.72144983  0.61292344  0.02343700  1.0
  Zn  Zn1358  1  0.72144983  0.94625677  0.02343700  1.0
  Zn  Zn1359  1  0.22144983  0.32125677  0.02343700  1.0
  Zn  Zn1360  1  0.22144983  0.65459010  0.02343700  1.0
  Zn  Zn1361  1  0.22144983  0.98792344  0.02343700  1.0
  Zn  Zn1362  1  0.55478317  0.32125677  0.02343700  1.0
  Zn  Zn1363  1  0.55478317  0.65459010  0.02343700  1.0
  Zn  Zn1364  1  0.55478317  0.98792344  0.02343700  1.0
  Zn  Zn1365  1  0.88811650  0.32125677  0.02343700  1.0
  Zn  Zn1366  1  0.88811650  0.65459010  0.02343700  1.0
  Zn  Zn1367  1  0.88811650  0.98792344  0.02343700  1.0
  Zn  Zn1368  1  0.25000000  0.32286290  0.50000000  1.0
  Zn  Zn1369  1  0.25000000  0.65619623  0.50000000  1.0
  Zn  Zn1370  1  0.25000000  0.98952956  0.50000000  1.0
  Zn  Zn1371  1  0.58333333  0.32286290  0.50000000  1.0
  Zn  Zn1372  1  0.58333333  0.65619623  0.50000000  1.0
  Zn  Zn1373  1  0.58333333  0.98952956  0.50000000  1.0
  Zn  Zn1374  1  0.91666667  0.32286290  0.50000000  1.0
  Zn  Zn1375  1  0.91666667  0.65619623  0.50000000  1.0
  Zn  Zn1376  1  0.91666667  0.98952956  0.50000000  1.0
  Zn  Zn1377  1  0.08333333  0.28119623  0.50000000  1.0
  Zn  Zn1378  1  0.08333333  0.61452956  0.50000000  1.0
  Zn  Zn1379  1  0.08333333  0.94786290  0.50000000  1.0
  Zn  Zn1380  1  0.41666667  0.28119623  0.50000000  1.0
  Zn  Zn1381  1  0.41666667  0.61452956  0.50000000  1.0
  Zn  Zn1382  1  0.41666667  0.94786290  0.50000000  1.0
  Zn  Zn1383  1  0.75000000  0.28119623  0.50000000  1.0
  Zn  Zn1384  1  0.75000000  0.61452956  0.50000000  1.0
  Zn  Zn1385  1  0.75000000  0.94786290  0.50000000  1.0
  Zn  Zn1386  1  0.11920033  0.27456906  0.15734400  1.0
  Zn  Zn1387  1  0.11920033  0.60790240  0.15734400  1.0
  Zn  Zn1388  1  0.11920033  0.94123573  0.15734400  1.0
  Zn  Zn1389  1  0.45253367  0.27456906  0.15734400  1.0
  Zn  Zn1390  1  0.45253367  0.60790240  0.15734400  1.0
  Zn  Zn1391  1  0.45253367  0.94123573  0.15734400  1.0
  Zn  Zn1392  1  0.78586700  0.27456906  0.15734400  1.0
  Zn  Zn1393  1  0.78586700  0.60790240  0.15734400  1.0
  Zn  Zn1394  1  0.78586700  0.94123573  0.15734400  1.0
  Zn  Zn1395  1  0.28586700  0.31623573  0.15734400  1.0
  Zn  Zn1396  1  0.28586700  0.64956906  0.15734400  1.0
  Zn  Zn1397  1  0.28586700  0.98290240  0.15734400  1.0
  Zn  Zn1398  1  0.61920033  0.31623573  0.15734400  1.0
  Zn  Zn1399  1  0.61920033  0.64956906  0.15734400  1.0
  Zn  Zn1400  1  0.61920033  0.98290240  0.15734400  1.0
  Zn  Zn1401  1  0.95253367  0.31623573  0.15734400  1.0
  Zn  Zn1402  1  0.95253367  0.64956906  0.15734400  1.0
  Zn  Zn1403  1  0.95253367  0.98290240  0.15734400  1.0
  Zn  Zn1404  1  0.10649483  0.30461194  0.20818400  1.0
  Zn  Zn1405  1  0.10649483  0.63794527  0.20818400  1.0
  Zn  Zn1406  1  0.10649483  0.97127860  0.20818400  1.0
  Zn  Zn1407  1  0.43982817  0.30461194  0.20818400  1.0
  Zn  Zn1408  1  0.43982817  0.63794527  0.20818400  1.0
  Zn  Zn1409  1  0.43982817  0.97127860  0.20818400  1.0
  Zn  Zn1410  1  0.77316150  0.30461194  0.20818400  1.0
  Zn  Zn1411  1  0.77316150  0.63794527  0.20818400  1.0
  Zn  Zn1412  1  0.77316150  0.97127860  0.20818400  1.0
  Zn  Zn1413  1  0.27316150  0.26294527  0.20818400  1.0
  Zn  Zn1414  1  0.27316150  0.59627860  0.20818400  1.0
  Zn  Zn1415  1  0.27316150  0.92961194  0.20818400  1.0
  Zn  Zn1416  1  0.60649483  0.26294527  0.20818400  1.0
  Zn  Zn1417  1  0.60649483  0.59627860  0.20818400  1.0
  Zn  Zn1418  1  0.60649483  0.92961194  0.20818400  1.0
  Zn  Zn1419  1  0.93982817  0.26294527  0.20818400  1.0
  Zn  Zn1420  1  0.93982817  0.59627860  0.20818400  1.0
  Zn  Zn1421  1  0.93982817  0.92961194  0.20818400  1.0
  Zn  Zn1422  1  0.07613700  0.26985065  0.09173700  1.0
  Zn  Zn1423  1  0.07613700  0.60318398  0.09173700  1.0
  Zn  Zn1424  1  0.07613700  0.93651731  0.09173700  1.0
  Zn  Zn1425  1  0.40947033  0.26985065  0.09173700  1.0
  Zn  Zn1426  1  0.40947033  0.60318398  0.09173700  1.0
  Zn  Zn1427  1  0.40947033  0.93651731  0.09173700  1.0
  Zn  Zn1428  1  0.74280367  0.26985065  0.09173700  1.0
  Zn  Zn1429  1  0.74280367  0.60318398  0.09173700  1.0
  Zn  Zn1430  1  0.74280367  0.93651731  0.09173700  1.0
  Zn  Zn1431  1  0.24280367  0.31151731  0.09173700  1.0
  Zn  Zn1432  1  0.24280367  0.64485065  0.09173700  1.0
  Zn  Zn1433  1  0.24280367  0.97818398  0.09173700  1.0
  Zn  Zn1434  1  0.57613700  0.31151731  0.09173700  1.0
  Zn  Zn1435  1  0.57613700  0.64485065  0.09173700  1.0
  Zn  Zn1436  1  0.57613700  0.97818398  0.09173700  1.0
  Zn  Zn1437  1  0.90947033  0.31151731  0.09173700  1.0
  Zn  Zn1438  1  0.90947033  0.64485065  0.09173700  1.0
  Zn  Zn1439  1  0.90947033  0.97818398  0.09173700  1.0
  Zn  Zn1440  1  0.23152517  0.32111527  0.42360400  1.0
  Zn  Zn1441  1  0.23152517  0.65444860  0.42360400  1.0
  Zn  Zn1442  1  0.23152517  0.98778194  0.42360400  1.0
  Zn  Zn1443  1  0.56485850  0.32111527  0.42360400  1.0
  Zn  Zn1444  1  0.56485850  0.65444860  0.42360400  1.0
  Zn  Zn1445  1  0.56485850  0.98778194  0.42360400  1.0
  Zn  Zn1446  1  0.89819183  0.32111527  0.42360400  1.0
  Zn  Zn1447  1  0.89819183  0.65444860  0.42360400  1.0
  Zn  Zn1448  1  0.89819183  0.98778194  0.42360400  1.0
  Zn  Zn1449  1  0.06485850  0.27944860  0.42360400  1.0
  Zn  Zn1450  1  0.06485850  0.61278194  0.42360400  1.0
  Zn  Zn1451  1  0.06485850  0.94611527  0.42360400  1.0
  Zn  Zn1452  1  0.39819183  0.27944860  0.42360400  1.0
  Zn  Zn1453  1  0.39819183  0.61278194  0.42360400  1.0
  Zn  Zn1454  1  0.39819183  0.94611527  0.42360400  1.0
  Zn  Zn1455  1  0.73152517  0.27944860  0.42360400  1.0
  Zn  Zn1456  1  0.73152517  0.61278194  0.42360400  1.0
  Zn  Zn1457  1  0.73152517  0.94611527  0.42360400  1.0
  Zn  Zn1458  1  0.08686883  0.30080777  0.10155300  1.0
  Zn  Zn1459  1  0.08686883  0.63414110  0.10155300  1.0
  Zn  Zn1460  1  0.08686883  0.96747444  0.10155300  1.0
  Zn  Zn1461  1  0.42020217  0.30080777  0.10155300  1.0
  Zn  Zn1462  1  0.42020217  0.63414110  0.10155300  1.0
  Zn  Zn1463  1  0.42020217  0.96747444  0.10155300  1.0
  Zn  Zn1464  1  0.75353550  0.30080777  0.10155300  1.0
  Zn  Zn1465  1  0.75353550  0.63414110  0.10155300  1.0
  Zn  Zn1466  1  0.75353550  0.96747444  0.10155300  1.0
  Zn  Zn1467  1  0.25353550  0.25914110  0.10155300  1.0
  Zn  Zn1468  1  0.25353550  0.59247444  0.10155300  1.0
  Zn  Zn1469  1  0.25353550  0.92580777  0.10155300  1.0
  Zn  Zn1470  1  0.58686883  0.25914110  0.10155300  1.0
  Zn  Zn1471  1  0.58686883  0.59247444  0.10155300  1.0
  Zn  Zn1472  1  0.58686883  0.92580777  0.10155300  1.0
  Zn  Zn1473  1  0.92020217  0.25914110  0.10155300  1.0
  Zn  Zn1474  1  0.92020217  0.59247444  0.10155300  1.0
  Zn  Zn1475  1  0.92020217  0.92580777  0.10155300  1.0
  Zn  Zn1476  1  0.28178833  0.30872448  0.77715800  1.0
  Zn  Zn1477  1  0.28178833  0.64205781  0.77715800  1.0
  Zn  Zn1478  1  0.28178833  0.97539115  0.77715800  1.0
  Zn  Zn1479  1  0.61512167  0.30872448  0.77715800  1.0
  Zn  Zn1480  1  0.61512167  0.64205781  0.77715800  1.0
  Zn  Zn1481  1  0.61512167  0.97539115  0.77715800  1.0
  Zn  Zn1482  1  0.94845500  0.30872448  0.77715800  1.0
  Zn  Zn1483  1  0.94845500  0.64205781  0.77715800  1.0
  Zn  Zn1484  1  0.94845500  0.97539115  0.77715800  1.0
  Zn  Zn1485  1  0.11512167  0.26705781  0.77715800  1.0
  Zn  Zn1486  1  0.11512167  0.60039115  0.77715800  1.0
  Zn  Zn1487  1  0.11512167  0.93372448  0.77715800  1.0
  Zn  Zn1488  1  0.44845500  0.26705781  0.77715800  1.0
  Zn  Zn1489  1  0.44845500  0.60039115  0.77715800  1.0
  Zn  Zn1490  1  0.44845500  0.93372448  0.77715800  1.0
  Zn  Zn1491  1  0.78178833  0.26705781  0.77715800  1.0
  Zn  Zn1492  1  0.78178833  0.60039115  0.77715800  1.0
  Zn  Zn1493  1  0.78178833  0.93372448  0.77715800  1.0
  Zn  Zn1494  1  0.13555700  0.28727698  0.08578400  1.0
  Zn  Zn1495  1  0.13555700  0.62061031  0.08578400  1.0
  Zn  Zn1496  1  0.13555700  0.95394365  0.08578400  1.0
  Zn  Zn1497  1  0.46889033  0.28727698  0.08578400  1.0
  Zn  Zn1498  1  0.46889033  0.62061031  0.08578400  1.0
  Zn  Zn1499  1  0.46889033  0.95394365  0.08578400  1.0
  Zn  Zn1500  1  0.80222367  0.28727698  0.08578400  1.0
  Zn  Zn1501  1  0.80222367  0.62061031  0.08578400  1.0
  Zn  Zn1502  1  0.80222367  0.95394365  0.08578400  1.0
  Zn  Zn1503  1  0.30222367  0.32894365  0.08578400  1.0
  Zn  Zn1504  1  0.30222367  0.66227698  0.08578400  1.0
  Zn  Zn1505  1  0.30222367  0.99561031  0.08578400  1.0
  Zn  Zn1506  1  0.63555700  0.32894365  0.08578400  1.0
  Zn  Zn1507  1  0.63555700  0.66227698  0.08578400  1.0
  Zn  Zn1508  1  0.63555700  0.99561031  0.08578400  1.0
  Zn  Zn1509  1  0.96889033  0.32894365  0.08578400  1.0
  Zn  Zn1510  1  0.96889033  0.66227698  0.08578400  1.0
  Zn  Zn1511  1  0.96889033  0.99561031  0.08578400  1.0
  Zn  Zn1512  1  0.17382333  0.32925723  0.97656300  1.0
  Zn  Zn1513  1  0.17382333  0.66259056  0.97656300  1.0
  Zn  Zn1514  1  0.17382333  0.99592390  0.97656300  1.0
  Zn  Zn1515  1  0.50715667  0.32925723  0.97656300  1.0
  Zn  Zn1516  1  0.50715667  0.66259056  0.97656300  1.0
  Zn  Zn1517  1  0.50715667  0.99592390  0.97656300  1.0
  Zn  Zn1518  1  0.84049000  0.32925723  0.97656300  1.0
  Zn  Zn1519  1  0.84049000  0.66259056  0.97656300  1.0
  Zn  Zn1520  1  0.84049000  0.99592390  0.97656300  1.0
  Zn  Zn1521  1  0.00715667  0.28759056  0.97656300  1.0
  Zn  Zn1522  1  0.00715667  0.62092390  0.97656300  1.0
  Zn  Zn1523  1  0.00715667  0.95425723  0.97656300  1.0
  Zn  Zn1524  1  0.34049000  0.28759056  0.97656300  1.0
  Zn  Zn1525  1  0.34049000  0.62092390  0.97656300  1.0
  Zn  Zn1526  1  0.34049000  0.95425723  0.97656300  1.0
  Zn  Zn1527  1  0.67382333  0.28759056  0.97656300  1.0
  Zn  Zn1528  1  0.67382333  0.62092390  0.97656300  1.0
  Zn  Zn1529  1  0.67382333  0.95425723  0.97656300  1.0
  Zn  Zn1530  1  0.18105183  0.25976594  0.53599200  1.0
  Zn  Zn1531  1  0.18105183  0.59309927  0.53599200  1.0
  Zn  Zn1532  1  0.18105183  0.92643260  0.53599200  1.0
  Zn  Zn1533  1  0.51438517  0.25976594  0.53599200  1.0
  Zn  Zn1534  1  0.51438517  0.59309927  0.53599200  1.0
  Zn  Zn1535  1  0.51438517  0.92643260  0.53599200  1.0
  Zn  Zn1536  1  0.84771850  0.25976594  0.53599200  1.0
  Zn  Zn1537  1  0.84771850  0.59309927  0.53599200  1.0
  Zn  Zn1538  1  0.84771850  0.92643260  0.53599200  1.0
  Zn  Zn1539  1  0.01438517  0.30143260  0.53599200  1.0
  Zn  Zn1540  1  0.01438517  0.63476594  0.53599200  1.0
  Zn  Zn1541  1  0.01438517  0.96809927  0.53599200  1.0
  Zn  Zn1542  1  0.34771850  0.30143260  0.53599200  1.0
  Zn  Zn1543  1  0.34771850  0.63476594  0.53599200  1.0
  Zn  Zn1544  1  0.34771850  0.96809927  0.53599200  1.0
  Zn  Zn1545  1  0.68105183  0.30143260  0.53599200  1.0
  Zn  Zn1546  1  0.68105183  0.63476594  0.53599200  1.0
  Zn  Zn1547  1  0.68105183  0.96809927  0.53599200  1.0
  Zn  Zn1548  1  0.26758400  0.33126790  0.65361200  1.0
  Zn  Zn1549  1  0.26758400  0.66460123  0.65361200  1.0
  Zn  Zn1550  1  0.26758400  0.99793456  0.65361200  1.0
  Zn  Zn1551  1  0.60091733  0.33126790  0.65361200  1.0
  Zn  Zn1552  1  0.60091733  0.66460123  0.65361200  1.0
  Zn  Zn1553  1  0.60091733  0.99793456  0.65361200  1.0
  Zn  Zn1554  1  0.93425067  0.33126790  0.65361200  1.0
  Zn  Zn1555  1  0.93425067  0.66460123  0.65361200  1.0
  Zn  Zn1556  1  0.93425067  0.99793456  0.65361200  1.0
  Zn  Zn1557  1  0.10091733  0.28960123  0.65361200  1.0
  Zn  Zn1558  1  0.10091733  0.62293456  0.65361200  1.0
  Zn  Zn1559  1  0.10091733  0.95626790  0.65361200  1.0
  Zn  Zn1560  1  0.43425067  0.28960123  0.65361200  1.0
  Zn  Zn1561  1  0.43425067  0.62293456  0.65361200  1.0
  Zn  Zn1562  1  0.43425067  0.95626790  0.65361200  1.0
  Zn  Zn1563  1  0.76758400  0.28960123  0.65361200  1.0
  Zn  Zn1564  1  0.76758400  0.62293456  0.65361200  1.0
  Zn  Zn1565  1  0.76758400  0.95626790  0.65361200  1.0
  Zn  Zn1566  1  0.10696233  0.32179498  0.41421600  1.0
  Zn  Zn1567  1  0.10696233  0.65512831  0.41421600  1.0
  Zn  Zn1568  1  0.10696233  0.98846165  0.41421600  1.0
  Zn  Zn1569  1  0.44029567  0.32179498  0.41421600  1.0
  Zn  Zn1570  1  0.44029567  0.65512831  0.41421600  1.0
  Zn  Zn1571  1  0.44029567  0.98846165  0.41421600  1.0
  Zn  Zn1572  1  0.77362900  0.32179498  0.41421600  1.0
  Zn  Zn1573  1  0.77362900  0.65512831  0.41421600  1.0
  Zn  Zn1574  1  0.77362900  0.98846165  0.41421600  1.0
  Zn  Zn1575  1  0.27362900  0.28012831  0.41421600  1.0
  Zn  Zn1576  1  0.27362900  0.61346165  0.41421600  1.0
  Zn  Zn1577  1  0.27362900  0.94679498  0.41421600  1.0
  Zn  Zn1578  1  0.60696233  0.28012831  0.41421600  1.0
  Zn  Zn1579  1  0.60696233  0.61346165  0.41421600  1.0
  Zn  Zn1580  1  0.60696233  0.94679498  0.41421600  1.0
  Zn  Zn1581  1  0.94029567  0.28012831  0.41421600  1.0
  Zn  Zn1582  1  0.94029567  0.61346165  0.41421600  1.0
  Zn  Zn1583  1  0.94029567  0.94679498  0.41421600  1.0
  Zn  Zn1584  1  0.11478983  0.25067860  0.22815800  1.0
  Zn  Zn1585  1  0.11478983  0.58401194  0.22815800  1.0
  Zn  Zn1586  1  0.11478983  0.91734527  0.22815800  1.0
  Zn  Zn1587  1  0.44812317  0.25067860  0.22815800  1.0
  Zn  Zn1588  1  0.44812317  0.58401194  0.22815800  1.0
  Zn  Zn1589  1  0.44812317  0.91734527  0.22815800  1.0
  Zn  Zn1590  1  0.78145650  0.25067860  0.22815800  1.0
  Zn  Zn1591  1  0.78145650  0.58401194  0.22815800  1.0
  Zn  Zn1592  1  0.78145650  0.91734527  0.22815800  1.0
  Zn  Zn1593  1  0.28145650  0.29234527  0.22815800  1.0
  Zn  Zn1594  1  0.28145650  0.62567860  0.22815800  1.0
  Zn  Zn1595  1  0.28145650  0.95901194  0.22815800  1.0
  Zn  Zn1596  1  0.61478983  0.29234527  0.22815800  1.0
  Zn  Zn1597  1  0.61478983  0.62567860  0.22815800  1.0
  Zn  Zn1598  1  0.61478983  0.95901194  0.22815800  1.0
  Zn  Zn1599  1  0.94812317  0.29234527  0.22815800  1.0
  Zn  Zn1600  1  0.94812317  0.62567860  0.22815800  1.0
  Zn  Zn1601  1  0.94812317  0.95901194  0.22815800  1.0
  Zn  Zn1602  1  0.18719650  0.25880035  0.89844700  1.0
  Zn  Zn1603  1  0.18719650  0.59213369  0.89844700  1.0
  Zn  Zn1604  1  0.18719650  0.92546702  0.89844700  1.0
  Zn  Zn1605  1  0.52052983  0.25880035  0.89844700  1.0
  Zn  Zn1606  1  0.52052983  0.59213369  0.89844700  1.0
  Zn  Zn1607  1  0.52052983  0.92546702  0.89844700  1.0
  Zn  Zn1608  1  0.85386317  0.25880035  0.89844700  1.0
  Zn  Zn1609  1  0.85386317  0.59213369  0.89844700  1.0
  Zn  Zn1610  1  0.85386317  0.92546702  0.89844700  1.0
  Zn  Zn1611  1  0.02052983  0.30046702  0.89844700  1.0
  Zn  Zn1612  1  0.02052983  0.63380035  0.89844700  1.0
  Zn  Zn1613  1  0.02052983  0.96713369  0.89844700  1.0
  Zn  Zn1614  1  0.35386317  0.30046702  0.89844700  1.0
  Zn  Zn1615  1  0.35386317  0.63380035  0.89844700  1.0
  Zn  Zn1616  1  0.35386317  0.96713369  0.89844700  1.0
  Zn  Zn1617  1  0.68719650  0.30046702  0.89844700  1.0
  Zn  Zn1618  1  0.68719650  0.63380035  0.89844700  1.0
  Zn  Zn1619  1  0.68719650  0.96713369  0.89844700  1.0
  Zn  Zn1620  1  0.12956650  0.31679585  0.70818400  1.0
  Zn  Zn1621  1  0.12956650  0.65012919  0.70818400  1.0
  Zn  Zn1622  1  0.12956650  0.98346252  0.70818400  1.0
  Zn  Zn1623  1  0.46289983  0.31679585  0.70818400  1.0
  Zn  Zn1624  1  0.46289983  0.65012919  0.70818400  1.0
  Zn  Zn1625  1  0.46289983  0.98346252  0.70818400  1.0
  Zn  Zn1626  1  0.79623317  0.31679585  0.70818400  1.0
  Zn  Zn1627  1  0.79623317  0.65012919  0.70818400  1.0
  Zn  Zn1628  1  0.79623317  0.98346252  0.70818400  1.0
  Zn  Zn1629  1  0.29623317  0.27512919  0.70818400  1.0
  Zn  Zn1630  1  0.29623317  0.60846252  0.70818400  1.0
  Zn  Zn1631  1  0.29623317  0.94179585  0.70818400  1.0
  Zn  Zn1632  1  0.62956650  0.27512919  0.70818400  1.0
  Zn  Zn1633  1  0.62956650  0.60846252  0.70818400  1.0
  Zn  Zn1634  1  0.62956650  0.94179585  0.70818400  1.0
  Zn  Zn1635  1  0.96289983  0.27512919  0.70818400  1.0
  Zn  Zn1636  1  0.96289983  0.60846252  0.70818400  1.0
  Zn  Zn1637  1  0.96289983  0.94179585  0.70818400  1.0
  Zn  Zn1638  1  0.16905450  0.29843327  0.96400800  1.0
  Zn  Zn1639  1  0.16905450  0.63176660  0.96400800  1.0
  Zn  Zn1640  1  0.16905450  0.96509994  0.96400800  1.0
  Zn  Zn1641  1  0.50238783  0.29843327  0.96400800  1.0
  Zn  Zn1642  1  0.50238783  0.63176660  0.96400800  1.0
  Zn  Zn1643  1  0.50238783  0.96509994  0.96400800  1.0
  Zn  Zn1644  1  0.83572117  0.29843327  0.96400800  1.0
  Zn  Zn1645  1  0.83572117  0.63176660  0.96400800  1.0
  Zn  Zn1646  1  0.83572117  0.96509994  0.96400800  1.0
  Zn  Zn1647  1  0.00238783  0.25676660  0.96400800  1.0
  Zn  Zn1648  1  0.00238783  0.59009994  0.96400800  1.0
  Zn  Zn1649  1  0.00238783  0.92343327  0.96400800  1.0
  Zn  Zn1650  1  0.33572117  0.25676660  0.96400800  1.0
  Zn  Zn1651  1  0.33572117  0.59009994  0.96400800  1.0
  Zn  Zn1652  1  0.33572117  0.92343327  0.96400800  1.0
  Zn  Zn1653  1  0.66905450  0.25676660  0.96400800  1.0
  Zn  Zn1654  1  0.66905450  0.59009994  0.96400800  1.0
  Zn  Zn1655  1  0.66905450  0.92343327  0.96400800  1.0
  Zn  Zn1656  1  0.09318850  0.27542152  0.21971800  1.0
  Zn  Zn1657  1  0.09318850  0.60875485  0.21971800  1.0
  Zn  Zn1658  1  0.09318850  0.94208819  0.21971800  1.0
  Zn  Zn1659  1  0.42652183  0.27542152  0.21971800  1.0
  Zn  Zn1660  1  0.42652183  0.60875485  0.21971800  1.0
  Zn  Zn1661  1  0.42652183  0.94208819  0.21971800  1.0
  Zn  Zn1662  1  0.75985517  0.27542152  0.21971800  1.0
  Zn  Zn1663  1  0.75985517  0.60875485  0.21971800  1.0
  Zn  Zn1664  1  0.75985517  0.94208819  0.21971800  1.0
  Zn  Zn1665  1  0.25985517  0.31708819  0.21971800  1.0
  Zn  Zn1666  1  0.25985517  0.65042152  0.21971800  1.0
  Zn  Zn1667  1  0.25985517  0.98375485  0.21971800  1.0
  Zn  Zn1668  1  0.59318850  0.31708819  0.21971800  1.0
  Zn  Zn1669  1  0.59318850  0.65042152  0.21971800  1.0
  Zn  Zn1670  1  0.59318850  0.98375485  0.21971800  1.0
  Zn  Zn1671  1  0.92652183  0.31708819  0.21971800  1.0
  Zn  Zn1672  1  0.92652183  0.65042152  0.21971800  1.0
  Zn  Zn1673  1  0.92652183  0.98375485  0.21971800  1.0
  Zn  Zn1674  1  0.27592150  0.29249810  0.84265600  1.0
  Zn  Zn1675  1  0.27592150  0.62583144  0.84265600  1.0
  Zn  Zn1676  1  0.27592150  0.95916477  0.84265600  1.0
  Zn  Zn1677  1  0.60925483  0.29249810  0.84265600  1.0
  Zn  Zn1678  1  0.60925483  0.62583144  0.84265600  1.0
  Zn  Zn1679  1  0.60925483  0.95916477  0.84265600  1.0
  Zn  Zn1680  1  0.94258817  0.29249810  0.84265600  1.0
  Zn  Zn1681  1  0.94258817  0.62583144  0.84265600  1.0
  Zn  Zn1682  1  0.94258817  0.95916477  0.84265600  1.0
  Zn  Zn1683  1  0.10925483  0.25083144  0.84265600  1.0
  Zn  Zn1684  1  0.10925483  0.58416477  0.84265600  1.0
  Zn  Zn1685  1  0.10925483  0.91749810  0.84265600  1.0
  Zn  Zn1686  1  0.44258817  0.25083144  0.84265600  1.0
  Zn  Zn1687  1  0.44258817  0.58416477  0.84265600  1.0
  Zn  Zn1688  1  0.44258817  0.91749810  0.84265600  1.0
  Zn  Zn1689  1  0.77592150  0.25083144  0.84265600  1.0
  Zn  Zn1690  1  0.77592150  0.58416477  0.84265600  1.0
  Zn  Zn1691  1  0.77592150  0.91749810  0.84265600  1.0
  Zn  Zn1692  1  0.15228150  0.26095985  0.46400800  1.0
  Zn  Zn1693  1  0.15228150  0.59429319  0.46400800  1.0
  Zn  Zn1694  1  0.15228150  0.92762652  0.46400800  1.0
  Zn  Zn1695  1  0.48561483  0.26095985  0.46400800  1.0
  Zn  Zn1696  1  0.48561483  0.59429319  0.46400800  1.0
  Zn  Zn1697  1  0.48561483  0.92762652  0.46400800  1.0
  Zn  Zn1698  1  0.81894817  0.26095985  0.46400800  1.0
  Zn  Zn1699  1  0.81894817  0.59429319  0.46400800  1.0
  Zn  Zn1700  1  0.81894817  0.92762652  0.46400800  1.0
  Zn  Zn1701  1  0.31894817  0.30262652  0.46400800  1.0
  Zn  Zn1702  1  0.31894817  0.63595985  0.46400800  1.0
  Zn  Zn1703  1  0.31894817  0.96929319  0.46400800  1.0
  Zn  Zn1704  1  0.65228150  0.30262652  0.46400800  1.0
  Zn  Zn1705  1  0.65228150  0.63595985  0.46400800  1.0
  Zn  Zn1706  1  0.65228150  0.96929319  0.46400800  1.0
  Zn  Zn1707  1  0.98561483  0.30262652  0.46400800  1.0
  Zn  Zn1708  1  0.98561483  0.63595985  0.46400800  1.0
  Zn  Zn1709  1  0.98561483  0.96929319  0.46400800  1.0
  Zn  Zn1710  1  0.29895083  0.28219102  0.90826300  1.0
  Zn  Zn1711  1  0.29895083  0.61552435  0.90826300  1.0
  Zn  Zn1712  1  0.29895083  0.94885769  0.90826300  1.0
  Zn  Zn1713  1  0.63228417  0.28219102  0.90826300  1.0
  Zn  Zn1714  1  0.63228417  0.61552435  0.90826300  1.0
  Zn  Zn1715  1  0.63228417  0.94885769  0.90826300  1.0
  Zn  Zn1716  1  0.96561750  0.28219102  0.90826300  1.0
  Zn  Zn1717  1  0.96561750  0.61552435  0.90826300  1.0
  Zn  Zn1718  1  0.96561750  0.94885769  0.90826300  1.0
  Zn  Zn1719  1  0.13228417  0.32385769  0.90826300  1.0
  Zn  Zn1720  1  0.13228417  0.65719102  0.90826300  1.0
  Zn  Zn1721  1  0.13228417  0.99052435  0.90826300  1.0
  Zn  Zn1722  1  0.46561750  0.32385769  0.90826300  1.0
  Zn  Zn1723  1  0.46561750  0.65719102  0.90826300  1.0
  Zn  Zn1724  1  0.46561750  0.99052435  0.90826300  1.0
  Zn  Zn1725  1  0.79895083  0.32385769  0.90826300  1.0
  Zn  Zn1726  1  0.79895083  0.65719102  0.90826300  1.0
  Zn  Zn1727  1  0.79895083  0.99052435  0.90826300  1.0
  Zn  Zn1728  1  0.21413300  0.32949006  0.84265600  1.0
  Zn  Zn1729  1  0.21413300  0.66282340  0.84265600  1.0
  Zn  Zn1730  1  0.21413300  0.99615673  0.84265600  1.0
  Zn  Zn1731  1  0.54746633  0.32949006  0.84265600  1.0
  Zn  Zn1732  1  0.54746633  0.66282340  0.84265600  1.0
  Zn  Zn1733  1  0.54746633  0.99615673  0.84265600  1.0
  Zn  Zn1734  1  0.88079967  0.32949006  0.84265600  1.0
  Zn  Zn1735  1  0.88079967  0.66282340  0.84265600  1.0
  Zn  Zn1736  1  0.88079967  0.99615673  0.84265600  1.0
  Zn  Zn1737  1  0.04746633  0.28782340  0.84265600  1.0
  Zn  Zn1738  1  0.04746633  0.62115673  0.84265600  1.0
  Zn  Zn1739  1  0.04746633  0.95449006  0.84265600  1.0
  Zn  Zn1740  1  0.38079967  0.28782340  0.84265600  1.0
  Zn  Zn1741  1  0.38079967  0.62115673  0.84265600  1.0
  Zn  Zn1742  1  0.38079967  0.95449006  0.84265600  1.0
  Zn  Zn1743  1  0.71413300  0.28782340  0.84265600  1.0
  Zn  Zn1744  1  0.71413300  0.62115673  0.84265600  1.0
  Zn  Zn1745  1  0.71413300  0.95449006  0.84265600  1.0
  Zn  Zn1746  1  0.24114617  0.26385235  0.53185000  1.0
  Zn  Zn1747  1  0.24114617  0.59718569  0.53185000  1.0
  Zn  Zn1748  1  0.24114617  0.93051902  0.53185000  1.0
  Zn  Zn1749  1  0.57447950  0.26385235  0.53185000  1.0
  Zn  Zn1750  1  0.57447950  0.59718569  0.53185000  1.0
  Zn  Zn1751  1  0.57447950  0.93051902  0.53185000  1.0
  Zn  Zn1752  1  0.90781283  0.26385235  0.53185000  1.0
  Zn  Zn1753  1  0.90781283  0.59718569  0.53185000  1.0
  Zn  Zn1754  1  0.90781283  0.93051902  0.53185000  1.0
  Zn  Zn1755  1  0.07447950  0.30551902  0.53185000  1.0
  Zn  Zn1756  1  0.07447950  0.63885235  0.53185000  1.0
  Zn  Zn1757  1  0.07447950  0.97218569  0.53185000  1.0
  Zn  Zn1758  1  0.40781283  0.30551902  0.53185000  1.0
  Zn  Zn1759  1  0.40781283  0.63885235  0.53185000  1.0
  Zn  Zn1760  1  0.40781283  0.97218569  0.53185000  1.0
  Zn  Zn1761  1  0.74114617  0.30551902  0.53185000  1.0
  Zn  Zn1762  1  0.74114617  0.63885235  0.53185000  1.0
  Zn  Zn1763  1  0.74114617  0.97218569  0.53185000  1.0
  Zn  Zn1764  1  0.23052950  0.30286485  0.96815000  1.0
  Zn  Zn1765  1  0.23052950  0.63619819  0.96815000  1.0
  Zn  Zn1766  1  0.23052950  0.96953152  0.96815000  1.0
  Zn  Zn1767  1  0.56386283  0.30286485  0.96815000  1.0
  Zn  Zn1768  1  0.56386283  0.63619819  0.96815000  1.0
  Zn  Zn1769  1  0.56386283  0.96953152  0.96815000  1.0
  Zn  Zn1770  1  0.89719617  0.30286485  0.96815000  1.0
  Zn  Zn1771  1  0.89719617  0.63619819  0.96815000  1.0
  Zn  Zn1772  1  0.89719617  0.96953152  0.96815000  1.0
  Zn  Zn1773  1  0.06386283  0.26119819  0.96815000  1.0
  Zn  Zn1774  1  0.06386283  0.59453152  0.96815000  1.0
  Zn  Zn1775  1  0.06386283  0.92786485  0.96815000  1.0
  Zn  Zn1776  1  0.39719617  0.26119819  0.96815000  1.0
  Zn  Zn1777  1  0.39719617  0.59453152  0.96815000  1.0
  Zn  Zn1778  1  0.39719617  0.92786485  0.96815000  1.0
  Zn  Zn1779  1  0.73052950  0.26119819  0.96815000  1.0
  Zn  Zn1780  1  0.73052950  0.59453152  0.96815000  1.0
  Zn  Zn1781  1  0.73052950  0.92786485  0.96815000  1.0
  Zn  Zn1782  1  0.16722000  0.25473331  0.79181600  1.0
  Zn  Zn1783  1  0.16722000  0.58806665  0.79181600  1.0
  Zn  Zn1784  1  0.16722000  0.92139998  0.79181600  1.0
  Zn  Zn1785  1  0.50055333  0.25473331  0.79181600  1.0
  Zn  Zn1786  1  0.50055333  0.58806665  0.79181600  1.0
  Zn  Zn1787  1  0.50055333  0.92139998  0.79181600  1.0
  Zn  Zn1788  1  0.83388667  0.25473331  0.79181600  1.0
  Zn  Zn1789  1  0.83388667  0.58806665  0.79181600  1.0
  Zn  Zn1790  1  0.83388667  0.92139998  0.79181600  1.0
  Zn  Zn1791  1  0.00055333  0.29639998  0.79181600  1.0
  Zn  Zn1792  1  0.00055333  0.62973331  0.79181600  1.0
  Zn  Zn1793  1  0.00055333  0.96306665  0.79181600  1.0
  Zn  Zn1794  1  0.33388667  0.29639998  0.79181600  1.0
  Zn  Zn1795  1  0.33388667  0.62973331  0.79181600  1.0
  Zn  Zn1796  1  0.33388667  0.96306665  0.79181600  1.0
  Zn  Zn1797  1  0.66722000  0.29639998  0.79181600  1.0
  Zn  Zn1798  1  0.66722000  0.62973331  0.79181600  1.0
  Zn  Zn1799  1  0.66722000  0.96306665  0.79181600  1.0
  Zn  Zn1800  1  0.20698483  0.32780802  0.65401100  1.0
  Zn  Zn1801  1  0.20698483  0.66114135  0.65401100  1.0
  Zn  Zn1802  1  0.20698483  0.99447469  0.65401100  1.0
  Zn  Zn1803  1  0.54031817  0.32780802  0.65401100  1.0
  Zn  Zn1804  1  0.54031817  0.66114135  0.65401100  1.0
  Zn  Zn1805  1  0.54031817  0.99447469  0.65401100  1.0
  Zn  Zn1806  1  0.87365150  0.32780802  0.65401100  1.0
  Zn  Zn1807  1  0.87365150  0.66114135  0.65401100  1.0
  Zn  Zn1808  1  0.87365150  0.99447469  0.65401100  1.0
  Zn  Zn1809  1  0.04031817  0.28614135  0.65401100  1.0
  Zn  Zn1810  1  0.04031817  0.61947469  0.65401100  1.0
  Zn  Zn1811  1  0.04031817  0.95280802  0.65401100  1.0
  Zn  Zn1812  1  0.37365150  0.28614135  0.65401100  1.0
  Zn  Zn1813  1  0.37365150  0.61947469  0.65401100  1.0
  Zn  Zn1814  1  0.37365150  0.95280802  0.65401100  1.0
  Zn  Zn1815  1  0.70698483  0.28614135  0.65401100  1.0
  Zn  Zn1816  1  0.70698483  0.61947469  0.65401100  1.0
  Zn  Zn1817  1  0.70698483  0.95280802  0.65401100  1.0
  Zn  Zn1818  1  0.25719633  0.25087515  0.90826300  1.0
  Zn  Zn1819  1  0.25719633  0.58420848  0.90826300  1.0
  Zn  Zn1820  1  0.25719633  0.91754181  0.90826300  1.0
  Zn  Zn1821  1  0.59052967  0.25087515  0.90826300  1.0
  Zn  Zn1822  1  0.59052967  0.58420848  0.90826300  1.0
  Zn  Zn1823  1  0.59052967  0.91754181  0.90826300  1.0
  Zn  Zn1824  1  0.92386300  0.25087515  0.90826300  1.0
  Zn  Zn1825  1  0.92386300  0.58420848  0.90826300  1.0
  Zn  Zn1826  1  0.92386300  0.91754181  0.90826300  1.0
  Zn  Zn1827  1  0.09052967  0.29254181  0.90826300  1.0
  Zn  Zn1828  1  0.09052967  0.62587515  0.90826300  1.0
  Zn  Zn1829  1  0.09052967  0.95920848  0.90826300  1.0
  Zn  Zn1830  1  0.42386300  0.29254181  0.90826300  1.0
  Zn  Zn1831  1  0.42386300  0.62587515  0.90826300  1.0
  Zn  Zn1832  1  0.42386300  0.95920848  0.90826300  1.0
  Zn  Zn1833  1  0.75719633  0.29254181  0.90826300  1.0
  Zn  Zn1834  1  0.75719633  0.62587515  0.90826300  1.0
  Zn  Zn1835  1  0.75719633  0.95920848  0.90826300  1.0
  Zn  Zn1836  1  0.13707817  0.25187844  0.30942100  1.0
  Zn  Zn1837  1  0.13707817  0.58521177  0.30942100  1.0
  Zn  Zn1838  1  0.13707817  0.91854510  0.30942100  1.0
  Zn  Zn1839  1  0.47041150  0.25187844  0.30942100  1.0
  Zn  Zn1840  1  0.47041150  0.58521177  0.30942100  1.0
  Zn  Zn1841  1  0.47041150  0.91854510  0.30942100  1.0
  Zn  Zn1842  1  0.80374483  0.25187844  0.30942100  1.0
  Zn  Zn1843  1  0.80374483  0.58521177  0.30942100  1.0
  Zn  Zn1844  1  0.80374483  0.91854510  0.30942100  1.0
  Zn  Zn1845  1  0.30374483  0.29354510  0.30942100  1.0
  Zn  Zn1846  1  0.30374483  0.62687844  0.30942100  1.0
  Zn  Zn1847  1  0.30374483  0.96021177  0.30942100  1.0
  Zn  Zn1848  1  0.63707817  0.29354510  0.30942100  1.0
  Zn  Zn1849  1  0.63707817  0.62687844  0.30942100  1.0
  Zn  Zn1850  1  0.63707817  0.96021177  0.30942100  1.0
  Zn  Zn1851  1  0.97041150  0.29354510  0.30942100  1.0
  Zn  Zn1852  1  0.97041150  0.62687844  0.30942100  1.0
  Zn  Zn1853  1  0.97041150  0.96021177  0.30942100  1.0
  Zn  Zn1854  1  0.18680933  0.29368298  0.71971800  1.0
  Zn  Zn1855  1  0.18680933  0.62701631  0.71971800  1.0
  Zn  Zn1856  1  0.18680933  0.96034965  0.71971800  1.0
  Zn  Zn1857  1  0.52014267  0.29368298  0.71971800  1.0
  Zn  Zn1858  1  0.52014267  0.62701631  0.71971800  1.0
  Zn  Zn1859  1  0.52014267  0.96034965  0.71971800  1.0
  Zn  Zn1860  1  0.85347600  0.29368298  0.71971800  1.0
  Zn  Zn1861  1  0.85347600  0.62701631  0.71971800  1.0
  Zn  Zn1862  1  0.85347600  0.96034965  0.71971800  1.0
  Zn  Zn1863  1  0.02014267  0.25201631  0.71971800  1.0
  Zn  Zn1864  1  0.02014267  0.58534965  0.71971800  1.0
  Zn  Zn1865  1  0.02014267  0.91868298  0.71971800  1.0
  Zn  Zn1866  1  0.35347600  0.25201631  0.71971800  1.0
  Zn  Zn1867  1  0.35347600  0.58534965  0.71971800  1.0
  Zn  Zn1868  1  0.35347600  0.91868298  0.71971800  1.0
  Zn  Zn1869  1  0.68680933  0.25201631  0.71971800  1.0
  Zn  Zn1870  1  0.68680933  0.58534965  0.71971800  1.0
  Zn  Zn1871  1  0.68680933  0.91868298  0.71971800  1.0
  Zn  Zn1872  1  0.14171417  0.33037702  0.03185000  1.0
  Zn  Zn1873  1  0.14171417  0.66371035  0.03185000  1.0
  Zn  Zn1874  1  0.14171417  0.99704369  0.03185000  1.0
  Zn  Zn1875  1  0.47504750  0.33037702  0.03185000  1.0
  Zn  Zn1876  1  0.47504750  0.66371035  0.03185000  1.0
  Zn  Zn1877  1  0.47504750  0.99704369  0.03185000  1.0
  Zn  Zn1878  1  0.80838083  0.33037702  0.03185000  1.0
  Zn  Zn1879  1  0.80838083  0.66371035  0.03185000  1.0
  Zn  Zn1880  1  0.80838083  0.99704369  0.03185000  1.0
  Zn  Zn1881  1  0.30838083  0.28871035  0.03185000  1.0
  Zn  Zn1882  1  0.30838083  0.62204369  0.03185000  1.0
  Zn  Zn1883  1  0.30838083  0.95537702  0.03185000  1.0
  Zn  Zn1884  1  0.64171417  0.28871035  0.03185000  1.0
  Zn  Zn1885  1  0.64171417  0.62204369  0.03185000  1.0
  Zn  Zn1886  1  0.64171417  0.95537702  0.03185000  1.0
  Zn  Zn1887  1  0.97504750  0.28871035  0.03185000  1.0
  Zn  Zn1888  1  0.97504750  0.62204369  0.03185000  1.0
  Zn  Zn1889  1  0.97504750  0.95537702  0.03185000  1.0
  Zn  Zn1890  1  0.16170283  0.30561010  0.65734400  1.0
  Zn  Zn1891  1  0.16170283  0.63894344  0.65734400  1.0
  Zn  Zn1892  1  0.16170283  0.97227677  0.65734400  1.0
  Zn  Zn1893  1  0.49503617  0.30561010  0.65734400  1.0
  Zn  Zn1894  1  0.49503617  0.63894344  0.65734400  1.0
  Zn  Zn1895  1  0.49503617  0.97227677  0.65734400  1.0
  Zn  Zn1896  1  0.82836950  0.30561010  0.65734400  1.0
  Zn  Zn1897  1  0.82836950  0.63894344  0.65734400  1.0
  Zn  Zn1898  1  0.82836950  0.97227677  0.65734400  1.0
  Zn  Zn1899  1  0.32836950  0.26394344  0.65734400  1.0
  Zn  Zn1900  1  0.32836950  0.59727677  0.65734400  1.0
  Zn  Zn1901  1  0.32836950  0.93061010  0.65734400  1.0
  Zn  Zn1902  1  0.66170283  0.26394344  0.65734400  1.0
  Zn  Zn1903  1  0.66170283  0.59727677  0.65734400  1.0
  Zn  Zn1904  1  0.66170283  0.93061010  0.65734400  1.0
  Zn  Zn1905  1  0.99503617  0.26394344  0.65734400  1.0
  Zn  Zn1906  1  0.99503617  0.59727677  0.65734400  1.0
  Zn  Zn1907  1  0.99503617  0.93061010  0.65734400  1.0
  Zn  Zn1908  1  0.17369733  0.31098956  0.77715800  1.0
  Zn  Zn1909  1  0.17369733  0.64432290  0.77715800  1.0
  Zn  Zn1910  1  0.17369733  0.97765623  0.77715800  1.0
  Zn  Zn1911  1  0.50703067  0.31098956  0.77715800  1.0
  Zn  Zn1912  1  0.50703067  0.64432290  0.77715800  1.0
  Zn  Zn1913  1  0.50703067  0.97765623  0.77715800  1.0
  Zn  Zn1914  1  0.84036400  0.31098956  0.77715800  1.0
  Zn  Zn1915  1  0.84036400  0.64432290  0.77715800  1.0
  Zn  Zn1916  1  0.84036400  0.97765623  0.77715800  1.0
  Zn  Zn1917  1  0.00703067  0.26932290  0.77715800  1.0
  Zn  Zn1918  1  0.00703067  0.60265623  0.77715800  1.0
  Zn  Zn1919  1  0.00703067  0.93598956  0.77715800  1.0
  Zn  Zn1920  1  0.34036400  0.26932290  0.77715800  1.0
  Zn  Zn1921  1  0.34036400  0.60265623  0.77715800  1.0
  Zn  Zn1922  1  0.34036400  0.93598956  0.77715800  1.0
  Zn  Zn1923  1  0.67369733  0.26932290  0.77715800  1.0
  Zn  Zn1924  1  0.67369733  0.60265623  0.77715800  1.0
  Zn  Zn1925  1  0.67369733  0.93598956  0.77715800  1.0
  Zn  Zn1926  1  0.09218717  0.25687344  0.46815000  1.0
  Zn  Zn1927  1  0.09218717  0.59020677  0.46815000  1.0
  Zn  Zn1928  1  0.09218717  0.92354010  0.46815000  1.0
  Zn  Zn1929  1  0.42552050  0.25687344  0.46815000  1.0
  Zn  Zn1930  1  0.42552050  0.59020677  0.46815000  1.0
  Zn  Zn1931  1  0.42552050  0.92354010  0.46815000  1.0
  Zn  Zn1932  1  0.75885383  0.25687344  0.46815000  1.0
  Zn  Zn1933  1  0.75885383  0.59020677  0.46815000  1.0
  Zn  Zn1934  1  0.75885383  0.92354010  0.46815000  1.0
  Zn  Zn1935  1  0.25885383  0.29854010  0.46815000  1.0
  Zn  Zn1936  1  0.25885383  0.63187344  0.46815000  1.0
  Zn  Zn1937  1  0.25885383  0.96520677  0.46815000  1.0
  Zn  Zn1938  1  0.59218717  0.29854010  0.46815000  1.0
  Zn  Zn1939  1  0.59218717  0.63187344  0.46815000  1.0
  Zn  Zn1940  1  0.59218717  0.96520677  0.46815000  1.0
  Zn  Zn1941  1  0.92552050  0.29854010  0.46815000  1.0
  Zn  Zn1942  1  0.92552050  0.63187344  0.46815000  1.0
  Zn  Zn1943  1  0.92552050  0.96520677  0.46815000  1.0
  Zn  Zn1944  1  0.16701367  0.32107948  0.58578400  1.0
  Zn  Zn1945  1  0.16701367  0.65441281  0.58578400  1.0
  Zn  Zn1946  1  0.16701367  0.98774615  0.58578400  1.0
  Zn  Zn1947  1  0.50034700  0.32107948  0.58578400  1.0
  Zn  Zn1948  1  0.50034700  0.65441281  0.58578400  1.0
  Zn  Zn1949  1  0.50034700  0.98774615  0.58578400  1.0
  Zn  Zn1950  1  0.83368033  0.32107948  0.58578400  1.0
  Zn  Zn1951  1  0.83368033  0.65441281  0.58578400  1.0
  Zn  Zn1952  1  0.83368033  0.98774615  0.58578400  1.0
  Zn  Zn1953  1  0.00034700  0.27941281  0.58578400  1.0
  Zn  Zn1954  1  0.00034700  0.61274615  0.58578400  1.0
  Zn  Zn1955  1  0.00034700  0.94607948  0.58578400  1.0
  Zn  Zn1956  1  0.33368033  0.27941281  0.58578400  1.0
  Zn  Zn1957  1  0.33368033  0.61274615  0.58578400  1.0
  Zn  Zn1958  1  0.33368033  0.94607948  0.58578400  1.0
  Zn  Zn1959  1  0.66701367  0.27941281  0.58578400  1.0
  Zn  Zn1960  1  0.66701367  0.61274615  0.58578400  1.0
  Zn  Zn1961  1  0.66701367  0.94607948  0.58578400  1.0
  Zn  Zn1962  1  0.18163567  0.28954365  0.52343700  1.0
  Zn  Zn1963  1  0.18163567  0.62287698  0.52343700  1.0
  Zn  Zn1964  1  0.18163567  0.95621031  0.52343700  1.0
  Zn  Zn1965  1  0.51496900  0.28954365  0.52343700  1.0
  Zn  Zn1966  1  0.51496900  0.62287698  0.52343700  1.0
  Zn  Zn1967  1  0.51496900  0.95621031  0.52343700  1.0
  Zn  Zn1968  1  0.84830233  0.28954365  0.52343700  1.0
  Zn  Zn1969  1  0.84830233  0.62287698  0.52343700  1.0
  Zn  Zn1970  1  0.84830233  0.95621031  0.52343700  1.0
  Zn  Zn1971  1  0.01496900  0.33121031  0.52343700  1.0
  Zn  Zn1972  1  0.01496900  0.66454365  0.52343700  1.0
  Zn  Zn1973  1  0.01496900  0.99787698  0.52343700  1.0
  Zn  Zn1974  1  0.34830233  0.33121031  0.52343700  1.0
  Zn  Zn1975  1  0.34830233  0.66454365  0.52343700  1.0
  Zn  Zn1976  1  0.34830233  0.99787698  0.52343700  1.0
  Zn  Zn1977  1  0.68163567  0.33121031  0.52343700  1.0
  Zn  Zn1978  1  0.68163567  0.66454365  0.52343700  1.0
  Zn  Zn1979  1  0.68163567  0.99787698  0.52343700  1.0
  Zn  Zn1980  1  0.18661583  0.25711169  0.28028200  1.0
  Zn  Zn1981  1  0.18661583  0.59044502  0.28028200  1.0
  Zn  Zn1982  1  0.18661583  0.92377835  0.28028200  1.0
  Zn  Zn1983  1  0.51994917  0.25711169  0.28028200  1.0
  Zn  Zn1984  1  0.51994917  0.59044502  0.28028200  1.0
  Zn  Zn1985  1  0.51994917  0.92377835  0.28028200  1.0
  Zn  Zn1986  1  0.85328250  0.25711169  0.28028200  1.0
  Zn  Zn1987  1  0.85328250  0.59044502  0.28028200  1.0
  Zn  Zn1988  1  0.85328250  0.92377835  0.28028200  1.0
  Zn  Zn1989  1  0.01994917  0.29877835  0.28028200  1.0
  Zn  Zn1990  1  0.01994917  0.63211169  0.28028200  1.0
  Zn  Zn1991  1  0.01994917  0.96544502  0.28028200  1.0
  Zn  Zn1992  1  0.35328250  0.29877835  0.28028200  1.0
  Zn  Zn1993  1  0.35328250  0.63211169  0.28028200  1.0
  Zn  Zn1994  1  0.35328250  0.96544502  0.28028200  1.0
  Zn  Zn1995  1  0.68661583  0.29877835  0.28028200  1.0
  Zn  Zn1996  1  0.68661583  0.63211169  0.28028200  1.0
  Zn  Zn1997  1  0.68661583  0.96544502  0.28028200  1.0
  Zn  Zn1998  1  0.11695333  0.32725890  0.15361200  1.0
  Zn  Zn1999  1  0.11695333  0.66059223  0.15361200  1.0
  Zn  Zn2000  1  0.11695333  0.99392556  0.15361200  1.0
  Zn  Zn2001  1  0.45028667  0.32725890  0.15361200  1.0
  Zn  Zn2002  1  0.45028667  0.66059223  0.15361200  1.0
  Zn  Zn2003  1  0.45028667  0.99392556  0.15361200  1.0
  Zn  Zn2004  1  0.78362000  0.32725890  0.15361200  1.0
  Zn  Zn2005  1  0.78362000  0.66059223  0.15361200  1.0
  Zn  Zn2006  1  0.78362000  0.99392556  0.15361200  1.0
  Zn  Zn2007  1  0.28362000  0.28559223  0.15361200  1.0
  Zn  Zn2008  1  0.28362000  0.61892556  0.15361200  1.0
  Zn  Zn2009  1  0.28362000  0.95225890  0.15361200  1.0
  Zn  Zn2010  1  0.61695333  0.28559223  0.15361200  1.0
  Zn  Zn2011  1  0.61695333  0.61892556  0.15361200  1.0
  Zn  Zn2012  1  0.61695333  0.95225890  0.15361200  1.0
  Zn  Zn2013  1  0.95028667  0.28559223  0.15361200  1.0
  Zn  Zn2014  1  0.95028667  0.61892556  0.15361200  1.0
  Zn  Zn2015  1  0.95028667  0.95225890  0.15361200  1.0
  Zn  Zn2016  1  0.21854350  0.27004719  0.77184200  1.0
  Zn  Zn2017  1  0.21854350  0.60338052  0.77184200  1.0
  Zn  Zn2018  1  0.21854350  0.93671385  0.77184200  1.0
  Zn  Zn2019  1  0.55187683  0.27004719  0.77184200  1.0
  Zn  Zn2020  1  0.55187683  0.60338052  0.77184200  1.0
  Zn  Zn2021  1  0.55187683  0.93671385  0.77184200  1.0
  Zn  Zn2022  1  0.88521017  0.27004719  0.77184200  1.0
  Zn  Zn2023  1  0.88521017  0.60338052  0.77184200  1.0
  Zn  Zn2024  1  0.88521017  0.93671385  0.77184200  1.0
  Zn  Zn2025  1  0.05187683  0.31171385  0.77184200  1.0
  Zn  Zn2026  1  0.05187683  0.64504719  0.77184200  1.0
  Zn  Zn2027  1  0.05187683  0.97838052  0.77184200  1.0
  Zn  Zn2028  1  0.38521017  0.31171385  0.77184200  1.0
  Zn  Zn2029  1  0.38521017  0.64504719  0.77184200  1.0
  Zn  Zn2030  1  0.38521017  0.97838052  0.77184200  1.0
  Zn  Zn2031  1  0.71854350  0.31171385  0.77184200  1.0
  Zn  Zn2032  1  0.71854350  0.64504719  0.77184200  1.0
  Zn  Zn2033  1  0.71854350  0.97838052  0.77184200  1.0
  Zn  Zn2034  1  0.18940233  0.32729465  0.72284200  1.0
  Zn  Zn2035  1  0.18940233  0.66062798  0.72284200  1.0
  Zn  Zn2036  1  0.18940233  0.99396131  0.72284200  1.0
  Zn  Zn2037  1  0.52273567  0.32729465  0.72284200  1.0
  Zn  Zn2038  1  0.52273567  0.66062798  0.72284200  1.0
  Zn  Zn2039  1  0.52273567  0.99396131  0.72284200  1.0
  Zn  Zn2040  1  0.85606900  0.32729465  0.72284200  1.0
  Zn  Zn2041  1  0.85606900  0.66062798  0.72284200  1.0
  Zn  Zn2042  1  0.85606900  0.99396131  0.72284200  1.0
  Zn  Zn2043  1  0.02273567  0.28562798  0.72284200  1.0
  Zn  Zn2044  1  0.02273567  0.61896131  0.72284200  1.0
  Zn  Zn2045  1  0.02273567  0.95229465  0.72284200  1.0
  Zn  Zn2046  1  0.35606900  0.28562798  0.72284200  1.0
  Zn  Zn2047  1  0.35606900  0.61896131  0.72284200  1.0
  Zn  Zn2048  1  0.35606900  0.95229465  0.72284200  1.0
  Zn  Zn2049  1  0.68940233  0.28562798  0.72284200  1.0
  Zn  Zn2050  1  0.68940233  0.61896131  0.72284200  1.0
  Zn  Zn2051  1  0.68940233  0.95229465  0.72284200  1.0
  Zn  Zn2052  1  0.19293367  0.30127148  0.84598900  1.0
  Zn  Zn2053  1  0.19293367  0.63460481  0.84598900  1.0
  Zn  Zn2054  1  0.19293367  0.96793815  0.84598900  1.0
  Zn  Zn2055  1  0.52626700  0.30127148  0.84598900  1.0
  Zn  Zn2056  1  0.52626700  0.63460481  0.84598900  1.0
  Zn  Zn2057  1  0.52626700  0.96793815  0.84598900  1.0
  Zn  Zn2058  1  0.85960033  0.30127148  0.84598900  1.0
  Zn  Zn2059  1  0.85960033  0.63460481  0.84598900  1.0
  Zn  Zn2060  1  0.85960033  0.96793815  0.84598900  1.0
  Zn  Zn2061  1  0.02626700  0.25960481  0.84598900  1.0
  Zn  Zn2062  1  0.02626700  0.59293815  0.84598900  1.0
  Zn  Zn2063  1  0.02626700  0.92627148  0.84598900  1.0
  Zn  Zn2064  1  0.35960033  0.25960481  0.84598900  1.0
  Zn  Zn2065  1  0.35960033  0.59293815  0.84598900  1.0
  Zn  Zn2066  1  0.35960033  0.92627148  0.84598900  1.0
  Zn  Zn2067  1  0.69293367  0.25960481  0.84598900  1.0
  Zn  Zn2068  1  0.69293367  0.59293815  0.84598900  1.0
  Zn  Zn2069  1  0.69293367  0.92627148  0.84598900  1.0
  Zn  Zn2070  1  0.24646450  0.30325135  0.89844700  1.0
  Zn  Zn2071  1  0.24646450  0.63658469  0.89844700  1.0
  Zn  Zn2072  1  0.24646450  0.96991802  0.89844700  1.0
  Zn  Zn2073  1  0.57979783  0.30325135  0.89844700  1.0
  Zn  Zn2074  1  0.57979783  0.63658469  0.89844700  1.0
  Zn  Zn2075  1  0.57979783  0.96991802  0.89844700  1.0
  Zn  Zn2076  1  0.91313117  0.30325135  0.89844700  1.0
  Zn  Zn2077  1  0.91313117  0.63658469  0.89844700  1.0
  Zn  Zn2078  1  0.91313117  0.96991802  0.89844700  1.0
  Zn  Zn2079  1  0.07979783  0.26158469  0.89844700  1.0
  Zn  Zn2080  1  0.07979783  0.59491802  0.89844700  1.0
  Zn  Zn2081  1  0.07979783  0.92825135  0.89844700  1.0
  Zn  Zn2082  1  0.41313117  0.26158469  0.89844700  1.0
  Zn  Zn2083  1  0.41313117  0.59491802  0.89844700  1.0
  Zn  Zn2084  1  0.41313117  0.92825135  0.89844700  1.0
  Zn  Zn2085  1  0.74646450  0.26158469  0.89844700  1.0
  Zn  Zn2086  1  0.74646450  0.59491802  0.89844700  1.0
  Zn  Zn2087  1  0.74646450  0.92825135  0.89844700  1.0
  Zn  Zn2088  1  0.29939550  0.25296577  0.80942100  1.0
  Zn  Zn2089  1  0.29939550  0.58629910  0.80942100  1.0
  Zn  Zn2090  1  0.29939550  0.91963244  0.80942100  1.0
  Zn  Zn2091  1  0.63272883  0.25296577  0.80942100  1.0
  Zn  Zn2092  1  0.63272883  0.58629910  0.80942100  1.0
  Zn  Zn2093  1  0.63272883  0.91963244  0.80942100  1.0
  Zn  Zn2094  1  0.96606217  0.25296577  0.80942100  1.0
  Zn  Zn2095  1  0.96606217  0.58629910  0.80942100  1.0
  Zn  Zn2096  1  0.96606217  0.91963244  0.80942100  1.0
  Zn  Zn2097  1  0.13272883  0.29463244  0.80942100  1.0
  Zn  Zn2098  1  0.13272883  0.62796577  0.80942100  1.0
  Zn  Zn2099  1  0.13272883  0.96129910  0.80942100  1.0
  Zn  Zn2100  1  0.46606217  0.29463244  0.80942100  1.0
  Zn  Zn2101  1  0.46606217  0.62796577  0.80942100  1.0
  Zn  Zn2102  1  0.46606217  0.96129910  0.80942100  1.0
  Zn  Zn2103  1  0.79939550  0.29463244  0.80942100  1.0
  Zn  Zn2104  1  0.79939550  0.62796577  0.80942100  1.0
  Zn  Zn2105  1  0.79939550  0.96129910  0.80942100  1.0
  Zn  Zn2106  1  0.22637100  0.28226415  0.58578400  1.0
  Zn  Zn2107  1  0.22637100  0.61559748  0.58578400  1.0
  Zn  Zn2108  1  0.22637100  0.94893081  0.58578400  1.0
  Zn  Zn2109  1  0.55970433  0.28226415  0.58578400  1.0
  Zn  Zn2110  1  0.55970433  0.61559748  0.58578400  1.0
  Zn  Zn2111  1  0.55970433  0.94893081  0.58578400  1.0
  Zn  Zn2112  1  0.89303767  0.28226415  0.58578400  1.0
  Zn  Zn2113  1  0.89303767  0.61559748  0.58578400  1.0
  Zn  Zn2114  1  0.89303767  0.94893081  0.58578400  1.0
  Zn  Zn2115  1  0.05970433  0.32393081  0.58578400  1.0
  Zn  Zn2116  1  0.05970433  0.65726415  0.58578400  1.0
  Zn  Zn2117  1  0.05970433  0.99059748  0.58578400  1.0
  Zn  Zn2118  1  0.39303767  0.32393081  0.58578400  1.0
  Zn  Zn2119  1  0.39303767  0.65726415  0.58578400  1.0
  Zn  Zn2120  1  0.39303767  0.99059748  0.58578400  1.0
  Zn  Zn2121  1  0.72637100  0.32393081  0.58578400  1.0
  Zn  Zn2122  1  0.72637100  0.65726415  0.58578400  1.0
  Zn  Zn2123  1  0.72637100  0.99059748  0.58578400  1.0
  Zn  Zn2124  1  0.26658100  0.30093540  0.65734400  1.0
  Zn  Zn2125  1  0.26658100  0.63426873  0.65734400  1.0
  Zn  Zn2126  1  0.26658100  0.96760206  0.65734400  1.0
  Zn  Zn2127  1  0.59991433  0.30093540  0.65734400  1.0
  Zn  Zn2128  1  0.59991433  0.63426873  0.65734400  1.0
  Zn  Zn2129  1  0.59991433  0.96760206  0.65734400  1.0
  Zn  Zn2130  1  0.93324767  0.30093540  0.65734400  1.0
  Zn  Zn2131  1  0.93324767  0.63426873  0.65734400  1.0
  Zn  Zn2132  1  0.93324767  0.96760206  0.65734400  1.0
  Zn  Zn2133  1  0.09991433  0.25926873  0.65734400  1.0
  Zn  Zn2134  1  0.09991433  0.59260206  0.65734400  1.0
  Zn  Zn2135  1  0.09991433  0.92593540  0.65734400  1.0
  Zn  Zn2136  1  0.43324767  0.25926873  0.65734400  1.0
  Zn  Zn2137  1  0.43324767  0.59260206  0.65734400  1.0
  Zn  Zn2138  1  0.43324767  0.92593540  0.65734400  1.0
  Zn  Zn2139  1  0.76658100  0.25926873  0.65734400  1.0
  Zn  Zn2140  1  0.76658100  0.59260206  0.65734400  1.0
  Zn  Zn2141  1  0.76658100  0.92593540  0.65734400  1.0
  Zn  Zn2142  1  0.03393783  0.26776002  0.19057900  1.0
  Zn  Zn2143  1  0.03393783  0.60109335  0.19057900  1.0
  Zn  Zn2144  1  0.03393783  0.93442669  0.19057900  1.0
  Zn  Zn2145  1  0.36727117  0.26776002  0.19057900  1.0
  Zn  Zn2146  1  0.36727117  0.60109335  0.19057900  1.0
  Zn  Zn2147  1  0.36727117  0.93442669  0.19057900  1.0
  Zn  Zn2148  1  0.70060450  0.26776002  0.19057900  1.0
  Zn  Zn2149  1  0.70060450  0.60109335  0.19057900  1.0
  Zn  Zn2150  1  0.70060450  0.93442669  0.19057900  1.0
  Zn  Zn2151  1  0.20060450  0.30942669  0.19057900  1.0
  Zn  Zn2152  1  0.20060450  0.64276002  0.19057900  1.0
  Zn  Zn2153  1  0.20060450  0.97609335  0.19057900  1.0
  Zn  Zn2154  1  0.53393783  0.30942669  0.19057900  1.0
  Zn  Zn2155  1  0.53393783  0.64276002  0.19057900  1.0
  Zn  Zn2156  1  0.53393783  0.97609335  0.19057900  1.0
  Zn  Zn2157  1  0.86727117  0.30942669  0.19057900  1.0
  Zn  Zn2158  1  0.86727117  0.64276002  0.19057900  1.0
  Zn  Zn2159  1  0.86727117  0.97609335  0.19057900  1.0
  Zn  Zn2160  1  0.15564783  0.27330710  0.84598900  1.0
  Zn  Zn2161  1  0.15564783  0.60664044  0.84598900  1.0
  Zn  Zn2162  1  0.15564783  0.93997377  0.84598900  1.0
  Zn  Zn2163  1  0.48898117  0.27330710  0.84598900  1.0
  Zn  Zn2164  1  0.48898117  0.60664044  0.84598900  1.0
  Zn  Zn2165  1  0.48898117  0.93997377  0.84598900  1.0
  Zn  Zn2166  1  0.82231450  0.27330710  0.84598900  1.0
  Zn  Zn2167  1  0.82231450  0.60664044  0.84598900  1.0
  Zn  Zn2168  1  0.82231450  0.93997377  0.84598900  1.0
  Zn  Zn2169  1  0.32231450  0.31497377  0.84598900  1.0
  Zn  Zn2170  1  0.32231450  0.64830710  0.84598900  1.0
  Zn  Zn2171  1  0.32231450  0.98164044  0.84598900  1.0
  Zn  Zn2172  1  0.65564783  0.31497377  0.84598900  1.0
  Zn  Zn2173  1  0.65564783  0.64830710  0.84598900  1.0
  Zn  Zn2174  1  0.65564783  0.98164044  0.84598900  1.0
  Zn  Zn2175  1  0.98898117  0.31497377  0.84598900  1.0
  Zn  Zn2176  1  0.98898117  0.64830710  0.84598900  1.0
  Zn  Zn2177  1  0.98898117  0.98164044  0.84598900  1.0
  Zn  Zn2178  1  0.12634850  0.27625110  0.34598900  1.0
  Zn  Zn2179  1  0.12634850  0.60958444  0.34598900  1.0
  Zn  Zn2180  1  0.12634850  0.94291777  0.34598900  1.0
  Zn  Zn2181  1  0.45968183  0.27625110  0.34598900  1.0
  Zn  Zn2182  1  0.45968183  0.60958444  0.34598900  1.0
  Zn  Zn2183  1  0.45968183  0.94291777  0.34598900  1.0
  Zn  Zn2184  1  0.79301517  0.27625110  0.34598900  1.0
  Zn  Zn2185  1  0.79301517  0.60958444  0.34598900  1.0
  Zn  Zn2186  1  0.79301517  0.94291777  0.34598900  1.0
  Zn  Zn2187  1  0.29301517  0.31791777  0.34598900  1.0
  Zn  Zn2188  1  0.29301517  0.65125110  0.34598900  1.0
  Zn  Zn2189  1  0.29301517  0.98458444  0.34598900  1.0
  Zn  Zn2190  1  0.62634850  0.31791777  0.34598900  1.0
  Zn  Zn2191  1  0.62634850  0.65125110  0.34598900  1.0
  Zn  Zn2192  1  0.62634850  0.98458444  0.34598900  1.0
  Zn  Zn2193  1  0.95968183  0.31791777  0.34598900  1.0
  Zn  Zn2194  1  0.95968183  0.65125110  0.34598900  1.0
  Zn  Zn2195  1  0.95968183  0.98458444  0.34598900  1.0
  Zn  Zn2196  1  0.17768550  0.33075202  0.15401100  1.0
  Zn  Zn2197  1  0.17768550  0.66408535  0.15401100  1.0
  Zn  Zn2198  1  0.17768550  0.99741869  0.15401100  1.0
  Zn  Zn2199  1  0.51101883  0.33075202  0.15401100  1.0
  Zn  Zn2200  1  0.51101883  0.66408535  0.15401100  1.0
  Zn  Zn2201  1  0.51101883  0.99741869  0.15401100  1.0
  Zn  Zn2202  1  0.84435217  0.33075202  0.15401100  1.0
  Zn  Zn2203  1  0.84435217  0.66408535  0.15401100  1.0
  Zn  Zn2204  1  0.84435217  0.99741869  0.15401100  1.0
  Zn  Zn2205  1  0.01101883  0.28908535  0.15401100  1.0
  Zn  Zn2206  1  0.01101883  0.62241869  0.15401100  1.0
  Zn  Zn2207  1  0.01101883  0.95575202  0.15401100  1.0
  Zn  Zn2208  1  0.34435217  0.28908535  0.15401100  1.0
  Zn  Zn2209  1  0.34435217  0.62241869  0.15401100  1.0
  Zn  Zn2210  1  0.34435217  0.95575202  0.15401100  1.0
  Zn  Zn2211  1  0.67768550  0.28908535  0.15401100  1.0
  Zn  Zn2212  1  0.67768550  0.62241869  0.15401100  1.0
  Zn  Zn2213  1  0.67768550  0.95575202  0.15401100  1.0
  Zn  Zn2214  1  0.20540383  0.31499877  0.27184200  1.0
  Zn  Zn2215  1  0.20540383  0.64833210  0.27184200  1.0
  Zn  Zn2216  1  0.20540383  0.98166544  0.27184200  1.0
  Zn  Zn2217  1  0.53873717  0.31499877  0.27184200  1.0
  Zn  Zn2218  1  0.53873717  0.64833210  0.27184200  1.0
  Zn  Zn2219  1  0.53873717  0.98166544  0.27184200  1.0
  Zn  Zn2220  1  0.87207050  0.31499877  0.27184200  1.0
  Zn  Zn2221  1  0.87207050  0.64833210  0.27184200  1.0
  Zn  Zn2222  1  0.87207050  0.98166544  0.27184200  1.0
  Zn  Zn2223  1  0.03873717  0.27333210  0.27184200  1.0
  Zn  Zn2224  1  0.03873717  0.60666544  0.27184200  1.0
  Zn  Zn2225  1  0.03873717  0.93999877  0.27184200  1.0
  Zn  Zn2226  1  0.37207050  0.27333210  0.27184200  1.0
  Zn  Zn2227  1  0.37207050  0.60666544  0.27184200  1.0
  Zn  Zn2228  1  0.37207050  0.93999877  0.27184200  1.0
  Zn  Zn2229  1  0.70540383  0.27333210  0.27184200  1.0
  Zn  Zn2230  1  0.70540383  0.60666544  0.27184200  1.0
  Zn  Zn2231  1  0.70540383  0.93999877  0.27184200  1.0
  Zn  Zn2232  1  0.24797800  0.28789306  0.72284200  1.0
  Zn  Zn2233  1  0.24797800  0.62122640  0.72284200  1.0
  Zn  Zn2234  1  0.24797800  0.95455973  0.72284200  1.0
  Zn  Zn2235  1  0.58131133  0.28789306  0.72284200  1.0
  Zn  Zn2236  1  0.58131133  0.62122640  0.72284200  1.0
  Zn  Zn2237  1  0.58131133  0.95455973  0.72284200  1.0
  Zn  Zn2238  1  0.91464467  0.28789306  0.72284200  1.0
  Zn  Zn2239  1  0.91464467  0.62122640  0.72284200  1.0
  Zn  Zn2240  1  0.91464467  0.95455973  0.72284200  1.0
  Zn  Zn2241  1  0.08131133  0.32955973  0.72284200  1.0
  Zn  Zn2242  1  0.08131133  0.66289306  0.72284200  1.0
  Zn  Zn2243  1  0.08131133  0.99622640  0.72284200  1.0
  Zn  Zn2244  1  0.41464467  0.32955973  0.72284200  1.0
  Zn  Zn2245  1  0.41464467  0.66289306  0.72284200  1.0
  Zn  Zn2246  1  0.41464467  0.99622640  0.72284200  1.0
  Zn  Zn2247  1  0.74797800  0.32955973  0.72284200  1.0
  Zn  Zn2248  1  0.74797800  0.66289306  0.72284200  1.0
  Zn  Zn2249  1  0.74797800  0.99622640  0.72284200  1.0
  Zn  Zn2250  1  0.28023667  0.27537315  0.78028200  1.0
  Zn  Zn2251  1  0.28023667  0.60870648  0.78028200  1.0
  Zn  Zn2252  1  0.28023667  0.94203981  0.78028200  1.0
  Zn  Zn2253  1  0.61357000  0.27537315  0.78028200  1.0
  Zn  Zn2254  1  0.61357000  0.60870648  0.78028200  1.0
  Zn  Zn2255  1  0.61357000  0.94203981  0.78028200  1.0
  Zn  Zn2256  1  0.94690333  0.27537315  0.78028200  1.0
  Zn  Zn2257  1  0.94690333  0.60870648  0.78028200  1.0
  Zn  Zn2258  1  0.94690333  0.94203981  0.78028200  1.0
  Zn  Zn2259  1  0.11357000  0.31703981  0.78028200  1.0
  Zn  Zn2260  1  0.11357000  0.65037315  0.78028200  1.0
  Zn  Zn2261  1  0.11357000  0.98370648  0.78028200  1.0
  Zn  Zn2262  1  0.44690333  0.31703981  0.78028200  1.0
  Zn  Zn2263  1  0.44690333  0.65037315  0.78028200  1.0
  Zn  Zn2264  1  0.44690333  0.98370648  0.78028200  1.0
  Zn  Zn2265  1  0.78023667  0.31703981  0.78028200  1.0
  Zn  Zn2266  1  0.78023667  0.65037315  0.78028200  1.0
  Zn  Zn2267  1  0.78023667  0.98370648  0.78028200  1.0
  Zn  Zn2268  1  0.17163050  0.29844902  0.34265600  1.0
  Zn  Zn2269  1  0.17163050  0.63178235  0.34265600  1.0
  Zn  Zn2270  1  0.17163050  0.96511569  0.34265600  1.0
  Zn  Zn2271  1  0.50496383  0.29844902  0.34265600  1.0
  Zn  Zn2272  1  0.50496383  0.63178235  0.34265600  1.0
  Zn  Zn2273  1  0.50496383  0.96511569  0.34265600  1.0
  Zn  Zn2274  1  0.83829717  0.29844902  0.34265600  1.0
  Zn  Zn2275  1  0.83829717  0.63178235  0.34265600  1.0
  Zn  Zn2276  1  0.83829717  0.96511569  0.34265600  1.0
  Zn  Zn2277  1  0.00496383  0.25678235  0.34265600  1.0
  Zn  Zn2278  1  0.00496383  0.59011569  0.34265600  1.0
  Zn  Zn2279  1  0.00496383  0.92344902  0.34265600  1.0
  Zn  Zn2280  1  0.33829717  0.25678235  0.34265600  1.0
  Zn  Zn2281  1  0.33829717  0.59011569  0.34265600  1.0
  Zn  Zn2282  1  0.33829717  0.92344902  0.34265600  1.0
  Zn  Zn2283  1  0.67163050  0.25678235  0.34265600  1.0
  Zn  Zn2284  1  0.67163050  0.59011569  0.34265600  1.0
  Zn  Zn2285  1  0.67163050  0.92344902  0.34265600  1.0
  Zn  Zn2286  1  0.06675233  0.30312373  0.34265600  1.0
  Zn  Zn2287  1  0.06675233  0.63645706  0.34265600  1.0
  Zn  Zn2288  1  0.06675233  0.96979040  0.34265600  1.0
  Zn  Zn2289  1  0.40008567  0.30312373  0.34265600  1.0
  Zn  Zn2290  1  0.40008567  0.63645706  0.34265600  1.0
  Zn  Zn2291  1  0.40008567  0.96979040  0.34265600  1.0
  Zn  Zn2292  1  0.73341900  0.30312373  0.34265600  1.0
  Zn  Zn2293  1  0.73341900  0.63645706  0.34265600  1.0
  Zn  Zn2294  1  0.73341900  0.96979040  0.34265600  1.0
  Zn  Zn2295  1  0.23341900  0.26145706  0.34265600  1.0
  Zn  Zn2296  1  0.23341900  0.59479040  0.34265600  1.0
  Zn  Zn2297  1  0.23341900  0.92812373  0.34265600  1.0
  Zn  Zn2298  1  0.56675233  0.26145706  0.34265600  1.0
  Zn  Zn2299  1  0.56675233  0.59479040  0.34265600  1.0
  Zn  Zn2300  1  0.56675233  0.92812373  0.34265600  1.0
  Zn  Zn2301  1  0.90008567  0.26145706  0.34265600  1.0
  Zn  Zn2302  1  0.90008567  0.59479040  0.34265600  1.0
  Zn  Zn2303  1  0.90008567  0.92812373  0.34265600  1.0
  Zn  Zn2304  1  0.10180817  0.28294385  0.57639600  1.0
  Zn  Zn2305  1  0.10180817  0.61627719  0.57639600  1.0
  Zn  Zn2306  1  0.10180817  0.94961052  0.57639600  1.0
  Zn  Zn2307  1  0.43514150  0.28294385  0.57639600  1.0
  Zn  Zn2308  1  0.43514150  0.61627719  0.57639600  1.0
  Zn  Zn2309  1  0.43514150  0.94961052  0.57639600  1.0
  Zn  Zn2310  1  0.76847483  0.28294385  0.57639600  1.0
  Zn  Zn2311  1  0.76847483  0.61627719  0.57639600  1.0
  Zn  Zn2312  1  0.76847483  0.94961052  0.57639600  1.0
  Zn  Zn2313  1  0.26847483  0.32461052  0.57639600  1.0
  Zn  Zn2314  1  0.26847483  0.65794385  0.57639600  1.0
  Zn  Zn2315  1  0.26847483  0.99127719  0.57639600  1.0
  Zn  Zn2316  1  0.60180817  0.32461052  0.57639600  1.0
  Zn  Zn2317  1  0.60180817  0.65794385  0.57639600  1.0
  Zn  Zn2318  1  0.60180817  0.99127719  0.57639600  1.0
  Zn  Zn2319  1  0.93514150  0.32461052  0.57639600  1.0
  Zn  Zn2320  1  0.93514150  0.65794385  0.57639600  1.0
  Zn  Zn2321  1  0.93514150  0.99127719  0.57639600  1.0
  Zn  Zn2322  1  0.31016567  0.25668015  0.88630400  1.0
  Zn  Zn2323  1  0.31016567  0.59001348  0.88630400  1.0
  Zn  Zn2324  1  0.31016567  0.92334681  0.88630400  1.0
  Zn  Zn2325  1  0.64349900  0.25668015  0.88630400  1.0
  Zn  Zn2326  1  0.64349900  0.59001348  0.88630400  1.0
  Zn  Zn2327  1  0.64349900  0.92334681  0.88630400  1.0
  Zn  Zn2328  1  0.97683233  0.25668015  0.88630400  1.0
  Zn  Zn2329  1  0.97683233  0.59001348  0.88630400  1.0
  Zn  Zn2330  1  0.97683233  0.92334681  0.88630400  1.0
  Zn  Zn2331  1  0.14349900  0.29834681  0.88630400  1.0
  Zn  Zn2332  1  0.14349900  0.63168015  0.88630400  1.0
  Zn  Zn2333  1  0.14349900  0.96501348  0.88630400  1.0
  Zn  Zn2334  1  0.47683233  0.29834681  0.88630400  1.0
  Zn  Zn2335  1  0.47683233  0.63168015  0.88630400  1.0
  Zn  Zn2336  1  0.47683233  0.96501348  0.88630400  1.0
  Zn  Zn2337  1  0.81016567  0.29834681  0.88630400  1.0
  Zn  Zn2338  1  0.81016567  0.63168015  0.88630400  1.0
  Zn  Zn2339  1  0.81016567  0.96501348  0.88630400  1.0
  Zn  Zn2340  1  0.16611333  0.26599248  0.20818400  1.0
  Zn  Zn2341  1  0.16611333  0.59932581  0.20818400  1.0
  Zn  Zn2342  1  0.16611333  0.93265915  0.20818400  1.0
  Zn  Zn2343  1  0.49944667  0.26599248  0.20818400  1.0
  Zn  Zn2344  1  0.49944667  0.59932581  0.20818400  1.0
  Zn  Zn2345  1  0.49944667  0.93265915  0.20818400  1.0
  Zn  Zn2346  1  0.83278000  0.26599248  0.20818400  1.0
  Zn  Zn2347  1  0.83278000  0.59932581  0.20818400  1.0
  Zn  Zn2348  1  0.83278000  0.93265915  0.20818400  1.0
  Zn  Zn2349  1  0.33278000  0.30765915  0.20818400  1.0
  Zn  Zn2350  1  0.33278000  0.64099248  0.20818400  1.0
  Zn  Zn2351  1  0.33278000  0.97432581  0.20818400  1.0
  Zn  Zn2352  1  0.66611333  0.30765915  0.20818400  1.0
  Zn  Zn2353  1  0.66611333  0.64099248  0.20818400  1.0
  Zn  Zn2354  1  0.66611333  0.97432581  0.20818400  1.0
  Zn  Zn2355  1  0.99944667  0.30765915  0.20818400  1.0
  Zn  Zn2356  1  0.99944667  0.64099248  0.20818400  1.0
  Zn  Zn2357  1  0.99944667  0.97432581  0.20818400  1.0
  Zn  Zn2358  1  0.19625517  0.26884735  0.69057900  1.0
  Zn  Zn2359  1  0.19625517  0.60218069  0.69057900  1.0
  Zn  Zn2360  1  0.19625517  0.93551402  0.69057900  1.0
  Zn  Zn2361  1  0.52958850  0.26884735  0.69057900  1.0
  Zn  Zn2362  1  0.52958850  0.60218069  0.69057900  1.0
  Zn  Zn2363  1  0.52958850  0.93551402  0.69057900  1.0
  Zn  Zn2364  1  0.86292183  0.26884735  0.69057900  1.0
  Zn  Zn2365  1  0.86292183  0.60218069  0.69057900  1.0
  Zn  Zn2366  1  0.86292183  0.93551402  0.69057900  1.0
  Zn  Zn2367  1  0.02958850  0.31051402  0.69057900  1.0
  Zn  Zn2368  1  0.02958850  0.64384735  0.69057900  1.0
  Zn  Zn2369  1  0.02958850  0.97718069  0.69057900  1.0
  Zn  Zn2370  1  0.36292183  0.31051402  0.69057900  1.0
  Zn  Zn2371  1  0.36292183  0.64384735  0.69057900  1.0
  Zn  Zn2372  1  0.36292183  0.97718069  0.69057900  1.0
  Zn  Zn2373  1  0.69625517  0.31051402  0.69057900  1.0
  Zn  Zn2374  1  0.69625517  0.64384735  0.69057900  1.0
  Zn  Zn2375  1  0.69625517  0.97718069  0.69057900  1.0
  Zn  Zn2376  1  0.22683850  0.29944719  0.79181600  1.0
  Zn  Zn2377  1  0.22683850  0.63278052  0.79181600  1.0
  Zn  Zn2378  1  0.22683850  0.96611385  0.79181600  1.0
  Zn  Zn2379  1  0.56017183  0.29944719  0.79181600  1.0
  Zn  Zn2380  1  0.56017183  0.63278052  0.79181600  1.0
  Zn  Zn2381  1  0.56017183  0.96611385  0.79181600  1.0
  Zn  Zn2382  1  0.89350517  0.29944719  0.79181600  1.0
  Zn  Zn2383  1  0.89350517  0.63278052  0.79181600  1.0
  Zn  Zn2384  1  0.89350517  0.96611385  0.79181600  1.0
  Zn  Zn2385  1  0.06017183  0.25778052  0.79181600  1.0
  Zn  Zn2386  1  0.06017183  0.59111385  0.79181600  1.0
  Zn  Zn2387  1  0.06017183  0.92444719  0.79181600  1.0
  Zn  Zn2388  1  0.39350517  0.25778052  0.79181600  1.0
  Zn  Zn2389  1  0.39350517  0.59111385  0.79181600  1.0
  Zn  Zn2390  1  0.39350517  0.92444719  0.79181600  1.0
  Zn  Zn2391  1  0.72683850  0.25778052  0.79181600  1.0
  Zn  Zn2392  1  0.72683850  0.59111385  0.79181600  1.0
  Zn  Zn2393  1  0.72683850  0.92444719  0.79181600  1.0
  Zn  Zn2394  1  0.05154500  0.29533465  0.22284200  1.0
  Zn  Zn2395  1  0.05154500  0.62866798  0.22284200  1.0
  Zn  Zn2396  1  0.05154500  0.96200131  0.22284200  1.0
  Zn  Zn2397  1  0.38487833  0.29533465  0.22284200  1.0
  Zn  Zn2398  1  0.38487833  0.62866798  0.22284200  1.0
  Zn  Zn2399  1  0.38487833  0.96200131  0.22284200  1.0
  Zn  Zn2400  1  0.71821167  0.29533465  0.22284200  1.0
  Zn  Zn2401  1  0.71821167  0.62866798  0.22284200  1.0
  Zn  Zn2402  1  0.71821167  0.96200131  0.22284200  1.0
  Zn  Zn2403  1  0.21821167  0.25366798  0.22284200  1.0
  Zn  Zn2404  1  0.21821167  0.58700131  0.22284200  1.0
  Zn  Zn2405  1  0.21821167  0.92033465  0.22284200  1.0
  Zn  Zn2406  1  0.55154500  0.25366798  0.22284200  1.0
  Zn  Zn2407  1  0.55154500  0.58700131  0.22284200  1.0
  Zn  Zn2408  1  0.55154500  0.92033465  0.22284200  1.0
  Zn  Zn2409  1  0.88487833  0.25366798  0.22284200  1.0
  Zn  Zn2410  1  0.88487833  0.58700131  0.22284200  1.0
  Zn  Zn2411  1  0.88487833  0.92033465  0.22284200  1.0
  Zn  Zn2412  1  0.16427883  0.30562585  0.03599200  1.0
  Zn  Zn2413  1  0.16427883  0.63895919  0.03599200  1.0
  Zn  Zn2414  1  0.16427883  0.97229252  0.03599200  1.0
  Zn  Zn2415  1  0.49761217  0.30562585  0.03599200  1.0
  Zn  Zn2416  1  0.49761217  0.63895919  0.03599200  1.0
  Zn  Zn2417  1  0.49761217  0.97229252  0.03599200  1.0
  Zn  Zn2418  1  0.83094550  0.30562585  0.03599200  1.0
  Zn  Zn2419  1  0.83094550  0.63895919  0.03599200  1.0
  Zn  Zn2420  1  0.83094550  0.97229252  0.03599200  1.0
  Zn  Zn2421  1  0.33094550  0.26395919  0.03599200  1.0
  Zn  Zn2422  1  0.33094550  0.59729252  0.03599200  1.0
  Zn  Zn2423  1  0.33094550  0.93062585  0.03599200  1.0
  Zn  Zn2424  1  0.66427883  0.26395919  0.03599200  1.0
  Zn  Zn2425  1  0.66427883  0.59729252  0.03599200  1.0
  Zn  Zn2426  1  0.66427883  0.93062585  0.03599200  1.0
  Zn  Zn2427  1  0.99761217  0.26395919  0.03599200  1.0
  Zn  Zn2428  1  0.99761217  0.59729252  0.03599200  1.0
  Zn  Zn2429  1  0.99761217  0.93062585  0.03599200  1.0
  Zn  Zn2430  1  0.08535533  0.31616606  0.27715800  1.0
  Zn  Zn2431  1  0.08535533  0.64949940  0.27715800  1.0
  Zn  Zn2432  1  0.08535533  0.98283273  0.27715800  1.0
  Zn  Zn2433  1  0.41868867  0.31616606  0.27715800  1.0
  Zn  Zn2434  1  0.41868867  0.64949940  0.27715800  1.0
  Zn  Zn2435  1  0.41868867  0.98283273  0.27715800  1.0
  Zn  Zn2436  1  0.75202200  0.31616606  0.27715800  1.0
  Zn  Zn2437  1  0.75202200  0.64949940  0.27715800  1.0
  Zn  Zn2438  1  0.75202200  0.98283273  0.27715800  1.0
  Zn  Zn2439  1  0.25202200  0.27449940  0.27715800  1.0
  Zn  Zn2440  1  0.25202200  0.60783273  0.27715800  1.0
  Zn  Zn2441  1  0.25202200  0.94116606  0.27715800  1.0
  Zn  Zn2442  1  0.58535533  0.27449940  0.27715800  1.0
  Zn  Zn2443  1  0.58535533  0.60783273  0.27715800  1.0
  Zn  Zn2444  1  0.58535533  0.94116606  0.27715800  1.0
  Zn  Zn2445  1  0.91868867  0.27449940  0.27715800  1.0
  Zn  Zn2446  1  0.91868867  0.60783273  0.27715800  1.0
  Zn  Zn2447  1  0.91868867  0.94116606  0.27715800  1.0
  Zn  Zn2448  1  0.17047017  0.31422335  0.40826300  1.0
  Zn  Zn2449  1  0.17047017  0.64755669  0.40826300  1.0
  Zn  Zn2450  1  0.17047017  0.98089002  0.40826300  1.0
  Zn  Zn2451  1  0.50380350  0.31422335  0.40826300  1.0
  Zn  Zn2452  1  0.50380350  0.64755669  0.40826300  1.0
  Zn  Zn2453  1  0.50380350  0.98089002  0.40826300  1.0
  Zn  Zn2454  1  0.83713683  0.31422335  0.40826300  1.0
  Zn  Zn2455  1  0.83713683  0.64755669  0.40826300  1.0
  Zn  Zn2456  1  0.83713683  0.98089002  0.40826300  1.0
  Zn  Zn2457  1  0.00380350  0.27255669  0.40826300  1.0
  Zn  Zn2458  1  0.00380350  0.60589002  0.40826300  1.0
  Zn  Zn2459  1  0.00380350  0.93922335  0.40826300  1.0
  Zn  Zn2460  1  0.33713683  0.27255669  0.40826300  1.0
  Zn  Zn2461  1  0.33713683  0.60589002  0.40826300  1.0
  Zn  Zn2462  1  0.33713683  0.93922335  0.40826300  1.0
  Zn  Zn2463  1  0.67047017  0.27255669  0.40826300  1.0
  Zn  Zn2464  1  0.67047017  0.60589002  0.40826300  1.0
  Zn  Zn2465  1  0.67047017  0.93922335  0.40826300  1.0
  Zn  Zn2466  1  0.21638000  0.27680023  0.84638800  1.0
  Zn  Zn2467  1  0.21638000  0.61013356  0.84638800  1.0
  Zn  Zn2468  1  0.21638000  0.94346690  0.84638800  1.0
  Zn  Zn2469  1  0.54971333  0.27680023  0.84638800  1.0
  Zn  Zn2470  1  0.54971333  0.61013356  0.84638800  1.0
  Zn  Zn2471  1  0.54971333  0.94346690  0.84638800  1.0
  Zn  Zn2472  1  0.88304667  0.27680023  0.84638800  1.0
  Zn  Zn2473  1  0.88304667  0.61013356  0.84638800  1.0
  Zn  Zn2474  1  0.88304667  0.94346690  0.84638800  1.0
  Zn  Zn2475  1  0.04971333  0.31846690  0.84638800  1.0
  Zn  Zn2476  1  0.04971333  0.65180023  0.84638800  1.0
  Zn  Zn2477  1  0.04971333  0.98513356  0.84638800  1.0
  Zn  Zn2478  1  0.38304667  0.31846690  0.84638800  1.0
  Zn  Zn2479  1  0.38304667  0.65180023  0.84638800  1.0
  Zn  Zn2480  1  0.38304667  0.98513356  0.84638800  1.0
  Zn  Zn2481  1  0.71638000  0.31846690  0.84638800  1.0
  Zn  Zn2482  1  0.71638000  0.65180023  0.84638800  1.0
  Zn  Zn2483  1  0.71638000  0.98513356  0.84638800  1.0
  Zn  Zn2484  1  0.09671867  0.29031048  0.29181600  1.0
  Zn  Zn2485  1  0.09671867  0.62364381  0.29181600  1.0
  Zn  Zn2486  1  0.09671867  0.95697715  0.29181600  1.0
  Zn  Zn2487  1  0.43005200  0.29031048  0.29181600  1.0
  Zn  Zn2488  1  0.43005200  0.62364381  0.29181600  1.0
  Zn  Zn2489  1  0.43005200  0.95697715  0.29181600  1.0
  Zn  Zn2490  1  0.76338533  0.29031048  0.29181600  1.0
  Zn  Zn2491  1  0.76338533  0.62364381  0.29181600  1.0
  Zn  Zn2492  1  0.76338533  0.95697715  0.29181600  1.0
  Zn  Zn2493  1  0.26338533  0.33197715  0.29181600  1.0
  Zn  Zn2494  1  0.26338533  0.66531048  0.29181600  1.0
  Zn  Zn2495  1  0.26338533  0.99864381  0.29181600  1.0
  Zn  Zn2496  1  0.59671867  0.33197715  0.29181600  1.0
  Zn  Zn2497  1  0.59671867  0.66531048  0.29181600  1.0
  Zn  Zn2498  1  0.59671867  0.99864381  0.29181600  1.0
  Zn  Zn2499  1  0.93005200  0.33197715  0.29181600  1.0
  Zn  Zn2500  1  0.93005200  0.66531048  0.29181600  1.0
  Zn  Zn2501  1  0.93005200  0.99864381  0.29181600  1.0
  Zn  Zn2502  1  0.21222467  0.26220590  0.40826300  1.0
  Zn  Zn2503  1  0.21222467  0.59553923  0.40826300  1.0
  Zn  Zn2504  1  0.21222467  0.92887256  0.40826300  1.0
  Zn  Zn2505  1  0.54555800  0.26220590  0.40826300  1.0
  Zn  Zn2506  1  0.54555800  0.59553923  0.40826300  1.0
  Zn  Zn2507  1  0.54555800  0.92887256  0.40826300  1.0
  Zn  Zn2508  1  0.87889133  0.26220590  0.40826300  1.0
  Zn  Zn2509  1  0.87889133  0.59553923  0.40826300  1.0
  Zn  Zn2510  1  0.87889133  0.92887256  0.40826300  1.0
  Zn  Zn2511  1  0.04555800  0.30387256  0.40826300  1.0
  Zn  Zn2512  1  0.04555800  0.63720590  0.40826300  1.0
  Zn  Zn2513  1  0.04555800  0.97053923  0.40826300  1.0
  Zn  Zn2514  1  0.37889133  0.30387256  0.40826300  1.0
  Zn  Zn2515  1  0.37889133  0.63720590  0.40826300  1.0
  Zn  Zn2516  1  0.37889133  0.97053923  0.40826300  1.0
  Zn  Zn2517  1  0.71222467  0.30387256  0.40826300  1.0
  Zn  Zn2518  1  0.71222467  0.63720590  0.40826300  1.0
  Zn  Zn2519  1  0.71222467  0.97053923  0.40826300  1.0
  Zn  Zn2520  1  0.20223583  0.31800294  0.53185000  1.0
  Zn  Zn2521  1  0.20223583  0.65133627  0.53185000  1.0
  Zn  Zn2522  1  0.20223583  0.98466960  0.53185000  1.0
  Zn  Zn2523  1  0.53556917  0.31800294  0.53185000  1.0
  Zn  Zn2524  1  0.53556917  0.65133627  0.53185000  1.0
  Zn  Zn2525  1  0.53556917  0.98466960  0.53185000  1.0
  Zn  Zn2526  1  0.86890250  0.31800294  0.53185000  1.0
  Zn  Zn2527  1  0.86890250  0.65133627  0.53185000  1.0
  Zn  Zn2528  1  0.86890250  0.98466960  0.53185000  1.0
  Zn  Zn2529  1  0.03556917  0.27633627  0.53185000  1.0
  Zn  Zn2530  1  0.03556917  0.60966960  0.53185000  1.0
  Zn  Zn2531  1  0.03556917  0.94300294  0.53185000  1.0
  Zn  Zn2532  1  0.36890250  0.27633627  0.53185000  1.0
  Zn  Zn2533  1  0.36890250  0.60966960  0.53185000  1.0
  Zn  Zn2534  1  0.36890250  0.94300294  0.53185000  1.0
  Zn  Zn2535  1  0.70223583  0.27633627  0.53185000  1.0
  Zn  Zn2536  1  0.70223583  0.60966960  0.53185000  1.0
  Zn  Zn2537  1  0.70223583  0.94300294  0.53185000  1.0
  Zn  Zn2538  1  0.22104750  0.30892977  0.60155300  1.0
  Zn  Zn2539  1  0.22104750  0.64226310  0.60155300  1.0
  Zn  Zn2540  1  0.22104750  0.97559644  0.60155300  1.0
  Zn  Zn2541  1  0.55438083  0.30892977  0.60155300  1.0
  Zn  Zn2542  1  0.55438083  0.64226310  0.60155300  1.0
  Zn  Zn2543  1  0.55438083  0.97559644  0.60155300  1.0
  Zn  Zn2544  1  0.88771417  0.30892977  0.60155300  1.0
  Zn  Zn2545  1  0.88771417  0.64226310  0.60155300  1.0
  Zn  Zn2546  1  0.88771417  0.97559644  0.60155300  1.0
  Zn  Zn2547  1  0.05438083  0.26726310  0.60155300  1.0
  Zn  Zn2548  1  0.05438083  0.60059644  0.60155300  1.0
  Zn  Zn2549  1  0.05438083  0.93392977  0.60155300  1.0
  Zn  Zn2550  1  0.38771417  0.26726310  0.60155300  1.0
  Zn  Zn2551  1  0.38771417  0.60059644  0.60155300  1.0
  Zn  Zn2552  1  0.38771417  0.93392977  0.60155300  1.0
  Zn  Zn2553  1  0.72104750  0.26726310  0.60155300  1.0
  Zn  Zn2554  1  0.72104750  0.60059644  0.60155300  1.0
  Zn  Zn2555  1  0.72104750  0.93392977  0.60155300  1.0
  Zn  Zn2556  1  0.15951000  0.27480190  0.02343700  1.0
  Zn  Zn2557  1  0.15951000  0.60813523  0.02343700  1.0
  Zn  Zn2558  1  0.15951000  0.94146856  0.02343700  1.0
  Zn  Zn2559  1  0.49284333  0.27480190  0.02343700  1.0
  Zn  Zn2560  1  0.49284333  0.60813523  0.02343700  1.0
  Zn  Zn2561  1  0.49284333  0.94146856  0.02343700  1.0
  Zn  Zn2562  1  0.82617667  0.27480190  0.02343700  1.0
  Zn  Zn2563  1  0.82617667  0.60813523  0.02343700  1.0
  Zn  Zn2564  1  0.82617667  0.94146856  0.02343700  1.0
  Zn  Zn2565  1  0.32617667  0.31646856  0.02343700  1.0
  Zn  Zn2566  1  0.32617667  0.64980190  0.02343700  1.0
  Zn  Zn2567  1  0.32617667  0.98313523  0.02343700  1.0
  Zn  Zn2568  1  0.65951000  0.31646856  0.02343700  1.0
  Zn  Zn2569  1  0.65951000  0.64980190  0.02343700  1.0
  Zn  Zn2570  1  0.65951000  0.98313523  0.02343700  1.0
  Zn  Zn2571  1  0.99284333  0.31646856  0.02343700  1.0
  Zn  Zn2572  1  0.99284333  0.64980190  0.02343700  1.0
  Zn  Zn2573  1  0.99284333  0.98313523  0.02343700  1.0
  Zn  Zn2574  1  0.21968450  0.29234502  0.39844700  1.0
  Zn  Zn2575  1  0.21968450  0.62567835  0.39844700  1.0
  Zn  Zn2576  1  0.21968450  0.95901169  0.39844700  1.0
  Zn  Zn2577  1  0.55301783  0.29234502  0.39844700  1.0
  Zn  Zn2578  1  0.55301783  0.62567835  0.39844700  1.0
  Zn  Zn2579  1  0.55301783  0.95901169  0.39844700  1.0
  Zn  Zn2580  1  0.88635117  0.29234502  0.39844700  1.0
  Zn  Zn2581  1  0.88635117  0.62567835  0.39844700  1.0
  Zn  Zn2582  1  0.88635117  0.95901169  0.39844700  1.0
  Zn  Zn2583  1  0.05301783  0.25067835  0.39844700  1.0
  Zn  Zn2584  1  0.05301783  0.58401169  0.39844700  1.0
  Zn  Zn2585  1  0.05301783  0.91734502  0.39844700  1.0
  Zn  Zn2586  1  0.38635117  0.25067835  0.39844700  1.0
  Zn  Zn2587  1  0.38635117  0.58401169  0.39844700  1.0
  Zn  Zn2588  1  0.38635117  0.91734502  0.39844700  1.0
  Zn  Zn2589  1  0.71968450  0.25067835  0.39844700  1.0
  Zn  Zn2590  1  0.71968450  0.58401169  0.39844700  1.0
  Zn  Zn2591  1  0.71968450  0.91734502  0.39844700  1.0
  Zn  Zn2592  1  0.14613683  0.26192544  0.10155300  1.0
  Zn  Zn2593  1  0.14613683  0.59525877  0.10155300  1.0
  Zn  Zn2594  1  0.14613683  0.92859210  0.10155300  1.0
  Zn  Zn2595  1  0.47947017  0.26192544  0.10155300  1.0
  Zn  Zn2596  1  0.47947017  0.59525877  0.10155300  1.0
  Zn  Zn2597  1  0.47947017  0.92859210  0.10155300  1.0
  Zn  Zn2598  1  0.81280350  0.26192544  0.10155300  1.0
  Zn  Zn2599  1  0.81280350  0.59525877  0.10155300  1.0
  Zn  Zn2600  1  0.81280350  0.92859210  0.10155300  1.0
  Zn  Zn2601  1  0.31280350  0.30359210  0.10155300  1.0
  Zn  Zn2602  1  0.31280350  0.63692544  0.10155300  1.0
  Zn  Zn2603  1  0.31280350  0.97025877  0.10155300  1.0
  Zn  Zn2604  1  0.64613683  0.30359210  0.10155300  1.0
  Zn  Zn2605  1  0.64613683  0.63692544  0.10155300  1.0
  Zn  Zn2606  1  0.64613683  0.97025877  0.10155300  1.0
  Zn  Zn2607  1  0.97947017  0.30359210  0.10155300  1.0
  Zn  Zn2608  1  0.97947017  0.63692544  0.10155300  1.0
  Zn  Zn2609  1  0.97947017  0.97025877  0.10155300  1.0
  Zn  Zn2610  1  0.13109750  0.28605619  0.46815000  1.0
  Zn  Zn2611  1  0.13109750  0.61938952  0.46815000  1.0
  Zn  Zn2612  1  0.13109750  0.95272285  0.46815000  1.0
  Zn  Zn2613  1  0.46443083  0.28605619  0.46815000  1.0
  Zn  Zn2614  1  0.46443083  0.61938952  0.46815000  1.0
  Zn  Zn2615  1  0.46443083  0.95272285  0.46815000  1.0
  Zn  Zn2616  1  0.79776417  0.28605619  0.46815000  1.0
  Zn  Zn2617  1  0.79776417  0.61938952  0.46815000  1.0
  Zn  Zn2618  1  0.79776417  0.95272285  0.46815000  1.0
  Zn  Zn2619  1  0.29776417  0.32772285  0.46815000  1.0
  Zn  Zn2620  1  0.29776417  0.66105619  0.46815000  1.0
  Zn  Zn2621  1  0.29776417  0.99438952  0.46815000  1.0
  Zn  Zn2622  1  0.63109750  0.32772285  0.46815000  1.0
  Zn  Zn2623  1  0.63109750  0.66105619  0.46815000  1.0
  Zn  Zn2624  1  0.63109750  0.99438952  0.46815000  1.0
  Zn  Zn2625  1  0.96443083  0.32772285  0.46815000  1.0
  Zn  Zn2626  1  0.96443083  0.66105619  0.46815000  1.0
  Zn  Zn2627  1  0.96443083  0.99438952  0.46815000  1.0
  Zn  Zn2628  1  0.24300950  0.27657752  0.92360400  1.0
  Zn  Zn2629  1  0.24300950  0.60991085  0.92360400  1.0
  Zn  Zn2630  1  0.24300950  0.94324419  0.92360400  1.0
  Zn  Zn2631  1  0.57634283  0.27657752  0.92360400  1.0
  Zn  Zn2632  1  0.57634283  0.60991085  0.92360400  1.0
  Zn  Zn2633  1  0.57634283  0.94324419  0.92360400  1.0
  Zn  Zn2634  1  0.90967617  0.27657752  0.92360400  1.0
  Zn  Zn2635  1  0.90967617  0.60991085  0.92360400  1.0
  Zn  Zn2636  1  0.90967617  0.94324419  0.92360400  1.0
  Zn  Zn2637  1  0.07634283  0.31824419  0.92360400  1.0
  Zn  Zn2638  1  0.07634283  0.65157752  0.92360400  1.0
  Zn  Zn2639  1  0.07634283  0.98491085  0.92360400  1.0
  Zn  Zn2640  1  0.40967617  0.31824419  0.92360400  1.0
  Zn  Zn2641  1  0.40967617  0.65157752  0.92360400  1.0
  Zn  Zn2642  1  0.40967617  0.98491085  0.92360400  1.0
  Zn  Zn2643  1  0.74300950  0.31824419  0.92360400  1.0
  Zn  Zn2644  1  0.74300950  0.65157752  0.92360400  1.0
  Zn  Zn2645  1  0.74300950  0.98491085  0.92360400  1.0
  Zn  Zn2646  1  0.20376683  0.28726327  0.29181600  1.0
  Zn  Zn2647  1  0.20376683  0.62059660  0.29181600  1.0
  Zn  Zn2648  1  0.20376683  0.95392994  0.29181600  1.0
  Zn  Zn2649  1  0.53710017  0.28726327  0.29181600  1.0
  Zn  Zn2650  1  0.53710017  0.62059660  0.29181600  1.0
  Zn  Zn2651  1  0.53710017  0.95392994  0.29181600  1.0
  Zn  Zn2652  1  0.87043350  0.28726327  0.29181600  1.0
  Zn  Zn2653  1  0.87043350  0.62059660  0.29181600  1.0
  Zn  Zn2654  1  0.87043350  0.95392994  0.29181600  1.0
  Zn  Zn2655  1  0.03710017  0.32892994  0.29181600  1.0
  Zn  Zn2656  1  0.03710017  0.66226327  0.29181600  1.0
  Zn  Zn2657  1  0.03710017  0.99559660  0.29181600  1.0
  Zn  Zn2658  1  0.37043350  0.32892994  0.29181600  1.0
  Zn  Zn2659  1  0.37043350  0.66226327  0.29181600  1.0
  Zn  Zn2660  1  0.37043350  0.99559660  0.29181600  1.0
  Zn  Zn2661  1  0.70376683  0.32892994  0.29181600  1.0
  Zn  Zn2662  1  0.70376683  0.66226327  0.29181600  1.0
  Zn  Zn2663  1  0.70376683  0.99559660  0.29181600  1.0
  Zn  Zn2664  1  0.11969583  0.32642210  0.52343700  1.0
  Zn  Zn2665  1  0.11969583  0.65975544  0.52343700  1.0
  Zn  Zn2666  1  0.11969583  0.99308877  0.52343700  1.0
  Zn  Zn2667  1  0.45302917  0.32642210  0.52343700  1.0
  Zn  Zn2668  1  0.45302917  0.65975544  0.52343700  1.0
  Zn  Zn2669  1  0.45302917  0.99308877  0.52343700  1.0
  Zn  Zn2670  1  0.78636250  0.32642210  0.52343700  1.0
  Zn  Zn2671  1  0.78636250  0.65975544  0.52343700  1.0
  Zn  Zn2672  1  0.78636250  0.99308877  0.52343700  1.0
  Zn  Zn2673  1  0.28636250  0.28475544  0.52343700  1.0
  Zn  Zn2674  1  0.28636250  0.61808877  0.52343700  1.0
  Zn  Zn2675  1  0.28636250  0.95142210  0.52343700  1.0
  Zn  Zn2676  1  0.61969583  0.28475544  0.52343700  1.0
  Zn  Zn2677  1  0.61969583  0.61808877  0.52343700  1.0
  Zn  Zn2678  1  0.61969583  0.95142210  0.52343700  1.0
  Zn  Zn2679  1  0.95302917  0.28475544  0.52343700  1.0
  Zn  Zn2680  1  0.95302917  0.61808877  0.52343700  1.0
  Zn  Zn2681  1  0.95302917  0.95142210  0.52343700  1.0
  Zn  Zn2682  1  0.16286317  0.28983577  0.59173700  1.0
  Zn  Zn2683  1  0.16286317  0.62316910  0.59173700  1.0
  Zn  Zn2684  1  0.16286317  0.95650244  0.59173700  1.0
  Zn  Zn2685  1  0.49619650  0.28983577  0.59173700  1.0
  Zn  Zn2686  1  0.49619650  0.62316910  0.59173700  1.0
  Zn  Zn2687  1  0.49619650  0.95650244  0.59173700  1.0
  Zn  Zn2688  1  0.82952983  0.28983577  0.59173700  1.0
  Zn  Zn2689  1  0.82952983  0.62316910  0.59173700  1.0
  Zn  Zn2690  1  0.82952983  0.95650244  0.59173700  1.0
  Zn  Zn2691  1  0.32952983  0.33150244  0.59173700  1.0
  Zn  Zn2692  1  0.32952983  0.66483577  0.59173700  1.0
  Zn  Zn2693  1  0.32952983  0.99816910  0.59173700  1.0
  Zn  Zn2694  1  0.66286317  0.33150244  0.59173700  1.0
  Zn  Zn2695  1  0.66286317  0.66483577  0.59173700  1.0
  Zn  Zn2696  1  0.66286317  0.99816910  0.59173700  1.0
  Zn  Zn2697  1  0.99619650  0.33150244  0.59173700  1.0
  Zn  Zn2698  1  0.99619650  0.66483577  0.59173700  1.0
  Zn  Zn2699  1  0.99619650  0.99816910  0.59173700  1.0
  Zn  Zn2700  1  0.14039967  0.30278765  0.15401100  1.0
  Zn  Zn2701  1  0.14039967  0.63612098  0.15401100  1.0
  Zn  Zn2702  1  0.14039967  0.96945431  0.15401100  1.0
  Zn  Zn2703  1  0.47373300  0.30278765  0.15401100  1.0
  Zn  Zn2704  1  0.47373300  0.63612098  0.15401100  1.0
  Zn  Zn2705  1  0.47373300  0.96945431  0.15401100  1.0
  Zn  Zn2706  1  0.80706633  0.30278765  0.15401100  1.0
  Zn  Zn2707  1  0.80706633  0.63612098  0.15401100  1.0
  Zn  Zn2708  1  0.80706633  0.96945431  0.15401100  1.0
  Zn  Zn2709  1  0.30706633  0.26112098  0.15401100  1.0
  Zn  Zn2710  1  0.30706633  0.59445431  0.15401100  1.0
  Zn  Zn2711  1  0.30706633  0.92778765  0.15401100  1.0
  Zn  Zn2712  1  0.64039967  0.26112098  0.15401100  1.0
  Zn  Zn2713  1  0.64039967  0.59445431  0.15401100  1.0
  Zn  Zn2714  1  0.64039967  0.92778765  0.15401100  1.0
  Zn  Zn2715  1  0.97373300  0.26112098  0.15401100  1.0
  Zn  Zn2716  1  0.97373300  0.59445431  0.15401100  1.0
  Zn  Zn2717  1  0.97373300  0.92778765  0.15401100  1.0
  Zn  Zn2718  1  0.12110867  0.25851990  0.59173700  1.0
  Zn  Zn2719  1  0.12110867  0.59185323  0.59173700  1.0
  Zn  Zn2720  1  0.12110867  0.92518656  0.59173700  1.0
  Zn  Zn2721  1  0.45444200  0.25851990  0.59173700  1.0
  Zn  Zn2722  1  0.45444200  0.59185323  0.59173700  1.0
  Zn  Zn2723  1  0.45444200  0.92518656  0.59173700  1.0
  Zn  Zn2724  1  0.78777533  0.25851990  0.59173700  1.0
  Zn  Zn2725  1  0.78777533  0.59185323  0.59173700  1.0
  Zn  Zn2726  1  0.78777533  0.92518656  0.59173700  1.0
  Zn  Zn2727  1  0.28777533  0.30018656  0.59173700  1.0
  Zn  Zn2728  1  0.28777533  0.63351990  0.59173700  1.0
  Zn  Zn2729  1  0.28777533  0.96685323  0.59173700  1.0
  Zn  Zn2730  1  0.62110867  0.30018656  0.59173700  1.0
  Zn  Zn2731  1  0.62110867  0.63351990  0.59173700  1.0
  Zn  Zn2732  1  0.62110867  0.96685323  0.59173700  1.0
  Zn  Zn2733  1  0.95444200  0.30018656  0.59173700  1.0
  Zn  Zn2734  1  0.95444200  0.63351990  0.59173700  1.0
  Zn  Zn2735  1  0.95444200  0.96685323  0.59173700  1.0
  Zn  Zn2736  1  0.10280383  0.30119427  0.03185000  1.0
  Zn  Zn2737  1  0.10280383  0.63452760  0.03185000  1.0
  Zn  Zn2738  1  0.10280383  0.96786094  0.03185000  1.0
  Zn  Zn2739  1  0.43613717  0.30119427  0.03185000  1.0
  Zn  Zn2740  1  0.43613717  0.63452760  0.03185000  1.0
  Zn  Zn2741  1  0.43613717  0.96786094  0.03185000  1.0
  Zn  Zn2742  1  0.76947050  0.30119427  0.03185000  1.0
  Zn  Zn2743  1  0.76947050  0.63452760  0.03185000  1.0
  Zn  Zn2744  1  0.76947050  0.96786094  0.03185000  1.0
  Zn  Zn2745  1  0.26947050  0.25952760  0.03185000  1.0
  Zn  Zn2746  1  0.26947050  0.59286094  0.03185000  1.0
  Zn  Zn2747  1  0.26947050  0.92619427  0.03185000  1.0
  Zn  Zn2748  1  0.60280383  0.25952760  0.03185000  1.0
  Zn  Zn2749  1  0.60280383  0.59286094  0.03185000  1.0
  Zn  Zn2750  1  0.60280383  0.92619427  0.03185000  1.0
  Zn  Zn2751  1  0.93613717  0.25952760  0.03185000  1.0
  Zn  Zn2752  1  0.93613717  0.59286094  0.03185000  1.0
  Zn  Zn2753  1  0.93613717  0.92619427  0.03185000  1.0
  Zn  Zn2754  1  0.18139767  0.26615481  0.61369600  1.0
  Zn  Zn2755  1  0.18139767  0.59948815  0.61369600  1.0
  Zn  Zn2756  1  0.18139767  0.93282148  0.61369600  1.0
  Zn  Zn2757  1  0.51473100  0.26615481  0.61369600  1.0
  Zn  Zn2758  1  0.51473100  0.59948815  0.61369600  1.0
  Zn  Zn2759  1  0.51473100  0.93282148  0.61369600  1.0
  Zn  Zn2760  1  0.84806433  0.26615481  0.61369600  1.0
  Zn  Zn2761  1  0.84806433  0.59948815  0.61369600  1.0
  Zn  Zn2762  1  0.84806433  0.93282148  0.61369600  1.0
  Zn  Zn2763  1  0.01473100  0.30782148  0.61369600  1.0
  Zn  Zn2764  1  0.01473100  0.64115481  0.61369600  1.0
  Zn  Zn2765  1  0.01473100  0.97448815  0.61369600  1.0
  Zn  Zn2766  1  0.34806433  0.30782148  0.61369600  1.0
  Zn  Zn2767  1  0.34806433  0.64115481  0.61369600  1.0
  Zn  Zn2768  1  0.34806433  0.97448815  0.61369600  1.0
  Zn  Zn2769  1  0.68139767  0.30782148  0.61369600  1.0
  Zn  Zn2770  1  0.68139767  0.64115481  0.61369600  1.0
  Zn  Zn2771  1  0.68139767  0.97448815  0.61369600  1.0
  Zn  Zn2772  1  0.08333333  0.32286290  0.00000000  1.0
  Zn  Zn2773  1  0.08333333  0.65619623  0.00000000  1.0
  Zn  Zn2774  1  0.08333333  0.98952956  0.00000000  1.0
  Zn  Zn2775  1  0.41666667  0.32286290  0.00000000  1.0
  Zn  Zn2776  1  0.41666667  0.65619623  0.00000000  1.0
  Zn  Zn2777  1  0.41666667  0.98952956  0.00000000  1.0
  Zn  Zn2778  1  0.75000000  0.32286290  0.00000000  1.0
  Zn  Zn2779  1  0.75000000  0.65619623  0.00000000  1.0
  Zn  Zn2780  1  0.75000000  0.98952956  0.00000000  1.0
  Zn  Zn2781  1  0.25000000  0.28119623  0.00000000  1.0
  Zn  Zn2782  1  0.25000000  0.61452956  0.00000000  1.0
  Zn  Zn2783  1  0.25000000  0.94786290  0.00000000  1.0
  Zn  Zn2784  1  0.58333333  0.28119623  0.00000000  1.0
  Zn  Zn2785  1  0.58333333  0.61452956  0.00000000  1.0
  Zn  Zn2786  1  0.58333333  0.94786290  0.00000000  1.0
  Zn  Zn2787  1  0.91666667  0.28119623  0.00000000  1.0
  Zn  Zn2788  1  0.91666667  0.61452956  0.00000000  1.0
  Zn  Zn2789  1  0.91666667  0.94786290  0.00000000  1.0
  Zn  Zn2790  1  0.05309667  0.32868598  0.21971800  1.0
  Zn  Zn2791  1  0.05309667  0.66201931  0.21971800  1.0
  Zn  Zn2792  1  0.05309667  0.99535265  0.21971800  1.0
  Zn  Zn2793  1  0.38643000  0.32868598  0.21971800  1.0
  Zn  Zn2794  1  0.38643000  0.66201931  0.21971800  1.0
  Zn  Zn2795  1  0.38643000  0.99535265  0.21971800  1.0
  Zn  Zn2796  1  0.71976333  0.32868598  0.21971800  1.0
  Zn  Zn2797  1  0.71976333  0.66201931  0.21971800  1.0
  Zn  Zn2798  1  0.71976333  0.99535265  0.21971800  1.0
  Zn  Zn2799  1  0.21976333  0.28701931  0.21971800  1.0
  Zn  Zn2800  1  0.21976333  0.62035265  0.21971800  1.0
  Zn  Zn2801  1  0.21976333  0.95368598  0.21971800  1.0
  Zn  Zn2802  1  0.55309667  0.28701931  0.21971800  1.0
  Zn  Zn2803  1  0.55309667  0.62035265  0.21971800  1.0
  Zn  Zn2804  1  0.55309667  0.95368598  0.21971800  1.0
  Zn  Zn2805  1  0.88643000  0.28701931  0.21971800  1.0
  Zn  Zn2806  1  0.88643000  0.62035265  0.21971800  1.0
  Zn  Zn2807  1  0.88643000  0.95368598  0.21971800  1.0
  Zn  Zn2808  1  0.24014483  0.32863760  0.78028200  1.0
  Zn  Zn2809  1  0.24014483  0.66197094  0.78028200  1.0
  Zn  Zn2810  1  0.24014483  0.99530427  0.78028200  1.0
  Zn  Zn2811  1  0.57347817  0.32863760  0.78028200  1.0
  Zn  Zn2812  1  0.57347817  0.66197094  0.78028200  1.0
  Zn  Zn2813  1  0.57347817  0.99530427  0.78028200  1.0
  Zn  Zn2814  1  0.90681150  0.32863760  0.78028200  1.0
  Zn  Zn2815  1  0.90681150  0.66197094  0.78028200  1.0
  Zn  Zn2816  1  0.90681150  0.99530427  0.78028200  1.0
  Zn  Zn2817  1  0.07347817  0.28697094  0.78028200  1.0
  Zn  Zn2818  1  0.07347817  0.62030427  0.78028200  1.0
  Zn  Zn2819  1  0.07347817  0.95363760  0.78028200  1.0
  Zn  Zn2820  1  0.40681150  0.28697094  0.78028200  1.0
  Zn  Zn2821  1  0.40681150  0.62030427  0.78028200  1.0
  Zn  Zn2822  1  0.40681150  0.95363760  0.78028200  1.0
  Zn  Zn2823  1  0.74014483  0.28697094  0.78028200  1.0
  Zn  Zn2824  1  0.74014483  0.62030427  0.78028200  1.0
  Zn  Zn2825  1  0.74014483  0.95363760  0.78028200  1.0
  Zn  Zn2826  1  0.02824767  0.29012831  0.08578400  1.0
  Zn  Zn2827  1  0.02824767  0.62346165  0.08578400  1.0
  Zn  Zn2828  1  0.02824767  0.95679498  0.08578400  1.0
  Zn  Zn2829  1  0.36158100  0.29012831  0.08578400  1.0
  Zn  Zn2830  1  0.36158100  0.62346165  0.08578400  1.0
  Zn  Zn2831  1  0.36158100  0.95679498  0.08578400  1.0
  Zn  Zn2832  1  0.69491433  0.29012831  0.08578400  1.0
  Zn  Zn2833  1  0.69491433  0.62346165  0.08578400  1.0
  Zn  Zn2834  1  0.69491433  0.95679498  0.08578400  1.0
  Zn  Zn2835  1  0.19491433  0.33179498  0.08578400  1.0
  Zn  Zn2836  1  0.19491433  0.66512831  0.08578400  1.0
  Zn  Zn2837  1  0.19491433  0.99846165  0.08578400  1.0
  Zn  Zn2838  1  0.52824767  0.33179498  0.08578400  1.0
  Zn  Zn2839  1  0.52824767  0.66512831  0.08578400  1.0
  Zn  Zn2840  1  0.52824767  0.99846165  0.08578400  1.0
  Zn  Zn2841  1  0.86158100  0.33179498  0.08578400  1.0
  Zn  Zn2842  1  0.86158100  0.66512831  0.08578400  1.0
  Zn  Zn2843  1  0.86158100  0.99846165  0.08578400  1.0
  Zn  Zn2844  1  0.03438250  0.32186810  0.09173700  1.0
  Zn  Zn2845  1  0.03438250  0.65520144  0.09173700  1.0
  Zn  Zn2846  1  0.03438250  0.98853477  0.09173700  1.0
  Zn  Zn2847  1  0.36771583  0.32186810  0.09173700  1.0
  Zn  Zn2848  1  0.36771583  0.65520144  0.09173700  1.0
  Zn  Zn2849  1  0.36771583  0.98853477  0.09173700  1.0
  Zn  Zn2850  1  0.70104917  0.32186810  0.09173700  1.0
  Zn  Zn2851  1  0.70104917  0.65520144  0.09173700  1.0
  Zn  Zn2852  1  0.70104917  0.98853477  0.09173700  1.0
  Zn  Zn2853  1  0.20104917  0.28020144  0.09173700  1.0
  Zn  Zn2854  1  0.20104917  0.61353477  0.09173700  1.0
  Zn  Zn2855  1  0.20104917  0.94686810  0.09173700  1.0
  Zn  Zn2856  1  0.53438250  0.28020144  0.09173700  1.0
  Zn  Zn2857  1  0.53438250  0.61353477  0.09173700  1.0
  Zn  Zn2858  1  0.53438250  0.94686810  0.09173700  1.0
  Zn  Zn2859  1  0.86771583  0.28020144  0.09173700  1.0
  Zn  Zn2860  1  0.86771583  0.61353477  0.09173700  1.0
  Zn  Zn2861  1  0.86771583  0.94686810  0.09173700  1.0
  Zn  Zn2862  1  0.14393100  0.27676448  0.27715800  1.0
  Zn  Zn2863  1  0.14393100  0.61009781  0.27715800  1.0
  Zn  Zn2864  1  0.14393100  0.94343115  0.27715800  1.0
  Zn  Zn2865  1  0.47726433  0.27676448  0.27715800  1.0
  Zn  Zn2866  1  0.47726433  0.61009781  0.27715800  1.0
  Zn  Zn2867  1  0.47726433  0.94343115  0.27715800  1.0
  Zn  Zn2868  1  0.81059767  0.27676448  0.27715800  1.0
  Zn  Zn2869  1  0.81059767  0.61009781  0.27715800  1.0
  Zn  Zn2870  1  0.81059767  0.94343115  0.27715800  1.0
  Zn  Zn2871  1  0.31059767  0.31843115  0.27715800  1.0
  Zn  Zn2872  1  0.31059767  0.65176448  0.27715800  1.0
  Zn  Zn2873  1  0.31059767  0.98509781  0.27715800  1.0
  Zn  Zn2874  1  0.64393100  0.31843115  0.27715800  1.0
  Zn  Zn2875  1  0.64393100  0.65176448  0.27715800  1.0
  Zn  Zn2876  1  0.64393100  0.98509781  0.27715800  1.0
  Zn  Zn2877  1  0.97726433  0.31843115  0.27715800  1.0
  Zn  Zn2878  1  0.97726433  0.65176448  0.27715800  1.0
  Zn  Zn2879  1  0.97726433  0.98509781  0.27715800  1.0
  Zn  Zn2880  1  0.15193567  0.25457098  0.38630400  1.0
  Zn  Zn2881  1  0.15193567  0.58790431  0.38630400  1.0
  Zn  Zn2882  1  0.15193567  0.92123765  0.38630400  1.0
  Zn  Zn2883  1  0.48526900  0.25457098  0.38630400  1.0
  Zn  Zn2884  1  0.48526900  0.58790431  0.38630400  1.0
  Zn  Zn2885  1  0.48526900  0.92123765  0.38630400  1.0
  Zn  Zn2886  1  0.81860233  0.25457098  0.38630400  1.0
  Zn  Zn2887  1  0.81860233  0.58790431  0.38630400  1.0
  Zn  Zn2888  1  0.81860233  0.92123765  0.38630400  1.0
  Zn  Zn2889  1  0.31860233  0.29623765  0.38630400  1.0
  Zn  Zn2890  1  0.31860233  0.62957098  0.38630400  1.0
  Zn  Zn2891  1  0.31860233  0.96290431  0.38630400  1.0
  Zn  Zn2892  1  0.65193567  0.29623765  0.38630400  1.0
  Zn  Zn2893  1  0.65193567  0.62957098  0.38630400  1.0
  Zn  Zn2894  1  0.65193567  0.96290431  0.38630400  1.0
  Zn  Zn2895  1  0.98526900  0.29623765  0.38630400  1.0
  Zn  Zn2896  1  0.98526900  0.62957098  0.38630400  1.0
  Zn  Zn2897  1  0.98526900  0.96290431  0.38630400  1.0
  Zn  Zn2898  1  0.05741183  0.31156102  0.15734400  1.0
  Zn  Zn2899  1  0.05741183  0.64489435  0.15734400  1.0
  Zn  Zn2900  1  0.05741183  0.97822769  0.15734400  1.0
  Zn  Zn2901  1  0.39074517  0.31156102  0.15734400  1.0
  Zn  Zn2902  1  0.39074517  0.64489435  0.15734400  1.0
  Zn  Zn2903  1  0.39074517  0.97822769  0.15734400  1.0
  Zn  Zn2904  1  0.72407850  0.31156102  0.15734400  1.0
  Zn  Zn2905  1  0.72407850  0.64489435  0.15734400  1.0
  Zn  Zn2906  1  0.72407850  0.97822769  0.15734400  1.0
  Zn  Zn2907  1  0.22407850  0.26989435  0.15734400  1.0
  Zn  Zn2908  1  0.22407850  0.60322769  0.15734400  1.0
  Zn  Zn2909  1  0.22407850  0.93656102  0.15734400  1.0
  Zn  Zn2910  1  0.55741183  0.26989435  0.15734400  1.0
  Zn  Zn2911  1  0.55741183  0.60322769  0.15734400  1.0
  Zn  Zn2912  1  0.55741183  0.93656102  0.15734400  1.0
  Zn  Zn2913  1  0.89074517  0.26989435  0.15734400  1.0
  Zn  Zn2914  1  0.89074517  0.60322769  0.15734400  1.0
  Zn  Zn2915  1  0.89074517  0.93656102  0.15734400  1.0
  Zn  Zn2916  1  0.19161917  0.27368210  0.96815000  1.0
  Zn  Zn2917  1  0.19161917  0.60701544  0.96815000  1.0
  Zn  Zn2918  1  0.19161917  0.94034877  0.96815000  1.0
  Zn  Zn2919  1  0.52495250  0.27368210  0.96815000  1.0
  Zn  Zn2920  1  0.52495250  0.60701544  0.96815000  1.0
  Zn  Zn2921  1  0.52495250  0.94034877  0.96815000  1.0
  Zn  Zn2922  1  0.85828583  0.27368210  0.96815000  1.0
  Zn  Zn2923  1  0.85828583  0.60701544  0.96815000  1.0
  Zn  Zn2924  1  0.85828583  0.94034877  0.96815000  1.0
  Zn  Zn2925  1  0.02495250  0.31534877  0.96815000  1.0
  Zn  Zn2926  1  0.02495250  0.64868210  0.96815000  1.0
  Zn  Zn2927  1  0.02495250  0.98201544  0.96815000  1.0
  Zn  Zn2928  1  0.35828583  0.31534877  0.96815000  1.0
  Zn  Zn2929  1  0.35828583  0.64868210  0.96815000  1.0
  Zn  Zn2930  1  0.35828583  0.98201544  0.96815000  1.0
  Zn  Zn2931  1  0.69161917  0.31534877  0.96815000  1.0
  Zn  Zn2932  1  0.69161917  0.64868210  0.96815000  1.0
  Zn  Zn2933  1  0.69161917  0.98201544  0.96815000  1.0
  Zn  Zn2934  1  0.19777633  0.31678215  0.91421600  1.0
  Zn  Zn2935  1  0.19777633  0.65011548  0.91421600  1.0
  Zn  Zn2936  1  0.19777633  0.98344881  0.91421600  1.0
  Zn  Zn2937  1  0.53110967  0.31678215  0.91421600  1.0
  Zn  Zn2938  1  0.53110967  0.65011548  0.91421600  1.0
  Zn  Zn2939  1  0.53110967  0.98344881  0.91421600  1.0
  Zn  Zn2940  1  0.86444300  0.31678215  0.91421600  1.0
  Zn  Zn2941  1  0.86444300  0.65011548  0.91421600  1.0
  Zn  Zn2942  1  0.86444300  0.98344881  0.91421600  1.0
  Zn  Zn2943  1  0.03110967  0.27511548  0.91421600  1.0
  Zn  Zn2944  1  0.03110967  0.60844881  0.91421600  1.0
  Zn  Zn2945  1  0.03110967  0.94178215  0.91421600  1.0
  Zn  Zn2946  1  0.36444300  0.27511548  0.91421600  1.0
  Zn  Zn2947  1  0.36444300  0.60844881  0.91421600  1.0
  Zn  Zn2948  1  0.36444300  0.94178215  0.91421600  1.0
  Zn  Zn2949  1  0.69777633  0.27511548  0.91421600  1.0
  Zn  Zn2950  1  0.69777633  0.60844881  0.91421600  1.0
  Zn  Zn2951  1  0.69777633  0.94178215  0.91421600  1.0
  Zn  Zn2952  1  0.14671750  0.26361410  0.71971800  1.0
  Zn  Zn2953  1  0.14671750  0.59694744  0.71971800  1.0
  Zn  Zn2954  1  0.14671750  0.93028077  0.71971800  1.0
  Zn  Zn2955  1  0.48005083  0.26361410  0.71971800  1.0
  Zn  Zn2956  1  0.48005083  0.59694744  0.71971800  1.0
  Zn  Zn2957  1  0.48005083  0.93028077  0.71971800  1.0
  Zn  Zn2958  1  0.81338417  0.26361410  0.71971800  1.0
  Zn  Zn2959  1  0.81338417  0.59694744  0.71971800  1.0
  Zn  Zn2960  1  0.81338417  0.93028077  0.71971800  1.0
  Zn  Zn2961  1  0.31338417  0.30528077  0.71971800  1.0
  Zn  Zn2962  1  0.31338417  0.63861410  0.71971800  1.0
  Zn  Zn2963  1  0.31338417  0.97194744  0.71971800  1.0
  Zn  Zn2964  1  0.64671750  0.30528077  0.71971800  1.0
  Zn  Zn2965  1  0.64671750  0.63861410  0.71971800  1.0
  Zn  Zn2966  1  0.64671750  0.97194744  0.71971800  1.0
  Zn  Zn2967  1  0.98005083  0.30528077  0.71971800  1.0
  Zn  Zn2968  1  0.98005083  0.63861410  0.71971800  1.0
  Zn  Zn2969  1  0.98005083  0.97194744  0.71971800  1.0
  Zn  Zn2970  1  0.16631967  0.28297965  0.41421600  1.0
  Zn  Zn2971  1  0.16631967  0.61631298  0.41421600  1.0
  Zn  Zn2972  1  0.16631967  0.94964631  0.41421600  1.0
  Zn  Zn2973  1  0.49965300  0.28297965  0.41421600  1.0
  Zn  Zn2974  1  0.49965300  0.61631298  0.41421600  1.0
  Zn  Zn2975  1  0.49965300  0.94964631  0.41421600  1.0
  Zn  Zn2976  1  0.83298633  0.28297965  0.41421600  1.0
  Zn  Zn2977  1  0.83298633  0.61631298  0.41421600  1.0
  Zn  Zn2978  1  0.83298633  0.94964631  0.41421600  1.0
  Zn  Zn2979  1  0.33298633  0.32464631  0.41421600  1.0
  Zn  Zn2980  1  0.33298633  0.65797965  0.41421600  1.0
  Zn  Zn2981  1  0.33298633  0.99131298  0.41421600  1.0
  Zn  Zn2982  1  0.66631967  0.32464631  0.41421600  1.0
  Zn  Zn2983  1  0.66631967  0.65797965  0.41421600  1.0
  Zn  Zn2984  1  0.66631967  0.99131298  0.41421600  1.0
  Zn  Zn2985  1  0.99965300  0.32464631  0.41421600  1.0
  Zn  Zn2986  1  0.99965300  0.65797965  0.41421600  1.0
  Zn  Zn2987  1  0.99965300  0.99131298  0.41421600  1.0
  Zn  Zn2988  1  0.21363750  0.27763702  0.47656300  1.0
  Zn  Zn2989  1  0.21363750  0.61097035  0.47656300  1.0
  Zn  Zn2990  1  0.21363750  0.94430369  0.47656300  1.0
  Zn  Zn2991  1  0.54697083  0.27763702  0.47656300  1.0
  Zn  Zn2992  1  0.54697083  0.61097035  0.47656300  1.0
  Zn  Zn2993  1  0.54697083  0.94430369  0.47656300  1.0
  Zn  Zn2994  1  0.88030417  0.27763702  0.47656300  1.0
  Zn  Zn2995  1  0.88030417  0.61097035  0.47656300  1.0
  Zn  Zn2996  1  0.88030417  0.94430369  0.47656300  1.0
  Zn  Zn2997  1  0.04697083  0.31930369  0.47656300  1.0
  Zn  Zn2998  1  0.04697083  0.65263702  0.47656300  1.0
  Zn  Zn2999  1  0.04697083  0.98597035  0.47656300  1.0
  Zn  Zn3000  1  0.38030417  0.31930369  0.47656300  1.0
  Zn  Zn3001  1  0.38030417  0.65263702  0.47656300  1.0
  Zn  Zn3002  1  0.38030417  0.98597035  0.47656300  1.0
  Zn  Zn3003  1  0.71363750  0.31930369  0.47656300  1.0
  Zn  Zn3004  1  0.71363750  0.65263702  0.47656300  1.0
  Zn  Zn3005  1  0.71363750  0.98597035  0.47656300  1.0
  Zn  Zn3006  1  0.27855017  0.32446902  0.97656300  1.0
  Zn  Zn3007  1  0.27855017  0.65780235  0.97656300  1.0
  Zn  Zn3008  1  0.27855017  0.99113569  0.97656300  1.0
  Zn  Zn3009  1  0.61188350  0.32446902  0.97656300  1.0
  Zn  Zn3010  1  0.61188350  0.65780235  0.97656300  1.0
  Zn  Zn3011  1  0.61188350  0.99113569  0.97656300  1.0
  Zn  Zn3012  1  0.94521683  0.32446902  0.97656300  1.0
  Zn  Zn3013  1  0.94521683  0.65780235  0.97656300  1.0
  Zn  Zn3014  1  0.94521683  0.99113569  0.97656300  1.0
  Zn  Zn3015  1  0.11188350  0.28280235  0.97656300  1.0
  Zn  Zn3016  1  0.11188350  0.61613569  0.97656300  1.0
  Zn  Zn3017  1  0.11188350  0.94946902  0.97656300  1.0
  Zn  Zn3018  1  0.44521683  0.28280235  0.97656300  1.0
  Zn  Zn3019  1  0.44521683  0.61613569  0.97656300  1.0
  Zn  Zn3020  1  0.44521683  0.94946902  0.97656300  1.0
  Zn  Zn3021  1  0.77855017  0.28280235  0.97656300  1.0
  Zn  Zn3022  1  0.77855017  0.61613569  0.97656300  1.0
  Zn  Zn3023  1  0.77855017  0.94946902  0.97656300  1.0
  Zn  Zn3024  1  0.11228583  0.29512935  0.39844700  1.0
  Zn  Zn3025  1  0.11228583  0.62846269  0.39844700  1.0
  Zn  Zn3026  1  0.11228583  0.96179602  0.39844700  1.0
  Zn  Zn3027  1  0.44561917  0.29512935  0.39844700  1.0
  Zn  Zn3028  1  0.44561917  0.62846269  0.39844700  1.0
  Zn  Zn3029  1  0.44561917  0.96179602  0.39844700  1.0
  Zn  Zn3030  1  0.77895250  0.29512935  0.39844700  1.0
  Zn  Zn3031  1  0.77895250  0.62846269  0.39844700  1.0
  Zn  Zn3032  1  0.77895250  0.96179602  0.39844700  1.0
  Zn  Zn3033  1  0.27895250  0.25346269  0.39844700  1.0
  Zn  Zn3034  1  0.27895250  0.58679602  0.39844700  1.0
  Zn  Zn3035  1  0.27895250  0.92012935  0.39844700  1.0
  Zn  Zn3036  1  0.61228583  0.25346269  0.39844700  1.0
  Zn  Zn3037  1  0.61228583  0.58679602  0.39844700  1.0
  Zn  Zn3038  1  0.61228583  0.92012935  0.39844700  1.0
  Zn  Zn3039  1  0.94561917  0.25346269  0.39844700  1.0
  Zn  Zn3040  1  0.94561917  0.58679602  0.39844700  1.0
  Zn  Zn3041  1  0.94561917  0.92012935  0.39844700  1.0
  Zn  Zn3042  1  0.08906267  0.33162006  0.34598900  1.0
  Zn  Zn3043  1  0.08906267  0.66495340  0.34598900  1.0
  Zn  Zn3044  1  0.08906267  0.99828673  0.34598900  1.0
  Zn  Zn3045  1  0.42239600  0.33162006  0.34598900  1.0
  Zn  Zn3046  1  0.42239600  0.66495340  0.34598900  1.0
  Zn  Zn3047  1  0.42239600  0.99828673  0.34598900  1.0
  Zn  Zn3048  1  0.75572933  0.33162006  0.34598900  1.0
  Zn  Zn3049  1  0.75572933  0.66495340  0.34598900  1.0
  Zn  Zn3050  1  0.75572933  0.99828673  0.34598900  1.0
  Zn  Zn3051  1  0.25572933  0.28995340  0.34598900  1.0
  Zn  Zn3052  1  0.25572933  0.62328673  0.34598900  1.0
  Zn  Zn3053  1  0.25572933  0.95662006  0.34598900  1.0
  Zn  Zn3054  1  0.58906267  0.28995340  0.34598900  1.0
  Zn  Zn3055  1  0.58906267  0.62328673  0.34598900  1.0
  Zn  Zn3056  1  0.58906267  0.95662006  0.34598900  1.0
  Zn  Zn3057  1  0.92239600  0.28995340  0.34598900  1.0
  Zn  Zn3058  1  0.92239600  0.62328673  0.34598900  1.0
  Zn  Zn3059  1  0.92239600  0.95662006  0.34598900  1.0
  Zn  Zn3060  1  0.15963600  0.20973623  0.22284200  1.0
  Zn  Zn3061  1  0.15963600  0.54306956  0.22284200  1.0
  Zn  Zn3062  1  0.15963600  0.87640290  0.22284200  1.0
  Zn  Zn3063  1  0.49296933  0.20973623  0.22284200  1.0
  Zn  Zn3064  1  0.49296933  0.54306956  0.22284200  1.0
  Zn  Zn3065  1  0.49296933  0.87640290  0.22284200  1.0
  Zn  Zn3066  1  0.82630267  0.20973623  0.22284200  1.0
  Zn  Zn3067  1  0.82630267  0.54306956  0.22284200  1.0
  Zn  Zn3068  1  0.82630267  0.87640290  0.22284200  1.0
  Zn  Zn3069  1  0.32630267  0.16806956  0.22284200  1.0
  Zn  Zn3070  1  0.32630267  0.50140290  0.22284200  1.0
  Zn  Zn3071  1  0.32630267  0.83473623  0.22284200  1.0
  Zn  Zn3072  1  0.65963600  0.16806956  0.22284200  1.0
  Zn  Zn3073  1  0.65963600  0.50140290  0.22284200  1.0
  Zn  Zn3074  1  0.65963600  0.83473623  0.22284200  1.0
  Zn  Zn3075  1  0.99296933  0.16806956  0.22284200  1.0
  Zn  Zn3076  1  0.99296933  0.50140290  0.22284200  1.0
  Zn  Zn3077  1  0.99296933  0.83473623  0.22284200  1.0
  Zn  Zn3078  1  0.11364883  0.22838077  0.60155300  1.0
  Zn  Zn3079  1  0.11364883  0.56171410  0.60155300  1.0
  Zn  Zn3080  1  0.11364883  0.89504744  0.60155300  1.0
  Zn  Zn3081  1  0.44698217  0.22838077  0.60155300  1.0
  Zn  Zn3082  1  0.44698217  0.56171410  0.60155300  1.0
  Zn  Zn3083  1  0.44698217  0.89504744  0.60155300  1.0
  Zn  Zn3084  1  0.78031550  0.22838077  0.60155300  1.0
  Zn  Zn3085  1  0.78031550  0.56171410  0.60155300  1.0
  Zn  Zn3086  1  0.78031550  0.89504744  0.60155300  1.0
  Zn  Zn3087  1  0.28031550  0.18671410  0.60155300  1.0
  Zn  Zn3088  1  0.28031550  0.52004744  0.60155300  1.0
  Zn  Zn3089  1  0.28031550  0.85338077  0.60155300  1.0
  Zn  Zn3090  1  0.61364883  0.18671410  0.60155300  1.0
  Zn  Zn3091  1  0.61364883  0.52004744  0.60155300  1.0
  Zn  Zn3092  1  0.61364883  0.85338077  0.60155300  1.0
  Zn  Zn3093  1  0.94698217  0.18671410  0.60155300  1.0
  Zn  Zn3094  1  0.94698217  0.52004744  0.60155300  1.0
  Zn  Zn3095  1  0.94698217  0.85338077  0.60155300  1.0
  Zn  Zn3096  1  0.09032383  0.24414827  0.07639600  1.0
  Zn  Zn3097  1  0.09032383  0.57748160  0.07639600  1.0
  Zn  Zn3098  1  0.09032383  0.91081494  0.07639600  1.0
  Zn  Zn3099  1  0.42365717  0.24414827  0.07639600  1.0
  Zn  Zn3100  1  0.42365717  0.57748160  0.07639600  1.0
  Zn  Zn3101  1  0.42365717  0.91081494  0.07639600  1.0
  Zn  Zn3102  1  0.75699050  0.24414827  0.07639600  1.0
  Zn  Zn3103  1  0.75699050  0.57748160  0.07639600  1.0
  Zn  Zn3104  1  0.75699050  0.91081494  0.07639600  1.0
  Zn  Zn3105  1  0.25699050  0.20248160  0.07639600  1.0
  Zn  Zn3106  1  0.25699050  0.53581494  0.07639600  1.0
  Zn  Zn3107  1  0.25699050  0.86914827  0.07639600  1.0
  Zn  Zn3108  1  0.59032383  0.20248160  0.07639600  1.0
  Zn  Zn3109  1  0.59032383  0.53581494  0.07639600  1.0
  Zn  Zn3110  1  0.59032383  0.86914827  0.07639600  1.0
  Zn  Zn3111  1  0.92365717  0.20248160  0.07639600  1.0
  Zn  Zn3112  1  0.92365717  0.53581494  0.07639600  1.0
  Zn  Zn3113  1  0.92365717  0.86914827  0.07639600  1.0
  Zn  Zn3114  1  0.02316767  0.18071231  0.11369600  1.0
  Zn  Zn3115  1  0.02316767  0.51404565  0.11369600  1.0
  Zn  Zn3116  1  0.02316767  0.84737898  0.11369600  1.0
  Zn  Zn3117  1  0.35650100  0.18071231  0.11369600  1.0
  Zn  Zn3118  1  0.35650100  0.51404565  0.11369600  1.0
  Zn  Zn3119  1  0.35650100  0.84737898  0.11369600  1.0
  Zn  Zn3120  1  0.68983433  0.18071231  0.11369600  1.0
  Zn  Zn3121  1  0.68983433  0.51404565  0.11369600  1.0
  Zn  Zn3122  1  0.68983433  0.84737898  0.11369600  1.0
  Zn  Zn3123  1  0.18983433  0.22237898  0.11369600  1.0
  Zn  Zn3124  1  0.18983433  0.55571231  0.11369600  1.0
  Zn  Zn3125  1  0.18983433  0.88904565  0.11369600  1.0
  Zn  Zn3126  1  0.52316767  0.22237898  0.11369600  1.0
  Zn  Zn3127  1  0.52316767  0.55571231  0.11369600  1.0
  Zn  Zn3128  1  0.52316767  0.88904565  0.11369600  1.0
  Zn  Zn3129  1  0.85650100  0.22237898  0.11369600  1.0
  Zn  Zn3130  1  0.85650100  0.55571231  0.11369600  1.0
  Zn  Zn3131  1  0.85650100  0.88904565  0.11369600  1.0
  Zn  Zn3132  1  0.23661467  0.23041531  0.70818400  1.0
  Zn  Zn3133  1  0.23661467  0.56374865  0.70818400  1.0
  Zn  Zn3134  1  0.23661467  0.89708198  0.70818400  1.0
  Zn  Zn3135  1  0.56994800  0.23041531  0.70818400  1.0
  Zn  Zn3136  1  0.56994800  0.56374865  0.70818400  1.0
  Zn  Zn3137  1  0.56994800  0.89708198  0.70818400  1.0
  Zn  Zn3138  1  0.90328133  0.23041531  0.70818400  1.0
  Zn  Zn3139  1  0.90328133  0.56374865  0.70818400  1.0
  Zn  Zn3140  1  0.90328133  0.89708198  0.70818400  1.0
  Zn  Zn3141  1  0.06994800  0.18874865  0.70818400  1.0
  Zn  Zn3142  1  0.06994800  0.52208198  0.70818400  1.0
  Zn  Zn3143  1  0.06994800  0.85541531  0.70818400  1.0
  Zn  Zn3144  1  0.40328133  0.18874865  0.70818400  1.0
  Zn  Zn3145  1  0.40328133  0.52208198  0.70818400  1.0
  Zn  Zn3146  1  0.40328133  0.85541531  0.70818400  1.0
  Zn  Zn3147  1  0.73661467  0.18874865  0.70818400  1.0
  Zn  Zn3148  1  0.73661467  0.52208198  0.70818400  1.0
  Zn  Zn3149  1  0.73661467  0.85541531  0.70818400  1.0
  Zn  Zn3150  1  0.06574933  0.18945790  0.34638800  1.0
  Zn  Zn3151  1  0.06574933  0.52279123  0.34638800  1.0
  Zn  Zn3152  1  0.06574933  0.85612456  0.34638800  1.0
  Zn  Zn3153  1  0.39908267  0.18945790  0.34638800  1.0
  Zn  Zn3154  1  0.39908267  0.52279123  0.34638800  1.0
  Zn  Zn3155  1  0.39908267  0.85612456  0.34638800  1.0
  Zn  Zn3156  1  0.73241600  0.18945790  0.34638800  1.0
  Zn  Zn3157  1  0.73241600  0.52279123  0.34638800  1.0
  Zn  Zn3158  1  0.73241600  0.85612456  0.34638800  1.0
  Zn  Zn3159  1  0.23241600  0.23112456  0.34638800  1.0
  Zn  Zn3160  1  0.23241600  0.56445790  0.34638800  1.0
  Zn  Zn3161  1  0.23241600  0.89779123  0.34638800  1.0
  Zn  Zn3162  1  0.56574933  0.23112456  0.34638800  1.0
  Zn  Zn3163  1  0.56574933  0.56445790  0.34638800  1.0
  Zn  Zn3164  1  0.56574933  0.89779123  0.34638800  1.0
  Zn  Zn3165  1  0.89908267  0.23112456  0.34638800  1.0
  Zn  Zn3166  1  0.89908267  0.56445790  0.34638800  1.0
  Zn  Zn3167  1  0.89908267  0.89779123  0.34638800  1.0
  Zn  Zn3168  1  0.12792950  0.20572702  0.72815800  1.0
  Zn  Zn3169  1  0.12792950  0.53906035  0.72815800  1.0
  Zn  Zn3170  1  0.12792950  0.87239369  0.72815800  1.0
  Zn  Zn3171  1  0.46126283  0.20572702  0.72815800  1.0
  Zn  Zn3172  1  0.46126283  0.53906035  0.72815800  1.0
  Zn  Zn3173  1  0.46126283  0.87239369  0.72815800  1.0
  Zn  Zn3174  1  0.79459617  0.20572702  0.72815800  1.0
  Zn  Zn3175  1  0.79459617  0.53906035  0.72815800  1.0
  Zn  Zn3176  1  0.79459617  0.87239369  0.72815800  1.0
  Zn  Zn3177  1  0.29459617  0.24739369  0.72815800  1.0
  Zn  Zn3178  1  0.29459617  0.58072702  0.72815800  1.0
  Zn  Zn3179  1  0.29459617  0.91406035  0.72815800  1.0
  Zn  Zn3180  1  0.62792950  0.24739369  0.72815800  1.0
  Zn  Zn3181  1  0.62792950  0.58072702  0.72815800  1.0
  Zn  Zn3182  1  0.62792950  0.91406035  0.72815800  1.0
  Zn  Zn3183  1  0.96126283  0.24739369  0.72815800  1.0
  Zn  Zn3184  1  0.96126283  0.58072702  0.72815800  1.0
  Zn  Zn3185  1  0.96126283  0.91406035  0.72815800  1.0
  Zn  Zn3186  1  0.15169767  0.23118215  0.47656300  1.0
  Zn  Zn3187  1  0.15169767  0.56451548  0.47656300  1.0
  Zn  Zn3188  1  0.15169767  0.89784881  0.47656300  1.0
  Zn  Zn3189  1  0.48503100  0.23118215  0.47656300  1.0
  Zn  Zn3190  1  0.48503100  0.56451548  0.47656300  1.0
  Zn  Zn3191  1  0.48503100  0.89784881  0.47656300  1.0
  Zn  Zn3192  1  0.81836433  0.23118215  0.47656300  1.0
  Zn  Zn3193  1  0.81836433  0.56451548  0.47656300  1.0
  Zn  Zn3194  1  0.81836433  0.89784881  0.47656300  1.0
  Zn  Zn3195  1  0.31836433  0.18951548  0.47656300  1.0
  Zn  Zn3196  1  0.31836433  0.52284881  0.47656300  1.0
  Zn  Zn3197  1  0.31836433  0.85618215  0.47656300  1.0
  Zn  Zn3198  1  0.65169767  0.18951548  0.47656300  1.0
  Zn  Zn3199  1  0.65169767  0.52284881  0.47656300  1.0
  Zn  Zn3200  1  0.65169767  0.85618215  0.47656300  1.0
  Zn  Zn3201  1  0.98503100  0.18951548  0.47656300  1.0
  Zn  Zn3202  1  0.98503100  0.52284881  0.47656300  1.0
  Zn  Zn3203  1  0.98503100  0.85618215  0.47656300  1.0
  Zn  Zn3204  1  0.14652400  0.22704281  0.28028200  1.0
  Zn  Zn3205  1  0.14652400  0.56037615  0.28028200  1.0
  Zn  Zn3206  1  0.14652400  0.89370948  0.28028200  1.0
  Zn  Zn3207  1  0.47985733  0.22704281  0.28028200  1.0
  Zn  Zn3208  1  0.47985733  0.56037615  0.28028200  1.0
  Zn  Zn3209  1  0.47985733  0.89370948  0.28028200  1.0
  Zn  Zn3210  1  0.81319067  0.22704281  0.28028200  1.0
  Zn  Zn3211  1  0.81319067  0.56037615  0.28028200  1.0
  Zn  Zn3212  1  0.81319067  0.89370948  0.28028200  1.0
  Zn  Zn3213  1  0.31319067  0.18537615  0.28028200  1.0
  Zn  Zn3214  1  0.31319067  0.51870948  0.28028200  1.0
  Zn  Zn3215  1  0.31319067  0.85204281  0.28028200  1.0
  Zn  Zn3216  1  0.64652400  0.18537615  0.28028200  1.0
  Zn  Zn3217  1  0.64652400  0.51870948  0.28028200  1.0
  Zn  Zn3218  1  0.64652400  0.85204281  0.28028200  1.0
  Zn  Zn3219  1  0.97985733  0.18537615  0.28028200  1.0
  Zn  Zn3220  1  0.97985733  0.51870948  0.28028200  1.0
  Zn  Zn3221  1  0.97985733  0.85204281  0.28028200  1.0
  Zn  Zn3222  1  0.24427067  0.18910573  0.65401100  1.0
  Zn  Zn3223  1  0.24427067  0.52243906  0.65401100  1.0
  Zn  Zn3224  1  0.24427067  0.85577240  0.65401100  1.0
  Zn  Zn3225  1  0.57760400  0.18910573  0.65401100  1.0
  Zn  Zn3226  1  0.57760400  0.52243906  0.65401100  1.0
  Zn  Zn3227  1  0.57760400  0.85577240  0.65401100  1.0
  Zn  Zn3228  1  0.91093733  0.18910573  0.65401100  1.0
  Zn  Zn3229  1  0.91093733  0.52243906  0.65401100  1.0
  Zn  Zn3230  1  0.91093733  0.85577240  0.65401100  1.0
  Zn  Zn3231  1  0.07760400  0.23077240  0.65401100  1.0
  Zn  Zn3232  1  0.07760400  0.56410573  0.65401100  1.0
  Zn  Zn3233  1  0.07760400  0.89743906  0.65401100  1.0
  Zn  Zn3234  1  0.41093733  0.23077240  0.65401100  1.0
  Zn  Zn3235  1  0.41093733  0.56410573  0.65401100  1.0
  Zn  Zn3236  1  0.41093733  0.89743906  0.65401100  1.0
  Zn  Zn3237  1  0.74427067  0.23077240  0.65401100  1.0
  Zn  Zn3238  1  0.74427067  0.56410573  0.65401100  1.0
  Zn  Zn3239  1  0.74427067  0.89743906  0.65401100  1.0
  Zn  Zn3240  1  0.30508567  0.23059748  0.91421600  1.0
  Zn  Zn3241  1  0.30508567  0.56393081  0.91421600  1.0
  Zn  Zn3242  1  0.30508567  0.89726415  0.91421600  1.0
  Zn  Zn3243  1  0.63841900  0.23059748  0.91421600  1.0
  Zn  Zn3244  1  0.63841900  0.56393081  0.91421600  1.0
  Zn  Zn3245  1  0.63841900  0.89726415  0.91421600  1.0
  Zn  Zn3246  1  0.97175233  0.23059748  0.91421600  1.0
  Zn  Zn3247  1  0.97175233  0.56393081  0.91421600  1.0
  Zn  Zn3248  1  0.97175233  0.89726415  0.91421600  1.0
  Zn  Zn3249  1  0.13841900  0.18893081  0.91421600  1.0
  Zn  Zn3250  1  0.13841900  0.52226415  0.91421600  1.0
  Zn  Zn3251  1  0.13841900  0.85559748  0.91421600  1.0
  Zn  Zn3252  1  0.47175233  0.18893081  0.91421600  1.0
  Zn  Zn3253  1  0.47175233  0.52226415  0.91421600  1.0
  Zn  Zn3254  1  0.47175233  0.85559748  0.91421600  1.0
  Zn  Zn3255  1  0.80508567  0.18893081  0.91421600  1.0
  Zn  Zn3256  1  0.80508567  0.52226415  0.91421600  1.0
  Zn  Zn3257  1  0.80508567  0.85559748  0.91421600  1.0
  Zn  Zn3258  1  0.05478317  0.19625677  0.02343700  1.0
  Zn  Zn3259  1  0.05478317  0.52959010  0.02343700  1.0
  Zn  Zn3260  1  0.05478317  0.86292344  0.02343700  1.0
  Zn  Zn3261  1  0.38811650  0.19625677  0.02343700  1.0
  Zn  Zn3262  1  0.38811650  0.52959010  0.02343700  1.0
  Zn  Zn3263  1  0.38811650  0.86292344  0.02343700  1.0
  Zn  Zn3264  1  0.72144983  0.19625677  0.02343700  1.0
  Zn  Zn3265  1  0.72144983  0.52959010  0.02343700  1.0
  Zn  Zn3266  1  0.72144983  0.86292344  0.02343700  1.0
  Zn  Zn3267  1  0.22144983  0.23792344  0.02343700  1.0
  Zn  Zn3268  1  0.22144983  0.57125677  0.02343700  1.0
  Zn  Zn3269  1  0.22144983  0.90459010  0.02343700  1.0
  Zn  Zn3270  1  0.55478317  0.23792344  0.02343700  1.0
  Zn  Zn3271  1  0.55478317  0.57125677  0.02343700  1.0
  Zn  Zn3272  1  0.55478317  0.90459010  0.02343700  1.0
  Zn  Zn3273  1  0.88811650  0.23792344  0.02343700  1.0
  Zn  Zn3274  1  0.88811650  0.57125677  0.02343700  1.0
  Zn  Zn3275  1  0.88811650  0.90459010  0.02343700  1.0
  Zn  Zn3276  1  0.25000000  0.23952956  0.50000000  1.0
  Zn  Zn3277  1  0.25000000  0.57286290  0.50000000  1.0
  Zn  Zn3278  1  0.25000000  0.90619623  0.50000000  1.0
  Zn  Zn3279  1  0.58333333  0.23952956  0.50000000  1.0
  Zn  Zn3280  1  0.58333333  0.57286290  0.50000000  1.0
  Zn  Zn3281  1  0.58333333  0.90619623  0.50000000  1.0
  Zn  Zn3282  1  0.91666667  0.23952956  0.50000000  1.0
  Zn  Zn3283  1  0.91666667  0.57286290  0.50000000  1.0
  Zn  Zn3284  1  0.91666667  0.90619623  0.50000000  1.0
  Zn  Zn3285  1  0.08333333  0.19786290  0.50000000  1.0
  Zn  Zn3286  1  0.08333333  0.53119623  0.50000000  1.0
  Zn  Zn3287  1  0.08333333  0.86452956  0.50000000  1.0
  Zn  Zn3288  1  0.41666667  0.19786290  0.50000000  1.0
  Zn  Zn3289  1  0.41666667  0.53119623  0.50000000  1.0
  Zn  Zn3290  1  0.41666667  0.86452956  0.50000000  1.0
  Zn  Zn3291  1  0.75000000  0.19786290  0.50000000  1.0
  Zn  Zn3292  1  0.75000000  0.53119623  0.50000000  1.0
  Zn  Zn3293  1  0.75000000  0.86452956  0.50000000  1.0
  Zn  Zn3294  1  0.11920033  0.19123573  0.15734400  1.0
  Zn  Zn3295  1  0.11920033  0.52456906  0.15734400  1.0
  Zn  Zn3296  1  0.11920033  0.85790240  0.15734400  1.0
  Zn  Zn3297  1  0.45253367  0.19123573  0.15734400  1.0
  Zn  Zn3298  1  0.45253367  0.52456906  0.15734400  1.0
  Zn  Zn3299  1  0.45253367  0.85790240  0.15734400  1.0
  Zn  Zn3300  1  0.78586700  0.19123573  0.15734400  1.0
  Zn  Zn3301  1  0.78586700  0.52456906  0.15734400  1.0
  Zn  Zn3302  1  0.78586700  0.85790240  0.15734400  1.0
  Zn  Zn3303  1  0.28586700  0.23290240  0.15734400  1.0
  Zn  Zn3304  1  0.28586700  0.56623573  0.15734400  1.0
  Zn  Zn3305  1  0.28586700  0.89956906  0.15734400  1.0
  Zn  Zn3306  1  0.61920033  0.23290240  0.15734400  1.0
  Zn  Zn3307  1  0.61920033  0.56623573  0.15734400  1.0
  Zn  Zn3308  1  0.61920033  0.89956906  0.15734400  1.0
  Zn  Zn3309  1  0.95253367  0.23290240  0.15734400  1.0
  Zn  Zn3310  1  0.95253367  0.56623573  0.15734400  1.0
  Zn  Zn3311  1  0.95253367  0.89956906  0.15734400  1.0
  Zn  Zn3312  1  0.10649483  0.22127860  0.20818400  1.0
  Zn  Zn3313  1  0.10649483  0.55461194  0.20818400  1.0
  Zn  Zn3314  1  0.10649483  0.88794527  0.20818400  1.0
  Zn  Zn3315  1  0.43982817  0.22127860  0.20818400  1.0
  Zn  Zn3316  1  0.43982817  0.55461194  0.20818400  1.0
  Zn  Zn3317  1  0.43982817  0.88794527  0.20818400  1.0
  Zn  Zn3318  1  0.77316150  0.22127860  0.20818400  1.0
  Zn  Zn3319  1  0.77316150  0.55461194  0.20818400  1.0
  Zn  Zn3320  1  0.77316150  0.88794527  0.20818400  1.0
  Zn  Zn3321  1  0.27316150  0.17961194  0.20818400  1.0
  Zn  Zn3322  1  0.27316150  0.51294527  0.20818400  1.0
  Zn  Zn3323  1  0.27316150  0.84627860  0.20818400  1.0
  Zn  Zn3324  1  0.60649483  0.17961194  0.20818400  1.0
  Zn  Zn3325  1  0.60649483  0.51294527  0.20818400  1.0
  Zn  Zn3326  1  0.60649483  0.84627860  0.20818400  1.0
  Zn  Zn3327  1  0.93982817  0.17961194  0.20818400  1.0
  Zn  Zn3328  1  0.93982817  0.51294527  0.20818400  1.0
  Zn  Zn3329  1  0.93982817  0.84627860  0.20818400  1.0
  Zn  Zn3330  1  0.07613700  0.18651731  0.09173700  1.0
  Zn  Zn3331  1  0.07613700  0.51985065  0.09173700  1.0
  Zn  Zn3332  1  0.07613700  0.85318398  0.09173700  1.0
  Zn  Zn3333  1  0.40947033  0.18651731  0.09173700  1.0
  Zn  Zn3334  1  0.40947033  0.51985065  0.09173700  1.0
  Zn  Zn3335  1  0.40947033  0.85318398  0.09173700  1.0
  Zn  Zn3336  1  0.74280367  0.18651731  0.09173700  1.0
  Zn  Zn3337  1  0.74280367  0.51985065  0.09173700  1.0
  Zn  Zn3338  1  0.74280367  0.85318398  0.09173700  1.0
  Zn  Zn3339  1  0.24280367  0.22818398  0.09173700  1.0
  Zn  Zn3340  1  0.24280367  0.56151731  0.09173700  1.0
  Zn  Zn3341  1  0.24280367  0.89485065  0.09173700  1.0
  Zn  Zn3342  1  0.57613700  0.22818398  0.09173700  1.0
  Zn  Zn3343  1  0.57613700  0.56151731  0.09173700  1.0
  Zn  Zn3344  1  0.57613700  0.89485065  0.09173700  1.0
  Zn  Zn3345  1  0.90947033  0.22818398  0.09173700  1.0
  Zn  Zn3346  1  0.90947033  0.56151731  0.09173700  1.0
  Zn  Zn3347  1  0.90947033  0.89485065  0.09173700  1.0
  Zn  Zn3348  1  0.23152517  0.23778194  0.42360400  1.0
  Zn  Zn3349  1  0.23152517  0.57111527  0.42360400  1.0
  Zn  Zn3350  1  0.23152517  0.90444860  0.42360400  1.0
  Zn  Zn3351  1  0.56485850  0.23778194  0.42360400  1.0
  Zn  Zn3352  1  0.56485850  0.57111527  0.42360400  1.0
  Zn  Zn3353  1  0.56485850  0.90444860  0.42360400  1.0
  Zn  Zn3354  1  0.89819183  0.23778194  0.42360400  1.0
  Zn  Zn3355  1  0.89819183  0.57111527  0.42360400  1.0
  Zn  Zn3356  1  0.89819183  0.90444860  0.42360400  1.0
  Zn  Zn3357  1  0.06485850  0.19611527  0.42360400  1.0
  Zn  Zn3358  1  0.06485850  0.52944860  0.42360400  1.0
  Zn  Zn3359  1  0.06485850  0.86278194  0.42360400  1.0
  Zn  Zn3360  1  0.39819183  0.19611527  0.42360400  1.0
  Zn  Zn3361  1  0.39819183  0.52944860  0.42360400  1.0
  Zn  Zn3362  1  0.39819183  0.86278194  0.42360400  1.0
  Zn  Zn3363  1  0.73152517  0.19611527  0.42360400  1.0
  Zn  Zn3364  1  0.73152517  0.52944860  0.42360400  1.0
  Zn  Zn3365  1  0.73152517  0.86278194  0.42360400  1.0
  Zn  Zn3366  1  0.08686883  0.21747444  0.10155300  1.0
  Zn  Zn3367  1  0.08686883  0.55080777  0.10155300  1.0
  Zn  Zn3368  1  0.08686883  0.88414110  0.10155300  1.0
  Zn  Zn3369  1  0.42020217  0.21747444  0.10155300  1.0
  Zn  Zn3370  1  0.42020217  0.55080777  0.10155300  1.0
  Zn  Zn3371  1  0.42020217  0.88414110  0.10155300  1.0
  Zn  Zn3372  1  0.75353550  0.21747444  0.10155300  1.0
  Zn  Zn3373  1  0.75353550  0.55080777  0.10155300  1.0
  Zn  Zn3374  1  0.75353550  0.88414110  0.10155300  1.0
  Zn  Zn3375  1  0.25353550  0.17580777  0.10155300  1.0
  Zn  Zn3376  1  0.25353550  0.50914110  0.10155300  1.0
  Zn  Zn3377  1  0.25353550  0.84247444  0.10155300  1.0
  Zn  Zn3378  1  0.58686883  0.17580777  0.10155300  1.0
  Zn  Zn3379  1  0.58686883  0.50914110  0.10155300  1.0
  Zn  Zn3380  1  0.58686883  0.84247444  0.10155300  1.0
  Zn  Zn3381  1  0.92020217  0.17580777  0.10155300  1.0
  Zn  Zn3382  1  0.92020217  0.50914110  0.10155300  1.0
  Zn  Zn3383  1  0.92020217  0.84247444  0.10155300  1.0
  Zn  Zn3384  1  0.28178833  0.22539115  0.77715800  1.0
  Zn  Zn3385  1  0.28178833  0.55872448  0.77715800  1.0
  Zn  Zn3386  1  0.28178833  0.89205781  0.77715800  1.0
  Zn  Zn3387  1  0.61512167  0.22539115  0.77715800  1.0
  Zn  Zn3388  1  0.61512167  0.55872448  0.77715800  1.0
  Zn  Zn3389  1  0.61512167  0.89205781  0.77715800  1.0
  Zn  Zn3390  1  0.94845500  0.22539115  0.77715800  1.0
  Zn  Zn3391  1  0.94845500  0.55872448  0.77715800  1.0
  Zn  Zn3392  1  0.94845500  0.89205781  0.77715800  1.0
  Zn  Zn3393  1  0.11512167  0.18372448  0.77715800  1.0
  Zn  Zn3394  1  0.11512167  0.51705781  0.77715800  1.0
  Zn  Zn3395  1  0.11512167  0.85039115  0.77715800  1.0
  Zn  Zn3396  1  0.44845500  0.18372448  0.77715800  1.0
  Zn  Zn3397  1  0.44845500  0.51705781  0.77715800  1.0
  Zn  Zn3398  1  0.44845500  0.85039115  0.77715800  1.0
  Zn  Zn3399  1  0.78178833  0.18372448  0.77715800  1.0
  Zn  Zn3400  1  0.78178833  0.51705781  0.77715800  1.0
  Zn  Zn3401  1  0.78178833  0.85039115  0.77715800  1.0
  Zn  Zn3402  1  0.13555700  0.20394365  0.08578400  1.0
  Zn  Zn3403  1  0.13555700  0.53727698  0.08578400  1.0
  Zn  Zn3404  1  0.13555700  0.87061031  0.08578400  1.0
  Zn  Zn3405  1  0.46889033  0.20394365  0.08578400  1.0
  Zn  Zn3406  1  0.46889033  0.53727698  0.08578400  1.0
  Zn  Zn3407  1  0.46889033  0.87061031  0.08578400  1.0
  Zn  Zn3408  1  0.80222367  0.20394365  0.08578400  1.0
  Zn  Zn3409  1  0.80222367  0.53727698  0.08578400  1.0
  Zn  Zn3410  1  0.80222367  0.87061031  0.08578400  1.0
  Zn  Zn3411  1  0.30222367  0.24561031  0.08578400  1.0
  Zn  Zn3412  1  0.30222367  0.57894365  0.08578400  1.0
  Zn  Zn3413  1  0.30222367  0.91227698  0.08578400  1.0
  Zn  Zn3414  1  0.63555700  0.24561031  0.08578400  1.0
  Zn  Zn3415  1  0.63555700  0.57894365  0.08578400  1.0
  Zn  Zn3416  1  0.63555700  0.91227698  0.08578400  1.0
  Zn  Zn3417  1  0.96889033  0.24561031  0.08578400  1.0
  Zn  Zn3418  1  0.96889033  0.57894365  0.08578400  1.0
  Zn  Zn3419  1  0.96889033  0.91227698  0.08578400  1.0
  Zn  Zn3420  1  0.17382333  0.24592390  0.97656300  1.0
  Zn  Zn3421  1  0.17382333  0.57925723  0.97656300  1.0
  Zn  Zn3422  1  0.17382333  0.91259056  0.97656300  1.0
  Zn  Zn3423  1  0.50715667  0.24592390  0.97656300  1.0
  Zn  Zn3424  1  0.50715667  0.57925723  0.97656300  1.0
  Zn  Zn3425  1  0.50715667  0.91259056  0.97656300  1.0
  Zn  Zn3426  1  0.84049000  0.24592390  0.97656300  1.0
  Zn  Zn3427  1  0.84049000  0.57925723  0.97656300  1.0
  Zn  Zn3428  1  0.84049000  0.91259056  0.97656300  1.0
  Zn  Zn3429  1  0.00715667  0.20425723  0.97656300  1.0
  Zn  Zn3430  1  0.00715667  0.53759056  0.97656300  1.0
  Zn  Zn3431  1  0.00715667  0.87092390  0.97656300  1.0
  Zn  Zn3432  1  0.34049000  0.20425723  0.97656300  1.0
  Zn  Zn3433  1  0.34049000  0.53759056  0.97656300  1.0
  Zn  Zn3434  1  0.34049000  0.87092390  0.97656300  1.0
  Zn  Zn3435  1  0.67382333  0.20425723  0.97656300  1.0
  Zn  Zn3436  1  0.67382333  0.53759056  0.97656300  1.0
  Zn  Zn3437  1  0.67382333  0.87092390  0.97656300  1.0
  Zn  Zn3438  1  0.18105183  0.17643260  0.53599200  1.0
  Zn  Zn3439  1  0.18105183  0.50976594  0.53599200  1.0
  Zn  Zn3440  1  0.18105183  0.84309927  0.53599200  1.0
  Zn  Zn3441  1  0.51438517  0.17643260  0.53599200  1.0
  Zn  Zn3442  1  0.51438517  0.50976594  0.53599200  1.0
  Zn  Zn3443  1  0.51438517  0.84309927  0.53599200  1.0
  Zn  Zn3444  1  0.84771850  0.17643260  0.53599200  1.0
  Zn  Zn3445  1  0.84771850  0.50976594  0.53599200  1.0
  Zn  Zn3446  1  0.84771850  0.84309927  0.53599200  1.0
  Zn  Zn3447  1  0.01438517  0.21809927  0.53599200  1.0
  Zn  Zn3448  1  0.01438517  0.55143260  0.53599200  1.0
  Zn  Zn3449  1  0.01438517  0.88476594  0.53599200  1.0
  Zn  Zn3450  1  0.34771850  0.21809927  0.53599200  1.0
  Zn  Zn3451  1  0.34771850  0.55143260  0.53599200  1.0
  Zn  Zn3452  1  0.34771850  0.88476594  0.53599200  1.0
  Zn  Zn3453  1  0.68105183  0.21809927  0.53599200  1.0
  Zn  Zn3454  1  0.68105183  0.55143260  0.53599200  1.0
  Zn  Zn3455  1  0.68105183  0.88476594  0.53599200  1.0
  Zn  Zn3456  1  0.26758400  0.24793456  0.65361200  1.0
  Zn  Zn3457  1  0.26758400  0.58126790  0.65361200  1.0
  Zn  Zn3458  1  0.26758400  0.91460123  0.65361200  1.0
  Zn  Zn3459  1  0.60091733  0.24793456  0.65361200  1.0
  Zn  Zn3460  1  0.60091733  0.58126790  0.65361200  1.0
  Zn  Zn3461  1  0.60091733  0.91460123  0.65361200  1.0
  Zn  Zn3462  1  0.93425067  0.24793456  0.65361200  1.0
  Zn  Zn3463  1  0.93425067  0.58126790  0.65361200  1.0
  Zn  Zn3464  1  0.93425067  0.91460123  0.65361200  1.0
  Zn  Zn3465  1  0.10091733  0.20626790  0.65361200  1.0
  Zn  Zn3466  1  0.10091733  0.53960123  0.65361200  1.0
  Zn  Zn3467  1  0.10091733  0.87293456  0.65361200  1.0
  Zn  Zn3468  1  0.43425067  0.20626790  0.65361200  1.0
  Zn  Zn3469  1  0.43425067  0.53960123  0.65361200  1.0
  Zn  Zn3470  1  0.43425067  0.87293456  0.65361200  1.0
  Zn  Zn3471  1  0.76758400  0.20626790  0.65361200  1.0
  Zn  Zn3472  1  0.76758400  0.53960123  0.65361200  1.0
  Zn  Zn3473  1  0.76758400  0.87293456  0.65361200  1.0
  Zn  Zn3474  1  0.10696233  0.23846165  0.41421600  1.0
  Zn  Zn3475  1  0.10696233  0.57179498  0.41421600  1.0
  Zn  Zn3476  1  0.10696233  0.90512831  0.41421600  1.0
  Zn  Zn3477  1  0.44029567  0.23846165  0.41421600  1.0
  Zn  Zn3478  1  0.44029567  0.57179498  0.41421600  1.0
  Zn  Zn3479  1  0.44029567  0.90512831  0.41421600  1.0
  Zn  Zn3480  1  0.77362900  0.23846165  0.41421600  1.0
  Zn  Zn3481  1  0.77362900  0.57179498  0.41421600  1.0
  Zn  Zn3482  1  0.77362900  0.90512831  0.41421600  1.0
  Zn  Zn3483  1  0.27362900  0.19679498  0.41421600  1.0
  Zn  Zn3484  1  0.27362900  0.53012831  0.41421600  1.0
  Zn  Zn3485  1  0.27362900  0.86346165  0.41421600  1.0
  Zn  Zn3486  1  0.60696233  0.19679498  0.41421600  1.0
  Zn  Zn3487  1  0.60696233  0.53012831  0.41421600  1.0
  Zn  Zn3488  1  0.60696233  0.86346165  0.41421600  1.0
  Zn  Zn3489  1  0.94029567  0.19679498  0.41421600  1.0
  Zn  Zn3490  1  0.94029567  0.53012831  0.41421600  1.0
  Zn  Zn3491  1  0.94029567  0.86346165  0.41421600  1.0
  Zn  Zn3492  1  0.11478983  0.16734527  0.22815800  1.0
  Zn  Zn3493  1  0.11478983  0.50067860  0.22815800  1.0
  Zn  Zn3494  1  0.11478983  0.83401194  0.22815800  1.0
  Zn  Zn3495  1  0.44812317  0.16734527  0.22815800  1.0
  Zn  Zn3496  1  0.44812317  0.50067860  0.22815800  1.0
  Zn  Zn3497  1  0.44812317  0.83401194  0.22815800  1.0
  Zn  Zn3498  1  0.78145650  0.16734527  0.22815800  1.0
  Zn  Zn3499  1  0.78145650  0.50067860  0.22815800  1.0
  Zn  Zn3500  1  0.78145650  0.83401194  0.22815800  1.0
  Zn  Zn3501  1  0.28145650  0.20901194  0.22815800  1.0
  Zn  Zn3502  1  0.28145650  0.54234527  0.22815800  1.0
  Zn  Zn3503  1  0.28145650  0.87567860  0.22815800  1.0
  Zn  Zn3504  1  0.61478983  0.20901194  0.22815800  1.0
  Zn  Zn3505  1  0.61478983  0.54234527  0.22815800  1.0
  Zn  Zn3506  1  0.61478983  0.87567860  0.22815800  1.0
  Zn  Zn3507  1  0.94812317  0.20901194  0.22815800  1.0
  Zn  Zn3508  1  0.94812317  0.54234527  0.22815800  1.0
  Zn  Zn3509  1  0.94812317  0.87567860  0.22815800  1.0
  Zn  Zn3510  1  0.18719650  0.17546702  0.89844700  1.0
  Zn  Zn3511  1  0.18719650  0.50880035  0.89844700  1.0
  Zn  Zn3512  1  0.18719650  0.84213369  0.89844700  1.0
  Zn  Zn3513  1  0.52052983  0.17546702  0.89844700  1.0
  Zn  Zn3514  1  0.52052983  0.50880035  0.89844700  1.0
  Zn  Zn3515  1  0.52052983  0.84213369  0.89844700  1.0
  Zn  Zn3516  1  0.85386317  0.17546702  0.89844700  1.0
  Zn  Zn3517  1  0.85386317  0.50880035  0.89844700  1.0
  Zn  Zn3518  1  0.85386317  0.84213369  0.89844700  1.0
  Zn  Zn3519  1  0.02052983  0.21713369  0.89844700  1.0
  Zn  Zn3520  1  0.02052983  0.55046702  0.89844700  1.0
  Zn  Zn3521  1  0.02052983  0.88380035  0.89844700  1.0
  Zn  Zn3522  1  0.35386317  0.21713369  0.89844700  1.0
  Zn  Zn3523  1  0.35386317  0.55046702  0.89844700  1.0
  Zn  Zn3524  1  0.35386317  0.88380035  0.89844700  1.0
  Zn  Zn3525  1  0.68719650  0.21713369  0.89844700  1.0
  Zn  Zn3526  1  0.68719650  0.55046702  0.89844700  1.0
  Zn  Zn3527  1  0.68719650  0.88380035  0.89844700  1.0
  Zn  Zn3528  1  0.12956650  0.23346252  0.70818400  1.0
  Zn  Zn3529  1  0.12956650  0.56679585  0.70818400  1.0
  Zn  Zn3530  1  0.12956650  0.90012919  0.70818400  1.0
  Zn  Zn3531  1  0.46289983  0.23346252  0.70818400  1.0
  Zn  Zn3532  1  0.46289983  0.56679585  0.70818400  1.0
  Zn  Zn3533  1  0.46289983  0.90012919  0.70818400  1.0
  Zn  Zn3534  1  0.79623317  0.23346252  0.70818400  1.0
  Zn  Zn3535  1  0.79623317  0.56679585  0.70818400  1.0
  Zn  Zn3536  1  0.79623317  0.90012919  0.70818400  1.0
  Zn  Zn3537  1  0.29623317  0.19179585  0.70818400  1.0
  Zn  Zn3538  1  0.29623317  0.52512919  0.70818400  1.0
  Zn  Zn3539  1  0.29623317  0.85846252  0.70818400  1.0
  Zn  Zn3540  1  0.62956650  0.19179585  0.70818400  1.0
  Zn  Zn3541  1  0.62956650  0.52512919  0.70818400  1.0
  Zn  Zn3542  1  0.62956650  0.85846252  0.70818400  1.0
  Zn  Zn3543  1  0.96289983  0.19179585  0.70818400  1.0
  Zn  Zn3544  1  0.96289983  0.52512919  0.70818400  1.0
  Zn  Zn3545  1  0.96289983  0.85846252  0.70818400  1.0
  Zn  Zn3546  1  0.16905450  0.21509994  0.96400800  1.0
  Zn  Zn3547  1  0.16905450  0.54843327  0.96400800  1.0
  Zn  Zn3548  1  0.16905450  0.88176660  0.96400800  1.0
  Zn  Zn3549  1  0.50238783  0.21509994  0.96400800  1.0
  Zn  Zn3550  1  0.50238783  0.54843327  0.96400800  1.0
  Zn  Zn3551  1  0.50238783  0.88176660  0.96400800  1.0
  Zn  Zn3552  1  0.83572117  0.21509994  0.96400800  1.0
  Zn  Zn3553  1  0.83572117  0.54843327  0.96400800  1.0
  Zn  Zn3554  1  0.83572117  0.88176660  0.96400800  1.0
  Zn  Zn3555  1  0.00238783  0.17343327  0.96400800  1.0
  Zn  Zn3556  1  0.00238783  0.50676660  0.96400800  1.0
  Zn  Zn3557  1  0.00238783  0.84009994  0.96400800  1.0
  Zn  Zn3558  1  0.33572117  0.17343327  0.96400800  1.0
  Zn  Zn3559  1  0.33572117  0.50676660  0.96400800  1.0
  Zn  Zn3560  1  0.33572117  0.84009994  0.96400800  1.0
  Zn  Zn3561  1  0.66905450  0.17343327  0.96400800  1.0
  Zn  Zn3562  1  0.66905450  0.50676660  0.96400800  1.0
  Zn  Zn3563  1  0.66905450  0.84009994  0.96400800  1.0
  Zn  Zn3564  1  0.09318850  0.19208819  0.21971800  1.0
  Zn  Zn3565  1  0.09318850  0.52542152  0.21971800  1.0
  Zn  Zn3566  1  0.09318850  0.85875485  0.21971800  1.0
  Zn  Zn3567  1  0.42652183  0.19208819  0.21971800  1.0
  Zn  Zn3568  1  0.42652183  0.52542152  0.21971800  1.0
  Zn  Zn3569  1  0.42652183  0.85875485  0.21971800  1.0
  Zn  Zn3570  1  0.75985517  0.19208819  0.21971800  1.0
  Zn  Zn3571  1  0.75985517  0.52542152  0.21971800  1.0
  Zn  Zn3572  1  0.75985517  0.85875485  0.21971800  1.0
  Zn  Zn3573  1  0.25985517  0.23375485  0.21971800  1.0
  Zn  Zn3574  1  0.25985517  0.56708819  0.21971800  1.0
  Zn  Zn3575  1  0.25985517  0.90042152  0.21971800  1.0
  Zn  Zn3576  1  0.59318850  0.23375485  0.21971800  1.0
  Zn  Zn3577  1  0.59318850  0.56708819  0.21971800  1.0
  Zn  Zn3578  1  0.59318850  0.90042152  0.21971800  1.0
  Zn  Zn3579  1  0.92652183  0.23375485  0.21971800  1.0
  Zn  Zn3580  1  0.92652183  0.56708819  0.21971800  1.0
  Zn  Zn3581  1  0.92652183  0.90042152  0.21971800  1.0
  Zn  Zn3582  1  0.27592150  0.20916477  0.84265600  1.0
  Zn  Zn3583  1  0.27592150  0.54249810  0.84265600  1.0
  Zn  Zn3584  1  0.27592150  0.87583144  0.84265600  1.0
  Zn  Zn3585  1  0.60925483  0.20916477  0.84265600  1.0
  Zn  Zn3586  1  0.60925483  0.54249810  0.84265600  1.0
  Zn  Zn3587  1  0.60925483  0.87583144  0.84265600  1.0
  Zn  Zn3588  1  0.94258817  0.20916477  0.84265600  1.0
  Zn  Zn3589  1  0.94258817  0.54249810  0.84265600  1.0
  Zn  Zn3590  1  0.94258817  0.87583144  0.84265600  1.0
  Zn  Zn3591  1  0.10925483  0.16749810  0.84265600  1.0
  Zn  Zn3592  1  0.10925483  0.50083144  0.84265600  1.0
  Zn  Zn3593  1  0.10925483  0.83416477  0.84265600  1.0
  Zn  Zn3594  1  0.44258817  0.16749810  0.84265600  1.0
  Zn  Zn3595  1  0.44258817  0.50083144  0.84265600  1.0
  Zn  Zn3596  1  0.44258817  0.83416477  0.84265600  1.0
  Zn  Zn3597  1  0.77592150  0.16749810  0.84265600  1.0
  Zn  Zn3598  1  0.77592150  0.50083144  0.84265600  1.0
  Zn  Zn3599  1  0.77592150  0.83416477  0.84265600  1.0
  Zn  Zn3600  1  0.15228150  0.17762652  0.46400800  1.0
  Zn  Zn3601  1  0.15228150  0.51095985  0.46400800  1.0
  Zn  Zn3602  1  0.15228150  0.84429319  0.46400800  1.0
  Zn  Zn3603  1  0.48561483  0.17762652  0.46400800  1.0
  Zn  Zn3604  1  0.48561483  0.51095985  0.46400800  1.0
  Zn  Zn3605  1  0.48561483  0.84429319  0.46400800  1.0
  Zn  Zn3606  1  0.81894817  0.17762652  0.46400800  1.0
  Zn  Zn3607  1  0.81894817  0.51095985  0.46400800  1.0
  Zn  Zn3608  1  0.81894817  0.84429319  0.46400800  1.0
  Zn  Zn3609  1  0.31894817  0.21929319  0.46400800  1.0
  Zn  Zn3610  1  0.31894817  0.55262652  0.46400800  1.0
  Zn  Zn3611  1  0.31894817  0.88595985  0.46400800  1.0
  Zn  Zn3612  1  0.65228150  0.21929319  0.46400800  1.0
  Zn  Zn3613  1  0.65228150  0.55262652  0.46400800  1.0
  Zn  Zn3614  1  0.65228150  0.88595985  0.46400800  1.0
  Zn  Zn3615  1  0.98561483  0.21929319  0.46400800  1.0
  Zn  Zn3616  1  0.98561483  0.55262652  0.46400800  1.0
  Zn  Zn3617  1  0.98561483  0.88595985  0.46400800  1.0
  Zn  Zn3618  1  0.29895083  0.19885769  0.90826300  1.0
  Zn  Zn3619  1  0.29895083  0.53219102  0.90826300  1.0
  Zn  Zn3620  1  0.29895083  0.86552435  0.90826300  1.0
  Zn  Zn3621  1  0.63228417  0.19885769  0.90826300  1.0
  Zn  Zn3622  1  0.63228417  0.53219102  0.90826300  1.0
  Zn  Zn3623  1  0.63228417  0.86552435  0.90826300  1.0
  Zn  Zn3624  1  0.96561750  0.19885769  0.90826300  1.0
  Zn  Zn3625  1  0.96561750  0.53219102  0.90826300  1.0
  Zn  Zn3626  1  0.96561750  0.86552435  0.90826300  1.0
  Zn  Zn3627  1  0.13228417  0.24052435  0.90826300  1.0
  Zn  Zn3628  1  0.13228417  0.57385769  0.90826300  1.0
  Zn  Zn3629  1  0.13228417  0.90719102  0.90826300  1.0
  Zn  Zn3630  1  0.46561750  0.24052435  0.90826300  1.0
  Zn  Zn3631  1  0.46561750  0.57385769  0.90826300  1.0
  Zn  Zn3632  1  0.46561750  0.90719102  0.90826300  1.0
  Zn  Zn3633  1  0.79895083  0.24052435  0.90826300  1.0
  Zn  Zn3634  1  0.79895083  0.57385769  0.90826300  1.0
  Zn  Zn3635  1  0.79895083  0.90719102  0.90826300  1.0
  Zn  Zn3636  1  0.21413300  0.24615673  0.84265600  1.0
  Zn  Zn3637  1  0.21413300  0.57949006  0.84265600  1.0
  Zn  Zn3638  1  0.21413300  0.91282340  0.84265600  1.0
  Zn  Zn3639  1  0.54746633  0.24615673  0.84265600  1.0
  Zn  Zn3640  1  0.54746633  0.57949006  0.84265600  1.0
  Zn  Zn3641  1  0.54746633  0.91282340  0.84265600  1.0
  Zn  Zn3642  1  0.88079967  0.24615673  0.84265600  1.0
  Zn  Zn3643  1  0.88079967  0.57949006  0.84265600  1.0
  Zn  Zn3644  1  0.88079967  0.91282340  0.84265600  1.0
  Zn  Zn3645  1  0.04746633  0.20449006  0.84265600  1.0
  Zn  Zn3646  1  0.04746633  0.53782340  0.84265600  1.0
  Zn  Zn3647  1  0.04746633  0.87115673  0.84265600  1.0
  Zn  Zn3648  1  0.38079967  0.20449006  0.84265600  1.0
  Zn  Zn3649  1  0.38079967  0.53782340  0.84265600  1.0
  Zn  Zn3650  1  0.38079967  0.87115673  0.84265600  1.0
  Zn  Zn3651  1  0.71413300  0.20449006  0.84265600  1.0
  Zn  Zn3652  1  0.71413300  0.53782340  0.84265600  1.0
  Zn  Zn3653  1  0.71413300  0.87115673  0.84265600  1.0
  Zn  Zn3654  1  0.24114617  0.18051902  0.53185000  1.0
  Zn  Zn3655  1  0.24114617  0.51385235  0.53185000  1.0
  Zn  Zn3656  1  0.24114617  0.84718569  0.53185000  1.0
  Zn  Zn3657  1  0.57447950  0.18051902  0.53185000  1.0
  Zn  Zn3658  1  0.57447950  0.51385235  0.53185000  1.0
  Zn  Zn3659  1  0.57447950  0.84718569  0.53185000  1.0
  Zn  Zn3660  1  0.90781283  0.18051902  0.53185000  1.0
  Zn  Zn3661  1  0.90781283  0.51385235  0.53185000  1.0
  Zn  Zn3662  1  0.90781283  0.84718569  0.53185000  1.0
  Zn  Zn3663  1  0.07447950  0.22218569  0.53185000  1.0
  Zn  Zn3664  1  0.07447950  0.55551902  0.53185000  1.0
  Zn  Zn3665  1  0.07447950  0.88885235  0.53185000  1.0
  Zn  Zn3666  1  0.40781283  0.22218569  0.53185000  1.0
  Zn  Zn3667  1  0.40781283  0.55551902  0.53185000  1.0
  Zn  Zn3668  1  0.40781283  0.88885235  0.53185000  1.0
  Zn  Zn3669  1  0.74114617  0.22218569  0.53185000  1.0
  Zn  Zn3670  1  0.74114617  0.55551902  0.53185000  1.0
  Zn  Zn3671  1  0.74114617  0.88885235  0.53185000  1.0
  Zn  Zn3672  1  0.23052950  0.21953152  0.96815000  1.0
  Zn  Zn3673  1  0.23052950  0.55286485  0.96815000  1.0
  Zn  Zn3674  1  0.23052950  0.88619819  0.96815000  1.0
  Zn  Zn3675  1  0.56386283  0.21953152  0.96815000  1.0
  Zn  Zn3676  1  0.56386283  0.55286485  0.96815000  1.0
  Zn  Zn3677  1  0.56386283  0.88619819  0.96815000  1.0
  Zn  Zn3678  1  0.89719617  0.21953152  0.96815000  1.0
  Zn  Zn3679  1  0.89719617  0.55286485  0.96815000  1.0
  Zn  Zn3680  1  0.89719617  0.88619819  0.96815000  1.0
  Zn  Zn3681  1  0.06386283  0.17786485  0.96815000  1.0
  Zn  Zn3682  1  0.06386283  0.51119819  0.96815000  1.0
  Zn  Zn3683  1  0.06386283  0.84453152  0.96815000  1.0
  Zn  Zn3684  1  0.39719617  0.17786485  0.96815000  1.0
  Zn  Zn3685  1  0.39719617  0.51119819  0.96815000  1.0
  Zn  Zn3686  1  0.39719617  0.84453152  0.96815000  1.0
  Zn  Zn3687  1  0.73052950  0.17786485  0.96815000  1.0
  Zn  Zn3688  1  0.73052950  0.51119819  0.96815000  1.0
  Zn  Zn3689  1  0.73052950  0.84453152  0.96815000  1.0
  Zn  Zn3690  1  0.16722000  0.17139998  0.79181600  1.0
  Zn  Zn3691  1  0.16722000  0.50473331  0.79181600  1.0
  Zn  Zn3692  1  0.16722000  0.83806665  0.79181600  1.0
  Zn  Zn3693  1  0.50055333  0.17139998  0.79181600  1.0
  Zn  Zn3694  1  0.50055333  0.50473331  0.79181600  1.0
  Zn  Zn3695  1  0.50055333  0.83806665  0.79181600  1.0
  Zn  Zn3696  1  0.83388667  0.17139998  0.79181600  1.0
  Zn  Zn3697  1  0.83388667  0.50473331  0.79181600  1.0
  Zn  Zn3698  1  0.83388667  0.83806665  0.79181600  1.0
  Zn  Zn3699  1  0.00055333  0.21306665  0.79181600  1.0
  Zn  Zn3700  1  0.00055333  0.54639998  0.79181600  1.0
  Zn  Zn3701  1  0.00055333  0.87973331  0.79181600  1.0
  Zn  Zn3702  1  0.33388667  0.21306665  0.79181600  1.0
  Zn  Zn3703  1  0.33388667  0.54639998  0.79181600  1.0
  Zn  Zn3704  1  0.33388667  0.87973331  0.79181600  1.0
  Zn  Zn3705  1  0.66722000  0.21306665  0.79181600  1.0
  Zn  Zn3706  1  0.66722000  0.54639998  0.79181600  1.0
  Zn  Zn3707  1  0.66722000  0.87973331  0.79181600  1.0
  Zn  Zn3708  1  0.20698483  0.24447469  0.65401100  1.0
  Zn  Zn3709  1  0.20698483  0.57780802  0.65401100  1.0
  Zn  Zn3710  1  0.20698483  0.91114135  0.65401100  1.0
  Zn  Zn3711  1  0.54031817  0.24447469  0.65401100  1.0
  Zn  Zn3712  1  0.54031817  0.57780802  0.65401100  1.0
  Zn  Zn3713  1  0.54031817  0.91114135  0.65401100  1.0
  Zn  Zn3714  1  0.87365150  0.24447469  0.65401100  1.0
  Zn  Zn3715  1  0.87365150  0.57780802  0.65401100  1.0
  Zn  Zn3716  1  0.87365150  0.91114135  0.65401100  1.0
  Zn  Zn3717  1  0.04031817  0.20280802  0.65401100  1.0
  Zn  Zn3718  1  0.04031817  0.53614135  0.65401100  1.0
  Zn  Zn3719  1  0.04031817  0.86947469  0.65401100  1.0
  Zn  Zn3720  1  0.37365150  0.20280802  0.65401100  1.0
  Zn  Zn3721  1  0.37365150  0.53614135  0.65401100  1.0
  Zn  Zn3722  1  0.37365150  0.86947469  0.65401100  1.0
  Zn  Zn3723  1  0.70698483  0.20280802  0.65401100  1.0
  Zn  Zn3724  1  0.70698483  0.53614135  0.65401100  1.0
  Zn  Zn3725  1  0.70698483  0.86947469  0.65401100  1.0
  Zn  Zn3726  1  0.25719633  0.16754181  0.90826300  1.0
  Zn  Zn3727  1  0.25719633  0.50087515  0.90826300  1.0
  Zn  Zn3728  1  0.25719633  0.83420848  0.90826300  1.0
  Zn  Zn3729  1  0.59052967  0.16754181  0.90826300  1.0
  Zn  Zn3730  1  0.59052967  0.50087515  0.90826300  1.0
  Zn  Zn3731  1  0.59052967  0.83420848  0.90826300  1.0
  Zn  Zn3732  1  0.92386300  0.16754181  0.90826300  1.0
  Zn  Zn3733  1  0.92386300  0.50087515  0.90826300  1.0
  Zn  Zn3734  1  0.92386300  0.83420848  0.90826300  1.0
  Zn  Zn3735  1  0.09052967  0.20920848  0.90826300  1.0
  Zn  Zn3736  1  0.09052967  0.54254181  0.90826300  1.0
  Zn  Zn3737  1  0.09052967  0.87587515  0.90826300  1.0
  Zn  Zn3738  1  0.42386300  0.20920848  0.90826300  1.0
  Zn  Zn3739  1  0.42386300  0.54254181  0.90826300  1.0
  Zn  Zn3740  1  0.42386300  0.87587515  0.90826300  1.0
  Zn  Zn3741  1  0.75719633  0.20920848  0.90826300  1.0
  Zn  Zn3742  1  0.75719633  0.54254181  0.90826300  1.0
  Zn  Zn3743  1  0.75719633  0.87587515  0.90826300  1.0
  Zn  Zn3744  1  0.13707817  0.16854510  0.30942100  1.0
  Zn  Zn3745  1  0.13707817  0.50187844  0.30942100  1.0
  Zn  Zn3746  1  0.13707817  0.83521177  0.30942100  1.0
  Zn  Zn3747  1  0.47041150  0.16854510  0.30942100  1.0
  Zn  Zn3748  1  0.47041150  0.50187844  0.30942100  1.0
  Zn  Zn3749  1  0.47041150  0.83521177  0.30942100  1.0
  Zn  Zn3750  1  0.80374483  0.16854510  0.30942100  1.0
  Zn  Zn3751  1  0.80374483  0.50187844  0.30942100  1.0
  Zn  Zn3752  1  0.80374483  0.83521177  0.30942100  1.0
  Zn  Zn3753  1  0.30374483  0.21021177  0.30942100  1.0
  Zn  Zn3754  1  0.30374483  0.54354510  0.30942100  1.0
  Zn  Zn3755  1  0.30374483  0.87687844  0.30942100  1.0
  Zn  Zn3756  1  0.63707817  0.21021177  0.30942100  1.0
  Zn  Zn3757  1  0.63707817  0.54354510  0.30942100  1.0
  Zn  Zn3758  1  0.63707817  0.87687844  0.30942100  1.0
  Zn  Zn3759  1  0.97041150  0.21021177  0.30942100  1.0
  Zn  Zn3760  1  0.97041150  0.54354510  0.30942100  1.0
  Zn  Zn3761  1  0.97041150  0.87687844  0.30942100  1.0
  Zn  Zn3762  1  0.18680933  0.21034965  0.71971800  1.0
  Zn  Zn3763  1  0.18680933  0.54368298  0.71971800  1.0
  Zn  Zn3764  1  0.18680933  0.87701631  0.71971800  1.0
  Zn  Zn3765  1  0.52014267  0.21034965  0.71971800  1.0
  Zn  Zn3766  1  0.52014267  0.54368298  0.71971800  1.0
  Zn  Zn3767  1  0.52014267  0.87701631  0.71971800  1.0
  Zn  Zn3768  1  0.85347600  0.21034965  0.71971800  1.0
  Zn  Zn3769  1  0.85347600  0.54368298  0.71971800  1.0
  Zn  Zn3770  1  0.85347600  0.87701631  0.71971800  1.0
  Zn  Zn3771  1  0.02014267  0.16868298  0.71971800  1.0
  Zn  Zn3772  1  0.02014267  0.50201631  0.71971800  1.0
  Zn  Zn3773  1  0.02014267  0.83534965  0.71971800  1.0
  Zn  Zn3774  1  0.35347600  0.16868298  0.71971800  1.0
  Zn  Zn3775  1  0.35347600  0.50201631  0.71971800  1.0
  Zn  Zn3776  1  0.35347600  0.83534965  0.71971800  1.0
  Zn  Zn3777  1  0.68680933  0.16868298  0.71971800  1.0
  Zn  Zn3778  1  0.68680933  0.50201631  0.71971800  1.0
  Zn  Zn3779  1  0.68680933  0.83534965  0.71971800  1.0
  Zn  Zn3780  1  0.14171417  0.24704369  0.03185000  1.0
  Zn  Zn3781  1  0.14171417  0.58037702  0.03185000  1.0
  Zn  Zn3782  1  0.14171417  0.91371035  0.03185000  1.0
  Zn  Zn3783  1  0.47504750  0.24704369  0.03185000  1.0
  Zn  Zn3784  1  0.47504750  0.58037702  0.03185000  1.0
  Zn  Zn3785  1  0.47504750  0.91371035  0.03185000  1.0
  Zn  Zn3786  1  0.80838083  0.24704369  0.03185000  1.0
  Zn  Zn3787  1  0.80838083  0.58037702  0.03185000  1.0
  Zn  Zn3788  1  0.80838083  0.91371035  0.03185000  1.0
  Zn  Zn3789  1  0.30838083  0.20537702  0.03185000  1.0
  Zn  Zn3790  1  0.30838083  0.53871035  0.03185000  1.0
  Zn  Zn3791  1  0.30838083  0.87204369  0.03185000  1.0
  Zn  Zn3792  1  0.64171417  0.20537702  0.03185000  1.0
  Zn  Zn3793  1  0.64171417  0.53871035  0.03185000  1.0
  Zn  Zn3794  1  0.64171417  0.87204369  0.03185000  1.0
  Zn  Zn3795  1  0.97504750  0.20537702  0.03185000  1.0
  Zn  Zn3796  1  0.97504750  0.53871035  0.03185000  1.0
  Zn  Zn3797  1  0.97504750  0.87204369  0.03185000  1.0
  Zn  Zn3798  1  0.16170283  0.22227677  0.65734400  1.0
  Zn  Zn3799  1  0.16170283  0.55561010  0.65734400  1.0
  Zn  Zn3800  1  0.16170283  0.88894344  0.65734400  1.0
  Zn  Zn3801  1  0.49503617  0.22227677  0.65734400  1.0
  Zn  Zn3802  1  0.49503617  0.55561010  0.65734400  1.0
  Zn  Zn3803  1  0.49503617  0.88894344  0.65734400  1.0
  Zn  Zn3804  1  0.82836950  0.22227677  0.65734400  1.0
  Zn  Zn3805  1  0.82836950  0.55561010  0.65734400  1.0
  Zn  Zn3806  1  0.82836950  0.88894344  0.65734400  1.0
  Zn  Zn3807  1  0.32836950  0.18061010  0.65734400  1.0
  Zn  Zn3808  1  0.32836950  0.51394344  0.65734400  1.0
  Zn  Zn3809  1  0.32836950  0.84727677  0.65734400  1.0
  Zn  Zn3810  1  0.66170283  0.18061010  0.65734400  1.0
  Zn  Zn3811  1  0.66170283  0.51394344  0.65734400  1.0
  Zn  Zn3812  1  0.66170283  0.84727677  0.65734400  1.0
  Zn  Zn3813  1  0.99503617  0.18061010  0.65734400  1.0
  Zn  Zn3814  1  0.99503617  0.51394344  0.65734400  1.0
  Zn  Zn3815  1  0.99503617  0.84727677  0.65734400  1.0
  Zn  Zn3816  1  0.17369733  0.22765623  0.77715800  1.0
  Zn  Zn3817  1  0.17369733  0.56098956  0.77715800  1.0
  Zn  Zn3818  1  0.17369733  0.89432290  0.77715800  1.0
  Zn  Zn3819  1  0.50703067  0.22765623  0.77715800  1.0
  Zn  Zn3820  1  0.50703067  0.56098956  0.77715800  1.0
  Zn  Zn3821  1  0.50703067  0.89432290  0.77715800  1.0
  Zn  Zn3822  1  0.84036400  0.22765623  0.77715800  1.0
  Zn  Zn3823  1  0.84036400  0.56098956  0.77715800  1.0
  Zn  Zn3824  1  0.84036400  0.89432290  0.77715800  1.0
  Zn  Zn3825  1  0.00703067  0.18598956  0.77715800  1.0
  Zn  Zn3826  1  0.00703067  0.51932290  0.77715800  1.0
  Zn  Zn3827  1  0.00703067  0.85265623  0.77715800  1.0
  Zn  Zn3828  1  0.34036400  0.18598956  0.77715800  1.0
  Zn  Zn3829  1  0.34036400  0.51932290  0.77715800  1.0
  Zn  Zn3830  1  0.34036400  0.85265623  0.77715800  1.0
  Zn  Zn3831  1  0.67369733  0.18598956  0.77715800  1.0
  Zn  Zn3832  1  0.67369733  0.51932290  0.77715800  1.0
  Zn  Zn3833  1  0.67369733  0.85265623  0.77715800  1.0
  Zn  Zn3834  1  0.09218717  0.17354010  0.46815000  1.0
  Zn  Zn3835  1  0.09218717  0.50687344  0.46815000  1.0
  Zn  Zn3836  1  0.09218717  0.84020677  0.46815000  1.0
  Zn  Zn3837  1  0.42552050  0.17354010  0.46815000  1.0
  Zn  Zn3838  1  0.42552050  0.50687344  0.46815000  1.0
  Zn  Zn3839  1  0.42552050  0.84020677  0.46815000  1.0
  Zn  Zn3840  1  0.75885383  0.17354010  0.46815000  1.0
  Zn  Zn3841  1  0.75885383  0.50687344  0.46815000  1.0
  Zn  Zn3842  1  0.75885383  0.84020677  0.46815000  1.0
  Zn  Zn3843  1  0.25885383  0.21520677  0.46815000  1.0
  Zn  Zn3844  1  0.25885383  0.54854010  0.46815000  1.0
  Zn  Zn3845  1  0.25885383  0.88187344  0.46815000  1.0
  Zn  Zn3846  1  0.59218717  0.21520677  0.46815000  1.0
  Zn  Zn3847  1  0.59218717  0.54854010  0.46815000  1.0
  Zn  Zn3848  1  0.59218717  0.88187344  0.46815000  1.0
  Zn  Zn3849  1  0.92552050  0.21520677  0.46815000  1.0
  Zn  Zn3850  1  0.92552050  0.54854010  0.46815000  1.0
  Zn  Zn3851  1  0.92552050  0.88187344  0.46815000  1.0
  Zn  Zn3852  1  0.16701367  0.23774615  0.58578400  1.0
  Zn  Zn3853  1  0.16701367  0.57107948  0.58578400  1.0
  Zn  Zn3854  1  0.16701367  0.90441281  0.58578400  1.0
  Zn  Zn3855  1  0.50034700  0.23774615  0.58578400  1.0
  Zn  Zn3856  1  0.50034700  0.57107948  0.58578400  1.0
  Zn  Zn3857  1  0.50034700  0.90441281  0.58578400  1.0
  Zn  Zn3858  1  0.83368033  0.23774615  0.58578400  1.0
  Zn  Zn3859  1  0.83368033  0.57107948  0.58578400  1.0
  Zn  Zn3860  1  0.83368033  0.90441281  0.58578400  1.0
  Zn  Zn3861  1  0.00034700  0.19607948  0.58578400  1.0
  Zn  Zn3862  1  0.00034700  0.52941281  0.58578400  1.0
  Zn  Zn3863  1  0.00034700  0.86274615  0.58578400  1.0
  Zn  Zn3864  1  0.33368033  0.19607948  0.58578400  1.0
  Zn  Zn3865  1  0.33368033  0.52941281  0.58578400  1.0
  Zn  Zn3866  1  0.33368033  0.86274615  0.58578400  1.0
  Zn  Zn3867  1  0.66701367  0.19607948  0.58578400  1.0
  Zn  Zn3868  1  0.66701367  0.52941281  0.58578400  1.0
  Zn  Zn3869  1  0.66701367  0.86274615  0.58578400  1.0
  Zn  Zn3870  1  0.18163567  0.20621031  0.52343700  1.0
  Zn  Zn3871  1  0.18163567  0.53954365  0.52343700  1.0
  Zn  Zn3872  1  0.18163567  0.87287698  0.52343700  1.0
  Zn  Zn3873  1  0.51496900  0.20621031  0.52343700  1.0
  Zn  Zn3874  1  0.51496900  0.53954365  0.52343700  1.0
  Zn  Zn3875  1  0.51496900  0.87287698  0.52343700  1.0
  Zn  Zn3876  1  0.84830233  0.20621031  0.52343700  1.0
  Zn  Zn3877  1  0.84830233  0.53954365  0.52343700  1.0
  Zn  Zn3878  1  0.84830233  0.87287698  0.52343700  1.0
  Zn  Zn3879  1  0.01496900  0.24787698  0.52343700  1.0
  Zn  Zn3880  1  0.01496900  0.58121031  0.52343700  1.0
  Zn  Zn3881  1  0.01496900  0.91454365  0.52343700  1.0
  Zn  Zn3882  1  0.34830233  0.24787698  0.52343700  1.0
  Zn  Zn3883  1  0.34830233  0.58121031  0.52343700  1.0
  Zn  Zn3884  1  0.34830233  0.91454365  0.52343700  1.0
  Zn  Zn3885  1  0.68163567  0.24787698  0.52343700  1.0
  Zn  Zn3886  1  0.68163567  0.58121031  0.52343700  1.0
  Zn  Zn3887  1  0.68163567  0.91454365  0.52343700  1.0
  Zn  Zn3888  1  0.18661583  0.17377835  0.28028200  1.0
  Zn  Zn3889  1  0.18661583  0.50711169  0.28028200  1.0
  Zn  Zn3890  1  0.18661583  0.84044502  0.28028200  1.0
  Zn  Zn3891  1  0.51994917  0.17377835  0.28028200  1.0
  Zn  Zn3892  1  0.51994917  0.50711169  0.28028200  1.0
  Zn  Zn3893  1  0.51994917  0.84044502  0.28028200  1.0
  Zn  Zn3894  1  0.85328250  0.17377835  0.28028200  1.0
  Zn  Zn3895  1  0.85328250  0.50711169  0.28028200  1.0
  Zn  Zn3896  1  0.85328250  0.84044502  0.28028200  1.0
  Zn  Zn3897  1  0.01994917  0.21544502  0.28028200  1.0
  Zn  Zn3898  1  0.01994917  0.54877835  0.28028200  1.0
  Zn  Zn3899  1  0.01994917  0.88211169  0.28028200  1.0
  Zn  Zn3900  1  0.35328250  0.21544502  0.28028200  1.0
  Zn  Zn3901  1  0.35328250  0.54877835  0.28028200  1.0
  Zn  Zn3902  1  0.35328250  0.88211169  0.28028200  1.0
  Zn  Zn3903  1  0.68661583  0.21544502  0.28028200  1.0
  Zn  Zn3904  1  0.68661583  0.54877835  0.28028200  1.0
  Zn  Zn3905  1  0.68661583  0.88211169  0.28028200  1.0
  Zn  Zn3906  1  0.11695333  0.24392556  0.15361200  1.0
  Zn  Zn3907  1  0.11695333  0.57725890  0.15361200  1.0
  Zn  Zn3908  1  0.11695333  0.91059223  0.15361200  1.0
  Zn  Zn3909  1  0.45028667  0.24392556  0.15361200  1.0
  Zn  Zn3910  1  0.45028667  0.57725890  0.15361200  1.0
  Zn  Zn3911  1  0.45028667  0.91059223  0.15361200  1.0
  Zn  Zn3912  1  0.78362000  0.24392556  0.15361200  1.0
  Zn  Zn3913  1  0.78362000  0.57725890  0.15361200  1.0
  Zn  Zn3914  1  0.78362000  0.91059223  0.15361200  1.0
  Zn  Zn3915  1  0.28362000  0.20225890  0.15361200  1.0
  Zn  Zn3916  1  0.28362000  0.53559223  0.15361200  1.0
  Zn  Zn3917  1  0.28362000  0.86892556  0.15361200  1.0
  Zn  Zn3918  1  0.61695333  0.20225890  0.15361200  1.0
  Zn  Zn3919  1  0.61695333  0.53559223  0.15361200  1.0
  Zn  Zn3920  1  0.61695333  0.86892556  0.15361200  1.0
  Zn  Zn3921  1  0.95028667  0.20225890  0.15361200  1.0
  Zn  Zn3922  1  0.95028667  0.53559223  0.15361200  1.0
  Zn  Zn3923  1  0.95028667  0.86892556  0.15361200  1.0
  Zn  Zn3924  1  0.21854350  0.18671385  0.77184200  1.0
  Zn  Zn3925  1  0.21854350  0.52004719  0.77184200  1.0
  Zn  Zn3926  1  0.21854350  0.85338052  0.77184200  1.0
  Zn  Zn3927  1  0.55187683  0.18671385  0.77184200  1.0
  Zn  Zn3928  1  0.55187683  0.52004719  0.77184200  1.0
  Zn  Zn3929  1  0.55187683  0.85338052  0.77184200  1.0
  Zn  Zn3930  1  0.88521017  0.18671385  0.77184200  1.0
  Zn  Zn3931  1  0.88521017  0.52004719  0.77184200  1.0
  Zn  Zn3932  1  0.88521017  0.85338052  0.77184200  1.0
  Zn  Zn3933  1  0.05187683  0.22838052  0.77184200  1.0
  Zn  Zn3934  1  0.05187683  0.56171385  0.77184200  1.0
  Zn  Zn3935  1  0.05187683  0.89504719  0.77184200  1.0
  Zn  Zn3936  1  0.38521017  0.22838052  0.77184200  1.0
  Zn  Zn3937  1  0.38521017  0.56171385  0.77184200  1.0
  Zn  Zn3938  1  0.38521017  0.89504719  0.77184200  1.0
  Zn  Zn3939  1  0.71854350  0.22838052  0.77184200  1.0
  Zn  Zn3940  1  0.71854350  0.56171385  0.77184200  1.0
  Zn  Zn3941  1  0.71854350  0.89504719  0.77184200  1.0
  Zn  Zn3942  1  0.18940233  0.24396131  0.72284200  1.0
  Zn  Zn3943  1  0.18940233  0.57729465  0.72284200  1.0
  Zn  Zn3944  1  0.18940233  0.91062798  0.72284200  1.0
  Zn  Zn3945  1  0.52273567  0.24396131  0.72284200  1.0
  Zn  Zn3946  1  0.52273567  0.57729465  0.72284200  1.0
  Zn  Zn3947  1  0.52273567  0.91062798  0.72284200  1.0
  Zn  Zn3948  1  0.85606900  0.24396131  0.72284200  1.0
  Zn  Zn3949  1  0.85606900  0.57729465  0.72284200  1.0
  Zn  Zn3950  1  0.85606900  0.91062798  0.72284200  1.0
  Zn  Zn3951  1  0.02273567  0.20229465  0.72284200  1.0
  Zn  Zn3952  1  0.02273567  0.53562798  0.72284200  1.0
  Zn  Zn3953  1  0.02273567  0.86896131  0.72284200  1.0
  Zn  Zn3954  1  0.35606900  0.20229465  0.72284200  1.0
  Zn  Zn3955  1  0.35606900  0.53562798  0.72284200  1.0
  Zn  Zn3956  1  0.35606900  0.86896131  0.72284200  1.0
  Zn  Zn3957  1  0.68940233  0.20229465  0.72284200  1.0
  Zn  Zn3958  1  0.68940233  0.53562798  0.72284200  1.0
  Zn  Zn3959  1  0.68940233  0.86896131  0.72284200  1.0
  Zn  Zn3960  1  0.19293367  0.21793815  0.84598900  1.0
  Zn  Zn3961  1  0.19293367  0.55127148  0.84598900  1.0
  Zn  Zn3962  1  0.19293367  0.88460481  0.84598900  1.0
  Zn  Zn3963  1  0.52626700  0.21793815  0.84598900  1.0
  Zn  Zn3964  1  0.52626700  0.55127148  0.84598900  1.0
  Zn  Zn3965  1  0.52626700  0.88460481  0.84598900  1.0
  Zn  Zn3966  1  0.85960033  0.21793815  0.84598900  1.0
  Zn  Zn3967  1  0.85960033  0.55127148  0.84598900  1.0
  Zn  Zn3968  1  0.85960033  0.88460481  0.84598900  1.0
  Zn  Zn3969  1  0.02626700  0.17627148  0.84598900  1.0
  Zn  Zn3970  1  0.02626700  0.50960481  0.84598900  1.0
  Zn  Zn3971  1  0.02626700  0.84293815  0.84598900  1.0
  Zn  Zn3972  1  0.35960033  0.17627148  0.84598900  1.0
  Zn  Zn3973  1  0.35960033  0.50960481  0.84598900  1.0
  Zn  Zn3974  1  0.35960033  0.84293815  0.84598900  1.0
  Zn  Zn3975  1  0.69293367  0.17627148  0.84598900  1.0
  Zn  Zn3976  1  0.69293367  0.50960481  0.84598900  1.0
  Zn  Zn3977  1  0.69293367  0.84293815  0.84598900  1.0
  Zn  Zn3978  1  0.24646450  0.21991802  0.89844700  1.0
  Zn  Zn3979  1  0.24646450  0.55325135  0.89844700  1.0
  Zn  Zn3980  1  0.24646450  0.88658469  0.89844700  1.0
  Zn  Zn3981  1  0.57979783  0.21991802  0.89844700  1.0
  Zn  Zn3982  1  0.57979783  0.55325135  0.89844700  1.0
  Zn  Zn3983  1  0.57979783  0.88658469  0.89844700  1.0
  Zn  Zn3984  1  0.91313117  0.21991802  0.89844700  1.0
  Zn  Zn3985  1  0.91313117  0.55325135  0.89844700  1.0
  Zn  Zn3986  1  0.91313117  0.88658469  0.89844700  1.0
  Zn  Zn3987  1  0.07979783  0.17825135  0.89844700  1.0
  Zn  Zn3988  1  0.07979783  0.51158469  0.89844700  1.0
  Zn  Zn3989  1  0.07979783  0.84491802  0.89844700  1.0
  Zn  Zn3990  1  0.41313117  0.17825135  0.89844700  1.0
  Zn  Zn3991  1  0.41313117  0.51158469  0.89844700  1.0
  Zn  Zn3992  1  0.41313117  0.84491802  0.89844700  1.0
  Zn  Zn3993  1  0.74646450  0.17825135  0.89844700  1.0
  Zn  Zn3994  1  0.74646450  0.51158469  0.89844700  1.0
  Zn  Zn3995  1  0.74646450  0.84491802  0.89844700  1.0
  Zn  Zn3996  1  0.29939550  0.16963244  0.80942100  1.0
  Zn  Zn3997  1  0.29939550  0.50296577  0.80942100  1.0
  Zn  Zn3998  1  0.29939550  0.83629910  0.80942100  1.0
  Zn  Zn3999  1  0.63272883  0.16963244  0.80942100  1.0
  Zn  Zn4000  1  0.63272883  0.50296577  0.80942100  1.0
  Zn  Zn4001  1  0.63272883  0.83629910  0.80942100  1.0
  Zn  Zn4002  1  0.96606217  0.16963244  0.80942100  1.0
  Zn  Zn4003  1  0.96606217  0.50296577  0.80942100  1.0
  Zn  Zn4004  1  0.96606217  0.83629910  0.80942100  1.0
  Zn  Zn4005  1  0.13272883  0.21129910  0.80942100  1.0
  Zn  Zn4006  1  0.13272883  0.54463244  0.80942100  1.0
  Zn  Zn4007  1  0.13272883  0.87796577  0.80942100  1.0
  Zn  Zn4008  1  0.46606217  0.21129910  0.80942100  1.0
  Zn  Zn4009  1  0.46606217  0.54463244  0.80942100  1.0
  Zn  Zn4010  1  0.46606217  0.87796577  0.80942100  1.0
  Zn  Zn4011  1  0.79939550  0.21129910  0.80942100  1.0
  Zn  Zn4012  1  0.79939550  0.54463244  0.80942100  1.0
  Zn  Zn4013  1  0.79939550  0.87796577  0.80942100  1.0
  Zn  Zn4014  1  0.22637100  0.19893081  0.58578400  1.0
  Zn  Zn4015  1  0.22637100  0.53226415  0.58578400  1.0
  Zn  Zn4016  1  0.22637100  0.86559748  0.58578400  1.0
  Zn  Zn4017  1  0.55970433  0.19893081  0.58578400  1.0
  Zn  Zn4018  1  0.55970433  0.53226415  0.58578400  1.0
  Zn  Zn4019  1  0.55970433  0.86559748  0.58578400  1.0
  Zn  Zn4020  1  0.89303767  0.19893081  0.58578400  1.0
  Zn  Zn4021  1  0.89303767  0.53226415  0.58578400  1.0
  Zn  Zn4022  1  0.89303767  0.86559748  0.58578400  1.0
  Zn  Zn4023  1  0.05970433  0.24059748  0.58578400  1.0
  Zn  Zn4024  1  0.05970433  0.57393081  0.58578400  1.0
  Zn  Zn4025  1  0.05970433  0.90726415  0.58578400  1.0
  Zn  Zn4026  1  0.39303767  0.24059748  0.58578400  1.0
  Zn  Zn4027  1  0.39303767  0.57393081  0.58578400  1.0
  Zn  Zn4028  1  0.39303767  0.90726415  0.58578400  1.0
  Zn  Zn4029  1  0.72637100  0.24059748  0.58578400  1.0
  Zn  Zn4030  1  0.72637100  0.57393081  0.58578400  1.0
  Zn  Zn4031  1  0.72637100  0.90726415  0.58578400  1.0
  Zn  Zn4032  1  0.26658100  0.21760206  0.65734400  1.0
  Zn  Zn4033  1  0.26658100  0.55093540  0.65734400  1.0
  Zn  Zn4034  1  0.26658100  0.88426873  0.65734400  1.0
  Zn  Zn4035  1  0.59991433  0.21760206  0.65734400  1.0
  Zn  Zn4036  1  0.59991433  0.55093540  0.65734400  1.0
  Zn  Zn4037  1  0.59991433  0.88426873  0.65734400  1.0
  Zn  Zn4038  1  0.93324767  0.21760206  0.65734400  1.0
  Zn  Zn4039  1  0.93324767  0.55093540  0.65734400  1.0
  Zn  Zn4040  1  0.93324767  0.88426873  0.65734400  1.0
  Zn  Zn4041  1  0.09991433  0.17593540  0.65734400  1.0
  Zn  Zn4042  1  0.09991433  0.50926873  0.65734400  1.0
  Zn  Zn4043  1  0.09991433  0.84260206  0.65734400  1.0
  Zn  Zn4044  1  0.43324767  0.17593540  0.65734400  1.0
  Zn  Zn4045  1  0.43324767  0.50926873  0.65734400  1.0
  Zn  Zn4046  1  0.43324767  0.84260206  0.65734400  1.0
  Zn  Zn4047  1  0.76658100  0.17593540  0.65734400  1.0
  Zn  Zn4048  1  0.76658100  0.50926873  0.65734400  1.0
  Zn  Zn4049  1  0.76658100  0.84260206  0.65734400  1.0
  Zn  Zn4050  1  0.03393783  0.18442669  0.19057900  1.0
  Zn  Zn4051  1  0.03393783  0.51776002  0.19057900  1.0
  Zn  Zn4052  1  0.03393783  0.85109335  0.19057900  1.0
  Zn  Zn4053  1  0.36727117  0.18442669  0.19057900  1.0
  Zn  Zn4054  1  0.36727117  0.51776002  0.19057900  1.0
  Zn  Zn4055  1  0.36727117  0.85109335  0.19057900  1.0
  Zn  Zn4056  1  0.70060450  0.18442669  0.19057900  1.0
  Zn  Zn4057  1  0.70060450  0.51776002  0.19057900  1.0
  Zn  Zn4058  1  0.70060450  0.85109335  0.19057900  1.0
  Zn  Zn4059  1  0.20060450  0.22609335  0.19057900  1.0
  Zn  Zn4060  1  0.20060450  0.55942669  0.19057900  1.0
  Zn  Zn4061  1  0.20060450  0.89276002  0.19057900  1.0
  Zn  Zn4062  1  0.53393783  0.22609335  0.19057900  1.0
  Zn  Zn4063  1  0.53393783  0.55942669  0.19057900  1.0
  Zn  Zn4064  1  0.53393783  0.89276002  0.19057900  1.0
  Zn  Zn4065  1  0.86727117  0.22609335  0.19057900  1.0
  Zn  Zn4066  1  0.86727117  0.55942669  0.19057900  1.0
  Zn  Zn4067  1  0.86727117  0.89276002  0.19057900  1.0
  Zn  Zn4068  1  0.15564783  0.18997377  0.84598900  1.0
  Zn  Zn4069  1  0.15564783  0.52330710  0.84598900  1.0
  Zn  Zn4070  1  0.15564783  0.85664044  0.84598900  1.0
  Zn  Zn4071  1  0.48898117  0.18997377  0.84598900  1.0
  Zn  Zn4072  1  0.48898117  0.52330710  0.84598900  1.0
  Zn  Zn4073  1  0.48898117  0.85664044  0.84598900  1.0
  Zn  Zn4074  1  0.82231450  0.18997377  0.84598900  1.0
  Zn  Zn4075  1  0.82231450  0.52330710  0.84598900  1.0
  Zn  Zn4076  1  0.82231450  0.85664044  0.84598900  1.0
  Zn  Zn4077  1  0.32231450  0.23164044  0.84598900  1.0
  Zn  Zn4078  1  0.32231450  0.56497377  0.84598900  1.0
  Zn  Zn4079  1  0.32231450  0.89830710  0.84598900  1.0
  Zn  Zn4080  1  0.65564783  0.23164044  0.84598900  1.0
  Zn  Zn4081  1  0.65564783  0.56497377  0.84598900  1.0
  Zn  Zn4082  1  0.65564783  0.89830710  0.84598900  1.0
  Zn  Zn4083  1  0.98898117  0.23164044  0.84598900  1.0
  Zn  Zn4084  1  0.98898117  0.56497377  0.84598900  1.0
  Zn  Zn4085  1  0.98898117  0.89830710  0.84598900  1.0
  Zn  Zn4086  1  0.12634850  0.19291777  0.34598900  1.0
  Zn  Zn4087  1  0.12634850  0.52625110  0.34598900  1.0
  Zn  Zn4088  1  0.12634850  0.85958444  0.34598900  1.0
  Zn  Zn4089  1  0.45968183  0.19291777  0.34598900  1.0
  Zn  Zn4090  1  0.45968183  0.52625110  0.34598900  1.0
  Zn  Zn4091  1  0.45968183  0.85958444  0.34598900  1.0
  Zn  Zn4092  1  0.79301517  0.19291777  0.34598900  1.0
  Zn  Zn4093  1  0.79301517  0.52625110  0.34598900  1.0
  Zn  Zn4094  1  0.79301517  0.85958444  0.34598900  1.0
  Zn  Zn4095  1  0.29301517  0.23458444  0.34598900  1.0
  Zn  Zn4096  1  0.29301517  0.56791777  0.34598900  1.0
  Zn  Zn4097  1  0.29301517  0.90125110  0.34598900  1.0
  Zn  Zn4098  1  0.62634850  0.23458444  0.34598900  1.0
  Zn  Zn4099  1  0.62634850  0.56791777  0.34598900  1.0
  Zn  Zn4100  1  0.62634850  0.90125110  0.34598900  1.0
  Zn  Zn4101  1  0.95968183  0.23458444  0.34598900  1.0
  Zn  Zn4102  1  0.95968183  0.56791777  0.34598900  1.0
  Zn  Zn4103  1  0.95968183  0.90125110  0.34598900  1.0
  Zn  Zn4104  1  0.17768550  0.24741869  0.15401100  1.0
  Zn  Zn4105  1  0.17768550  0.58075202  0.15401100  1.0
  Zn  Zn4106  1  0.17768550  0.91408535  0.15401100  1.0
  Zn  Zn4107  1  0.51101883  0.24741869  0.15401100  1.0
  Zn  Zn4108  1  0.51101883  0.58075202  0.15401100  1.0
  Zn  Zn4109  1  0.51101883  0.91408535  0.15401100  1.0
  Zn  Zn4110  1  0.84435217  0.24741869  0.15401100  1.0
  Zn  Zn4111  1  0.84435217  0.58075202  0.15401100  1.0
  Zn  Zn4112  1  0.84435217  0.91408535  0.15401100  1.0
  Zn  Zn4113  1  0.01101883  0.20575202  0.15401100  1.0
  Zn  Zn4114  1  0.01101883  0.53908535  0.15401100  1.0
  Zn  Zn4115  1  0.01101883  0.87241869  0.15401100  1.0
  Zn  Zn4116  1  0.34435217  0.20575202  0.15401100  1.0
  Zn  Zn4117  1  0.34435217  0.53908535  0.15401100  1.0
  Zn  Zn4118  1  0.34435217  0.87241869  0.15401100  1.0
  Zn  Zn4119  1  0.67768550  0.20575202  0.15401100  1.0
  Zn  Zn4120  1  0.67768550  0.53908535  0.15401100  1.0
  Zn  Zn4121  1  0.67768550  0.87241869  0.15401100  1.0
  Zn  Zn4122  1  0.20540383  0.23166544  0.27184200  1.0
  Zn  Zn4123  1  0.20540383  0.56499877  0.27184200  1.0
  Zn  Zn4124  1  0.20540383  0.89833210  0.27184200  1.0
  Zn  Zn4125  1  0.53873717  0.23166544  0.27184200  1.0
  Zn  Zn4126  1  0.53873717  0.56499877  0.27184200  1.0
  Zn  Zn4127  1  0.53873717  0.89833210  0.27184200  1.0
  Zn  Zn4128  1  0.87207050  0.23166544  0.27184200  1.0
  Zn  Zn4129  1  0.87207050  0.56499877  0.27184200  1.0
  Zn  Zn4130  1  0.87207050  0.89833210  0.27184200  1.0
  Zn  Zn4131  1  0.03873717  0.18999877  0.27184200  1.0
  Zn  Zn4132  1  0.03873717  0.52333210  0.27184200  1.0
  Zn  Zn4133  1  0.03873717  0.85666544  0.27184200  1.0
  Zn  Zn4134  1  0.37207050  0.18999877  0.27184200  1.0
  Zn  Zn4135  1  0.37207050  0.52333210  0.27184200  1.0
  Zn  Zn4136  1  0.37207050  0.85666544  0.27184200  1.0
  Zn  Zn4137  1  0.70540383  0.18999877  0.27184200  1.0
  Zn  Zn4138  1  0.70540383  0.52333210  0.27184200  1.0
  Zn  Zn4139  1  0.70540383  0.85666544  0.27184200  1.0
  Zn  Zn4140  1  0.24797800  0.20455973  0.72284200  1.0
  Zn  Zn4141  1  0.24797800  0.53789306  0.72284200  1.0
  Zn  Zn4142  1  0.24797800  0.87122640  0.72284200  1.0
  Zn  Zn4143  1  0.58131133  0.20455973  0.72284200  1.0
  Zn  Zn4144  1  0.58131133  0.53789306  0.72284200  1.0
  Zn  Zn4145  1  0.58131133  0.87122640  0.72284200  1.0
  Zn  Zn4146  1  0.91464467  0.20455973  0.72284200  1.0
  Zn  Zn4147  1  0.91464467  0.53789306  0.72284200  1.0
  Zn  Zn4148  1  0.91464467  0.87122640  0.72284200  1.0
  Zn  Zn4149  1  0.08131133  0.24622640  0.72284200  1.0
  Zn  Zn4150  1  0.08131133  0.57955973  0.72284200  1.0
  Zn  Zn4151  1  0.08131133  0.91289306  0.72284200  1.0
  Zn  Zn4152  1  0.41464467  0.24622640  0.72284200  1.0
  Zn  Zn4153  1  0.41464467  0.57955973  0.72284200  1.0
  Zn  Zn4154  1  0.41464467  0.91289306  0.72284200  1.0
  Zn  Zn4155  1  0.74797800  0.24622640  0.72284200  1.0
  Zn  Zn4156  1  0.74797800  0.57955973  0.72284200  1.0
  Zn  Zn4157  1  0.74797800  0.91289306  0.72284200  1.0
  Zn  Zn4158  1  0.28023667  0.19203981  0.78028200  1.0
  Zn  Zn4159  1  0.28023667  0.52537315  0.78028200  1.0
  Zn  Zn4160  1  0.28023667  0.85870648  0.78028200  1.0
  Zn  Zn4161  1  0.61357000  0.19203981  0.78028200  1.0
  Zn  Zn4162  1  0.61357000  0.52537315  0.78028200  1.0
  Zn  Zn4163  1  0.61357000  0.85870648  0.78028200  1.0
  Zn  Zn4164  1  0.94690333  0.19203981  0.78028200  1.0
  Zn  Zn4165  1  0.94690333  0.52537315  0.78028200  1.0
  Zn  Zn4166  1  0.94690333  0.85870648  0.78028200  1.0
  Zn  Zn4167  1  0.11357000  0.23370648  0.78028200  1.0
  Zn  Zn4168  1  0.11357000  0.56703981  0.78028200  1.0
  Zn  Zn4169  1  0.11357000  0.90037315  0.78028200  1.0
  Zn  Zn4170  1  0.44690333  0.23370648  0.78028200  1.0
  Zn  Zn4171  1  0.44690333  0.56703981  0.78028200  1.0
  Zn  Zn4172  1  0.44690333  0.90037315  0.78028200  1.0
  Zn  Zn4173  1  0.78023667  0.23370648  0.78028200  1.0
  Zn  Zn4174  1  0.78023667  0.56703981  0.78028200  1.0
  Zn  Zn4175  1  0.78023667  0.90037315  0.78028200  1.0
  Zn  Zn4176  1  0.17163050  0.21511569  0.34265600  1.0
  Zn  Zn4177  1  0.17163050  0.54844902  0.34265600  1.0
  Zn  Zn4178  1  0.17163050  0.88178235  0.34265600  1.0
  Zn  Zn4179  1  0.50496383  0.21511569  0.34265600  1.0
  Zn  Zn4180  1  0.50496383  0.54844902  0.34265600  1.0
  Zn  Zn4181  1  0.50496383  0.88178235  0.34265600  1.0
  Zn  Zn4182  1  0.83829717  0.21511569  0.34265600  1.0
  Zn  Zn4183  1  0.83829717  0.54844902  0.34265600  1.0
  Zn  Zn4184  1  0.83829717  0.88178235  0.34265600  1.0
  Zn  Zn4185  1  0.00496383  0.17344902  0.34265600  1.0
  Zn  Zn4186  1  0.00496383  0.50678235  0.34265600  1.0
  Zn  Zn4187  1  0.00496383  0.84011569  0.34265600  1.0
  Zn  Zn4188  1  0.33829717  0.17344902  0.34265600  1.0
  Zn  Zn4189  1  0.33829717  0.50678235  0.34265600  1.0
  Zn  Zn4190  1  0.33829717  0.84011569  0.34265600  1.0
  Zn  Zn4191  1  0.67163050  0.17344902  0.34265600  1.0
  Zn  Zn4192  1  0.67163050  0.50678235  0.34265600  1.0
  Zn  Zn4193  1  0.67163050  0.84011569  0.34265600  1.0
  Zn  Zn4194  1  0.06675233  0.21979040  0.34265600  1.0
  Zn  Zn4195  1  0.06675233  0.55312373  0.34265600  1.0
  Zn  Zn4196  1  0.06675233  0.88645706  0.34265600  1.0
  Zn  Zn4197  1  0.40008567  0.21979040  0.34265600  1.0
  Zn  Zn4198  1  0.40008567  0.55312373  0.34265600  1.0
  Zn  Zn4199  1  0.40008567  0.88645706  0.34265600  1.0
  Zn  Zn4200  1  0.73341900  0.21979040  0.34265600  1.0
  Zn  Zn4201  1  0.73341900  0.55312373  0.34265600  1.0
  Zn  Zn4202  1  0.73341900  0.88645706  0.34265600  1.0
  Zn  Zn4203  1  0.23341900  0.17812373  0.34265600  1.0
  Zn  Zn4204  1  0.23341900  0.51145706  0.34265600  1.0
  Zn  Zn4205  1  0.23341900  0.84479040  0.34265600  1.0
  Zn  Zn4206  1  0.56675233  0.17812373  0.34265600  1.0
  Zn  Zn4207  1  0.56675233  0.51145706  0.34265600  1.0
  Zn  Zn4208  1  0.56675233  0.84479040  0.34265600  1.0
  Zn  Zn4209  1  0.90008567  0.17812373  0.34265600  1.0
  Zn  Zn4210  1  0.90008567  0.51145706  0.34265600  1.0
  Zn  Zn4211  1  0.90008567  0.84479040  0.34265600  1.0
  Zn  Zn4212  1  0.10180817  0.19961052  0.57639600  1.0
  Zn  Zn4213  1  0.10180817  0.53294385  0.57639600  1.0
  Zn  Zn4214  1  0.10180817  0.86627719  0.57639600  1.0
  Zn  Zn4215  1  0.43514150  0.19961052  0.57639600  1.0
  Zn  Zn4216  1  0.43514150  0.53294385  0.57639600  1.0
  Zn  Zn4217  1  0.43514150  0.86627719  0.57639600  1.0
  Zn  Zn4218  1  0.76847483  0.19961052  0.57639600  1.0
  Zn  Zn4219  1  0.76847483  0.53294385  0.57639600  1.0
  Zn  Zn4220  1  0.76847483  0.86627719  0.57639600  1.0
  Zn  Zn4221  1  0.26847483  0.24127719  0.57639600  1.0
  Zn  Zn4222  1  0.26847483  0.57461052  0.57639600  1.0
  Zn  Zn4223  1  0.26847483  0.90794385  0.57639600  1.0
  Zn  Zn4224  1  0.60180817  0.24127719  0.57639600  1.0
  Zn  Zn4225  1  0.60180817  0.57461052  0.57639600  1.0
  Zn  Zn4226  1  0.60180817  0.90794385  0.57639600  1.0
  Zn  Zn4227  1  0.93514150  0.24127719  0.57639600  1.0
  Zn  Zn4228  1  0.93514150  0.57461052  0.57639600  1.0
  Zn  Zn4229  1  0.93514150  0.90794385  0.57639600  1.0
  Zn  Zn4230  1  0.31016567  0.17334681  0.88630400  1.0
  Zn  Zn4231  1  0.31016567  0.50668015  0.88630400  1.0
  Zn  Zn4232  1  0.31016567  0.84001348  0.88630400  1.0
  Zn  Zn4233  1  0.64349900  0.17334681  0.88630400  1.0
  Zn  Zn4234  1  0.64349900  0.50668015  0.88630400  1.0
  Zn  Zn4235  1  0.64349900  0.84001348  0.88630400  1.0
  Zn  Zn4236  1  0.97683233  0.17334681  0.88630400  1.0
  Zn  Zn4237  1  0.97683233  0.50668015  0.88630400  1.0
  Zn  Zn4238  1  0.97683233  0.84001348  0.88630400  1.0
  Zn  Zn4239  1  0.14349900  0.21501348  0.88630400  1.0
  Zn  Zn4240  1  0.14349900  0.54834681  0.88630400  1.0
  Zn  Zn4241  1  0.14349900  0.88168015  0.88630400  1.0
  Zn  Zn4242  1  0.47683233  0.21501348  0.88630400  1.0
  Zn  Zn4243  1  0.47683233  0.54834681  0.88630400  1.0
  Zn  Zn4244  1  0.47683233  0.88168015  0.88630400  1.0
  Zn  Zn4245  1  0.81016567  0.21501348  0.88630400  1.0
  Zn  Zn4246  1  0.81016567  0.54834681  0.88630400  1.0
  Zn  Zn4247  1  0.81016567  0.88168015  0.88630400  1.0
  Zn  Zn4248  1  0.16611333  0.18265915  0.20818400  1.0
  Zn  Zn4249  1  0.16611333  0.51599248  0.20818400  1.0
  Zn  Zn4250  1  0.16611333  0.84932581  0.20818400  1.0
  Zn  Zn4251  1  0.49944667  0.18265915  0.20818400  1.0
  Zn  Zn4252  1  0.49944667  0.51599248  0.20818400  1.0
  Zn  Zn4253  1  0.49944667  0.84932581  0.20818400  1.0
  Zn  Zn4254  1  0.83278000  0.18265915  0.20818400  1.0
  Zn  Zn4255  1  0.83278000  0.51599248  0.20818400  1.0
  Zn  Zn4256  1  0.83278000  0.84932581  0.20818400  1.0
  Zn  Zn4257  1  0.33278000  0.22432581  0.20818400  1.0
  Zn  Zn4258  1  0.33278000  0.55765915  0.20818400  1.0
  Zn  Zn4259  1  0.33278000  0.89099248  0.20818400  1.0
  Zn  Zn4260  1  0.66611333  0.22432581  0.20818400  1.0
  Zn  Zn4261  1  0.66611333  0.55765915  0.20818400  1.0
  Zn  Zn4262  1  0.66611333  0.89099248  0.20818400  1.0
  Zn  Zn4263  1  0.99944667  0.22432581  0.20818400  1.0
  Zn  Zn4264  1  0.99944667  0.55765915  0.20818400  1.0
  Zn  Zn4265  1  0.99944667  0.89099248  0.20818400  1.0
  Zn  Zn4266  1  0.19625517  0.18551402  0.69057900  1.0
  Zn  Zn4267  1  0.19625517  0.51884735  0.69057900  1.0
  Zn  Zn4268  1  0.19625517  0.85218069  0.69057900  1.0
  Zn  Zn4269  1  0.52958850  0.18551402  0.69057900  1.0
  Zn  Zn4270  1  0.52958850  0.51884735  0.69057900  1.0
  Zn  Zn4271  1  0.52958850  0.85218069  0.69057900  1.0
  Zn  Zn4272  1  0.86292183  0.18551402  0.69057900  1.0
  Zn  Zn4273  1  0.86292183  0.51884735  0.69057900  1.0
  Zn  Zn4274  1  0.86292183  0.85218069  0.69057900  1.0
  Zn  Zn4275  1  0.02958850  0.22718069  0.69057900  1.0
  Zn  Zn4276  1  0.02958850  0.56051402  0.69057900  1.0
  Zn  Zn4277  1  0.02958850  0.89384735  0.69057900  1.0
  Zn  Zn4278  1  0.36292183  0.22718069  0.69057900  1.0
  Zn  Zn4279  1  0.36292183  0.56051402  0.69057900  1.0
  Zn  Zn4280  1  0.36292183  0.89384735  0.69057900  1.0
  Zn  Zn4281  1  0.69625517  0.22718069  0.69057900  1.0
  Zn  Zn4282  1  0.69625517  0.56051402  0.69057900  1.0
  Zn  Zn4283  1  0.69625517  0.89384735  0.69057900  1.0
  Zn  Zn4284  1  0.22683850  0.21611385  0.79181600  1.0
  Zn  Zn4285  1  0.22683850  0.54944719  0.79181600  1.0
  Zn  Zn4286  1  0.22683850  0.88278052  0.79181600  1.0
  Zn  Zn4287  1  0.56017183  0.21611385  0.79181600  1.0
  Zn  Zn4288  1  0.56017183  0.54944719  0.79181600  1.0
  Zn  Zn4289  1  0.56017183  0.88278052  0.79181600  1.0
  Zn  Zn4290  1  0.89350517  0.21611385  0.79181600  1.0
  Zn  Zn4291  1  0.89350517  0.54944719  0.79181600  1.0
  Zn  Zn4292  1  0.89350517  0.88278052  0.79181600  1.0
  Zn  Zn4293  1  0.06017183  0.17444719  0.79181600  1.0
  Zn  Zn4294  1  0.06017183  0.50778052  0.79181600  1.0
  Zn  Zn4295  1  0.06017183  0.84111385  0.79181600  1.0
  Zn  Zn4296  1  0.39350517  0.17444719  0.79181600  1.0
  Zn  Zn4297  1  0.39350517  0.50778052  0.79181600  1.0
  Zn  Zn4298  1  0.39350517  0.84111385  0.79181600  1.0
  Zn  Zn4299  1  0.72683850  0.17444719  0.79181600  1.0
  Zn  Zn4300  1  0.72683850  0.50778052  0.79181600  1.0
  Zn  Zn4301  1  0.72683850  0.84111385  0.79181600  1.0
  Zn  Zn4302  1  0.05154500  0.21200131  0.22284200  1.0
  Zn  Zn4303  1  0.05154500  0.54533465  0.22284200  1.0
  Zn  Zn4304  1  0.05154500  0.87866798  0.22284200  1.0
  Zn  Zn4305  1  0.38487833  0.21200131  0.22284200  1.0
  Zn  Zn4306  1  0.38487833  0.54533465  0.22284200  1.0
  Zn  Zn4307  1  0.38487833  0.87866798  0.22284200  1.0
  Zn  Zn4308  1  0.71821167  0.21200131  0.22284200  1.0
  Zn  Zn4309  1  0.71821167  0.54533465  0.22284200  1.0
  Zn  Zn4310  1  0.71821167  0.87866798  0.22284200  1.0
  Zn  Zn4311  1  0.21821167  0.17033465  0.22284200  1.0
  Zn  Zn4312  1  0.21821167  0.50366798  0.22284200  1.0
  Zn  Zn4313  1  0.21821167  0.83700131  0.22284200  1.0
  Zn  Zn4314  1  0.55154500  0.17033465  0.22284200  1.0
  Zn  Zn4315  1  0.55154500  0.50366798  0.22284200  1.0
  Zn  Zn4316  1  0.55154500  0.83700131  0.22284200  1.0
  Zn  Zn4317  1  0.88487833  0.17033465  0.22284200  1.0
  Zn  Zn4318  1  0.88487833  0.50366798  0.22284200  1.0
  Zn  Zn4319  1  0.88487833  0.83700131  0.22284200  1.0
  Zn  Zn4320  1  0.16427883  0.22229252  0.03599200  1.0
  Zn  Zn4321  1  0.16427883  0.55562585  0.03599200  1.0
  Zn  Zn4322  1  0.16427883  0.88895919  0.03599200  1.0
  Zn  Zn4323  1  0.49761217  0.22229252  0.03599200  1.0
  Zn  Zn4324  1  0.49761217  0.55562585  0.03599200  1.0
  Zn  Zn4325  1  0.49761217  0.88895919  0.03599200  1.0
  Zn  Zn4326  1  0.83094550  0.22229252  0.03599200  1.0
  Zn  Zn4327  1  0.83094550  0.55562585  0.03599200  1.0
  Zn  Zn4328  1  0.83094550  0.88895919  0.03599200  1.0
  Zn  Zn4329  1  0.33094550  0.18062585  0.03599200  1.0
  Zn  Zn4330  1  0.33094550  0.51395919  0.03599200  1.0
  Zn  Zn4331  1  0.33094550  0.84729252  0.03599200  1.0
  Zn  Zn4332  1  0.66427883  0.18062585  0.03599200  1.0
  Zn  Zn4333  1  0.66427883  0.51395919  0.03599200  1.0
  Zn  Zn4334  1  0.66427883  0.84729252  0.03599200  1.0
  Zn  Zn4335  1  0.99761217  0.18062585  0.03599200  1.0
  Zn  Zn4336  1  0.99761217  0.51395919  0.03599200  1.0
  Zn  Zn4337  1  0.99761217  0.84729252  0.03599200  1.0
  Zn  Zn4338  1  0.08535533  0.23283273  0.27715800  1.0
  Zn  Zn4339  1  0.08535533  0.56616606  0.27715800  1.0
  Zn  Zn4340  1  0.08535533  0.89949940  0.27715800  1.0
  Zn  Zn4341  1  0.41868867  0.23283273  0.27715800  1.0
  Zn  Zn4342  1  0.41868867  0.56616606  0.27715800  1.0
  Zn  Zn4343  1  0.41868867  0.89949940  0.27715800  1.0
  Zn  Zn4344  1  0.75202200  0.23283273  0.27715800  1.0
  Zn  Zn4345  1  0.75202200  0.56616606  0.27715800  1.0
  Zn  Zn4346  1  0.75202200  0.89949940  0.27715800  1.0
  Zn  Zn4347  1  0.25202200  0.19116606  0.27715800  1.0
  Zn  Zn4348  1  0.25202200  0.52449940  0.27715800  1.0
  Zn  Zn4349  1  0.25202200  0.85783273  0.27715800  1.0
  Zn  Zn4350  1  0.58535533  0.19116606  0.27715800  1.0
  Zn  Zn4351  1  0.58535533  0.52449940  0.27715800  1.0
  Zn  Zn4352  1  0.58535533  0.85783273  0.27715800  1.0
  Zn  Zn4353  1  0.91868867  0.19116606  0.27715800  1.0
  Zn  Zn4354  1  0.91868867  0.52449940  0.27715800  1.0
  Zn  Zn4355  1  0.91868867  0.85783273  0.27715800  1.0
  Zn  Zn4356  1  0.17047017  0.23089002  0.40826300  1.0
  Zn  Zn4357  1  0.17047017  0.56422335  0.40826300  1.0
  Zn  Zn4358  1  0.17047017  0.89755669  0.40826300  1.0
  Zn  Zn4359  1  0.50380350  0.23089002  0.40826300  1.0
  Zn  Zn4360  1  0.50380350  0.56422335  0.40826300  1.0
  Zn  Zn4361  1  0.50380350  0.89755669  0.40826300  1.0
  Zn  Zn4362  1  0.83713683  0.23089002  0.40826300  1.0
  Zn  Zn4363  1  0.83713683  0.56422335  0.40826300  1.0
  Zn  Zn4364  1  0.83713683  0.89755669  0.40826300  1.0
  Zn  Zn4365  1  0.00380350  0.18922335  0.40826300  1.0
  Zn  Zn4366  1  0.00380350  0.52255669  0.40826300  1.0
  Zn  Zn4367  1  0.00380350  0.85589002  0.40826300  1.0
  Zn  Zn4368  1  0.33713683  0.18922335  0.40826300  1.0
  Zn  Zn4369  1  0.33713683  0.52255669  0.40826300  1.0
  Zn  Zn4370  1  0.33713683  0.85589002  0.40826300  1.0
  Zn  Zn4371  1  0.67047017  0.18922335  0.40826300  1.0
  Zn  Zn4372  1  0.67047017  0.52255669  0.40826300  1.0
  Zn  Zn4373  1  0.67047017  0.85589002  0.40826300  1.0
  Zn  Zn4374  1  0.21638000  0.19346690  0.84638800  1.0
  Zn  Zn4375  1  0.21638000  0.52680023  0.84638800  1.0
  Zn  Zn4376  1  0.21638000  0.86013356  0.84638800  1.0
  Zn  Zn4377  1  0.54971333  0.19346690  0.84638800  1.0
  Zn  Zn4378  1  0.54971333  0.52680023  0.84638800  1.0
  Zn  Zn4379  1  0.54971333  0.86013356  0.84638800  1.0
  Zn  Zn4380  1  0.88304667  0.19346690  0.84638800  1.0
  Zn  Zn4381  1  0.88304667  0.52680023  0.84638800  1.0
  Zn  Zn4382  1  0.88304667  0.86013356  0.84638800  1.0
  Zn  Zn4383  1  0.04971333  0.23513356  0.84638800  1.0
  Zn  Zn4384  1  0.04971333  0.56846690  0.84638800  1.0
  Zn  Zn4385  1  0.04971333  0.90180023  0.84638800  1.0
  Zn  Zn4386  1  0.38304667  0.23513356  0.84638800  1.0
  Zn  Zn4387  1  0.38304667  0.56846690  0.84638800  1.0
  Zn  Zn4388  1  0.38304667  0.90180023  0.84638800  1.0
  Zn  Zn4389  1  0.71638000  0.23513356  0.84638800  1.0
  Zn  Zn4390  1  0.71638000  0.56846690  0.84638800  1.0
  Zn  Zn4391  1  0.71638000  0.90180023  0.84638800  1.0
  Zn  Zn4392  1  0.09671867  0.20697715  0.29181600  1.0
  Zn  Zn4393  1  0.09671867  0.54031048  0.29181600  1.0
  Zn  Zn4394  1  0.09671867  0.87364381  0.29181600  1.0
  Zn  Zn4395  1  0.43005200  0.20697715  0.29181600  1.0
  Zn  Zn4396  1  0.43005200  0.54031048  0.29181600  1.0
  Zn  Zn4397  1  0.43005200  0.87364381  0.29181600  1.0
  Zn  Zn4398  1  0.76338533  0.20697715  0.29181600  1.0
  Zn  Zn4399  1  0.76338533  0.54031048  0.29181600  1.0
  Zn  Zn4400  1  0.76338533  0.87364381  0.29181600  1.0
  Zn  Zn4401  1  0.26338533  0.24864381  0.29181600  1.0
  Zn  Zn4402  1  0.26338533  0.58197715  0.29181600  1.0
  Zn  Zn4403  1  0.26338533  0.91531048  0.29181600  1.0
  Zn  Zn4404  1  0.59671867  0.24864381  0.29181600  1.0
  Zn  Zn4405  1  0.59671867  0.58197715  0.29181600  1.0
  Zn  Zn4406  1  0.59671867  0.91531048  0.29181600  1.0
  Zn  Zn4407  1  0.93005200  0.24864381  0.29181600  1.0
  Zn  Zn4408  1  0.93005200  0.58197715  0.29181600  1.0
  Zn  Zn4409  1  0.93005200  0.91531048  0.29181600  1.0
  Zn  Zn4410  1  0.21222467  0.17887256  0.40826300  1.0
  Zn  Zn4411  1  0.21222467  0.51220590  0.40826300  1.0
  Zn  Zn4412  1  0.21222467  0.84553923  0.40826300  1.0
  Zn  Zn4413  1  0.54555800  0.17887256  0.40826300  1.0
  Zn  Zn4414  1  0.54555800  0.51220590  0.40826300  1.0
  Zn  Zn4415  1  0.54555800  0.84553923  0.40826300  1.0
  Zn  Zn4416  1  0.87889133  0.17887256  0.40826300  1.0
  Zn  Zn4417  1  0.87889133  0.51220590  0.40826300  1.0
  Zn  Zn4418  1  0.87889133  0.84553923  0.40826300  1.0
  Zn  Zn4419  1  0.04555800  0.22053923  0.40826300  1.0
  Zn  Zn4420  1  0.04555800  0.55387256  0.40826300  1.0
  Zn  Zn4421  1  0.04555800  0.88720590  0.40826300  1.0
  Zn  Zn4422  1  0.37889133  0.22053923  0.40826300  1.0
  Zn  Zn4423  1  0.37889133  0.55387256  0.40826300  1.0
  Zn  Zn4424  1  0.37889133  0.88720590  0.40826300  1.0
  Zn  Zn4425  1  0.71222467  0.22053923  0.40826300  1.0
  Zn  Zn4426  1  0.71222467  0.55387256  0.40826300  1.0
  Zn  Zn4427  1  0.71222467  0.88720590  0.40826300  1.0
  Zn  Zn4428  1  0.20223583  0.23466960  0.53185000  1.0
  Zn  Zn4429  1  0.20223583  0.56800294  0.53185000  1.0
  Zn  Zn4430  1  0.20223583  0.90133627  0.53185000  1.0
  Zn  Zn4431  1  0.53556917  0.23466960  0.53185000  1.0
  Zn  Zn4432  1  0.53556917  0.56800294  0.53185000  1.0
  Zn  Zn4433  1  0.53556917  0.90133627  0.53185000  1.0
  Zn  Zn4434  1  0.86890250  0.23466960  0.53185000  1.0
  Zn  Zn4435  1  0.86890250  0.56800294  0.53185000  1.0
  Zn  Zn4436  1  0.86890250  0.90133627  0.53185000  1.0
  Zn  Zn4437  1  0.03556917  0.19300294  0.53185000  1.0
  Zn  Zn4438  1  0.03556917  0.52633627  0.53185000  1.0
  Zn  Zn4439  1  0.03556917  0.85966960  0.53185000  1.0
  Zn  Zn4440  1  0.36890250  0.19300294  0.53185000  1.0
  Zn  Zn4441  1  0.36890250  0.52633627  0.53185000  1.0
  Zn  Zn4442  1  0.36890250  0.85966960  0.53185000  1.0
  Zn  Zn4443  1  0.70223583  0.19300294  0.53185000  1.0
  Zn  Zn4444  1  0.70223583  0.52633627  0.53185000  1.0
  Zn  Zn4445  1  0.70223583  0.85966960  0.53185000  1.0
  Zn  Zn4446  1  0.22104750  0.22559644  0.60155300  1.0
  Zn  Zn4447  1  0.22104750  0.55892977  0.60155300  1.0
  Zn  Zn4448  1  0.22104750  0.89226310  0.60155300  1.0
  Zn  Zn4449  1  0.55438083  0.22559644  0.60155300  1.0
  Zn  Zn4450  1  0.55438083  0.55892977  0.60155300  1.0
  Zn  Zn4451  1  0.55438083  0.89226310  0.60155300  1.0
  Zn  Zn4452  1  0.88771417  0.22559644  0.60155300  1.0
  Zn  Zn4453  1  0.88771417  0.55892977  0.60155300  1.0
  Zn  Zn4454  1  0.88771417  0.89226310  0.60155300  1.0
  Zn  Zn4455  1  0.05438083  0.18392977  0.60155300  1.0
  Zn  Zn4456  1  0.05438083  0.51726310  0.60155300  1.0
  Zn  Zn4457  1  0.05438083  0.85059644  0.60155300  1.0
  Zn  Zn4458  1  0.38771417  0.18392977  0.60155300  1.0
  Zn  Zn4459  1  0.38771417  0.51726310  0.60155300  1.0
  Zn  Zn4460  1  0.38771417  0.85059644  0.60155300  1.0
  Zn  Zn4461  1  0.72104750  0.18392977  0.60155300  1.0
  Zn  Zn4462  1  0.72104750  0.51726310  0.60155300  1.0
  Zn  Zn4463  1  0.72104750  0.85059644  0.60155300  1.0
  Zn  Zn4464  1  0.15951000  0.19146856  0.02343700  1.0
  Zn  Zn4465  1  0.15951000  0.52480190  0.02343700  1.0
  Zn  Zn4466  1  0.15951000  0.85813523  0.02343700  1.0
  Zn  Zn4467  1  0.49284333  0.19146856  0.02343700  1.0
  Zn  Zn4468  1  0.49284333  0.52480190  0.02343700  1.0
  Zn  Zn4469  1  0.49284333  0.85813523  0.02343700  1.0
  Zn  Zn4470  1  0.82617667  0.19146856  0.02343700  1.0
  Zn  Zn4471  1  0.82617667  0.52480190  0.02343700  1.0
  Zn  Zn4472  1  0.82617667  0.85813523  0.02343700  1.0
  Zn  Zn4473  1  0.32617667  0.23313523  0.02343700  1.0
  Zn  Zn4474  1  0.32617667  0.56646856  0.02343700  1.0
  Zn  Zn4475  1  0.32617667  0.89980190  0.02343700  1.0
  Zn  Zn4476  1  0.65951000  0.23313523  0.02343700  1.0
  Zn  Zn4477  1  0.65951000  0.56646856  0.02343700  1.0
  Zn  Zn4478  1  0.65951000  0.89980190  0.02343700  1.0
  Zn  Zn4479  1  0.99284333  0.23313523  0.02343700  1.0
  Zn  Zn4480  1  0.99284333  0.56646856  0.02343700  1.0
  Zn  Zn4481  1  0.99284333  0.89980190  0.02343700  1.0
  Zn  Zn4482  1  0.21968450  0.20901169  0.39844700  1.0
  Zn  Zn4483  1  0.21968450  0.54234502  0.39844700  1.0
  Zn  Zn4484  1  0.21968450  0.87567835  0.39844700  1.0
  Zn  Zn4485  1  0.55301783  0.20901169  0.39844700  1.0
  Zn  Zn4486  1  0.55301783  0.54234502  0.39844700  1.0
  Zn  Zn4487  1  0.55301783  0.87567835  0.39844700  1.0
  Zn  Zn4488  1  0.88635117  0.20901169  0.39844700  1.0
  Zn  Zn4489  1  0.88635117  0.54234502  0.39844700  1.0
  Zn  Zn4490  1  0.88635117  0.87567835  0.39844700  1.0
  Zn  Zn4491  1  0.05301783  0.16734502  0.39844700  1.0
  Zn  Zn4492  1  0.05301783  0.50067835  0.39844700  1.0
  Zn  Zn4493  1  0.05301783  0.83401169  0.39844700  1.0
  Zn  Zn4494  1  0.38635117  0.16734502  0.39844700  1.0
  Zn  Zn4495  1  0.38635117  0.50067835  0.39844700  1.0
  Zn  Zn4496  1  0.38635117  0.83401169  0.39844700  1.0
  Zn  Zn4497  1  0.71968450  0.16734502  0.39844700  1.0
  Zn  Zn4498  1  0.71968450  0.50067835  0.39844700  1.0
  Zn  Zn4499  1  0.71968450  0.83401169  0.39844700  1.0
  Zn  Zn4500  1  0.14613683  0.17859210  0.10155300  1.0
  Zn  Zn4501  1  0.14613683  0.51192544  0.10155300  1.0
  Zn  Zn4502  1  0.14613683  0.84525877  0.10155300  1.0
  Zn  Zn4503  1  0.47947017  0.17859210  0.10155300  1.0
  Zn  Zn4504  1  0.47947017  0.51192544  0.10155300  1.0
  Zn  Zn4505  1  0.47947017  0.84525877  0.10155300  1.0
  Zn  Zn4506  1  0.81280350  0.17859210  0.10155300  1.0
  Zn  Zn4507  1  0.81280350  0.51192544  0.10155300  1.0
  Zn  Zn4508  1  0.81280350  0.84525877  0.10155300  1.0
  Zn  Zn4509  1  0.31280350  0.22025877  0.10155300  1.0
  Zn  Zn4510  1  0.31280350  0.55359210  0.10155300  1.0
  Zn  Zn4511  1  0.31280350  0.88692544  0.10155300  1.0
  Zn  Zn4512  1  0.64613683  0.22025877  0.10155300  1.0
  Zn  Zn4513  1  0.64613683  0.55359210  0.10155300  1.0
  Zn  Zn4514  1  0.64613683  0.88692544  0.10155300  1.0
  Zn  Zn4515  1  0.97947017  0.22025877  0.10155300  1.0
  Zn  Zn4516  1  0.97947017  0.55359210  0.10155300  1.0
  Zn  Zn4517  1  0.97947017  0.88692544  0.10155300  1.0
  Zn  Zn4518  1  0.13109750  0.20272285  0.46815000  1.0
  Zn  Zn4519  1  0.13109750  0.53605619  0.46815000  1.0
  Zn  Zn4520  1  0.13109750  0.86938952  0.46815000  1.0
  Zn  Zn4521  1  0.46443083  0.20272285  0.46815000  1.0
  Zn  Zn4522  1  0.46443083  0.53605619  0.46815000  1.0
  Zn  Zn4523  1  0.46443083  0.86938952  0.46815000  1.0
  Zn  Zn4524  1  0.79776417  0.20272285  0.46815000  1.0
  Zn  Zn4525  1  0.79776417  0.53605619  0.46815000  1.0
  Zn  Zn4526  1  0.79776417  0.86938952  0.46815000  1.0
  Zn  Zn4527  1  0.29776417  0.24438952  0.46815000  1.0
  Zn  Zn4528  1  0.29776417  0.57772285  0.46815000  1.0
  Zn  Zn4529  1  0.29776417  0.91105619  0.46815000  1.0
  Zn  Zn4530  1  0.63109750  0.24438952  0.46815000  1.0
  Zn  Zn4531  1  0.63109750  0.57772285  0.46815000  1.0
  Zn  Zn4532  1  0.63109750  0.91105619  0.46815000  1.0
  Zn  Zn4533  1  0.96443083  0.24438952  0.46815000  1.0
  Zn  Zn4534  1  0.96443083  0.57772285  0.46815000  1.0
  Zn  Zn4535  1  0.96443083  0.91105619  0.46815000  1.0
  Zn  Zn4536  1  0.24300950  0.19324419  0.92360400  1.0
  Zn  Zn4537  1  0.24300950  0.52657752  0.92360400  1.0
  Zn  Zn4538  1  0.24300950  0.85991085  0.92360400  1.0
  Zn  Zn4539  1  0.57634283  0.19324419  0.92360400  1.0
  Zn  Zn4540  1  0.57634283  0.52657752  0.92360400  1.0
  Zn  Zn4541  1  0.57634283  0.85991085  0.92360400  1.0
  Zn  Zn4542  1  0.90967617  0.19324419  0.92360400  1.0
  Zn  Zn4543  1  0.90967617  0.52657752  0.92360400  1.0
  Zn  Zn4544  1  0.90967617  0.85991085  0.92360400  1.0
  Zn  Zn4545  1  0.07634283  0.23491085  0.92360400  1.0
  Zn  Zn4546  1  0.07634283  0.56824419  0.92360400  1.0
  Zn  Zn4547  1  0.07634283  0.90157752  0.92360400  1.0
  Zn  Zn4548  1  0.40967617  0.23491085  0.92360400  1.0
  Zn  Zn4549  1  0.40967617  0.56824419  0.92360400  1.0
  Zn  Zn4550  1  0.40967617  0.90157752  0.92360400  1.0
  Zn  Zn4551  1  0.74300950  0.23491085  0.92360400  1.0
  Zn  Zn4552  1  0.74300950  0.56824419  0.92360400  1.0
  Zn  Zn4553  1  0.74300950  0.90157752  0.92360400  1.0
  Zn  Zn4554  1  0.20376683  0.20392994  0.29181600  1.0
  Zn  Zn4555  1  0.20376683  0.53726327  0.29181600  1.0
  Zn  Zn4556  1  0.20376683  0.87059660  0.29181600  1.0
  Zn  Zn4557  1  0.53710017  0.20392994  0.29181600  1.0
  Zn  Zn4558  1  0.53710017  0.53726327  0.29181600  1.0
  Zn  Zn4559  1  0.53710017  0.87059660  0.29181600  1.0
  Zn  Zn4560  1  0.87043350  0.20392994  0.29181600  1.0
  Zn  Zn4561  1  0.87043350  0.53726327  0.29181600  1.0
  Zn  Zn4562  1  0.87043350  0.87059660  0.29181600  1.0
  Zn  Zn4563  1  0.03710017  0.24559660  0.29181600  1.0
  Zn  Zn4564  1  0.03710017  0.57892994  0.29181600  1.0
  Zn  Zn4565  1  0.03710017  0.91226327  0.29181600  1.0
  Zn  Zn4566  1  0.37043350  0.24559660  0.29181600  1.0
  Zn  Zn4567  1  0.37043350  0.57892994  0.29181600  1.0
  Zn  Zn4568  1  0.37043350  0.91226327  0.29181600  1.0
  Zn  Zn4569  1  0.70376683  0.24559660  0.29181600  1.0
  Zn  Zn4570  1  0.70376683  0.57892994  0.29181600  1.0
  Zn  Zn4571  1  0.70376683  0.91226327  0.29181600  1.0
  Zn  Zn4572  1  0.11969583  0.24308877  0.52343700  1.0
  Zn  Zn4573  1  0.11969583  0.57642210  0.52343700  1.0
  Zn  Zn4574  1  0.11969583  0.90975544  0.52343700  1.0
  Zn  Zn4575  1  0.45302917  0.24308877  0.52343700  1.0
  Zn  Zn4576  1  0.45302917  0.57642210  0.52343700  1.0
  Zn  Zn4577  1  0.45302917  0.90975544  0.52343700  1.0
  Zn  Zn4578  1  0.78636250  0.24308877  0.52343700  1.0
  Zn  Zn4579  1  0.78636250  0.57642210  0.52343700  1.0
  Zn  Zn4580  1  0.78636250  0.90975544  0.52343700  1.0
  Zn  Zn4581  1  0.28636250  0.20142210  0.52343700  1.0
  Zn  Zn4582  1  0.28636250  0.53475544  0.52343700  1.0
  Zn  Zn4583  1  0.28636250  0.86808877  0.52343700  1.0
  Zn  Zn4584  1  0.61969583  0.20142210  0.52343700  1.0
  Zn  Zn4585  1  0.61969583  0.53475544  0.52343700  1.0
  Zn  Zn4586  1  0.61969583  0.86808877  0.52343700  1.0
  Zn  Zn4587  1  0.95302917  0.20142210  0.52343700  1.0
  Zn  Zn4588  1  0.95302917  0.53475544  0.52343700  1.0
  Zn  Zn4589  1  0.95302917  0.86808877  0.52343700  1.0
  Zn  Zn4590  1  0.16286317  0.20650244  0.59173700  1.0
  Zn  Zn4591  1  0.16286317  0.53983577  0.59173700  1.0
  Zn  Zn4592  1  0.16286317  0.87316910  0.59173700  1.0
  Zn  Zn4593  1  0.49619650  0.20650244  0.59173700  1.0
  Zn  Zn4594  1  0.49619650  0.53983577  0.59173700  1.0
  Zn  Zn4595  1  0.49619650  0.87316910  0.59173700  1.0
  Zn  Zn4596  1  0.82952983  0.20650244  0.59173700  1.0
  Zn  Zn4597  1  0.82952983  0.53983577  0.59173700  1.0
  Zn  Zn4598  1  0.82952983  0.87316910  0.59173700  1.0
  Zn  Zn4599  1  0.32952983  0.24816910  0.59173700  1.0
  Zn  Zn4600  1  0.32952983  0.58150244  0.59173700  1.0
  Zn  Zn4601  1  0.32952983  0.91483577  0.59173700  1.0
  Zn  Zn4602  1  0.66286317  0.24816910  0.59173700  1.0
  Zn  Zn4603  1  0.66286317  0.58150244  0.59173700  1.0
  Zn  Zn4604  1  0.66286317  0.91483577  0.59173700  1.0
  Zn  Zn4605  1  0.99619650  0.24816910  0.59173700  1.0
  Zn  Zn4606  1  0.99619650  0.58150244  0.59173700  1.0
  Zn  Zn4607  1  0.99619650  0.91483577  0.59173700  1.0
  Zn  Zn4608  1  0.14039967  0.21945431  0.15401100  1.0
  Zn  Zn4609  1  0.14039967  0.55278765  0.15401100  1.0
  Zn  Zn4610  1  0.14039967  0.88612098  0.15401100  1.0
  Zn  Zn4611  1  0.47373300  0.21945431  0.15401100  1.0
  Zn  Zn4612  1  0.47373300  0.55278765  0.15401100  1.0
  Zn  Zn4613  1  0.47373300  0.88612098  0.15401100  1.0
  Zn  Zn4614  1  0.80706633  0.21945431  0.15401100  1.0
  Zn  Zn4615  1  0.80706633  0.55278765  0.15401100  1.0
  Zn  Zn4616  1  0.80706633  0.88612098  0.15401100  1.0
  Zn  Zn4617  1  0.30706633  0.17778765  0.15401100  1.0
  Zn  Zn4618  1  0.30706633  0.51112098  0.15401100  1.0
  Zn  Zn4619  1  0.30706633  0.84445431  0.15401100  1.0
  Zn  Zn4620  1  0.64039967  0.17778765  0.15401100  1.0
  Zn  Zn4621  1  0.64039967  0.51112098  0.15401100  1.0
  Zn  Zn4622  1  0.64039967  0.84445431  0.15401100  1.0
  Zn  Zn4623  1  0.97373300  0.17778765  0.15401100  1.0
  Zn  Zn4624  1  0.97373300  0.51112098  0.15401100  1.0
  Zn  Zn4625  1  0.97373300  0.84445431  0.15401100  1.0
  Zn  Zn4626  1  0.12110867  0.17518656  0.59173700  1.0
  Zn  Zn4627  1  0.12110867  0.50851990  0.59173700  1.0
  Zn  Zn4628  1  0.12110867  0.84185323  0.59173700  1.0
  Zn  Zn4629  1  0.45444200  0.17518656  0.59173700  1.0
  Zn  Zn4630  1  0.45444200  0.50851990  0.59173700  1.0
  Zn  Zn4631  1  0.45444200  0.84185323  0.59173700  1.0
  Zn  Zn4632  1  0.78777533  0.17518656  0.59173700  1.0
  Zn  Zn4633  1  0.78777533  0.50851990  0.59173700  1.0
  Zn  Zn4634  1  0.78777533  0.84185323  0.59173700  1.0
  Zn  Zn4635  1  0.28777533  0.21685323  0.59173700  1.0
  Zn  Zn4636  1  0.28777533  0.55018656  0.59173700  1.0
  Zn  Zn4637  1  0.28777533  0.88351990  0.59173700  1.0
  Zn  Zn4638  1  0.62110867  0.21685323  0.59173700  1.0
  Zn  Zn4639  1  0.62110867  0.55018656  0.59173700  1.0
  Zn  Zn4640  1  0.62110867  0.88351990  0.59173700  1.0
  Zn  Zn4641  1  0.95444200  0.21685323  0.59173700  1.0
  Zn  Zn4642  1  0.95444200  0.55018656  0.59173700  1.0
  Zn  Zn4643  1  0.95444200  0.88351990  0.59173700  1.0
  Zn  Zn4644  1  0.10280383  0.21786094  0.03185000  1.0
  Zn  Zn4645  1  0.10280383  0.55119427  0.03185000  1.0
  Zn  Zn4646  1  0.10280383  0.88452760  0.03185000  1.0
  Zn  Zn4647  1  0.43613717  0.21786094  0.03185000  1.0
  Zn  Zn4648  1  0.43613717  0.55119427  0.03185000  1.0
  Zn  Zn4649  1  0.43613717  0.88452760  0.03185000  1.0
  Zn  Zn4650  1  0.76947050  0.21786094  0.03185000  1.0
  Zn  Zn4651  1  0.76947050  0.55119427  0.03185000  1.0
  Zn  Zn4652  1  0.76947050  0.88452760  0.03185000  1.0
  Zn  Zn4653  1  0.26947050  0.17619427  0.03185000  1.0
  Zn  Zn4654  1  0.26947050  0.50952760  0.03185000  1.0
  Zn  Zn4655  1  0.26947050  0.84286094  0.03185000  1.0
  Zn  Zn4656  1  0.60280383  0.17619427  0.03185000  1.0
  Zn  Zn4657  1  0.60280383  0.50952760  0.03185000  1.0
  Zn  Zn4658  1  0.60280383  0.84286094  0.03185000  1.0
  Zn  Zn4659  1  0.93613717  0.17619427  0.03185000  1.0
  Zn  Zn4660  1  0.93613717  0.50952760  0.03185000  1.0
  Zn  Zn4661  1  0.93613717  0.84286094  0.03185000  1.0
  Zn  Zn4662  1  0.18139767  0.18282148  0.61369600  1.0
  Zn  Zn4663  1  0.18139767  0.51615481  0.61369600  1.0
  Zn  Zn4664  1  0.18139767  0.84948815  0.61369600  1.0
  Zn  Zn4665  1  0.51473100  0.18282148  0.61369600  1.0
  Zn  Zn4666  1  0.51473100  0.51615481  0.61369600  1.0
  Zn  Zn4667  1  0.51473100  0.84948815  0.61369600  1.0
  Zn  Zn4668  1  0.84806433  0.18282148  0.61369600  1.0
  Zn  Zn4669  1  0.84806433  0.51615481  0.61369600  1.0
  Zn  Zn4670  1  0.84806433  0.84948815  0.61369600  1.0
  Zn  Zn4671  1  0.01473100  0.22448815  0.61369600  1.0
  Zn  Zn4672  1  0.01473100  0.55782148  0.61369600  1.0
  Zn  Zn4673  1  0.01473100  0.89115481  0.61369600  1.0
  Zn  Zn4674  1  0.34806433  0.22448815  0.61369600  1.0
  Zn  Zn4675  1  0.34806433  0.55782148  0.61369600  1.0
  Zn  Zn4676  1  0.34806433  0.89115481  0.61369600  1.0
  Zn  Zn4677  1  0.68139767  0.22448815  0.61369600  1.0
  Zn  Zn4678  1  0.68139767  0.55782148  0.61369600  1.0
  Zn  Zn4679  1  0.68139767  0.89115481  0.61369600  1.0
  Zn  Zn4680  1  0.08333333  0.23952956  0.00000000  1.0
  Zn  Zn4681  1  0.08333333  0.57286290  0.00000000  1.0
  Zn  Zn4682  1  0.08333333  0.90619623  0.00000000  1.0
  Zn  Zn4683  1  0.41666667  0.23952956  0.00000000  1.0
  Zn  Zn4684  1  0.41666667  0.57286290  0.00000000  1.0
  Zn  Zn4685  1  0.41666667  0.90619623  0.00000000  1.0
  Zn  Zn4686  1  0.75000000  0.23952956  0.00000000  1.0
  Zn  Zn4687  1  0.75000000  0.57286290  0.00000000  1.0
  Zn  Zn4688  1  0.75000000  0.90619623  0.00000000  1.0
  Zn  Zn4689  1  0.25000000  0.19786290  0.00000000  1.0
  Zn  Zn4690  1  0.25000000  0.53119623  0.00000000  1.0
  Zn  Zn4691  1  0.25000000  0.86452956  0.00000000  1.0
  Zn  Zn4692  1  0.58333333  0.19786290  0.00000000  1.0
  Zn  Zn4693  1  0.58333333  0.53119623  0.00000000  1.0
  Zn  Zn4694  1  0.58333333  0.86452956  1.00000000  1.0
  Zn  Zn4695  1  0.91666667  0.19786290  0.00000000  1.0
  Zn  Zn4696  1  0.91666667  0.53119623  0.00000000  1.0
  Zn  Zn4697  1  0.91666667  0.86452956  0.00000000  1.0
  Zn  Zn4698  1  0.05309667  0.24535265  0.21971800  1.0
  Zn  Zn4699  1  0.05309667  0.57868598  0.21971800  1.0
  Zn  Zn4700  1  0.05309667  0.91201931  0.21971800  1.0
  Zn  Zn4701  1  0.38643000  0.24535265  0.21971800  1.0
  Zn  Zn4702  1  0.38643000  0.57868598  0.21971800  1.0
  Zn  Zn4703  1  0.38643000  0.91201931  0.21971800  1.0
  Zn  Zn4704  1  0.71976333  0.24535265  0.21971800  1.0
  Zn  Zn4705  1  0.71976333  0.57868598  0.21971800  1.0
  Zn  Zn4706  1  0.71976333  0.91201931  0.21971800  1.0
  Zn  Zn4707  1  0.21976333  0.20368598  0.21971800  1.0
  Zn  Zn4708  1  0.21976333  0.53701931  0.21971800  1.0
  Zn  Zn4709  1  0.21976333  0.87035265  0.21971800  1.0
  Zn  Zn4710  1  0.55309667  0.20368598  0.21971800  1.0
  Zn  Zn4711  1  0.55309667  0.53701931  0.21971800  1.0
  Zn  Zn4712  1  0.55309667  0.87035265  0.21971800  1.0
  Zn  Zn4713  1  0.88643000  0.20368598  0.21971800  1.0
  Zn  Zn4714  1  0.88643000  0.53701931  0.21971800  1.0
  Zn  Zn4715  1  0.88643000  0.87035265  0.21971800  1.0
  Zn  Zn4716  1  0.24014483  0.24530427  0.78028200  1.0
  Zn  Zn4717  1  0.24014483  0.57863760  0.78028200  1.0
  Zn  Zn4718  1  0.24014483  0.91197094  0.78028200  1.0
  Zn  Zn4719  1  0.57347817  0.24530427  0.78028200  1.0
  Zn  Zn4720  1  0.57347817  0.57863760  0.78028200  1.0
  Zn  Zn4721  1  0.57347817  0.91197094  0.78028200  1.0
  Zn  Zn4722  1  0.90681150  0.24530427  0.78028200  1.0
  Zn  Zn4723  1  0.90681150  0.57863760  0.78028200  1.0
  Zn  Zn4724  1  0.90681150  0.91197094  0.78028200  1.0
  Zn  Zn4725  1  0.07347817  0.20363760  0.78028200  1.0
  Zn  Zn4726  1  0.07347817  0.53697094  0.78028200  1.0
  Zn  Zn4727  1  0.07347817  0.87030427  0.78028200  1.0
  Zn  Zn4728  1  0.40681150  0.20363760  0.78028200  1.0
  Zn  Zn4729  1  0.40681150  0.53697094  0.78028200  1.0
  Zn  Zn4730  1  0.40681150  0.87030427  0.78028200  1.0
  Zn  Zn4731  1  0.74014483  0.20363760  0.78028200  1.0
  Zn  Zn4732  1  0.74014483  0.53697094  0.78028200  1.0
  Zn  Zn4733  1  0.74014483  0.87030427  0.78028200  1.0
  Zn  Zn4734  1  0.02824767  0.20679498  0.08578400  1.0
  Zn  Zn4735  1  0.02824767  0.54012831  0.08578400  1.0
  Zn  Zn4736  1  0.02824767  0.87346165  0.08578400  1.0
  Zn  Zn4737  1  0.36158100  0.20679498  0.08578400  1.0
  Zn  Zn4738  1  0.36158100  0.54012831  0.08578400  1.0
  Zn  Zn4739  1  0.36158100  0.87346165  0.08578400  1.0
  Zn  Zn4740  1  0.69491433  0.20679498  0.08578400  1.0
  Zn  Zn4741  1  0.69491433  0.54012831  0.08578400  1.0
  Zn  Zn4742  1  0.69491433  0.87346165  0.08578400  1.0
  Zn  Zn4743  1  0.19491433  0.24846165  0.08578400  1.0
  Zn  Zn4744  1  0.19491433  0.58179498  0.08578400  1.0
  Zn  Zn4745  1  0.19491433  0.91512831  0.08578400  1.0
  Zn  Zn4746  1  0.52824767  0.24846165  0.08578400  1.0
  Zn  Zn4747  1  0.52824767  0.58179498  0.08578400  1.0
  Zn  Zn4748  1  0.52824767  0.91512831  0.08578400  1.0
  Zn  Zn4749  1  0.86158100  0.24846165  0.08578400  1.0
  Zn  Zn4750  1  0.86158100  0.58179498  0.08578400  1.0
  Zn  Zn4751  1  0.86158100  0.91512831  0.08578400  1.0
  Zn  Zn4752  1  0.03438250  0.23853477  0.09173700  1.0
  Zn  Zn4753  1  0.03438250  0.57186810  0.09173700  1.0
  Zn  Zn4754  1  0.03438250  0.90520144  0.09173700  1.0
  Zn  Zn4755  1  0.36771583  0.23853477  0.09173700  1.0
  Zn  Zn4756  1  0.36771583  0.57186810  0.09173700  1.0
  Zn  Zn4757  1  0.36771583  0.90520144  0.09173700  1.0
  Zn  Zn4758  1  0.70104917  0.23853477  0.09173700  1.0
  Zn  Zn4759  1  0.70104917  0.57186810  0.09173700  1.0
  Zn  Zn4760  1  0.70104917  0.90520144  0.09173700  1.0
  Zn  Zn4761  1  0.20104917  0.19686810  0.09173700  1.0
  Zn  Zn4762  1  0.20104917  0.53020144  0.09173700  1.0
  Zn  Zn4763  1  0.20104917  0.86353477  0.09173700  1.0
  Zn  Zn4764  1  0.53438250  0.19686810  0.09173700  1.0
  Zn  Zn4765  1  0.53438250  0.53020144  0.09173700  1.0
  Zn  Zn4766  1  0.53438250  0.86353477  0.09173700  1.0
  Zn  Zn4767  1  0.86771583  0.19686810  0.09173700  1.0
  Zn  Zn4768  1  0.86771583  0.53020144  0.09173700  1.0
  Zn  Zn4769  1  0.86771583  0.86353477  0.09173700  1.0
  Zn  Zn4770  1  0.14393100  0.19343115  0.27715800  1.0
  Zn  Zn4771  1  0.14393100  0.52676448  0.27715800  1.0
  Zn  Zn4772  1  0.14393100  0.86009781  0.27715800  1.0
  Zn  Zn4773  1  0.47726433  0.19343115  0.27715800  1.0
  Zn  Zn4774  1  0.47726433  0.52676448  0.27715800  1.0
  Zn  Zn4775  1  0.47726433  0.86009781  0.27715800  1.0
  Zn  Zn4776  1  0.81059767  0.19343115  0.27715800  1.0
  Zn  Zn4777  1  0.81059767  0.52676448  0.27715800  1.0
  Zn  Zn4778  1  0.81059767  0.86009781  0.27715800  1.0
  Zn  Zn4779  1  0.31059767  0.23509781  0.27715800  1.0
  Zn  Zn4780  1  0.31059767  0.56843115  0.27715800  1.0
  Zn  Zn4781  1  0.31059767  0.90176448  0.27715800  1.0
  Zn  Zn4782  1  0.64393100  0.23509781  0.27715800  1.0
  Zn  Zn4783  1  0.64393100  0.56843115  0.27715800  1.0
  Zn  Zn4784  1  0.64393100  0.90176448  0.27715800  1.0
  Zn  Zn4785  1  0.97726433  0.23509781  0.27715800  1.0
  Zn  Zn4786  1  0.97726433  0.56843115  0.27715800  1.0
  Zn  Zn4787  1  0.97726433  0.90176448  0.27715800  1.0
  Zn  Zn4788  1  0.15193567  0.17123765  0.38630400  1.0
  Zn  Zn4789  1  0.15193567  0.50457098  0.38630400  1.0
  Zn  Zn4790  1  0.15193567  0.83790431  0.38630400  1.0
  Zn  Zn4791  1  0.48526900  0.17123765  0.38630400  1.0
  Zn  Zn4792  1  0.48526900  0.50457098  0.38630400  1.0
  Zn  Zn4793  1  0.48526900  0.83790431  0.38630400  1.0
  Zn  Zn4794  1  0.81860233  0.17123765  0.38630400  1.0
  Zn  Zn4795  1  0.81860233  0.50457098  0.38630400  1.0
  Zn  Zn4796  1  0.81860233  0.83790431  0.38630400  1.0
  Zn  Zn4797  1  0.31860233  0.21290431  0.38630400  1.0
  Zn  Zn4798  1  0.31860233  0.54623765  0.38630400  1.0
  Zn  Zn4799  1  0.31860233  0.87957098  0.38630400  1.0
  Zn  Zn4800  1  0.65193567  0.21290431  0.38630400  1.0
  Zn  Zn4801  1  0.65193567  0.54623765  0.38630400  1.0
  Zn  Zn4802  1  0.65193567  0.87957098  0.38630400  1.0
  Zn  Zn4803  1  0.98526900  0.21290431  0.38630400  1.0
  Zn  Zn4804  1  0.98526900  0.54623765  0.38630400  1.0
  Zn  Zn4805  1  0.98526900  0.87957098  0.38630400  1.0
  Zn  Zn4806  1  0.05741183  0.22822769  0.15734400  1.0
  Zn  Zn4807  1  0.05741183  0.56156102  0.15734400  1.0
  Zn  Zn4808  1  0.05741183  0.89489435  0.15734400  1.0
  Zn  Zn4809  1  0.39074517  0.22822769  0.15734400  1.0
  Zn  Zn4810  1  0.39074517  0.56156102  0.15734400  1.0
  Zn  Zn4811  1  0.39074517  0.89489435  0.15734400  1.0
  Zn  Zn4812  1  0.72407850  0.22822769  0.15734400  1.0
  Zn  Zn4813  1  0.72407850  0.56156102  0.15734400  1.0
  Zn  Zn4814  1  0.72407850  0.89489435  0.15734400  1.0
  Zn  Zn4815  1  0.22407850  0.18656102  0.15734400  1.0
  Zn  Zn4816  1  0.22407850  0.51989435  0.15734400  1.0
  Zn  Zn4817  1  0.22407850  0.85322769  0.15734400  1.0
  Zn  Zn4818  1  0.55741183  0.18656102  0.15734400  1.0
  Zn  Zn4819  1  0.55741183  0.51989435  0.15734400  1.0
  Zn  Zn4820  1  0.55741183  0.85322769  0.15734400  1.0
  Zn  Zn4821  1  0.89074517  0.18656102  0.15734400  1.0
  Zn  Zn4822  1  0.89074517  0.51989435  0.15734400  1.0
  Zn  Zn4823  1  0.89074517  0.85322769  0.15734400  1.0
  Zn  Zn4824  1  0.19161917  0.19034877  0.96815000  1.0
  Zn  Zn4825  1  0.19161917  0.52368210  0.96815000  1.0
  Zn  Zn4826  1  0.19161917  0.85701544  0.96815000  1.0
  Zn  Zn4827  1  0.52495250  0.19034877  0.96815000  1.0
  Zn  Zn4828  1  0.52495250  0.52368210  0.96815000  1.0
  Zn  Zn4829  1  0.52495250  0.85701544  0.96815000  1.0
  Zn  Zn4830  1  0.85828583  0.19034877  0.96815000  1.0
  Zn  Zn4831  1  0.85828583  0.52368210  0.96815000  1.0
  Zn  Zn4832  1  0.85828583  0.85701544  0.96815000  1.0
  Zn  Zn4833  1  0.02495250  0.23201544  0.96815000  1.0
  Zn  Zn4834  1  0.02495250  0.56534877  0.96815000  1.0
  Zn  Zn4835  1  0.02495250  0.89868210  0.96815000  1.0
  Zn  Zn4836  1  0.35828583  0.23201544  0.96815000  1.0
  Zn  Zn4837  1  0.35828583  0.56534877  0.96815000  1.0
  Zn  Zn4838  1  0.35828583  0.89868210  0.96815000  1.0
  Zn  Zn4839  1  0.69161917  0.23201544  0.96815000  1.0
  Zn  Zn4840  1  0.69161917  0.56534877  0.96815000  1.0
  Zn  Zn4841  1  0.69161917  0.89868210  0.96815000  1.0
  Zn  Zn4842  1  0.19777633  0.23344881  0.91421600  1.0
  Zn  Zn4843  1  0.19777633  0.56678215  0.91421600  1.0
  Zn  Zn4844  1  0.19777633  0.90011548  0.91421600  1.0
  Zn  Zn4845  1  0.53110967  0.23344881  0.91421600  1.0
  Zn  Zn4846  1  0.53110967  0.56678215  0.91421600  1.0
  Zn  Zn4847  1  0.53110967  0.90011548  0.91421600  1.0
  Zn  Zn4848  1  0.86444300  0.23344881  0.91421600  1.0
  Zn  Zn4849  1  0.86444300  0.56678215  0.91421600  1.0
  Zn  Zn4850  1  0.86444300  0.90011548  0.91421600  1.0
  Zn  Zn4851  1  0.03110967  0.19178215  0.91421600  1.0
  Zn  Zn4852  1  0.03110967  0.52511548  0.91421600  1.0
  Zn  Zn4853  1  0.03110967  0.85844881  0.91421600  1.0
  Zn  Zn4854  1  0.36444300  0.19178215  0.91421600  1.0
  Zn  Zn4855  1  0.36444300  0.52511548  0.91421600  1.0
  Zn  Zn4856  1  0.36444300  0.85844881  0.91421600  1.0
  Zn  Zn4857  1  0.69777633  0.19178215  0.91421600  1.0
  Zn  Zn4858  1  0.69777633  0.52511548  0.91421600  1.0
  Zn  Zn4859  1  0.69777633  0.85844881  0.91421600  1.0
  Zn  Zn4860  1  0.14671750  0.18028077  0.71971800  1.0
  Zn  Zn4861  1  0.14671750  0.51361410  0.71971800  1.0
  Zn  Zn4862  1  0.14671750  0.84694744  0.71971800  1.0
  Zn  Zn4863  1  0.48005083  0.18028077  0.71971800  1.0
  Zn  Zn4864  1  0.48005083  0.51361410  0.71971800  1.0
  Zn  Zn4865  1  0.48005083  0.84694744  0.71971800  1.0
  Zn  Zn4866  1  0.81338417  0.18028077  0.71971800  1.0
  Zn  Zn4867  1  0.81338417  0.51361410  0.71971800  1.0
  Zn  Zn4868  1  0.81338417  0.84694744  0.71971800  1.0
  Zn  Zn4869  1  0.31338417  0.22194744  0.71971800  1.0
  Zn  Zn4870  1  0.31338417  0.55528077  0.71971800  1.0
  Zn  Zn4871  1  0.31338417  0.88861410  0.71971800  1.0
  Zn  Zn4872  1  0.64671750  0.22194744  0.71971800  1.0
  Zn  Zn4873  1  0.64671750  0.55528077  0.71971800  1.0
  Zn  Zn4874  1  0.64671750  0.88861410  0.71971800  1.0
  Zn  Zn4875  1  0.98005083  0.22194744  0.71971800  1.0
  Zn  Zn4876  1  0.98005083  0.55528077  0.71971800  1.0
  Zn  Zn4877  1  0.98005083  0.88861410  0.71971800  1.0
  Zn  Zn4878  1  0.16631967  0.19964631  0.41421600  1.0
  Zn  Zn4879  1  0.16631967  0.53297965  0.41421600  1.0
  Zn  Zn4880  1  0.16631967  0.86631298  0.41421600  1.0
  Zn  Zn4881  1  0.49965300  0.19964631  0.41421600  1.0
  Zn  Zn4882  1  0.49965300  0.53297965  0.41421600  1.0
  Zn  Zn4883  1  0.49965300  0.86631298  0.41421600  1.0
  Zn  Zn4884  1  0.83298633  0.19964631  0.41421600  1.0
  Zn  Zn4885  1  0.83298633  0.53297965  0.41421600  1.0
  Zn  Zn4886  1  0.83298633  0.86631298  0.41421600  1.0
  Zn  Zn4887  1  0.33298633  0.24131298  0.41421600  1.0
  Zn  Zn4888  1  0.33298633  0.57464631  0.41421600  1.0
  Zn  Zn4889  1  0.33298633  0.90797965  0.41421600  1.0
  Zn  Zn4890  1  0.66631967  0.24131298  0.41421600  1.0
  Zn  Zn4891  1  0.66631967  0.57464631  0.41421600  1.0
  Zn  Zn4892  1  0.66631967  0.90797965  0.41421600  1.0
  Zn  Zn4893  1  0.99965300  0.24131298  0.41421600  1.0
  Zn  Zn4894  1  0.99965300  0.57464631  0.41421600  1.0
  Zn  Zn4895  1  0.99965300  0.90797965  0.41421600  1.0
  Zn  Zn4896  1  0.21363750  0.19430369  0.47656300  1.0
  Zn  Zn4897  1  0.21363750  0.52763702  0.47656300  1.0
  Zn  Zn4898  1  0.21363750  0.86097035  0.47656300  1.0
  Zn  Zn4899  1  0.54697083  0.19430369  0.47656300  1.0
  Zn  Zn4900  1  0.54697083  0.52763702  0.47656300  1.0
  Zn  Zn4901  1  0.54697083  0.86097035  0.47656300  1.0
  Zn  Zn4902  1  0.88030417  0.19430369  0.47656300  1.0
  Zn  Zn4903  1  0.88030417  0.52763702  0.47656300  1.0
  Zn  Zn4904  1  0.88030417  0.86097035  0.47656300  1.0
  Zn  Zn4905  1  0.04697083  0.23597035  0.47656300  1.0
  Zn  Zn4906  1  0.04697083  0.56930369  0.47656300  1.0
  Zn  Zn4907  1  0.04697083  0.90263702  0.47656300  1.0
  Zn  Zn4908  1  0.38030417  0.23597035  0.47656300  1.0
  Zn  Zn4909  1  0.38030417  0.56930369  0.47656300  1.0
  Zn  Zn4910  1  0.38030417  0.90263702  0.47656300  1.0
  Zn  Zn4911  1  0.71363750  0.23597035  0.47656300  1.0
  Zn  Zn4912  1  0.71363750  0.56930369  0.47656300  1.0
  Zn  Zn4913  1  0.71363750  0.90263702  0.47656300  1.0
  Zn  Zn4914  1  0.27855017  0.24113569  0.97656300  1.0
  Zn  Zn4915  1  0.27855017  0.57446902  0.97656300  1.0
  Zn  Zn4916  1  0.27855017  0.90780235  0.97656300  1.0
  Zn  Zn4917  1  0.61188350  0.24113569  0.97656300  1.0
  Zn  Zn4918  1  0.61188350  0.57446902  0.97656300  1.0
  Zn  Zn4919  1  0.61188350  0.90780235  0.97656300  1.0
  Zn  Zn4920  1  0.94521683  0.24113569  0.97656300  1.0
  Zn  Zn4921  1  0.94521683  0.57446902  0.97656300  1.0
  Zn  Zn4922  1  0.94521683  0.90780235  0.97656300  1.0
  Zn  Zn4923  1  0.11188350  0.19946902  0.97656300  1.0
  Zn  Zn4924  1  0.11188350  0.53280235  0.97656300  1.0
  Zn  Zn4925  1  0.11188350  0.86613569  0.97656300  1.0
  Zn  Zn4926  1  0.44521683  0.19946902  0.97656300  1.0
  Zn  Zn4927  1  0.44521683  0.53280235  0.97656300  1.0
  Zn  Zn4928  1  0.44521683  0.86613569  0.97656300  1.0
  Zn  Zn4929  1  0.77855017  0.19946902  0.97656300  1.0
  Zn  Zn4930  1  0.77855017  0.53280235  0.97656300  1.0
  Zn  Zn4931  1  0.77855017  0.86613569  0.97656300  1.0
  Zn  Zn4932  1  0.11228583  0.21179602  0.39844700  1.0
  Zn  Zn4933  1  0.11228583  0.54512935  0.39844700  1.0
  Zn  Zn4934  1  0.11228583  0.87846269  0.39844700  1.0
  Zn  Zn4935  1  0.44561917  0.21179602  0.39844700  1.0
  Zn  Zn4936  1  0.44561917  0.54512935  0.39844700  1.0
  Zn  Zn4937  1  0.44561917  0.87846269  0.39844700  1.0
  Zn  Zn4938  1  0.77895250  0.21179602  0.39844700  1.0
  Zn  Zn4939  1  0.77895250  0.54512935  0.39844700  1.0
  Zn  Zn4940  1  0.77895250  0.87846269  0.39844700  1.0
  Zn  Zn4941  1  0.27895250  0.17012935  0.39844700  1.0
  Zn  Zn4942  1  0.27895250  0.50346269  0.39844700  1.0
  Zn  Zn4943  1  0.27895250  0.83679602  0.39844700  1.0
  Zn  Zn4944  1  0.61228583  0.17012935  0.39844700  1.0
  Zn  Zn4945  1  0.61228583  0.50346269  0.39844700  1.0
  Zn  Zn4946  1  0.61228583  0.83679602  0.39844700  1.0
  Zn  Zn4947  1  0.94561917  0.17012935  0.39844700  1.0
  Zn  Zn4948  1  0.94561917  0.50346269  0.39844700  1.0
  Zn  Zn4949  1  0.94561917  0.83679602  0.39844700  1.0
  Zn  Zn4950  1  0.08906267  0.24828673  0.34598900  1.0
  Zn  Zn4951  1  0.08906267  0.58162006  0.34598900  1.0
  Zn  Zn4952  1  0.08906267  0.91495340  0.34598900  1.0
  Zn  Zn4953  1  0.42239600  0.24828673  0.34598900  1.0
  Zn  Zn4954  1  0.42239600  0.58162006  0.34598900  1.0
  Zn  Zn4955  1  0.42239600  0.91495340  0.34598900  1.0
  Zn  Zn4956  1  0.75572933  0.24828673  0.34598900  1.0
  Zn  Zn4957  1  0.75572933  0.58162006  0.34598900  1.0
  Zn  Zn4958  1  0.75572933  0.91495340  0.34598900  1.0
  Zn  Zn4959  1  0.25572933  0.20662006  0.34598900  1.0
  Zn  Zn4960  1  0.25572933  0.53995340  0.34598900  1.0
  Zn  Zn4961  1  0.25572933  0.87328673  0.34598900  1.0
  Zn  Zn4962  1  0.58906267  0.20662006  0.34598900  1.0
  Zn  Zn4963  1  0.58906267  0.53995340  0.34598900  1.0
  Zn  Zn4964  1  0.58906267  0.87328673  0.34598900  1.0
  Zn  Zn4965  1  0.92239600  0.20662006  0.34598900  1.0
  Zn  Zn4966  1  0.92239600  0.53995340  0.34598900  1.0
  Zn  Zn4967  1  0.92239600  0.87328673  0.34598900  1.0
