# generated using pymatgen
data_Zn53Ni16
_symmetry_space_group_name_H-M   'P 1'
_cell_length_a   37.57146001
_cell_length_b   110.08640290
_cell_length_c   53.75319579
_cell_angle_alpha   114.74164628
_cell_angle_beta   144.63248246
_cell_angle_gamma   70.04447304
_symmetry_Int_Tables_number   1
_chemical_formula_structural   Zn53Ni16
_chemical_formula_sum   'Zn2862 Ni864'
_cell_volume   116875.18227507
_cell_formula_units_Z   54
loop_
 _symmetry_equiv_pos_site_id
 _symmetry_equiv_pos_as_xyz
  1  'x, y, z'
loop_
 _atom_site_type_symbol
 _atom_site_label
 _atom_site_symmetry_multiplicity
 _atom_site_fract_x
 _atom_site_fract_y
 _atom_site_fract_z
 _atom_site_occupancy
  Zn  Zn0  1  0.08834200  0.07428067  0.08744793  1.0
  Zn  Zn1  1  0.08834200  0.40761400  0.08744793  1.0
  Zn  Zn2  1  0.08834200  0.74094733  0.08744793  1.0
  Zn  Zn3  1  0.42167533  0.07428067  0.08744793  1.0
  Zn  Zn4  1  0.42167533  0.40761400  0.08744793  1.0
  Zn  Zn5  1  0.42167533  0.74094733  0.08744793  1.0
  Zn  Zn6  1  0.75500867  0.07428067  0.08744793  1.0
  Zn  Zn7  1  0.75500867  0.40761400  0.08744793  1.0
  Zn  Zn8  1  0.75500867  0.74094733  0.08744793  1.0
  Zn  Zn9  1  0.30655333  0.20051767  0.05512679  1.0
  Zn  Zn10  1  0.30655333  0.53385100  0.05512679  1.0
  Zn  Zn11  1  0.30655333  0.86718433  0.05512679  1.0
  Zn  Zn12  1  0.63988667  0.20051767  0.05512679  1.0
  Zn  Zn13  1  0.63988667  0.53385100  0.05512679  1.0
  Zn  Zn14  1  0.63988667  0.86718433  0.05512679  1.0
  Zn  Zn15  1  0.97322000  0.20051767  0.05512679  1.0
  Zn  Zn16  1  0.97322000  0.53385100  0.05512679  1.0
  Zn  Zn17  1  0.97322000  0.86718433  0.05512679  1.0
  Zn  Zn18  1  0.17815100  0.02546533  0.02993593  1.0
  Zn  Zn19  1  0.17815100  0.35879867  0.02993593  1.0
  Zn  Zn20  1  0.17815100  0.69213200  0.02993593  1.0
  Zn  Zn21  1  0.51148433  0.02546533  0.02993593  1.0
  Zn  Zn22  1  0.51148433  0.35879867  0.02993593  1.0
  Zn  Zn23  1  0.51148433  0.69213200  0.02993593  1.0
  Zn  Zn24  1  0.84481767  0.02546533  0.02993593  1.0
  Zn  Zn25  1  0.84481767  0.35879867  0.02993593  1.0
  Zn  Zn26  1  0.84481767  0.69213200  0.02993593  1.0
  Zn  Zn27  1  0.32489667  0.03789867  0.02351793  1.0
  Zn  Zn28  1  0.32489667  0.37123200  0.02351793  1.0
  Zn  Zn29  1  0.32489667  0.70456533  0.02351793  1.0
  Zn  Zn30  1  0.65823000  0.03789867  0.02351793  1.0
  Zn  Zn31  1  0.65823000  0.37123200  0.02351793  1.0
  Zn  Zn32  1  0.65823000  0.70456533  0.02351793  1.0
  Zn  Zn33  1  0.99156333  0.03789867  0.02351793  1.0
  Zn  Zn34  1  0.99156333  0.37123200  0.02351793  1.0
  Zn  Zn35  1  0.99156333  0.70456533  0.02351793  1.0
  Zn  Zn36  1  0.09616533  0.23606133  0.08907179  1.0
  Zn  Zn37  1  0.09616533  0.56939467  0.08907179  1.0
  Zn  Zn38  1  0.09616533  0.90272800  0.08907179  1.0
  Zn  Zn39  1  0.42949867  0.23606133  0.08907179  1.0
  Zn  Zn40  1  0.42949867  0.56939467  0.08907179  1.0
  Zn  Zn41  1  0.42949867  0.90272800  0.08907179  1.0
  Zn  Zn42  1  0.76283200  0.23606133  0.08907179  1.0
  Zn  Zn43  1  0.76283200  0.56939467  0.08907179  1.0
  Zn  Zn44  1  0.76283200  0.90272800  0.08907179  1.0
  Zn  Zn45  1  0.31729733  0.11546267  0.08348764  1.0
  Zn  Zn46  1  0.31729733  0.44879600  0.08348764  1.0
  Zn  Zn47  1  0.31729733  0.78212933  0.08348764  1.0
  Zn  Zn48  1  0.65063067  0.11546267  0.08348764  1.0
  Zn  Zn49  1  0.65063067  0.44879600  0.08348764  1.0
  Zn  Zn50  1  0.65063067  0.78212933  0.08348764  1.0
  Zn  Zn51  1  0.98396400  0.11546267  0.08348764  1.0
  Zn  Zn52  1  0.98396400  0.44879600  0.08348764  1.0
  Zn  Zn53  1  0.98396400  0.78212933  0.08348764  1.0
  Zn  Zn54  1  0.32019367  0.24271933  0.05219021  1.0
  Zn  Zn55  1  0.32019367  0.57605267  0.05219021  1.0
  Zn  Zn56  1  0.32019367  0.90938600  0.05219021  1.0
  Zn  Zn57  1  0.65352700  0.24271933  0.05219021  1.0
  Zn  Zn58  1  0.65352700  0.57605267  0.05219021  1.0
  Zn  Zn59  1  0.65352700  0.90938600  0.05219021  1.0
  Zn  Zn60  1  0.98686033  0.24271933  0.05219021  1.0
  Zn  Zn61  1  0.98686033  0.57605267  0.05219021  1.0
  Zn  Zn62  1  0.98686033  0.90938600  0.05219021  1.0
  Zn  Zn63  1  0.18879233  0.15885433  0.10029921  1.0
  Zn  Zn64  1  0.18879233  0.49218767  0.10029921  1.0
  Zn  Zn65  1  0.18879233  0.82552100  0.10029921  1.0
  Zn  Zn66  1  0.52212567  0.15885433  0.10029921  1.0
  Zn  Zn67  1  0.52212567  0.49218767  0.10029921  1.0
  Zn  Zn68  1  0.52212567  0.82552100  0.10029921  1.0
  Zn  Zn69  1  0.85545900  0.15885433  0.10029921  1.0
  Zn  Zn70  1  0.85545900  0.49218767  0.10029921  1.0
  Zn  Zn71  1  0.85545900  0.82552100  0.10029921  1.0
  Zn  Zn72  1  0.13371267  0.09342733  0.01573464  1.0
  Zn  Zn73  1  0.13371267  0.42676067  0.01573464  1.0
  Zn  Zn74  1  0.13371267  0.76009400  0.01573464  1.0
  Zn  Zn75  1  0.46704600  0.09342733  0.01573464  1.0
  Zn  Zn76  1  0.46704600  0.42676067  0.01573464  1.0
  Zn  Zn77  1  0.46704600  0.76009400  0.01573464  1.0
  Zn  Zn78  1  0.80037933  0.09342733  0.01573464  1.0
  Zn  Zn79  1  0.80037933  0.42676067  0.01573464  1.0
  Zn  Zn80  1  0.80037933  0.76009400  0.01573464  1.0
  Zn  Zn81  1  0.06279567  0.21800367  0.12805207  1.0
  Zn  Zn82  1  0.06279567  0.55133700  0.12805207  1.0
  Zn  Zn83  1  0.06279567  0.88467033  0.12805207  1.0
  Zn  Zn84  1  0.39612900  0.21800367  0.12805207  1.0
  Zn  Zn85  1  0.39612900  0.55133700  0.12805207  1.0
  Zn  Zn86  1  0.39612900  0.88467033  0.12805207  1.0
  Zn  Zn87  1  0.72946233  0.21800367  0.12805207  1.0
  Zn  Zn88  1  0.72946233  0.55133700  0.12805207  1.0
  Zn  Zn89  1  0.72946233  0.88467033  0.12805207  1.0
  Zn  Zn90  1  0.02790067  0.30473867  0.08964936  1.0
  Zn  Zn91  1  0.02790067  0.63807200  0.08964936  1.0
  Zn  Zn92  1  0.02790067  0.97140533  0.08964936  1.0
  Zn  Zn93  1  0.36123400  0.30473867  0.08964936  1.0
  Zn  Zn94  1  0.36123400  0.63807200  0.08964936  1.0
  Zn  Zn95  1  0.36123400  0.97140533  0.08964936  1.0
  Zn  Zn96  1  0.69456733  0.30473867  0.08964936  1.0
  Zn  Zn97  1  0.69456733  0.63807200  0.08964936  1.0
  Zn  Zn98  1  0.69456733  0.97140533  0.08964936  1.0
  Zn  Zn99  1  0.23157933  0.00781233  0.11369179  1.0
  Zn  Zn100  1  0.23157933  0.34114567  0.11369179  1.0
  Zn  Zn101  1  0.23157933  0.67447900  0.11369179  1.0
  Zn  Zn102  1  0.56491267  0.00781233  0.11369179  1.0
  Zn  Zn103  1  0.56491267  0.34114567  0.11369179  1.0
  Zn  Zn104  1  0.56491267  0.67447900  0.11369179  1.0
  Zn  Zn105  1  0.89824600  0.00781233  0.11369179  1.0
  Zn  Zn106  1  0.89824600  0.34114567  0.11369179  1.0
  Zn  Zn107  1  0.89824600  0.67447900  0.11369179  1.0
  Zn  Zn108  1  0.00000000  0.16666667  0.14112193  1.0
  Zn  Zn109  1  0.00000000  0.50000000  0.14112193  1.0
  Zn  Zn110  1  0.00000000  0.83333333  0.14112193  1.0
  Zn  Zn111  1  0.33333333  0.16666667  0.14112193  1.0
  Zn  Zn112  1  0.33333333  0.50000000  0.14112193  1.0
  Zn  Zn113  1  0.33333333  0.83333333  0.14112193  1.0
  Zn  Zn114  1  0.66666667  0.16666667  0.14112193  1.0
  Zn  Zn115  1  0.66666667  0.50000000  0.14112193  1.0
  Zn  Zn116  1  0.66666667  0.83333333  0.14112193  1.0
  Zn  Zn117  1  0.14738067  0.05244800  0.07965093  1.0
  Zn  Zn118  1  0.14738067  0.38578133  0.07965093  1.0
  Zn  Zn119  1  0.14738067  0.71911467  0.07965093  1.0
  Zn  Zn120  1  0.48071400  0.05244800  0.07965093  1.0
  Zn  Zn121  1  0.48071400  0.38578133  0.07965093  1.0
  Zn  Zn122  1  0.48071400  0.71911467  0.07965093  1.0
  Zn  Zn123  1  0.81404733  0.05244800  0.07965093  1.0
  Zn  Zn124  1  0.81404733  0.38578133  0.07965093  1.0
  Zn  Zn125  1  0.81404733  0.71911467  0.07965093  1.0
  Zn  Zn126  1  0.18973833  0.06939467  0.02642007  1.0
  Zn  Zn127  1  0.18973833  0.40272800  0.02642007  1.0
  Zn  Zn128  1  0.18973833  0.73606133  0.02642007  1.0
  Zn  Zn129  1  0.52307167  0.06939467  0.02642007  1.0
  Zn  Zn130  1  0.52307167  0.40272800  0.02642007  1.0
  Zn  Zn131  1  0.52307167  0.73606133  0.02642007  1.0
  Zn  Zn132  1  0.85640500  0.06939467  0.02642007  1.0
  Zn  Zn133  1  0.85640500  0.40272800  0.02642007  1.0
  Zn  Zn134  1  0.85640500  0.73606133  0.02642007  1.0
  Zn  Zn135  1  0.21163833  0.03057900  0.09881207  1.0
  Zn  Zn136  1  0.21163833  0.36391233  0.09881207  1.0
  Zn  Zn137  1  0.21163833  0.69724567  0.09881207  1.0
  Zn  Zn138  1  0.54497167  0.03057900  0.09881207  1.0
  Zn  Zn139  1  0.54497167  0.36391233  0.09881207  1.0
  Zn  Zn140  1  0.54497167  0.69724567  0.09881207  1.0
  Zn  Zn141  1  0.87830500  0.03057900  0.09881207  1.0
  Zn  Zn142  1  0.87830500  0.36391233  0.09881207  1.0
  Zn  Zn143  1  0.87830500  0.69724567  0.09881207  1.0
  Zn  Zn144  1  0.01148433  0.14120133  0.12913821  1.0
  Zn  Zn145  1  0.01148433  0.47453467  0.12913821  1.0
  Zn  Zn146  1  0.01148433  0.80786800  0.12913821  1.0
  Zn  Zn147  1  0.34481767  0.14120133  0.12913821  1.0
  Zn  Zn148  1  0.34481767  0.47453467  0.12913821  1.0
  Zn  Zn149  1  0.34481767  0.80786800  0.12913821  1.0
  Zn  Zn150  1  0.67815100  0.14120133  0.12913821  1.0
  Zn  Zn151  1  0.67815100  0.47453467  0.12913821  1.0
  Zn  Zn152  1  0.67815100  0.80786800  0.12913821  1.0
  Zn  Zn153  1  0.19344667  0.03385100  0.14229021  1.0
  Zn  Zn154  1  0.19344667  0.36718433  0.14229021  1.0
  Zn  Zn155  1  0.19344667  0.70051767  0.14229021  1.0
  Zn  Zn156  1  0.52678000  0.03385100  0.14229021  1.0
  Zn  Zn157  1  0.52678000  0.36718433  0.14229021  1.0
  Zn  Zn158  1  0.52678000  0.70051767  0.14229021  1.0
  Zn  Zn159  1  0.86011333  0.03385100  0.14229021  1.0
  Zn  Zn160  1  0.86011333  0.36718433  0.14229021  1.0
  Zn  Zn161  1  0.86011333  0.70051767  0.14229021  1.0
  Zn  Zn162  1  0.02880933  0.25905267  0.05193879  1.0
  Zn  Zn163  1  0.02880933  0.59238600  0.05193879  1.0
  Zn  Zn164  1  0.02880933  0.92571933  0.05193879  1.0
  Zn  Zn165  1  0.36214267  0.25905267  0.05193879  1.0
  Zn  Zn166  1  0.36214267  0.59238600  0.05193879  1.0
  Zn  Zn167  1  0.36214267  0.92571933  0.05193879  1.0
  Zn  Zn168  1  0.69547600  0.25905267  0.05193879  1.0
  Zn  Zn169  1  0.69547600  0.59238600  0.05193879  1.0
  Zn  Zn170  1  0.69547600  0.92571933  0.05193879  1.0
  Zn  Zn171  1  0.09081400  0.02859467  0.04973736  1.0
  Zn  Zn172  1  0.09081400  0.36192800  0.04973736  1.0
  Zn  Zn173  1  0.09081400  0.69526133  0.04973736  1.0
  Zn  Zn174  1  0.42414733  0.02859467  0.04973736  1.0
  Zn  Zn175  1  0.42414733  0.36192800  0.04973736  1.0
  Zn  Zn176  1  0.42414733  0.69526133  0.04973736  1.0
  Zn  Zn177  1  0.75748067  0.02859467  0.04973736  1.0
  Zn  Zn178  1  0.75748067  0.36192800  0.04973736  1.0
  Zn  Zn179  1  0.75748067  0.69526133  0.04973736  1.0
  Zn  Zn180  1  0.31120767  0.32552100  0.02569493  1.0
  Zn  Zn181  1  0.31120767  0.65885433  0.02569493  1.0
  Zn  Zn182  1  0.31120767  0.99218767  0.02569493  1.0
  Zn  Zn183  1  0.64454100  0.32552100  0.02569493  1.0
  Zn  Zn184  1  0.64454100  0.65885433  0.02569493  1.0
  Zn  Zn185  1  0.64454100  0.99218767  0.02569493  1.0
  Zn  Zn186  1  0.97787433  0.32552100  0.02569493  1.0
  Zn  Zn187  1  0.97787433  0.65885433  0.02569493  1.0
  Zn  Zn188  1  0.97787433  0.99218767  0.02569493  1.0
  Zn  Zn189  1  0.14989367  0.17866400  0.13702850  1.0
  Zn  Zn190  1  0.14989367  0.51199733  0.13702850  1.0
  Zn  Zn191  1  0.14989367  0.84533067  0.13702850  1.0
  Zn  Zn192  1  0.48322700  0.17866400  0.13702850  1.0
  Zn  Zn193  1  0.48322700  0.51199733  0.13702850  1.0
  Zn  Zn194  1  0.48322700  0.84533067  0.13702850  1.0
  Zn  Zn195  1  0.81656033  0.17866400  0.13702850  1.0
  Zn  Zn196  1  0.81656033  0.51199733  0.13702850  1.0
  Zn  Zn197  1  0.81656033  0.84533067  0.13702850  1.0
  Zn  Zn198  1  0.01603600  0.21787067  0.05589907  1.0
  Zn  Zn199  1  0.01603600  0.55120400  0.05589907  1.0
  Zn  Zn200  1  0.01603600  0.88453733  0.05589907  1.0
  Zn  Zn201  1  0.34936933  0.21787067  0.05589907  1.0
  Zn  Zn202  1  0.34936933  0.55120400  0.05589907  1.0
  Zn  Zn203  1  0.34936933  0.88453733  0.05589907  1.0
  Zn  Zn204  1  0.68270267  0.21787067  0.05589907  1.0
  Zn  Zn205  1  0.68270267  0.55120400  0.05589907  1.0
  Zn  Zn206  1  0.68270267  0.88453733  0.05589907  1.0
  Zn  Zn207  1  0.25748067  0.13807200  0.00071793  1.0
  Zn  Zn208  1  0.25748067  0.47140533  0.00071793  1.0
  Zn  Zn209  1  0.25748067  0.80473867  0.00071793  1.0
  Zn  Zn210  1  0.59081400  0.13807200  0.00071793  1.0
  Zn  Zn211  1  0.59081400  0.47140533  0.00071793  1.0
  Zn  Zn212  1  0.59081400  0.80473867  0.00071793  1.0
  Zn  Zn213  1  0.92414733  0.13807200  0.00071793  1.0
  Zn  Zn214  1  0.92414733  0.47140533  0.00071793  1.0
  Zn  Zn215  1  0.92414733  0.80473867  0.00071793  1.0
  Zn  Zn216  1  0.17980633  0.07605267  0.07471536  1.0
  Zn  Zn217  1  0.17980633  0.40938600  0.07471536  1.0
  Zn  Zn218  1  0.17980633  0.74271933  0.07471536  1.0
  Zn  Zn219  1  0.51313967  0.07605267  0.07471536  1.0
  Zn  Zn220  1  0.51313967  0.40938600  0.07471536  1.0
  Zn  Zn221  1  0.51313967  0.74271933  0.07471536  1.0
  Zn  Zn222  1  0.84647300  0.07605267  0.07471536  1.0
  Zn  Zn223  1  0.84647300  0.40938600  0.07471536  1.0
  Zn  Zn224  1  0.84647300  0.74271933  0.07471536  1.0
  Zn  Zn225  1  0.25842267  0.29948233  0.13995364  1.0
  Zn  Zn226  1  0.25842267  0.63281567  0.13995364  1.0
  Zn  Zn227  1  0.25842267  0.96614900  0.13995364  1.0
  Zn  Zn228  1  0.59175600  0.29948233  0.13995364  1.0
  Zn  Zn229  1  0.59175600  0.63281567  0.13995364  1.0
  Zn  Zn230  1  0.59175600  0.96614900  0.13995364  1.0
  Zn  Zn231  1  0.92508933  0.29948233  0.13995364  1.0
  Zn  Zn232  1  0.92508933  0.63281567  0.13995364  1.0
  Zn  Zn233  1  0.92508933  0.96614900  0.13995364  1.0
  Zn  Zn234  1  0.31026167  0.23606133  0.08907179  1.0
  Zn  Zn235  1  0.31026167  0.56939467  0.08907179  1.0
  Zn  Zn236  1  0.31026167  0.90272800  0.08907179  1.0
  Zn  Zn237  1  0.64359500  0.23606133  0.08907179  1.0
  Zn  Zn238  1  0.64359500  0.56939467  0.08907179  1.0
  Zn  Zn239  1  0.64359500  0.90272800  0.08907179  1.0
  Zn  Zn240  1  0.97692833  0.23606133  0.08907179  1.0
  Zn  Zn241  1  0.97692833  0.56939467  0.08907179  1.0
  Zn  Zn242  1  0.97692833  0.90272800  0.08907179  1.0
  Zn  Zn243  1  0.31656033  0.32133600  0.11646164  1.0
  Zn  Zn244  1  0.31656033  0.65466933  0.11646164  1.0
  Zn  Zn245  1  0.31656033  0.98800267  0.11646164  1.0
  Zn  Zn246  1  0.64989367  0.32133600  0.11646164  1.0
  Zn  Zn247  1  0.64989367  0.65466933  0.11646164  1.0
  Zn  Zn248  1  0.64989367  0.98800267  0.11646164  1.0
  Zn  Zn249  1  0.98322700  0.32133600  0.11646164  1.0
  Zn  Zn250  1  0.98322700  0.65466933  0.11646164  1.0
  Zn  Zn251  1  0.98322700  0.98800267  0.11646164  1.0
  Zn  Zn252  1  0.22019567  0.07323933  0.14128779  1.0
  Zn  Zn253  1  0.22019567  0.40657267  0.14128779  1.0
  Zn  Zn254  1  0.22019567  0.73990600  0.14128779  1.0
  Zn  Zn255  1  0.55352900  0.07323933  0.14128779  1.0
  Zn  Zn256  1  0.55352900  0.40657267  0.14128779  1.0
  Zn  Zn257  1  0.55352900  0.73990600  0.14128779  1.0
  Zn  Zn258  1  0.88686233  0.07323933  0.14128779  1.0
  Zn  Zn259  1  0.88686233  0.40657267  0.14128779  1.0
  Zn  Zn260  1  0.88686233  0.73990600  0.14128779  1.0
  Zn  Zn261  1  0.06237567  0.28088533  0.05973579  1.0
  Zn  Zn262  1  0.06237567  0.61421867  0.05973579  1.0
  Zn  Zn263  1  0.06237567  0.94755200  0.05973579  1.0
  Zn  Zn264  1  0.39570900  0.28088533  0.05973579  1.0
  Zn  Zn265  1  0.39570900  0.61421867  0.05973579  1.0
  Zn  Zn266  1  0.39570900  0.94755200  0.05973579  1.0
  Zn  Zn267  1  0.72904233  0.28088533  0.05973579  1.0
  Zn  Zn268  1  0.72904233  0.61421867  0.05973579  1.0
  Zn  Zn269  1  0.72904233  0.94755200  0.05973579  1.0
  Zn  Zn270  1  0.18343967  0.15466933  0.00235821  1.0
  Zn  Zn271  1  0.18343967  0.48800267  0.00235821  1.0
  Zn  Zn272  1  0.18343967  0.82133600  0.00235821  1.0
  Zn  Zn273  1  0.51677300  0.15466933  0.00235821  1.0
  Zn  Zn274  1  0.51677300  0.48800267  0.00235821  1.0
  Zn  Zn275  1  0.51677300  0.82133600  0.00235821  1.0
  Zn  Zn276  1  0.85010633  0.15466933  0.00235821  1.0
  Zn  Zn277  1  0.85010633  0.48800267  0.00235821  1.0
  Zn  Zn278  1  0.85010633  0.82133600  0.00235821  1.0
  Zn  Zn279  1  0.03818600  0.30275433  0.04057464  1.0
  Zn  Zn280  1  0.03818600  0.63608767  0.04057464  1.0
  Zn  Zn281  1  0.03818600  0.96942100  0.04057464  1.0
  Zn  Zn282  1  0.37151933  0.30275433  0.04057464  1.0
  Zn  Zn283  1  0.37151933  0.63608767  0.04057464  1.0
  Zn  Zn284  1  0.37151933  0.96942100  0.04057464  1.0
  Zn  Zn285  1  0.70485267  0.30275433  0.04057464  1.0
  Zn  Zn286  1  0.70485267  0.63608767  0.04057464  1.0
  Zn  Zn287  1  0.70485267  0.96942100  0.04057464  1.0
  Zn  Zn288  1  0.18595267  0.28088533  0.05973579  1.0
  Zn  Zn289  1  0.18595267  0.61421867  0.05973579  1.0
  Zn  Zn290  1  0.18595267  0.94755200  0.05973579  1.0
  Zn  Zn291  1  0.51928600  0.28088533  0.05973579  1.0
  Zn  Zn292  1  0.51928600  0.61421867  0.05973579  1.0
  Zn  Zn293  1  0.51928600  0.94755200  0.05973579  1.0
  Zn  Zn294  1  0.85261933  0.28088533  0.05973579  1.0
  Zn  Zn295  1  0.85261933  0.61421867  0.05973579  1.0
  Zn  Zn296  1  0.85261933  0.94755200  0.05973579  1.0
  Zn  Zn297  1  0.02832433  0.17728333  0.06499450  1.0
  Zn  Zn298  1  0.02832433  0.51061667  0.06499450  1.0
  Zn  Zn299  1  0.02832433  0.84395000  0.06499450  1.0
  Zn  Zn300  1  0.36165767  0.17728333  0.06499450  1.0
  Zn  Zn301  1  0.36165767  0.51061667  0.06499450  1.0
  Zn  Zn302  1  0.36165767  0.84395000  0.06499450  1.0
  Zn  Zn303  1  0.69499100  0.17728333  0.06499450  1.0
  Zn  Zn304  1  0.69499100  0.51061667  0.06499450  1.0
  Zn  Zn305  1  0.69499100  0.84395000  0.06499450  1.0
  Zn  Zn306  1  0.19499100  0.32271667  0.04679450  1.0
  Zn  Zn307  1  0.19499100  0.65605000  0.04679450  1.0
  Zn  Zn308  1  0.19499100  0.98938333  0.04679450  1.0
  Zn  Zn309  1  0.52832433  0.32271667  0.04679450  1.0
  Zn  Zn310  1  0.52832433  0.65605000  0.04679450  1.0
  Zn  Zn311  1  0.52832433  0.98938333  0.04679450  1.0
  Zn  Zn312  1  0.86165767  0.32271667  0.04679450  1.0
  Zn  Zn313  1  0.86165767  0.65605000  0.04679450  1.0
  Zn  Zn314  1  0.86165767  0.98938333  0.04679450  1.0
  Zn  Zn315  1  0.26283200  0.26393867  0.11296664  1.0
  Zn  Zn316  1  0.26283200  0.59727200  0.11296664  1.0
  Zn  Zn317  1  0.26283200  0.93060533  0.11296664  1.0
  Zn  Zn318  1  0.59616533  0.26393867  0.11296664  1.0
  Zn  Zn319  1  0.59616533  0.59727200  0.11296664  1.0
  Zn  Zn320  1  0.59616533  0.93060533  0.11296664  1.0
  Zn  Zn321  1  0.92949867  0.26393867  0.11296664  1.0
  Zn  Zn322  1  0.92949867  0.59727200  0.11296664  1.0
  Zn  Zn323  1  0.92949867  0.93060533  0.11296664  1.0
  Zn  Zn324  1  0.13736733  0.21800367  0.12805207  1.0
  Zn  Zn325  1  0.13736733  0.55133700  0.12805207  1.0
  Zn  Zn326  1  0.13736733  0.88467033  0.12805207  1.0
  Zn  Zn327  1  0.47070067  0.21800367  0.12805207  1.0
  Zn  Zn328  1  0.47070067  0.55133700  0.12805207  1.0
  Zn  Zn329  1  0.47070067  0.88467033  0.12805207  1.0
  Zn  Zn330  1  0.80403400  0.21800367  0.12805207  1.0
  Zn  Zn331  1  0.80403400  0.55133700  0.12805207  1.0
  Zn  Zn332  1  0.80403400  0.88467033  0.12805207  1.0
  Zn  Zn333  1  0.12169500  0.30275433  0.04057464  1.0
  Zn  Zn334  1  0.12169500  0.63608767  0.04057464  1.0
  Zn  Zn335  1  0.12169500  0.96942100  0.04057464  1.0
  Zn  Zn336  1  0.45502833  0.30275433  0.04057464  1.0
  Zn  Zn337  1  0.45502833  0.63608767  0.04057464  1.0
  Zn  Zn338  1  0.45502833  0.96942100  0.04057464  1.0
  Zn  Zn339  1  0.78836167  0.30275433  0.04057464  1.0
  Zn  Zn340  1  0.78836167  0.63608767  0.04057464  1.0
  Zn  Zn341  1  0.78836167  0.96942100  0.04057464  1.0
  Zn  Zn342  1  0.16231733  0.10314033  0.08294279  1.0
  Zn  Zn343  1  0.16231733  0.43647367  0.08294279  1.0
  Zn  Zn344  1  0.16231733  0.76980700  0.08294279  1.0
  Zn  Zn345  1  0.49565067  0.10314033  0.08294279  1.0
  Zn  Zn346  1  0.49565067  0.43647367  0.08294279  1.0
  Zn  Zn347  1  0.49565067  0.76980700  0.08294279  1.0
  Zn  Zn348  1  0.82898400  0.10314033  0.08294279  1.0
  Zn  Zn349  1  0.82898400  0.43647367  0.08294279  1.0
  Zn  Zn350  1  0.82898400  0.76980700  0.08294279  1.0
  Zn  Zn351  1  0.19962067  0.23990600  0.12365207  1.0
  Zn  Zn352  1  0.19962067  0.57323933  0.12365207  1.0
  Zn  Zn353  1  0.19962067  0.90657267  0.12365207  1.0
  Zn  Zn354  1  0.53295400  0.23990600  0.12365207  1.0
  Zn  Zn355  1  0.53295400  0.57323933  0.12365207  1.0
  Zn  Zn356  1  0.53295400  0.90657267  0.12365207  1.0
  Zn  Zn357  1  0.86628733  0.23990600  0.12365207  1.0
  Zn  Zn358  1  0.86628733  0.57323933  0.12365207  1.0
  Zn  Zn359  1  0.86628733  0.90657267  0.12365207  1.0
  Zn  Zn360  1  0.06052167  0.01061667  0.09259221  1.0
  Zn  Zn361  1  0.06052167  0.34395000  0.09259221  1.0
  Zn  Zn362  1  0.06052167  0.67728333  0.09259221  1.0
  Zn  Zn363  1  0.39385500  0.01061667  0.09259221  1.0
  Zn  Zn364  1  0.39385500  0.34395000  0.09259221  1.0
  Zn  Zn365  1  0.39385500  0.67728333  0.09259221  1.0
  Zn  Zn366  1  0.72718833  0.01061667  0.09259221  1.0
  Zn  Zn367  1  0.72718833  0.34395000  0.09259221  1.0
  Zn  Zn368  1  0.72718833  0.67728333  0.09259221  1.0
  Zn  Zn369  1  0.22904233  0.21911467  0.00678950  1.0
  Zn  Zn370  1  0.22904233  0.55244800  0.00678950  1.0
  Zn  Zn371  1  0.22904233  0.88578133  0.00678950  1.0
  Zn  Zn372  1  0.56237567  0.21911467  0.00678950  1.0
  Zn  Zn373  1  0.56237567  0.55244800  0.00678950  1.0
  Zn  Zn374  1  0.56237567  0.88578133  0.00678950  1.0
  Zn  Zn375  1  0.89570900  0.21911467  0.00678950  1.0
  Zn  Zn376  1  0.89570900  0.55244800  0.00678950  1.0
  Zn  Zn377  1  0.89570900  0.88578133  0.00678950  1.0
  Zn  Zn378  1  0.24499133  0.25905267  0.05193879  1.0
  Zn  Zn379  1  0.24499133  0.59238600  0.05193879  1.0
  Zn  Zn380  1  0.24499133  0.92571933  0.05193879  1.0
  Zn  Zn381  1  0.57832467  0.25905267  0.05193879  1.0
  Zn  Zn382  1  0.57832467  0.59238600  0.05193879  1.0
  Zn  Zn383  1  0.57832467  0.92571933  0.05193879  1.0
  Zn  Zn384  1  0.91165800  0.25905267  0.05193879  1.0
  Zn  Zn385  1  0.91165800  0.59238600  0.05193879  1.0
  Zn  Zn386  1  0.91165800  0.92571933  0.05193879  1.0
  Zn  Zn387  1  0.30500900  0.15605000  0.07439221  1.0
  Zn  Zn388  1  0.30500900  0.48938333  0.07439221  1.0
  Zn  Zn389  1  0.30500900  0.82271667  0.07439221  1.0
  Zn  Zn390  1  0.63834233  0.15605000  0.07439221  1.0
  Zn  Zn391  1  0.63834233  0.48938333  0.07439221  1.0
  Zn  Zn392  1  0.63834233  0.82271667  0.07439221  1.0
  Zn  Zn393  1  0.97167567  0.15605000  0.07439221  1.0
  Zn  Zn394  1  0.97167567  0.48938333  0.07439221  1.0
  Zn  Zn395  1  0.97167567  0.82271667  0.07439221  1.0
  Zn  Zn396  1  0.19456733  0.19526133  0.13866879  1.0
  Zn  Zn397  1  0.19456733  0.52859467  0.13866879  1.0
  Zn  Zn398  1  0.19456733  0.86192800  0.13866879  1.0
  Zn  Zn399  1  0.52790067  0.19526133  0.13866879  1.0
  Zn  Zn400  1  0.52790067  0.52859467  0.13866879  1.0
  Zn  Zn401  1  0.52790067  0.86192800  0.13866879  1.0
  Zn  Zn402  1  0.86123400  0.19526133  0.13866879  1.0
  Zn  Zn403  1  0.86123400  0.52859467  0.13866879  1.0
  Zn  Zn404  1  0.86123400  0.86192800  0.13866879  1.0
  Zn  Zn405  1  0.14454100  0.17447900  0.03908750  1.0
  Zn  Zn406  1  0.14454100  0.50781233  0.03908750  1.0
  Zn  Zn407  1  0.14454100  0.84114567  0.03908750  1.0
  Zn  Zn408  1  0.47787433  0.17447900  0.03908750  1.0
  Zn  Zn409  1  0.47787433  0.50781233  0.03908750  1.0
  Zn  Zn410  1  0.47787433  0.84114567  0.03908750  1.0
  Zn  Zn411  1  0.81120767  0.17447900  0.03908750  1.0
  Zn  Zn412  1  0.81120767  0.50781233  0.03908750  1.0
  Zn  Zn413  1  0.81120767  0.84114567  0.03908750  1.0
  Zn  Zn414  1  0.05352900  0.09342733  0.01573464  1.0
  Zn  Zn415  1  0.05352900  0.42676067  0.01573464  1.0
  Zn  Zn416  1  0.05352900  0.76009400  0.01573464  1.0
  Zn  Zn417  1  0.38686233  0.09342733  0.01573464  1.0
  Zn  Zn418  1  0.38686233  0.42676067  0.01573464  1.0
  Zn  Zn419  1  0.38686233  0.76009400  0.01573464  1.0
  Zn  Zn420  1  0.72019567  0.09342733  0.01573464  1.0
  Zn  Zn421  1  0.72019567  0.42676067  0.01573464  1.0
  Zn  Zn422  1  0.72019567  0.76009400  0.01573464  1.0
  Zn  Zn423  1  0.15063067  0.05120400  0.02840879  1.0
  Zn  Zn424  1  0.15063067  0.38453733  0.02840879  1.0
  Zn  Zn425  1  0.15063067  0.71787067  0.02840879  1.0
  Zn  Zn426  1  0.48396400  0.05120400  0.02840879  1.0
  Zn  Zn427  1  0.48396400  0.38453733  0.02840879  1.0
  Zn  Zn428  1  0.48396400  0.71787067  0.02840879  1.0
  Zn  Zn429  1  0.81729733  0.05120400  0.02840879  1.0
  Zn  Zn430  1  0.81729733  0.38453733  0.02840879  1.0
  Zn  Zn431  1  0.81729733  0.71787067  0.02840879  1.0
  Zn  Zn432  1  0.15352700  0.25728067  0.06467136  1.0
  Zn  Zn433  1  0.15352700  0.59061400  0.06467136  1.0
  Zn  Zn434  1  0.15352700  0.92394733  0.06467136  1.0
  Zn  Zn435  1  0.48686033  0.25728067  0.06467136  1.0
  Zn  Zn436  1  0.48686033  0.59061400  0.06467136  1.0
  Zn  Zn437  1  0.48686033  0.92394733  0.06467136  1.0
  Zn  Zn438  1  0.82019367  0.25728067  0.06467136  1.0
  Zn  Zn439  1  0.82019367  0.59061400  0.06467136  1.0
  Zn  Zn440  1  0.82019367  0.92394733  0.06467136  1.0
  Zn  Zn441  1  0.19547600  0.24094733  0.03641993  1.0
  Zn  Zn442  1  0.19547600  0.57428067  0.03641993  1.0
  Zn  Zn443  1  0.19547600  0.90761400  0.03641993  1.0
  Zn  Zn444  1  0.52880933  0.24094733  0.03641993  1.0
  Zn  Zn445  1  0.52880933  0.57428067  0.03641993  1.0
  Zn  Zn446  1  0.52880933  0.90761400  0.03641993  1.0
  Zn  Zn447  1  0.86214267  0.24094733  0.03641993  1.0
  Zn  Zn448  1  0.86214267  0.57428067  0.03641993  1.0
  Zn  Zn449  1  0.86214267  0.90761400  0.03641993  1.0
  Zn  Zn450  1  0.22946233  0.28199633  0.04004579  1.0
  Zn  Zn451  1  0.22946233  0.61532967  0.04004579  1.0
  Zn  Zn452  1  0.22946233  0.94866300  0.04004579  1.0
  Zn  Zn453  1  0.56279567  0.28199633  0.04004579  1.0
  Zn  Zn454  1  0.56279567  0.61532967  0.04004579  1.0
  Zn  Zn455  1  0.56279567  0.94866300  0.04004579  1.0
  Zn  Zn456  1  0.89612900  0.28199633  0.04004579  1.0
  Zn  Zn457  1  0.89612900  0.61532967  0.04004579  1.0
  Zn  Zn458  1  0.89612900  0.94866300  0.04004579  1.0
  Zn  Zn459  1  0.13988667  0.29948233  0.13995364  1.0
  Zn  Zn460  1  0.13988667  0.63281567  0.13995364  1.0
  Zn  Zn461  1  0.13988667  0.96614900  0.13995364  1.0
  Zn  Zn462  1  0.47322000  0.29948233  0.13995364  1.0
  Zn  Zn463  1  0.47322000  0.63281567  0.13995364  1.0
  Zn  Zn464  1  0.47322000  0.96614900  0.13995364  1.0
  Zn  Zn465  1  0.80655333  0.29948233  0.13995364  1.0
  Zn  Zn466  1  0.80655333  0.63281567  0.13995364  1.0
  Zn  Zn467  1  0.80655333  0.96614900  0.13995364  1.0
  Zn  Zn468  1  0.00434933  0.26980700  0.09039879  1.0
  Zn  Zn469  1  0.00434933  0.60314033  0.09039879  1.0
  Zn  Zn470  1  0.00434933  0.93647367  0.09039879  1.0
  Zn  Zn471  1  0.33768267  0.26980700  0.09039879  1.0
  Zn  Zn472  1  0.33768267  0.60314033  0.09039879  1.0
  Zn  Zn473  1  0.33768267  0.93647367  0.09039879  1.0
  Zn  Zn474  1  0.67101600  0.26980700  0.09039879  1.0
  Zn  Zn475  1  0.67101600  0.60314033  0.09039879  1.0
  Zn  Zn476  1  0.67101600  0.93647367  0.09039879  1.0
  Zn  Zn477  1  0.07585267  0.19526133  0.13866879  1.0
  Zn  Zn478  1  0.07585267  0.52859467  0.13866879  1.0
  Zn  Zn479  1  0.07585267  0.86192800  0.13866879  1.0
  Zn  Zn480  1  0.40918600  0.19526133  0.13866879  1.0
  Zn  Zn481  1  0.40918600  0.52859467  0.13866879  1.0
  Zn  Zn482  1  0.40918600  0.86192800  0.13866879  1.0
  Zn  Zn483  1  0.74251933  0.19526133  0.13866879  1.0
  Zn  Zn484  1  0.74251933  0.52859467  0.13866879  1.0
  Zn  Zn485  1  0.74251933  0.86192800  0.13866879  1.0
  Zn  Zn486  1  0.01928600  0.21911467  0.00678950  1.0
  Zn  Zn487  1  0.01928600  0.55244800  0.00678950  1.0
  Zn  Zn488  1  0.01928600  0.88578133  0.00678950  1.0
  Zn  Zn489  1  0.35261933  0.21911467  0.00678950  1.0
  Zn  Zn490  1  0.35261933  0.55244800  0.00678950  1.0
  Zn  Zn491  1  0.35261933  0.88578133  0.00678950  1.0
  Zn  Zn492  1  0.68595267  0.21911467  0.00678950  1.0
  Zn  Zn493  1  0.68595267  0.55244800  0.00678950  1.0
  Zn  Zn494  1  0.68595267  0.88578133  0.00678950  1.0
  Zn  Zn495  1  0.32898400  0.06352633  0.04898793  1.0
  Zn  Zn496  1  0.32898400  0.39685967  0.04898793  1.0
  Zn  Zn497  1  0.32898400  0.73019300  0.04898793  1.0
  Zn  Zn498  1  0.66231733  0.06352633  0.04898793  1.0
  Zn  Zn499  1  0.66231733  0.39685967  0.04898793  1.0
  Zn  Zn500  1  0.66231733  0.73019300  0.04898793  1.0
  Zn  Zn501  1  0.99565067  0.06352633  0.04898793  1.0
  Zn  Zn502  1  0.99565067  0.39685967  0.04898793  1.0
  Zn  Zn503  1  0.99565067  0.73019300  0.04898793  1.0
  Zn  Zn504  1  0.30403400  0.28199633  0.04004579  1.0
  Zn  Zn505  1  0.30403400  0.61532967  0.04004579  1.0
  Zn  Zn506  1  0.30403400  0.94866300  0.04004579  1.0
  Zn  Zn507  1  0.63736733  0.28199633  0.04004579  1.0
  Zn  Zn508  1  0.63736733  0.61532967  0.04004579  1.0
  Zn  Zn509  1  0.63736733  0.94866300  0.04004579  1.0
  Zn  Zn510  1  0.97070067  0.28199633  0.04004579  1.0
  Zn  Zn511  1  0.97070067  0.61532967  0.04004579  1.0
  Zn  Zn512  1  0.97070067  0.94866300  0.04004579  1.0
  Zn  Zn513  1  0.19596600  0.11532967  0.01133464  1.0
  Zn  Zn514  1  0.19596600  0.44866300  0.01133464  1.0
  Zn  Zn515  1  0.19596600  0.78199633  0.01133464  1.0
  Zn  Zn516  1  0.52929933  0.11532967  0.01133464  1.0
  Zn  Zn517  1  0.52929933  0.44866300  0.01133464  1.0
  Zn  Zn518  1  0.52929933  0.78199633  0.01133464  1.0
  Zn  Zn519  1  0.86263267  0.11532967  0.01133464  1.0
  Zn  Zn520  1  0.86263267  0.44866300  0.01133464  1.0
  Zn  Zn521  1  0.86263267  0.78199633  0.01133464  1.0
  Zn  Zn522  1  0.02929933  0.05133700  0.09934093  1.0
  Zn  Zn523  1  0.02929933  0.38467033  0.09934093  1.0
  Zn  Zn524  1  0.02929933  0.71800367  0.09934093  1.0
  Zn  Zn525  1  0.36263267  0.05133700  0.09934093  1.0
  Zn  Zn526  1  0.36263267  0.38467033  0.09934093  1.0
  Zn  Zn527  1  0.36263267  0.71800367  0.09934093  1.0
  Zn  Zn528  1  0.69596600  0.05133700  0.09934093  1.0
  Zn  Zn529  1  0.69596600  0.38467033  0.09934093  1.0
  Zn  Zn530  1  0.69596600  0.71800367  0.09934093  1.0
  Zn  Zn531  1  0.01313967  0.09061400  0.08719650  1.0
  Zn  Zn532  1  0.01313967  0.42394733  0.08719650  1.0
  Zn  Zn533  1  0.01313967  0.75728067  0.08719650  1.0
  Zn  Zn534  1  0.34647300  0.09061400  0.08719650  1.0
  Zn  Zn535  1  0.34647300  0.42394733  0.08719650  1.0
  Zn  Zn536  1  0.34647300  0.75728067  0.08719650  1.0
  Zn  Zn537  1  0.67980633  0.09061400  0.08719650  1.0
  Zn  Zn538  1  0.67980633  0.42394733  0.08719650  1.0
  Zn  Zn539  1  0.67980633  0.75728067  0.08719650  1.0
  Zn  Zn540  1  0.07832467  0.24094733  0.03641993  1.0
  Zn  Zn541  1  0.07832467  0.57428067  0.03641993  1.0
  Zn  Zn542  1  0.07832467  0.90761400  0.03641993  1.0
  Zn  Zn543  1  0.41165800  0.24094733  0.03641993  1.0
  Zn  Zn544  1  0.41165800  0.57428067  0.03641993  1.0
  Zn  Zn545  1  0.41165800  0.90761400  0.03641993  1.0
  Zn  Zn546  1  0.74499133  0.24094733  0.03641993  1.0
  Zn  Zn547  1  0.74499133  0.57428067  0.03641993  1.0
  Zn  Zn548  1  0.74499133  0.90761400  0.03641993  1.0
  Zn  Zn549  1  0.03295400  0.26009400  0.14095607  1.0
  Zn  Zn550  1  0.03295400  0.59342733  0.14095607  1.0
  Zn  Zn551  1  0.03295400  0.92676067  0.14095607  1.0
  Zn  Zn552  1  0.36628733  0.26009400  0.14095607  1.0
  Zn  Zn553  1  0.36628733  0.59342733  0.14095607  1.0
  Zn  Zn554  1  0.36628733  0.92676067  0.14095607  1.0
  Zn  Zn555  1  0.69962067  0.26009400  0.14095607  1.0
  Zn  Zn556  1  0.69962067  0.59342733  0.14095607  1.0
  Zn  Zn557  1  0.69962067  0.92676067  0.14095607  1.0
  Zn  Zn558  1  0.10429100  0.11421867  0.13259721  1.0
  Zn  Zn559  1  0.10429100  0.44755200  0.13259721  1.0
  Zn  Zn560  1  0.10429100  0.78088533  0.13259721  1.0
  Zn  Zn561  1  0.43762433  0.11421867  0.13259721  1.0
  Zn  Zn562  1  0.43762433  0.44755200  0.13259721  1.0
  Zn  Zn563  1  0.43762433  0.78088533  0.13259721  1.0
  Zn  Zn564  1  0.77095767  0.11421867  0.13259721  1.0
  Zn  Zn565  1  0.77095767  0.44755200  0.13259721  1.0
  Zn  Zn566  1  0.77095767  0.78088533  0.13259721  1.0
  Zn  Zn567  1  0.31404733  0.11421867  0.13259721  1.0
  Zn  Zn568  1  0.31404733  0.44755200  0.13259721  1.0
  Zn  Zn569  1  0.31404733  0.78088533  0.13259721  1.0
  Zn  Zn570  1  0.64738067  0.11421867  0.13259721  1.0
  Zn  Zn571  1  0.64738067  0.44755200  0.13259721  1.0
  Zn  Zn572  1  0.64738067  0.78088533  0.13259721  1.0
  Zn  Zn573  1  0.98071400  0.11421867  0.13259721  1.0
  Zn  Zn574  1  0.98071400  0.44755200  0.13259721  1.0
  Zn  Zn575  1  0.98071400  0.78088533  0.13259721  1.0
  Zn  Zn576  1  0.32184900  0.19213200  0.01024850  1.0
  Zn  Zn577  1  0.32184900  0.52546533  0.01024850  1.0
  Zn  Zn578  1  0.32184900  0.85879867  0.01024850  1.0
  Zn  Zn579  1  0.65518233  0.19213200  0.01024850  1.0
  Zn  Zn580  1  0.65518233  0.52546533  0.01024850  1.0
  Zn  Zn581  1  0.65518233  0.85879867  0.01024850  1.0
  Zn  Zn582  1  0.98851567  0.19213200  0.01024850  1.0
  Zn  Zn583  1  0.98851567  0.52546533  0.01024850  1.0
  Zn  Zn584  1  0.98851567  0.85879867  0.01024850  1.0
  Zn  Zn585  1  0.00843667  0.29543467  0.11586879  1.0
  Zn  Zn586  1  0.00843667  0.62876800  0.11586879  1.0
  Zn  Zn587  1  0.00843667  0.96210133  0.11586879  1.0
  Zn  Zn588  1  0.34177000  0.29543467  0.11586879  1.0
  Zn  Zn589  1  0.34177000  0.62876800  0.11586879  1.0
  Zn  Zn590  1  0.34177000  0.96210133  0.11586879  1.0
  Zn  Zn591  1  0.67510333  0.29543467  0.11586879  1.0
  Zn  Zn592  1  0.67510333  0.62876800  0.11586879  1.0
  Zn  Zn593  1  0.67510333  0.96210133  0.11586879  1.0
  Zn  Zn594  1  0.07050133  0.06939467  0.02642007  1.0
  Zn  Zn595  1  0.07050133  0.40272800  0.02642007  1.0
  Zn  Zn596  1  0.07050133  0.73606133  0.02642007  1.0
  Zn  Zn597  1  0.40383467  0.06939467  0.02642007  1.0
  Zn  Zn598  1  0.40383467  0.40272800  0.02642007  1.0
  Zn  Zn599  1  0.40383467  0.73606133  0.02642007  1.0
  Zn  Zn600  1  0.73716800  0.06939467  0.02642007  1.0
  Zn  Zn601  1  0.73716800  0.40272800  0.02642007  1.0
  Zn  Zn602  1  0.73716800  0.73606133  0.02642007  1.0
  Zn  Zn603  1  0.17101600  0.23019300  0.05644393  1.0
  Zn  Zn604  1  0.17101600  0.56352633  0.05644393  1.0
  Zn  Zn605  1  0.17101600  0.89685967  0.05644393  1.0
  Zn  Zn606  1  0.50434933  0.23019300  0.05644393  1.0
  Zn  Zn607  1  0.50434933  0.56352633  0.05644393  1.0
  Zn  Zn608  1  0.50434933  0.89685967  0.05644393  1.0
  Zn  Zn609  1  0.83768267  0.23019300  0.05644393  1.0
  Zn  Zn610  1  0.83768267  0.56352633  0.05644393  1.0
  Zn  Zn611  1  0.83768267  0.89685967  0.05644393  1.0
  Zn  Zn612  1  0.14359500  0.26393867  0.11296664  1.0
  Zn  Zn613  1  0.14359500  0.59727200  0.11296664  1.0
  Zn  Zn614  1  0.14359500  0.93060533  0.11296664  1.0
  Zn  Zn615  1  0.47692833  0.26393867  0.11296664  1.0
  Zn  Zn616  1  0.47692833  0.59727200  0.11296664  1.0
  Zn  Zn617  1  0.47692833  0.93060533  0.11296664  1.0
  Zn  Zn618  1  0.81026167  0.26393867  0.11296664  1.0
  Zn  Zn619  1  0.81026167  0.59727200  0.11296664  1.0
  Zn  Zn620  1  0.81026167  0.93060533  0.11296664  1.0
  Zn  Zn621  1  0.30452400  0.07428067  0.08744793  1.0
  Zn  Zn622  1  0.30452400  0.40761400  0.08744793  1.0
  Zn  Zn623  1  0.30452400  0.74094733  0.08744793  1.0
  Zn  Zn624  1  0.63785733  0.07428067  0.08744793  1.0
  Zn  Zn625  1  0.63785733  0.40761400  0.08744793  1.0
  Zn  Zn626  1  0.63785733  0.74094733  0.08744793  1.0
  Zn  Zn627  1  0.97119067  0.07428067  0.08744793  1.0
  Zn  Zn628  1  0.97119067  0.40761400  0.08744793  1.0
  Zn  Zn629  1  0.97119067  0.74094733  0.08744793  1.0
  Zn  Zn630  1  0.01677300  0.01199733  0.02292507  1.0
  Zn  Zn631  1  0.01677300  0.34533067  0.02292507  1.0
  Zn  Zn632  1  0.01677300  0.67866400  0.02292507  1.0
  Zn  Zn633  1  0.35010633  0.01199733  0.02292507  1.0
  Zn  Zn634  1  0.35010633  0.34533067  0.02292507  1.0
  Zn  Zn635  1  0.35010633  0.67866400  0.02292507  1.0
  Zn  Zn636  1  0.68343967  0.01199733  0.02292507  1.0
  Zn  Zn637  1  0.68343967  0.34533067  0.02292507  1.0
  Zn  Zn638  1  0.68343967  0.67866400  0.02292507  1.0
  Zn  Zn639  1  0.25500867  0.09238600  0.10296679  1.0
  Zn  Zn640  1  0.25500867  0.42571933  0.10296679  1.0
  Zn  Zn641  1  0.25500867  0.75905267  0.10296679  1.0
  Zn  Zn642  1  0.58834200  0.09238600  0.10296679  1.0
  Zn  Zn643  1  0.58834200  0.42571933  0.10296679  1.0
  Zn  Zn644  1  0.58834200  0.75905267  0.10296679  1.0
  Zn  Zn645  1  0.92167533  0.09238600  0.10296679  1.0
  Zn  Zn646  1  0.92167533  0.42571933  0.10296679  1.0
  Zn  Zn647  1  0.92167533  0.75905267  0.10296679  1.0
  Zn  Zn648  1  0.12848067  0.13608767  0.04639093  1.0
  Zn  Zn649  1  0.12848067  0.46942100  0.04639093  1.0
  Zn  Zn650  1  0.12848067  0.80275433  0.04639093  1.0
  Zn  Zn651  1  0.46181400  0.13608767  0.04639093  1.0
  Zn  Zn652  1  0.46181400  0.46942100  0.04639093  1.0
  Zn  Zn653  1  0.46181400  0.80275433  0.04639093  1.0
  Zn  Zn654  1  0.79514733  0.13608767  0.04639093  1.0
  Zn  Zn655  1  0.79514733  0.46942100  0.04639093  1.0
  Zn  Zn656  1  0.79514733  0.80275433  0.04639093  1.0
  Zn  Zn657  1  0.18270267  0.28212933  0.11097793  1.0
  Zn  Zn658  1  0.18270267  0.61546267  0.11097793  1.0
  Zn  Zn659  1  0.18270267  0.94879600  0.11097793  1.0
  Zn  Zn660  1  0.51603600  0.28212933  0.11097793  1.0
  Zn  Zn661  1  0.51603600  0.61546267  0.11097793  1.0
  Zn  Zn662  1  0.51603600  0.94879600  0.11097793  1.0
  Zn  Zn663  1  0.84936933  0.28212933  0.11097793  1.0
  Zn  Zn664  1  0.84936933  0.61546267  0.11097793  1.0
  Zn  Zn665  1  0.84936933  0.94879600  0.11097793  1.0
  Zn  Zn666  1  0.23716800  0.09727200  0.05031493  1.0
  Zn  Zn667  1  0.23716800  0.43060533  0.05031493  1.0
  Zn  Zn668  1  0.23716800  0.76393867  0.05031493  1.0
  Zn  Zn669  1  0.57050133  0.09727200  0.05031493  1.0
  Zn  Zn670  1  0.57050133  0.43060533  0.05031493  1.0
  Zn  Zn671  1  0.57050133  0.76393867  0.05031493  1.0
  Zn  Zn672  1  0.90383467  0.09727200  0.05031493  1.0
  Zn  Zn673  1  0.90383467  0.43060533  0.05031493  1.0
  Zn  Zn674  1  0.90383467  0.76393867  0.05031493  1.0
  Zn  Zn675  1  0.04497167  0.13608767  0.04639093  1.0
  Zn  Zn676  1  0.04497167  0.46942100  0.04639093  1.0
  Zn  Zn677  1  0.04497167  0.80275433  0.04639093  1.0
  Zn  Zn678  1  0.37830500  0.13608767  0.04639093  1.0
  Zn  Zn679  1  0.37830500  0.46942100  0.04639093  1.0
  Zn  Zn680  1  0.37830500  0.80275433  0.04639093  1.0
  Zn  Zn681  1  0.71163833  0.13608767  0.04639093  1.0
  Zn  Zn682  1  0.71163833  0.46942100  0.04639093  1.0
  Zn  Zn683  1  0.71163833  0.80275433  0.04639093  1.0
  Zn  Zn684  1  0.10614500  0.17728333  0.06499450  1.0
  Zn  Zn685  1  0.10614500  0.51061667  0.06499450  1.0
  Zn  Zn686  1  0.10614500  0.84395000  0.06499450  1.0
  Zn  Zn687  1  0.43947833  0.17728333  0.06499450  1.0
  Zn  Zn688  1  0.43947833  0.51061667  0.06499450  1.0
  Zn  Zn689  1  0.43947833  0.84395000  0.06499450  1.0
  Zn  Zn690  1  0.77281167  0.17728333  0.06499450  1.0
  Zn  Zn691  1  0.77281167  0.51061667  0.06499450  1.0
  Zn  Zn692  1  0.77281167  0.84395000  0.06499450  1.0
  Zn  Zn693  1  0.09175600  0.20051767  0.05512679  1.0
  Zn  Zn694  1  0.09175600  0.53385100  0.05512679  1.0
  Zn  Zn695  1  0.09175600  0.86718433  0.05512679  1.0
  Zn  Zn696  1  0.42508933  0.20051767  0.05512679  1.0
  Zn  Zn697  1  0.42508933  0.53385100  0.05512679  1.0
  Zn  Zn698  1  0.42508933  0.86718433  0.05512679  1.0
  Zn  Zn699  1  0.75842267  0.20051767  0.05512679  1.0
  Zn  Zn700  1  0.75842267  0.53385100  0.05512679  1.0
  Zn  Zn701  1  0.75842267  0.86718433  0.05512679  1.0
  Zn  Zn702  1  0.02212567  0.00781233  0.11369179  1.0
  Zn  Zn703  1  0.02212567  0.34114567  0.11369179  1.0
  Zn  Zn704  1  0.02212567  0.67447900  0.11369179  1.0
  Zn  Zn705  1  0.35545900  0.00781233  0.11369179  1.0
  Zn  Zn706  1  0.35545900  0.34114567  0.11369179  1.0
  Zn  Zn707  1  0.35545900  0.67447900  0.11369179  1.0
  Zn  Zn708  1  0.68879233  0.00781233  0.11369179  1.0
  Zn  Zn709  1  0.68879233  0.34114567  0.11369179  1.0
  Zn  Zn710  1  0.68879233  0.67447900  0.11369179  1.0
  Zn  Zn711  1  0.02678000  0.13281567  0.08425993  1.0
  Zn  Zn712  1  0.02678000  0.46614900  0.08425993  1.0
  Zn  Zn713  1  0.02678000  0.79948233  0.08425993  1.0
  Zn  Zn714  1  0.36011333  0.13281567  0.08425993  1.0
  Zn  Zn715  1  0.36011333  0.46614900  0.08425993  1.0
  Zn  Zn716  1  0.36011333  0.79948233  0.08425993  1.0
  Zn  Zn717  1  0.69344667  0.13281567  0.08425993  1.0
  Zn  Zn718  1  0.69344667  0.46614900  0.08425993  1.0
  Zn  Zn719  1  0.69344667  0.79948233  0.08425993  1.0
  Zn  Zn720  1  0.07491067  0.03385100  0.14229021  1.0
  Zn  Zn721  1  0.07491067  0.36718433  0.14229021  1.0
  Zn  Zn722  1  0.07491067  0.70051767  0.14229021  1.0
  Zn  Zn723  1  0.40824400  0.03385100  0.14229021  1.0
  Zn  Zn724  1  0.40824400  0.36718433  0.14229021  1.0
  Zn  Zn725  1  0.40824400  0.70051767  0.14229021  1.0
  Zn  Zn726  1  0.74157733  0.03385100  0.14229021  1.0
  Zn  Zn727  1  0.74157733  0.36718433  0.14229021  1.0
  Zn  Zn728  1  0.74157733  0.70051767  0.14229021  1.0
  Zn  Zn729  1  0.22718833  0.15605000  0.07439221  1.0
  Zn  Zn730  1  0.22718833  0.48938333  0.07439221  1.0
  Zn  Zn731  1  0.22718833  0.82271667  0.07439221  1.0
  Zn  Zn732  1  0.56052167  0.15605000  0.07439221  1.0
  Zn  Zn733  1  0.56052167  0.48938333  0.07439221  1.0
  Zn  Zn734  1  0.56052167  0.82271667  0.07439221  1.0
  Zn  Zn735  1  0.89385500  0.15605000  0.07439221  1.0
  Zn  Zn736  1  0.89385500  0.48938333  0.07439221  1.0
  Zn  Zn737  1  0.89385500  0.82271667  0.07439221  1.0
  Zn  Zn738  1  0.15518233  0.30786800  0.10945079  1.0
  Zn  Zn739  1  0.15518233  0.64120133  0.10945079  1.0
  Zn  Zn740  1  0.15518233  0.97453467  0.10945079  1.0
  Zn  Zn741  1  0.48851567  0.30786800  0.10945079  1.0
  Zn  Zn742  1  0.48851567  0.64120133  0.10945079  1.0
  Zn  Zn743  1  0.48851567  0.97453467  0.10945079  1.0
  Zn  Zn744  1  0.82184900  0.30786800  0.10945079  1.0
  Zn  Zn745  1  0.82184900  0.64120133  0.10945079  1.0
  Zn  Zn746  1  0.82184900  0.97453467  0.10945079  1.0
  Zn  Zn747  1  0.02307167  0.09727200  0.05031493  1.0
  Zn  Zn748  1  0.02307167  0.43060533  0.05031493  1.0
  Zn  Zn749  1  0.02307167  0.76393867  0.05031493  1.0
  Zn  Zn750  1  0.35640500  0.09727200  0.05031493  1.0
  Zn  Zn751  1  0.35640500  0.43060533  0.05031493  1.0
  Zn  Zn752  1  0.35640500  0.76393867  0.05031493  1.0
  Zn  Zn753  1  0.68973833  0.09727200  0.05031493  1.0
  Zn  Zn754  1  0.68973833  0.43060533  0.05031493  1.0
  Zn  Zn755  1  0.68973833  0.76393867  0.05031493  1.0
  Zn  Zn756  1  0.26842067  0.17447900  0.03908750  1.0
  Zn  Zn757  1  0.26842067  0.50781233  0.03908750  1.0
  Zn  Zn758  1  0.26842067  0.84114567  0.03908750  1.0
  Zn  Zn759  1  0.60175400  0.17447900  0.03908750  1.0
  Zn  Zn760  1  0.60175400  0.50781233  0.03908750  1.0
  Zn  Zn761  1  0.60175400  0.84114567  0.03908750  1.0
  Zn  Zn762  1  0.93508733  0.17447900  0.03908750  1.0
  Zn  Zn763  1  0.93508733  0.50781233  0.03908750  1.0
  Zn  Zn764  1  0.93508733  0.84114567  0.03908750  1.0
  Zn  Zn765  1  0.20485267  0.19724567  0.09299579  1.0
  Zn  Zn766  1  0.20485267  0.53057900  0.09299579  1.0
  Zn  Zn767  1  0.20485267  0.86391233  0.09299579  1.0
  Zn  Zn768  1  0.53818600  0.19724567  0.09299579  1.0
  Zn  Zn769  1  0.53818600  0.53057900  0.09299579  1.0
  Zn  Zn770  1  0.53818600  0.86391233  0.09299579  1.0
  Zn  Zn771  1  0.87151933  0.19724567  0.09299579  1.0
  Zn  Zn772  1  0.87151933  0.53057900  0.09299579  1.0
  Zn  Zn773  1  0.87151933  0.86391233  0.09299579  1.0
  Zn  Zn774  1  0.10387100  0.05133700  0.09934093  1.0
  Zn  Zn775  1  0.10387100  0.38467033  0.09934093  1.0
  Zn  Zn776  1  0.10387100  0.71800367  0.09934093  1.0
  Zn  Zn777  1  0.43720433  0.05133700  0.09934093  1.0
  Zn  Zn778  1  0.43720433  0.38467033  0.09934093  1.0
  Zn  Zn779  1  0.43720433  0.71800367  0.09934093  1.0
  Zn  Zn780  1  0.77053767  0.05133700  0.09934093  1.0
  Zn  Zn781  1  0.77053767  0.38467033  0.09934093  1.0
  Zn  Zn782  1  0.77053767  0.71800367  0.09934093  1.0
  Zn  Zn783  1  0.28836167  0.19724567  0.09299579  1.0
  Zn  Zn784  1  0.28836167  0.53057900  0.09299579  1.0
  Zn  Zn785  1  0.28836167  0.86391233  0.09299579  1.0
  Zn  Zn786  1  0.62169500  0.19724567  0.09299579  1.0
  Zn  Zn787  1  0.62169500  0.53057900  0.09299579  1.0
  Zn  Zn788  1  0.62169500  0.86391233  0.09299579  1.0
  Zn  Zn789  1  0.95502833  0.19724567  0.09299579  1.0
  Zn  Zn790  1  0.95502833  0.53057900  0.09299579  1.0
  Zn  Zn791  1  0.95502833  0.86391233  0.09299579  1.0
  Zn  Zn792  1  0.13834233  0.01061667  0.09259221  1.0
  Zn  Zn793  1  0.13834233  0.34395000  0.09259221  1.0
  Zn  Zn794  1  0.13834233  0.67728333  0.09259221  1.0
  Zn  Zn795  1  0.47167567  0.01061667  0.09259221  1.0
  Zn  Zn796  1  0.47167567  0.34395000  0.09259221  1.0
  Zn  Zn797  1  0.47167567  0.67728333  0.09259221  1.0
  Zn  Zn798  1  0.80500900  0.01061667  0.09259221  1.0
  Zn  Zn799  1  0.80500900  0.34395000  0.09259221  1.0
  Zn  Zn800  1  0.80500900  0.67728333  0.09259221  1.0
  Zn  Zn801  1  0.17510333  0.20456533  0.03798079  1.0
  Zn  Zn802  1  0.17510333  0.53789867  0.03798079  1.0
  Zn  Zn803  1  0.17510333  0.87123200  0.03798079  1.0
  Zn  Zn804  1  0.50843667  0.20456533  0.03798079  1.0
  Zn  Zn805  1  0.50843667  0.53789867  0.03798079  1.0
  Zn  Zn806  1  0.50843667  0.87123200  0.03798079  1.0
  Zn  Zn807  1  0.84177000  0.20456533  0.03798079  1.0
  Zn  Zn808  1  0.84177000  0.53789867  0.03798079  1.0
  Zn  Zn809  1  0.84177000  0.87123200  0.03798079  1.0
  Zn  Zn810  1  0.16666667  0.00000000  0.14112193  1.0
  Zn  Zn811  1  0.16666667  0.33333333  0.14112193  1.0
  Zn  Zn812  1  0.16666667  0.66666667  0.14112193  1.0
  Zn  Zn813  1  0.50000000  0.00000000  0.14112193  1.0
  Zn  Zn814  1  0.50000000  0.33333333  0.14112193  1.0
  Zn  Zn815  1  0.50000000  0.66666667  0.14112193  1.0
  Zn  Zn816  1  0.83333333  0.00000000  0.14112193  1.0
  Zn  Zn817  1  0.83333333  0.33333333  0.14112193  1.0
  Zn  Zn818  1  0.83333333  0.66666667  0.14112193  1.0
  Zn  Zn819  1  0.30037933  0.07323933  0.14128779  1.0
  Zn  Zn820  1  0.30037933  0.40657267  0.14128779  1.0
  Zn  Zn821  1  0.30037933  0.73990600  0.14128779  1.0
  Zn  Zn822  1  0.63371267  0.07323933  0.14128779  1.0
  Zn  Zn823  1  0.63371267  0.40657267  0.14128779  1.0
  Zn  Zn824  1  0.63371267  0.73990600  0.14128779  1.0
  Zn  Zn825  1  0.96704600  0.07323933  0.14128779  1.0
  Zn  Zn826  1  0.96704600  0.40657267  0.14128779  1.0
  Zn  Zn827  1  0.96704600  0.73990600  0.14128779  1.0
  Zn  Zn828  1  0.11313767  0.26009400  0.14095607  1.0
  Zn  Zn829  1  0.11313767  0.59342733  0.14095607  1.0
  Zn  Zn830  1  0.11313767  0.92676067  0.14095607  1.0
  Zn  Zn831  1  0.44647100  0.26009400  0.14095607  1.0
  Zn  Zn832  1  0.44647100  0.59342733  0.14095607  1.0
  Zn  Zn833  1  0.44647100  0.92676067  0.14095607  1.0
  Zn  Zn834  1  0.77980433  0.26009400  0.14095607  1.0
  Zn  Zn835  1  0.77980433  0.59342733  0.14095607  1.0
  Zn  Zn836  1  0.77980433  0.92676067  0.14095607  1.0
  Zn  Zn837  1  0.30543267  0.02859467  0.04973736  1.0
  Zn  Zn838  1  0.30543267  0.36192800  0.04973736  1.0
  Zn  Zn839  1  0.30543267  0.69526133  0.04973736  1.0
  Zn  Zn840  1  0.63876600  0.02859467  0.04973736  1.0
  Zn  Zn841  1  0.63876600  0.36192800  0.04973736  1.0
  Zn  Zn842  1  0.63876600  0.69526133  0.04973736  1.0
  Zn  Zn843  1  0.97209933  0.02859467  0.04973736  1.0
  Zn  Zn844  1  0.97209933  0.36192800  0.04973736  1.0
  Zn  Zn845  1  0.97209933  0.69526133  0.04973736  1.0
  Zn  Zn846  1  0.29514733  0.03057900  0.09881207  1.0
  Zn  Zn847  1  0.29514733  0.36391233  0.09881207  1.0
  Zn  Zn848  1  0.29514733  0.69724567  0.09881207  1.0
  Zn  Zn849  1  0.62848067  0.03057900  0.09881207  1.0
  Zn  Zn850  1  0.62848067  0.36391233  0.09881207  1.0
  Zn  Zn851  1  0.62848067  0.69724567  0.09881207  1.0
  Zn  Zn852  1  0.96181400  0.03057900  0.09881207  1.0
  Zn  Zn853  1  0.96181400  0.36391233  0.09881207  1.0
  Zn  Zn854  1  0.96181400  0.69724567  0.09881207  1.0
  Zn  Zn855  1  0.13785733  0.09238600  0.10296679  1.0
  Zn  Zn856  1  0.13785733  0.42571933  0.10296679  1.0
  Zn  Zn857  1  0.13785733  0.75905267  0.10296679  1.0
  Zn  Zn858  1  0.47119067  0.09238600  0.10296679  1.0
  Zn  Zn859  1  0.47119067  0.42571933  0.10296679  1.0
  Zn  Zn860  1  0.47119067  0.75905267  0.10296679  1.0
  Zn  Zn861  1  0.80452400  0.09238600  0.10296679  1.0
  Zn  Zn862  1  0.80452400  0.42571933  0.10296679  1.0
  Zn  Zn863  1  0.80452400  0.75905267  0.10296679  1.0
  Zn  Zn864  1  0.15823000  0.12876800  0.10140593  1.0
  Zn  Zn865  1  0.15823000  0.46210133  0.10140593  1.0
  Zn  Zn866  1  0.15823000  0.79543467  0.10140593  1.0
  Zn  Zn867  1  0.49156333  0.12876800  0.10140593  1.0
  Zn  Zn868  1  0.49156333  0.46210133  0.10140593  1.0
  Zn  Zn869  1  0.49156333  0.79543467  0.10140593  1.0
  Zn  Zn870  1  0.82489667  0.12876800  0.10140593  1.0
  Zn  Zn871  1  0.82489667  0.46210133  0.10140593  1.0
  Zn  Zn872  1  0.82489667  0.79543467  0.10140593  1.0
  Zn  Zn873  1  0.27095767  0.05244800  0.07965093  1.0
  Zn  Zn874  1  0.27095767  0.38578133  0.07965093  1.0
  Zn  Zn875  1  0.27095767  0.71911467  0.07965093  1.0
  Zn  Zn876  1  0.60429100  0.05244800  0.07965093  1.0
  Zn  Zn877  1  0.60429100  0.38578133  0.07965093  1.0
  Zn  Zn878  1  0.60429100  0.71911467  0.07965093  1.0
  Zn  Zn879  1  0.93762433  0.05244800  0.07965093  1.0
  Zn  Zn880  1  0.93762433  0.38578133  0.07965093  1.0
  Zn  Zn881  1  0.93762433  0.71911467  0.07965093  1.0
  Zn  Zn882  1  0.27281167  0.32271667  0.04679450  1.0
  Zn  Zn883  1  0.27281167  0.65605000  0.04679450  1.0
  Zn  Zn884  1  0.27281167  0.98938333  0.04679450  1.0
  Zn  Zn885  1  0.60614500  0.32271667  0.04679450  1.0
  Zn  Zn886  1  0.60614500  0.65605000  0.04679450  1.0
  Zn  Zn887  1  0.60614500  0.98938333  0.04679450  1.0
  Zn  Zn888  1  0.93947833  0.32271667  0.04679450  1.0
  Zn  Zn889  1  0.93947833  0.65605000  0.04679450  1.0
  Zn  Zn890  1  0.93947833  0.98938333  0.04679450  1.0
  Zn  Zn891  1  0.24251933  0.30473867  0.08964936  1.0
  Zn  Zn892  1  0.24251933  0.63807200  0.08964936  1.0
  Zn  Zn893  1  0.24251933  0.97140533  0.08964936  1.0
  Zn  Zn894  1  0.57585267  0.30473867  0.08964936  1.0
  Zn  Zn895  1  0.57585267  0.63807200  0.08964936  1.0
  Zn  Zn896  1  0.57585267  0.97140533  0.08964936  1.0
  Zn  Zn897  1  0.90918600  0.30473867  0.08964936  1.0
  Zn  Zn898  1  0.90918600  0.63807200  0.08964936  1.0
  Zn  Zn899  1  0.90918600  0.97140533  0.08964936  1.0
  Zn  Zn900  1  0.27980433  0.23990600  0.12365207  1.0
  Zn  Zn901  1  0.27980433  0.57323933  0.12365207  1.0
  Zn  Zn902  1  0.27980433  0.90657267  0.12365207  1.0
  Zn  Zn903  1  0.61313767  0.23990600  0.12365207  1.0
  Zn  Zn904  1  0.61313767  0.57323933  0.12365207  1.0
  Zn  Zn905  1  0.61313767  0.90657267  0.12365207  1.0
  Zn  Zn906  1  0.94647100  0.23990600  0.12365207  1.0
  Zn  Zn907  1  0.94647100  0.57323933  0.12365207  1.0
  Zn  Zn908  1  0.94647100  0.90657267  0.12365207  1.0
  Zn  Zn909  1  0.13876600  0.13807200  0.00071793  1.0
  Zn  Zn910  1  0.13876600  0.47140533  0.00071793  1.0
  Zn  Zn911  1  0.13876600  0.80473867  0.00071793  1.0
  Zn  Zn912  1  0.47209933  0.13807200  0.00071793  1.0
  Zn  Zn913  1  0.47209933  0.47140533  0.00071793  1.0
  Zn  Zn914  1  0.47209933  0.80473867  0.00071793  1.0
  Zn  Zn915  1  0.80543267  0.13807200  0.00071793  1.0
  Zn  Zn916  1  0.80543267  0.47140533  0.00071793  1.0
  Zn  Zn917  1  0.80543267  0.80473867  0.00071793  1.0
  Zn  Zn918  1  0.06491267  0.15885433  0.10029921  1.0
  Zn  Zn919  1  0.06491267  0.49218767  0.10029921  1.0
  Zn  Zn920  1  0.06491267  0.82552100  0.10029921  1.0
  Zn  Zn921  1  0.39824600  0.15885433  0.10029921  1.0
  Zn  Zn922  1  0.39824600  0.49218767  0.10029921  1.0
  Zn  Zn923  1  0.39824600  0.82552100  0.10029921  1.0
  Zn  Zn924  1  0.73157933  0.15885433  0.10029921  1.0
  Zn  Zn925  1  0.73157933  0.49218767  0.10029921  1.0
  Zn  Zn926  1  0.73157933  0.82552100  0.10029921  1.0
  Zn  Zn927  1  0.10175400  0.32552100  0.02569493  1.0
  Zn  Zn928  1  0.10175400  0.65885433  0.02569493  1.0
  Zn  Zn929  1  0.10175400  0.99218767  0.02569493  1.0
  Zn  Zn930  1  0.43508733  0.32552100  0.02569493  1.0
  Zn  Zn931  1  0.43508733  0.65885433  0.02569493  1.0
  Zn  Zn932  1  0.43508733  0.99218767  0.02569493  1.0
  Zn  Zn933  1  0.76842067  0.32552100  0.02569493  1.0
  Zn  Zn934  1  0.76842067  0.65885433  0.02569493  1.0
  Zn  Zn935  1  0.76842067  0.99218767  0.02569493  1.0
  Zn  Zn936  1  0.24157733  0.13281567  0.08425993  1.0
  Zn  Zn937  1  0.24157733  0.46614900  0.08425993  1.0
  Zn  Zn938  1  0.24157733  0.79948233  0.08425993  1.0
  Zn  Zn939  1  0.57491067  0.13281567  0.08425993  1.0
  Zn  Zn940  1  0.57491067  0.46614900  0.08425993  1.0
  Zn  Zn941  1  0.57491067  0.79948233  0.08425993  1.0
  Zn  Zn942  1  0.90824400  0.13281567  0.08425993  1.0
  Zn  Zn943  1  0.90824400  0.46614900  0.08425993  1.0
  Zn  Zn944  1  0.90824400  0.79948233  0.08425993  1.0
  Zn  Zn945  1  0.27053767  0.11532967  0.01133464  1.0
  Zn  Zn946  1  0.27053767  0.44866300  0.01133464  1.0
  Zn  Zn947  1  0.27053767  0.78199633  0.01133464  1.0
  Zn  Zn948  1  0.60387100  0.11532967  0.01133464  1.0
  Zn  Zn949  1  0.60387100  0.44866300  0.01133464  1.0
  Zn  Zn950  1  0.60387100  0.78199633  0.01133464  1.0
  Zn  Zn951  1  0.93720433  0.11532967  0.01133464  1.0
  Zn  Zn952  1  0.93720433  0.44866300  0.01133464  1.0
  Zn  Zn953  1  0.93720433  0.78199633  0.01133464  1.0
  Ni  Ni954  1  0.24806100  0.26047433  0.00558079  1.0
  Ni  Ni955  1  0.24806100  0.59380767  0.00558079  1.0
  Ni  Ni956  1  0.24806100  0.92714100  0.00558079  1.0
  Ni  Ni957  1  0.58139433  0.26047433  0.00558079  1.0
  Ni  Ni958  1  0.58139433  0.59380767  0.00558079  1.0
  Ni  Ni959  1  0.58139433  0.92714100  0.00558079  1.0
  Ni  Ni960  1  0.91472767  0.26047433  0.00558079  1.0
  Ni  Ni961  1  0.91472767  0.59380767  0.00558079  1.0
  Ni  Ni962  1  0.91472767  0.92714100  0.00558079  1.0
  Ni  Ni963  1  0.24449067  0.05206367  0.10959707  1.0
  Ni  Ni964  1  0.24449067  0.38539700  0.10959707  1.0
  Ni  Ni965  1  0.24449067  0.71873033  0.10959707  1.0
  Ni  Ni966  1  0.57782400  0.05206367  0.10959707  1.0
  Ni  Ni967  1  0.57782400  0.38539700  0.10959707  1.0
  Ni  Ni968  1  0.57782400  0.71873033  0.10959707  1.0
  Ni  Ni969  1  0.91115733  0.05206367  0.10959707  1.0
  Ni  Ni970  1  0.91115733  0.38539700  0.10959707  1.0
  Ni  Ni971  1  0.91115733  0.71873033  0.10959707  1.0
  Ni  Ni972  1  0.19715600  0.32174400  0.10725507  1.0
  Ni  Ni973  1  0.19715600  0.65507733  0.10725507  1.0
  Ni  Ni974  1  0.19715600  0.98841067  0.10725507  1.0
  Ni  Ni975  1  0.53048933  0.32174400  0.10725507  1.0
  Ni  Ni976  1  0.53048933  0.65507733  0.10725507  1.0
  Ni  Ni977  1  0.53048933  0.98841067  0.10725507  1.0
  Ni  Ni978  1  0.86382267  0.32174400  0.10725507  1.0
  Ni  Ni979  1  0.86382267  0.65507733  0.10725507  1.0
  Ni  Ni980  1  0.86382267  0.98841067  0.10725507  1.0
  Ni  Ni981  1  0.25611133  0.01011367  0.08360050  1.0
  Ni  Ni982  1  0.25611133  0.34344700  0.08360050  1.0
  Ni  Ni983  1  0.25611133  0.67678033  0.08360050  1.0
  Ni  Ni984  1  0.58944467  0.01011367  0.08360050  1.0
  Ni  Ni985  1  0.58944467  0.34344700  0.08360050  1.0
  Ni  Ni986  1  0.58944467  0.67678033  0.08360050  1.0
  Ni  Ni987  1  0.92277800  0.01011367  0.08360050  1.0
  Ni  Ni988  1  0.92277800  0.34344700  0.08360050  1.0
  Ni  Ni989  1  0.92277800  0.67678033  0.08360050  1.0
  Ni  Ni990  1  0.08033333  0.32174400  0.10725507  1.0
  Ni  Ni991  1  0.08033333  0.65507733  0.10725507  1.0
  Ni  Ni992  1  0.08033333  0.98841067  0.10725507  1.0
  Ni  Ni993  1  0.41366667  0.32174400  0.10725507  1.0
  Ni  Ni994  1  0.41366667  0.65507733  0.10725507  1.0
  Ni  Ni995  1  0.41366667  0.98841067  0.10725507  1.0
  Ni  Ni996  1  0.74700000  0.32174400  0.10725507  1.0
  Ni  Ni997  1  0.74700000  0.65507733  0.10725507  1.0
  Ni  Ni998  1  0.74700000  0.98841067  0.10725507  1.0
  Ni  Ni999  1  0.08633333  0.15507733  0.01226421  1.0
  Ni  Ni1000  1  0.08633333  0.48841067  0.01226421  1.0
  Ni  Ni1001  1  0.08633333  0.82174400  0.01226421  1.0
  Ni  Ni1002  1  0.41966667  0.15507733  0.01226421  1.0
  Ni  Ni1003  1  0.41966667  0.48841067  0.01226421  1.0
  Ni  Ni1004  1  0.41966667  0.82174400  0.01226421  1.0
  Ni  Ni1005  1  0.75300000  0.15507733  0.01226421  1.0
  Ni  Ni1006  1  0.75300000  0.48841067  0.01226421  1.0
  Ni  Ni1007  1  0.75300000  0.82174400  0.01226421  1.0
  Ni  Ni1008  1  0.08463900  0.03079467  0.09720793  1.0
  Ni  Ni1009  1  0.08463900  0.36412800  0.09720793  1.0
  Ni  Ni1010  1  0.08463900  0.69746133  0.09720793  1.0
  Ni  Ni1011  1  0.41797233  0.03079467  0.09720793  1.0
  Ni  Ni1012  1  0.41797233  0.36412800  0.09720793  1.0
  Ni  Ni1013  1  0.41797233  0.69746133  0.09720793  1.0
  Ni  Ni1014  1  0.75130567  0.03079467  0.09720793  1.0
  Ni  Ni1015  1  0.75130567  0.36412800  0.09720793  1.0
  Ni  Ni1016  1  0.75130567  0.69746133  0.09720793  1.0
  Ni  Ni1017  1  0.08884267  0.28126967  0.02978964  1.0
  Ni  Ni1018  1  0.08884267  0.61460300  0.02978964  1.0
  Ni  Ni1019  1  0.08884267  0.94793633  0.02978964  1.0
  Ni  Ni1020  1  0.42217600  0.28126967  0.02978964  1.0
  Ni  Ni1021  1  0.42217600  0.61460300  0.02978964  1.0
  Ni  Ni1022  1  0.42217600  0.94793633  0.02978964  1.0
  Ni  Ni1023  1  0.75550933  0.28126967  0.02978964  1.0
  Ni  Ni1024  1  0.75550933  0.61460300  0.02978964  1.0
  Ni  Ni1025  1  0.75550933  0.94793633  0.02978964  1.0
  Ni  Ni1026  1  0.08944467  0.15655300  0.06626279  1.0
  Ni  Ni1027  1  0.08944467  0.48988633  0.06626279  1.0
  Ni  Ni1028  1  0.08944467  0.82321967  0.06626279  1.0
  Ni  Ni1029  1  0.42277800  0.15655300  0.06626279  1.0
  Ni  Ni1030  1  0.42277800  0.48988633  0.06626279  1.0
  Ni  Ni1031  1  0.42277800  0.82321967  0.06626279  1.0
  Ni  Ni1032  1  0.75611133  0.15655300  0.06626279  1.0
  Ni  Ni1033  1  0.75611133  0.48988633  0.06626279  1.0
  Ni  Ni1034  1  0.75611133  0.82321967  0.06626279  1.0
  Ni  Ni1035  1  0.08527233  0.07285900  0.13380593  1.0
  Ni  Ni1036  1  0.08527233  0.40619233  0.13380593  1.0
  Ni  Ni1037  1  0.08527233  0.73952567  0.13380593  1.0
  Ni  Ni1038  1  0.41860567  0.07285900  0.13380593  1.0
  Ni  Ni1039  1  0.41860567  0.40619233  0.13380593  1.0
  Ni  Ni1040  1  0.41860567  0.73952567  0.13380593  1.0
  Ni  Ni1041  1  0.75193900  0.07285900  0.13380593  1.0
  Ni  Ni1042  1  0.75193900  0.40619233  0.13380593  1.0
  Ni  Ni1043  1  0.75193900  0.73952567  0.13380593  1.0
  Ni  Ni1044  1  0.07722200  0.32321967  0.05578621  1.0
  Ni  Ni1045  1  0.07722200  0.65655300  0.05578621  1.0
  Ni  Ni1046  1  0.07722200  0.98988633  0.05578621  1.0
  Ni  Ni1047  1  0.41055533  0.32321967  0.05578621  1.0
  Ni  Ni1048  1  0.41055533  0.65655300  0.05578621  1.0
  Ni  Ni1049  1  0.41055533  0.98988633  0.05578621  1.0
  Ni  Ni1050  1  0.74388867  0.32321967  0.05578621  1.0
  Ni  Ni1051  1  0.74388867  0.65655300  0.05578621  1.0
  Ni  Ni1052  1  0.74388867  0.98988633  0.05578621  1.0
  Ni  Ni1053  1  0.03165333  0.05156100  0.01907636  1.0
  Ni  Ni1054  1  0.03165333  0.38489433  0.01907636  1.0
  Ni  Ni1055  1  0.03165333  0.71822767  0.01907636  1.0
  Ni  Ni1056  1  0.36498667  0.05156100  0.01907636  1.0
  Ni  Ni1057  1  0.36498667  0.38489433  0.01907636  1.0
  Ni  Ni1058  1  0.36498667  0.71822767  0.01907636  1.0
  Ni  Ni1059  1  0.69832000  0.05156100  0.01907636  1.0
  Ni  Ni1060  1  0.69832000  0.38489433  0.01907636  1.0
  Ni  Ni1061  1  0.69832000  0.71822767  0.01907636  1.0
  Ni  Ni1062  1  0.25550933  0.21873033  0.11904164  1.0
  Ni  Ni1063  1  0.25550933  0.55206367  0.11904164  1.0
  Ni  Ni1064  1  0.25550933  0.88539700  0.11904164  1.0
  Ni  Ni1065  1  0.58884267  0.21873033  0.11904164  1.0
  Ni  Ni1066  1  0.58884267  0.55206367  0.11904164  1.0
  Ni  Ni1067  1  0.58884267  0.88539700  0.11904164  1.0
  Ni  Ni1068  1  0.92217600  0.21873033  0.11904164  1.0
  Ni  Ni1069  1  0.92217600  0.55206367  0.11904164  1.0
  Ni  Ni1070  1  0.92217600  0.88539700  0.11904164  1.0
  Ni  Ni1071  1  0.08621500  0.28177233  0.12031036  1.0
  Ni  Ni1072  1  0.08621500  0.61510567  0.12031036  1.0
  Ni  Ni1073  1  0.08621500  0.94843900  0.12031036  1.0
  Ni  Ni1074  1  0.41954833  0.28177233  0.12031036  1.0
  Ni  Ni1075  1  0.41954833  0.61510567  0.12031036  1.0
  Ni  Ni1076  1  0.41954833  0.94843900  0.12031036  1.0
  Ni  Ni1077  1  0.75288167  0.28177233  0.12031036  1.0
  Ni  Ni1078  1  0.75288167  0.61510567  0.12031036  1.0
  Ni  Ni1079  1  0.75288167  0.94843900  0.12031036  1.0
  Ni  Ni1080  1  0.08139433  0.23952567  0.13048193  1.0
  Ni  Ni1081  1  0.08139433  0.57285900  0.13048193  1.0
  Ni  Ni1082  1  0.08139433  0.90619233  0.13048193  1.0
  Ni  Ni1083  1  0.41472767  0.23952567  0.13048193  1.0
  Ni  Ni1084  1  0.41472767  0.57285900  0.13048193  1.0
  Ni  Ni1085  1  0.41472767  0.90619233  0.13048193  1.0
  Ni  Ni1086  1  0.74806100  0.23952567  0.13048193  1.0
  Ni  Ni1087  1  0.74806100  0.57285900  0.13048193  1.0
  Ni  Ni1088  1  0.74806100  0.90619233  0.13048193  1.0
  Ni  Ni1089  1  0.24711833  0.05156100  0.01907636  1.0
  Ni  Ni1090  1  0.24711833  0.38489433  0.01907636  1.0
  Ni  Ni1091  1  0.24711833  0.71822767  0.01907636  1.0
  Ni  Ni1092  1  0.58045167  0.05156100  0.01907636  1.0
  Ni  Ni1093  1  0.58045167  0.38489433  0.01907636  1.0
  Ni  Ni1094  1  0.58045167  0.71822767  0.01907636  1.0
  Ni  Ni1095  1  0.91378500  0.05156100  0.01907636  1.0
  Ni  Ni1096  1  0.91378500  0.38489433  0.01907636  1.0
  Ni  Ni1097  1  0.91378500  0.71822767  0.01907636  1.0
  Ni  Ni1098  1  0.13501333  0.21822767  0.06584350  1.0
  Ni  Ni1099  1  0.13501333  0.55156100  0.06584350  1.0
  Ni  Ni1100  1  0.13501333  0.88489433  0.06584350  1.0
  Ni  Ni1101  1  0.46834667  0.21822767  0.06584350  1.0
  Ni  Ni1102  1  0.46834667  0.55156100  0.06584350  1.0
  Ni  Ni1103  1  0.46834667  0.88489433  0.06584350  1.0
  Ni  Ni1104  1  0.80168000  0.21822767  0.06584350  1.0
  Ni  Ni1105  1  0.80168000  0.55156100  0.06584350  1.0
  Ni  Ni1106  1  0.80168000  0.88489433  0.06584350  1.0
  Ni  Ni1107  1  0.24388867  0.17678033  0.07312393  1.0
  Ni  Ni1108  1  0.24388867  0.51011367  0.07312393  1.0
  Ni  Ni1109  1  0.24388867  0.84344700  0.07312393  1.0
  Ni  Ni1110  1  0.57722200  0.17678033  0.07312393  1.0
  Ni  Ni1111  1  0.57722200  0.51011367  0.07312393  1.0
  Ni  Ni1112  1  0.57722200  0.84344700  0.07312393  1.0
  Ni  Ni1113  1  0.91055533  0.17678033  0.07312393  1.0
  Ni  Ni1114  1  0.91055533  0.51011367  0.07312393  1.0
  Ni  Ni1115  1  0.91055533  0.84344700  0.07312393  1.0
  Ni  Ni1116  1  0.30284400  0.15507733  0.01226421  1.0
  Ni  Ni1117  1  0.30284400  0.48841067  0.01226421  1.0
  Ni  Ni1118  1  0.30284400  0.82174400  0.01226421  1.0
  Ni  Ni1119  1  0.63617733  0.15507733  0.01226421  1.0
  Ni  Ni1120  1  0.63617733  0.48841067  0.01226421  1.0
  Ni  Ni1121  1  0.63617733  0.82174400  0.01226421  1.0
  Ni  Ni1122  1  0.96951067  0.15507733  0.01226421  1.0
  Ni  Ni1123  1  0.96951067  0.48841067  0.01226421  1.0
  Ni  Ni1124  1  0.96951067  0.82174400  0.01226421  1.0
  Ni  Ni1125  1  0.25288167  0.21822767  0.06584350  1.0
  Ni  Ni1126  1  0.25288167  0.55156100  0.06584350  1.0
  Ni  Ni1127  1  0.25288167  0.88489433  0.06584350  1.0
  Ni  Ni1128  1  0.58621500  0.21822767  0.06584350  1.0
  Ni  Ni1129  1  0.58621500  0.55156100  0.06584350  1.0
  Ni  Ni1130  1  0.58621500  0.88489433  0.06584350  1.0
  Ni  Ni1131  1  0.91954833  0.21822767  0.06584350  1.0
  Ni  Ni1132  1  0.91954833  0.55156100  0.06584350  1.0
  Ni  Ni1133  1  0.91954833  0.88489433  0.06584350  1.0
  Ni  Ni1134  1  0.24869433  0.30253867  0.04217879  1.0
  Ni  Ni1135  1  0.24869433  0.63587200  0.04217879  1.0
  Ni  Ni1136  1  0.24869433  0.96920533  0.04217879  1.0
  Ni  Ni1137  1  0.58202767  0.30253867  0.04217879  1.0
  Ni  Ni1138  1  0.58202767  0.63587200  0.04217879  1.0
  Ni  Ni1139  1  0.58202767  0.96920533  0.04217879  1.0
  Ni  Ni1140  1  0.91536100  0.30253867  0.04217879  1.0
  Ni  Ni1141  1  0.91536100  0.63587200  0.04217879  1.0
  Ni  Ni1142  1  0.91536100  0.96920533  0.04217879  1.0
  Ni  Ni1143  1  0.24700000  0.17825600  0.12712250  1.0
  Ni  Ni1144  1  0.24700000  0.51158933  0.12712250  1.0
  Ni  Ni1145  1  0.24700000  0.84492267  0.12712250  1.0
  Ni  Ni1146  1  0.58033333  0.17825600  0.12712250  1.0
  Ni  Ni1147  1  0.58033333  0.51158933  0.12712250  1.0
  Ni  Ni1148  1  0.58033333  0.84492267  0.12712250  1.0
  Ni  Ni1149  1  0.91366667  0.17825600  0.12712250  1.0
  Ni  Ni1150  1  0.91366667  0.51158933  0.12712250  1.0
  Ni  Ni1151  1  0.91366667  0.84492267  0.12712250  1.0
  Ni  Ni1152  1  0.30168000  0.28177233  0.12031036  1.0
  Ni  Ni1153  1  0.30168000  0.61510567  0.12031036  1.0
  Ni  Ni1154  1  0.30168000  0.94843900  0.12031036  1.0
  Ni  Ni1155  1  0.63501333  0.28177233  0.12031036  1.0
  Ni  Ni1156  1  0.63501333  0.61510567  0.12031036  1.0
  Ni  Ni1157  1  0.63501333  0.94843900  0.12031036  1.0
  Ni  Ni1158  1  0.96834667  0.28177233  0.12031036  1.0
  Ni  Ni1159  1  0.96834667  0.61510567  0.12031036  1.0
  Ni  Ni1160  1  0.96834667  0.94843900  0.12031036  1.0
  Ni  Ni1161  1  0.08202767  0.19746133  0.09496964  1.0
  Ni  Ni1162  1  0.08202767  0.53079467  0.09496964  1.0
  Ni  Ni1163  1  0.08202767  0.86412800  0.09496964  1.0
  Ni  Ni1164  1  0.41536100  0.19746133  0.09496964  1.0
  Ni  Ni1165  1  0.41536100  0.53079467  0.09496964  1.0
  Ni  Ni1166  1  0.41536100  0.86412800  0.09496964  1.0
  Ni  Ni1167  1  0.74869433  0.19746133  0.09496964  1.0
  Ni  Ni1168  1  0.74869433  0.53079467  0.09496964  1.0
  Ni  Ni1169  1  0.74869433  0.86412800  0.09496964  1.0
  Ni  Ni1170  1  0.08045167  0.11510567  0.07354321  1.0
  Ni  Ni1171  1  0.08045167  0.44843900  0.07354321  1.0
  Ni  Ni1172  1  0.08045167  0.78177233  0.07354321  1.0
  Ni  Ni1173  1  0.41378500  0.11510567  0.07354321  1.0
  Ni  Ni1174  1  0.41378500  0.44843900  0.07354321  1.0
  Ni  Ni1175  1  0.41378500  0.78177233  0.07354321  1.0
  Ni  Ni1176  1  0.74711833  0.11510567  0.07354321  1.0
  Ni  Ni1177  1  0.74711833  0.44843900  0.07354321  1.0
  Ni  Ni1178  1  0.74711833  0.78177233  0.07354321  1.0
  Ni  Ni1179  1  0.25300000  0.01158933  0.03213164  1.0
  Ni  Ni1180  1  0.25300000  0.34492267  0.03213164  1.0
  Ni  Ni1181  1  0.25300000  0.67825600  0.03213164  1.0
  Ni  Ni1182  1  0.58633333  0.01158933  0.03213164  1.0
  Ni  Ni1183  1  0.58633333  0.34492267  0.03213164  1.0
  Ni  Ni1184  1  0.58633333  0.67825600  0.03213164  1.0
  Ni  Ni1185  1  0.91966667  0.01158933  0.03213164  1.0
  Ni  Ni1186  1  0.91966667  0.34492267  0.03213164  1.0
  Ni  Ni1187  1  0.91966667  0.67825600  0.03213164  1.0
  Ni  Ni1188  1  0.25193900  0.09380767  0.00890479  1.0
  Ni  Ni1189  1  0.25193900  0.42714100  0.00890479  1.0
  Ni  Ni1190  1  0.25193900  0.76047433  0.00890479  1.0
  Ni  Ni1191  1  0.58527233  0.09380767  0.00890479  1.0
  Ni  Ni1192  1  0.58527233  0.42714100  0.00890479  1.0
  Ni  Ni1193  1  0.58527233  0.76047433  0.00890479  1.0
  Ni  Ni1194  1  0.91860567  0.09380767  0.00890479  1.0
  Ni  Ni1195  1  0.91860567  0.42714100  0.00890479  1.0
  Ni  Ni1196  1  0.91860567  0.76047433  0.00890479  1.0
  Ni  Ni1197  1  0.03048933  0.17825600  0.12712250  1.0
  Ni  Ni1198  1  0.03048933  0.51158933  0.12712250  1.0
  Ni  Ni1199  1  0.03048933  0.84492267  0.12712250  1.0
  Ni  Ni1200  1  0.36382267  0.17825600  0.12712250  1.0
  Ni  Ni1201  1  0.36382267  0.51158933  0.12712250  1.0
  Ni  Ni1202  1  0.36382267  0.84492267  0.12712250  1.0
  Ni  Ni1203  1  0.69715600  0.17825600  0.12712250  1.0
  Ni  Ni1204  1  0.69715600  0.51158933  0.12712250  1.0
  Ni  Ni1205  1  0.69715600  0.84492267  0.12712250  1.0
  Ni  Ni1206  1  0.07782400  0.11460300  0.02034507  1.0
  Ni  Ni1207  1  0.07782400  0.44793633  0.02034507  1.0
  Ni  Ni1208  1  0.07782400  0.78126967  0.02034507  1.0
  Ni  Ni1209  1  0.41115733  0.11460300  0.02034507  1.0
  Ni  Ni1210  1  0.41115733  0.44793633  0.02034507  1.0
  Ni  Ni1211  1  0.41115733  0.78126967  0.02034507  1.0
  Ni  Ni1212  1  0.74449067  0.11460300  0.02034507  1.0
  Ni  Ni1213  1  0.74449067  0.44793633  0.02034507  1.0
  Ni  Ni1214  1  0.74449067  0.78126967  0.02034507  1.0
  Ni  Ni1215  1  0.19832000  0.11510567  0.07354321  1.0
  Ni  Ni1216  1  0.19832000  0.44843900  0.07354321  1.0
  Ni  Ni1217  1  0.19832000  0.78177233  0.07354321  1.0
  Ni  Ni1218  1  0.53165333  0.11510567  0.07354321  1.0
  Ni  Ni1219  1  0.53165333  0.44843900  0.07354321  1.0
  Ni  Ni1220  1  0.53165333  0.78177233  0.07354321  1.0
  Ni  Ni1221  1  0.86498667  0.11510567  0.07354321  1.0
  Ni  Ni1222  1  0.86498667  0.44843900  0.07354321  1.0
  Ni  Ni1223  1  0.86498667  0.78177233  0.07354321  1.0
  Ni  Ni1224  1  0.25130567  0.13587200  0.04441707  1.0
  Ni  Ni1225  1  0.25130567  0.46920533  0.04441707  1.0
  Ni  Ni1226  1  0.25130567  0.80253867  0.04441707  1.0
  Ni  Ni1227  1  0.58463900  0.13587200  0.04441707  1.0
  Ni  Ni1228  1  0.58463900  0.46920533  0.04441707  1.0
  Ni  Ni1229  1  0.58463900  0.80253867  0.04441707  1.0
  Ni  Ni1230  1  0.91797233  0.13587200  0.04441707  1.0
  Ni  Ni1231  1  0.91797233  0.46920533  0.04441707  1.0
  Ni  Ni1232  1  0.91797233  0.80253867  0.04441707  1.0
  Ni  Ni1233  1  0.13617733  0.01158933  0.03213164  1.0
  Ni  Ni1234  1  0.13617733  0.34492267  0.03213164  1.0
  Ni  Ni1235  1  0.13617733  0.67825600  0.03213164  1.0
  Ni  Ni1236  1  0.46951067  0.01158933  0.03213164  1.0
  Ni  Ni1237  1  0.46951067  0.34492267  0.03213164  1.0
  Ni  Ni1238  1  0.46951067  0.67825600  0.03213164  1.0
  Ni  Ni1239  1  0.80284400  0.01158933  0.03213164  1.0
  Ni  Ni1240  1  0.80284400  0.34492267  0.03213164  1.0
  Ni  Ni1241  1  0.80284400  0.67825600  0.03213164  1.0
  Zn  Zn1242  1  0.08834200  0.07428067  0.23030507  1.0
  Zn  Zn1243  1  0.08834200  0.40761400  0.23030507  1.0
  Zn  Zn1244  1  0.08834200  0.74094733  0.23030507  1.0
  Zn  Zn1245  1  0.42167533  0.07428067  0.23030507  1.0
  Zn  Zn1246  1  0.42167533  0.40761400  0.23030507  1.0
  Zn  Zn1247  1  0.42167533  0.74094733  0.23030507  1.0
  Zn  Zn1248  1  0.75500867  0.07428067  0.23030507  1.0
  Zn  Zn1249  1  0.75500867  0.40761400  0.23030507  1.0
  Zn  Zn1250  1  0.75500867  0.74094733  0.23030507  1.0
  Zn  Zn1251  1  0.30655333  0.20051767  0.19798393  1.0
  Zn  Zn1252  1  0.30655333  0.53385100  0.19798393  1.0
  Zn  Zn1253  1  0.30655333  0.86718433  0.19798393  1.0
  Zn  Zn1254  1  0.63988667  0.20051767  0.19798393  1.0
  Zn  Zn1255  1  0.63988667  0.53385100  0.19798393  1.0
  Zn  Zn1256  1  0.63988667  0.86718433  0.19798393  1.0
  Zn  Zn1257  1  0.97322000  0.20051767  0.19798393  1.0
  Zn  Zn1258  1  0.97322000  0.53385100  0.19798393  1.0
  Zn  Zn1259  1  0.97322000  0.86718433  0.19798393  1.0
  Zn  Zn1260  1  0.17815100  0.02546533  0.17279307  1.0
  Zn  Zn1261  1  0.17815100  0.35879867  0.17279307  1.0
  Zn  Zn1262  1  0.17815100  0.69213200  0.17279307  1.0
  Zn  Zn1263  1  0.51148433  0.02546533  0.17279307  1.0
  Zn  Zn1264  1  0.51148433  0.35879867  0.17279307  1.0
  Zn  Zn1265  1  0.51148433  0.69213200  0.17279307  1.0
  Zn  Zn1266  1  0.84481767  0.02546533  0.17279307  1.0
  Zn  Zn1267  1  0.84481767  0.35879867  0.17279307  1.0
  Zn  Zn1268  1  0.84481767  0.69213200  0.17279307  1.0
  Zn  Zn1269  1  0.32489667  0.03789867  0.16637507  1.0
  Zn  Zn1270  1  0.32489667  0.37123200  0.16637507  1.0
  Zn  Zn1271  1  0.32489667  0.70456533  0.16637507  1.0
  Zn  Zn1272  1  0.65823000  0.03789867  0.16637507  1.0
  Zn  Zn1273  1  0.65823000  0.37123200  0.16637507  1.0
  Zn  Zn1274  1  0.65823000  0.70456533  0.16637507  1.0
  Zn  Zn1275  1  0.99156333  0.03789867  0.16637507  1.0
  Zn  Zn1276  1  0.99156333  0.37123200  0.16637507  1.0
  Zn  Zn1277  1  0.99156333  0.70456533  0.16637507  1.0
  Zn  Zn1278  1  0.09616533  0.23606133  0.23192893  1.0
  Zn  Zn1279  1  0.09616533  0.56939467  0.23192893  1.0
  Zn  Zn1280  1  0.09616533  0.90272800  0.23192893  1.0
  Zn  Zn1281  1  0.42949867  0.23606133  0.23192893  1.0
  Zn  Zn1282  1  0.42949867  0.56939467  0.23192893  1.0
  Zn  Zn1283  1  0.42949867  0.90272800  0.23192893  1.0
  Zn  Zn1284  1  0.76283200  0.23606133  0.23192893  1.0
  Zn  Zn1285  1  0.76283200  0.56939467  0.23192893  1.0
  Zn  Zn1286  1  0.76283200  0.90272800  0.23192893  1.0
  Zn  Zn1287  1  0.31729733  0.11546267  0.22634479  1.0
  Zn  Zn1288  1  0.31729733  0.44879600  0.22634479  1.0
  Zn  Zn1289  1  0.31729733  0.78212933  0.22634479  1.0
  Zn  Zn1290  1  0.65063067  0.11546267  0.22634479  1.0
  Zn  Zn1291  1  0.65063067  0.44879600  0.22634479  1.0
  Zn  Zn1292  1  0.65063067  0.78212933  0.22634479  1.0
  Zn  Zn1293  1  0.98396400  0.11546267  0.22634479  1.0
  Zn  Zn1294  1  0.98396400  0.44879600  0.22634479  1.0
  Zn  Zn1295  1  0.98396400  0.78212933  0.22634479  1.0
  Zn  Zn1296  1  0.32019367  0.24271933  0.19504736  1.0
  Zn  Zn1297  1  0.32019367  0.57605267  0.19504736  1.0
  Zn  Zn1298  1  0.32019367  0.90938600  0.19504736  1.0
  Zn  Zn1299  1  0.65352700  0.24271933  0.19504736  1.0
  Zn  Zn1300  1  0.65352700  0.57605267  0.19504736  1.0
  Zn  Zn1301  1  0.65352700  0.90938600  0.19504736  1.0
  Zn  Zn1302  1  0.98686033  0.24271933  0.19504736  1.0
  Zn  Zn1303  1  0.98686033  0.57605267  0.19504736  1.0
  Zn  Zn1304  1  0.98686033  0.90938600  0.19504736  1.0
  Zn  Zn1305  1  0.18879233  0.15885433  0.24315636  1.0
  Zn  Zn1306  1  0.18879233  0.49218767  0.24315636  1.0
  Zn  Zn1307  1  0.18879233  0.82552100  0.24315636  1.0
  Zn  Zn1308  1  0.52212567  0.15885433  0.24315636  1.0
  Zn  Zn1309  1  0.52212567  0.49218767  0.24315636  1.0
  Zn  Zn1310  1  0.52212567  0.82552100  0.24315636  1.0
  Zn  Zn1311  1  0.85545900  0.15885433  0.24315636  1.0
  Zn  Zn1312  1  0.85545900  0.49218767  0.24315636  1.0
  Zn  Zn1313  1  0.85545900  0.82552100  0.24315636  1.0
  Zn  Zn1314  1  0.13371267  0.09342733  0.15859179  1.0
  Zn  Zn1315  1  0.13371267  0.42676067  0.15859179  1.0
  Zn  Zn1316  1  0.13371267  0.76009400  0.15859179  1.0
  Zn  Zn1317  1  0.46704600  0.09342733  0.15859179  1.0
  Zn  Zn1318  1  0.46704600  0.42676067  0.15859179  1.0
  Zn  Zn1319  1  0.46704600  0.76009400  0.15859179  1.0
  Zn  Zn1320  1  0.80037933  0.09342733  0.15859179  1.0
  Zn  Zn1321  1  0.80037933  0.42676067  0.15859179  1.0
  Zn  Zn1322  1  0.80037933  0.76009400  0.15859179  1.0
  Zn  Zn1323  1  0.06279567  0.21800367  0.27090921  1.0
  Zn  Zn1324  1  0.06279567  0.55133700  0.27090921  1.0
  Zn  Zn1325  1  0.06279567  0.88467033  0.27090921  1.0
  Zn  Zn1326  1  0.39612900  0.21800367  0.27090921  1.0
  Zn  Zn1327  1  0.39612900  0.55133700  0.27090921  1.0
  Zn  Zn1328  1  0.39612900  0.88467033  0.27090921  1.0
  Zn  Zn1329  1  0.72946233  0.21800367  0.27090921  1.0
  Zn  Zn1330  1  0.72946233  0.55133700  0.27090921  1.0
  Zn  Zn1331  1  0.72946233  0.88467033  0.27090921  1.0
  Zn  Zn1332  1  0.02790067  0.30473867  0.23250650  1.0
  Zn  Zn1333  1  0.02790067  0.63807200  0.23250650  1.0
  Zn  Zn1334  1  0.02790067  0.97140533  0.23250650  1.0
  Zn  Zn1335  1  0.36123400  0.30473867  0.23250650  1.0
  Zn  Zn1336  1  0.36123400  0.63807200  0.23250650  1.0
  Zn  Zn1337  1  0.36123400  0.97140533  0.23250650  1.0
  Zn  Zn1338  1  0.69456733  0.30473867  0.23250650  1.0
  Zn  Zn1339  1  0.69456733  0.63807200  0.23250650  1.0
  Zn  Zn1340  1  0.69456733  0.97140533  0.23250650  1.0
  Zn  Zn1341  1  0.23157933  0.00781233  0.25654893  1.0
  Zn  Zn1342  1  0.23157933  0.34114567  0.25654893  1.0
  Zn  Zn1343  1  0.23157933  0.67447900  0.25654893  1.0
  Zn  Zn1344  1  0.56491267  0.00781233  0.25654893  1.0
  Zn  Zn1345  1  0.56491267  0.34114567  0.25654893  1.0
  Zn  Zn1346  1  0.56491267  0.67447900  0.25654893  1.0
  Zn  Zn1347  1  0.89824600  0.00781233  0.25654893  1.0
  Zn  Zn1348  1  0.89824600  0.34114567  0.25654893  1.0
  Zn  Zn1349  1  0.89824600  0.67447900  0.25654893  1.0
  Zn  Zn1350  1  0.00000000  0.16666667  0.28397907  1.0
  Zn  Zn1351  1  0.00000000  0.50000000  0.28397907  1.0
  Zn  Zn1352  1  0.00000000  0.83333333  0.28397907  1.0
  Zn  Zn1353  1  0.33333333  0.16666667  0.28397907  1.0
  Zn  Zn1354  1  0.33333333  0.50000000  0.28397907  1.0
  Zn  Zn1355  1  0.33333333  0.83333333  0.28397907  1.0
  Zn  Zn1356  1  0.66666667  0.16666667  0.28397907  1.0
  Zn  Zn1357  1  0.66666667  0.50000000  0.28397907  1.0
  Zn  Zn1358  1  0.66666667  0.83333333  0.28397907  1.0
  Zn  Zn1359  1  0.14738067  0.05244800  0.22250807  1.0
  Zn  Zn1360  1  0.14738067  0.38578133  0.22250807  1.0
  Zn  Zn1361  1  0.14738067  0.71911467  0.22250807  1.0
  Zn  Zn1362  1  0.48071400  0.05244800  0.22250807  1.0
  Zn  Zn1363  1  0.48071400  0.38578133  0.22250807  1.0
  Zn  Zn1364  1  0.48071400  0.71911467  0.22250807  1.0
  Zn  Zn1365  1  0.81404733  0.05244800  0.22250807  1.0
  Zn  Zn1366  1  0.81404733  0.38578133  0.22250807  1.0
  Zn  Zn1367  1  0.81404733  0.71911467  0.22250807  1.0
  Zn  Zn1368  1  0.18973833  0.06939467  0.16927721  1.0
  Zn  Zn1369  1  0.18973833  0.40272800  0.16927721  1.0
  Zn  Zn1370  1  0.18973833  0.73606133  0.16927721  1.0
  Zn  Zn1371  1  0.52307167  0.06939467  0.16927721  1.0
  Zn  Zn1372  1  0.52307167  0.40272800  0.16927721  1.0
  Zn  Zn1373  1  0.52307167  0.73606133  0.16927721  1.0
  Zn  Zn1374  1  0.85640500  0.06939467  0.16927721  1.0
  Zn  Zn1375  1  0.85640500  0.40272800  0.16927721  1.0
  Zn  Zn1376  1  0.85640500  0.73606133  0.16927721  1.0
  Zn  Zn1377  1  0.21163833  0.03057900  0.24166921  1.0
  Zn  Zn1378  1  0.21163833  0.36391233  0.24166921  1.0
  Zn  Zn1379  1  0.21163833  0.69724567  0.24166921  1.0
  Zn  Zn1380  1  0.54497167  0.03057900  0.24166921  1.0
  Zn  Zn1381  1  0.54497167  0.36391233  0.24166921  1.0
  Zn  Zn1382  1  0.54497167  0.69724567  0.24166921  1.0
  Zn  Zn1383  1  0.87830500  0.03057900  0.24166921  1.0
  Zn  Zn1384  1  0.87830500  0.36391233  0.24166921  1.0
  Zn  Zn1385  1  0.87830500  0.69724567  0.24166921  1.0
  Zn  Zn1386  1  0.01148433  0.14120133  0.27199536  1.0
  Zn  Zn1387  1  0.01148433  0.47453467  0.27199536  1.0
  Zn  Zn1388  1  0.01148433  0.80786800  0.27199536  1.0
  Zn  Zn1389  1  0.34481767  0.14120133  0.27199536  1.0
  Zn  Zn1390  1  0.34481767  0.47453467  0.27199536  1.0
  Zn  Zn1391  1  0.34481767  0.80786800  0.27199536  1.0
  Zn  Zn1392  1  0.67815100  0.14120133  0.27199536  1.0
  Zn  Zn1393  1  0.67815100  0.47453467  0.27199536  1.0
  Zn  Zn1394  1  0.67815100  0.80786800  0.27199536  1.0
  Zn  Zn1395  1  0.19344667  0.03385100  0.28514736  1.0
  Zn  Zn1396  1  0.19344667  0.36718433  0.28514736  1.0
  Zn  Zn1397  1  0.19344667  0.70051767  0.28514736  1.0
  Zn  Zn1398  1  0.52678000  0.03385100  0.28514736  1.0
  Zn  Zn1399  1  0.52678000  0.36718433  0.28514736  1.0
  Zn  Zn1400  1  0.52678000  0.70051767  0.28514736  1.0
  Zn  Zn1401  1  0.86011333  0.03385100  0.28514736  1.0
  Zn  Zn1402  1  0.86011333  0.36718433  0.28514736  1.0
  Zn  Zn1403  1  0.86011333  0.70051767  0.28514736  1.0
  Zn  Zn1404  1  0.02880933  0.25905267  0.19479593  1.0
  Zn  Zn1405  1  0.02880933  0.59238600  0.19479593  1.0
  Zn  Zn1406  1  0.02880933  0.92571933  0.19479593  1.0
  Zn  Zn1407  1  0.36214267  0.25905267  0.19479593  1.0
  Zn  Zn1408  1  0.36214267  0.59238600  0.19479593  1.0
  Zn  Zn1409  1  0.36214267  0.92571933  0.19479593  1.0
  Zn  Zn1410  1  0.69547600  0.25905267  0.19479593  1.0
  Zn  Zn1411  1  0.69547600  0.59238600  0.19479593  1.0
  Zn  Zn1412  1  0.69547600  0.92571933  0.19479593  1.0
  Zn  Zn1413  1  0.09081400  0.02859467  0.19259450  1.0
  Zn  Zn1414  1  0.09081400  0.36192800  0.19259450  1.0
  Zn  Zn1415  1  0.09081400  0.69526133  0.19259450  1.0
  Zn  Zn1416  1  0.42414733  0.02859467  0.19259450  1.0
  Zn  Zn1417  1  0.42414733  0.36192800  0.19259450  1.0
  Zn  Zn1418  1  0.42414733  0.69526133  0.19259450  1.0
  Zn  Zn1419  1  0.75748067  0.02859467  0.19259450  1.0
  Zn  Zn1420  1  0.75748067  0.36192800  0.19259450  1.0
  Zn  Zn1421  1  0.75748067  0.69526133  0.19259450  1.0
  Zn  Zn1422  1  0.31120767  0.32552100  0.16855207  1.0
  Zn  Zn1423  1  0.31120767  0.65885433  0.16855207  1.0
  Zn  Zn1424  1  0.31120767  0.99218767  0.16855207  1.0
  Zn  Zn1425  1  0.64454100  0.32552100  0.16855207  1.0
  Zn  Zn1426  1  0.64454100  0.65885433  0.16855207  1.0
  Zn  Zn1427  1  0.64454100  0.99218767  0.16855207  1.0
  Zn  Zn1428  1  0.97787433  0.32552100  0.16855207  1.0
  Zn  Zn1429  1  0.97787433  0.65885433  0.16855207  1.0
  Zn  Zn1430  1  0.97787433  0.99218767  0.16855207  1.0
  Zn  Zn1431  1  0.14989367  0.17866400  0.27988564  1.0
  Zn  Zn1432  1  0.14989367  0.51199733  0.27988564  1.0
  Zn  Zn1433  1  0.14989367  0.84533067  0.27988564  1.0
  Zn  Zn1434  1  0.48322700  0.17866400  0.27988564  1.0
  Zn  Zn1435  1  0.48322700  0.51199733  0.27988564  1.0
  Zn  Zn1436  1  0.48322700  0.84533067  0.27988564  1.0
  Zn  Zn1437  1  0.81656033  0.17866400  0.27988564  1.0
  Zn  Zn1438  1  0.81656033  0.51199733  0.27988564  1.0
  Zn  Zn1439  1  0.81656033  0.84533067  0.27988564  1.0
  Zn  Zn1440  1  0.01603600  0.21787067  0.19875621  1.0
  Zn  Zn1441  1  0.01603600  0.55120400  0.19875621  1.0
  Zn  Zn1442  1  0.01603600  0.88453733  0.19875621  1.0
  Zn  Zn1443  1  0.34936933  0.21787067  0.19875621  1.0
  Zn  Zn1444  1  0.34936933  0.55120400  0.19875621  1.0
  Zn  Zn1445  1  0.34936933  0.88453733  0.19875621  1.0
  Zn  Zn1446  1  0.68270267  0.21787067  0.19875621  1.0
  Zn  Zn1447  1  0.68270267  0.55120400  0.19875621  1.0
  Zn  Zn1448  1  0.68270267  0.88453733  0.19875621  1.0
  Zn  Zn1449  1  0.25748067  0.13807200  0.14357507  1.0
  Zn  Zn1450  1  0.25748067  0.47140533  0.14357507  1.0
  Zn  Zn1451  1  0.25748067  0.80473867  0.14357507  1.0
  Zn  Zn1452  1  0.59081400  0.13807200  0.14357507  1.0
  Zn  Zn1453  1  0.59081400  0.47140533  0.14357507  1.0
  Zn  Zn1454  1  0.59081400  0.80473867  0.14357507  1.0
  Zn  Zn1455  1  0.92414733  0.13807200  0.14357507  1.0
  Zn  Zn1456  1  0.92414733  0.47140533  0.14357507  1.0
  Zn  Zn1457  1  0.92414733  0.80473867  0.14357507  1.0
  Zn  Zn1458  1  0.17980633  0.07605267  0.21757250  1.0
  Zn  Zn1459  1  0.17980633  0.40938600  0.21757250  1.0
  Zn  Zn1460  1  0.17980633  0.74271933  0.21757250  1.0
  Zn  Zn1461  1  0.51313967  0.07605267  0.21757250  1.0
  Zn  Zn1462  1  0.51313967  0.40938600  0.21757250  1.0
  Zn  Zn1463  1  0.51313967  0.74271933  0.21757250  1.0
  Zn  Zn1464  1  0.84647300  0.07605267  0.21757250  1.0
  Zn  Zn1465  1  0.84647300  0.40938600  0.21757250  1.0
  Zn  Zn1466  1  0.84647300  0.74271933  0.21757250  1.0
  Zn  Zn1467  1  0.25842267  0.29948233  0.28281079  1.0
  Zn  Zn1468  1  0.25842267  0.63281567  0.28281079  1.0
  Zn  Zn1469  1  0.25842267  0.96614900  0.28281079  1.0
  Zn  Zn1470  1  0.59175600  0.29948233  0.28281079  1.0
  Zn  Zn1471  1  0.59175600  0.63281567  0.28281079  1.0
  Zn  Zn1472  1  0.59175600  0.96614900  0.28281079  1.0
  Zn  Zn1473  1  0.92508933  0.29948233  0.28281079  1.0
  Zn  Zn1474  1  0.92508933  0.63281567  0.28281079  1.0
  Zn  Zn1475  1  0.92508933  0.96614900  0.28281079  1.0
  Zn  Zn1476  1  0.31026167  0.23606133  0.23192893  1.0
  Zn  Zn1477  1  0.31026167  0.56939467  0.23192893  1.0
  Zn  Zn1478  1  0.31026167  0.90272800  0.23192893  1.0
  Zn  Zn1479  1  0.64359500  0.23606133  0.23192893  1.0
  Zn  Zn1480  1  0.64359500  0.56939467  0.23192893  1.0
  Zn  Zn1481  1  0.64359500  0.90272800  0.23192893  1.0
  Zn  Zn1482  1  0.97692833  0.23606133  0.23192893  1.0
  Zn  Zn1483  1  0.97692833  0.56939467  0.23192893  1.0
  Zn  Zn1484  1  0.97692833  0.90272800  0.23192893  1.0
  Zn  Zn1485  1  0.31656033  0.32133600  0.25931879  1.0
  Zn  Zn1486  1  0.31656033  0.65466933  0.25931879  1.0
  Zn  Zn1487  1  0.31656033  0.98800267  0.25931879  1.0
  Zn  Zn1488  1  0.64989367  0.32133600  0.25931879  1.0
  Zn  Zn1489  1  0.64989367  0.65466933  0.25931879  1.0
  Zn  Zn1490  1  0.64989367  0.98800267  0.25931879  1.0
  Zn  Zn1491  1  0.98322700  0.32133600  0.25931879  1.0
  Zn  Zn1492  1  0.98322700  0.65466933  0.25931879  1.0
  Zn  Zn1493  1  0.98322700  0.98800267  0.25931879  1.0
  Zn  Zn1494  1  0.22019567  0.07323933  0.28414493  1.0
  Zn  Zn1495  1  0.22019567  0.40657267  0.28414493  1.0
  Zn  Zn1496  1  0.22019567  0.73990600  0.28414493  1.0
  Zn  Zn1497  1  0.55352900  0.07323933  0.28414493  1.0
  Zn  Zn1498  1  0.55352900  0.40657267  0.28414493  1.0
  Zn  Zn1499  1  0.55352900  0.73990600  0.28414493  1.0
  Zn  Zn1500  1  0.88686233  0.07323933  0.28414493  1.0
  Zn  Zn1501  1  0.88686233  0.40657267  0.28414493  1.0
  Zn  Zn1502  1  0.88686233  0.73990600  0.28414493  1.0
  Zn  Zn1503  1  0.06237567  0.28088533  0.20259293  1.0
  Zn  Zn1504  1  0.06237567  0.61421867  0.20259293  1.0
  Zn  Zn1505  1  0.06237567  0.94755200  0.20259293  1.0
  Zn  Zn1506  1  0.39570900  0.28088533  0.20259293  1.0
  Zn  Zn1507  1  0.39570900  0.61421867  0.20259293  1.0
  Zn  Zn1508  1  0.39570900  0.94755200  0.20259293  1.0
  Zn  Zn1509  1  0.72904233  0.28088533  0.20259293  1.0
  Zn  Zn1510  1  0.72904233  0.61421867  0.20259293  1.0
  Zn  Zn1511  1  0.72904233  0.94755200  0.20259293  1.0
  Zn  Zn1512  1  0.18343967  0.15466933  0.14521536  1.0
  Zn  Zn1513  1  0.18343967  0.48800267  0.14521536  1.0
  Zn  Zn1514  1  0.18343967  0.82133600  0.14521536  1.0
  Zn  Zn1515  1  0.51677300  0.15466933  0.14521536  1.0
  Zn  Zn1516  1  0.51677300  0.48800267  0.14521536  1.0
  Zn  Zn1517  1  0.51677300  0.82133600  0.14521536  1.0
  Zn  Zn1518  1  0.85010633  0.15466933  0.14521536  1.0
  Zn  Zn1519  1  0.85010633  0.48800267  0.14521536  1.0
  Zn  Zn1520  1  0.85010633  0.82133600  0.14521536  1.0
  Zn  Zn1521  1  0.03818600  0.30275433  0.18343179  1.0
  Zn  Zn1522  1  0.03818600  0.63608767  0.18343179  1.0
  Zn  Zn1523  1  0.03818600  0.96942100  0.18343179  1.0
  Zn  Zn1524  1  0.37151933  0.30275433  0.18343179  1.0
  Zn  Zn1525  1  0.37151933  0.63608767  0.18343179  1.0
  Zn  Zn1526  1  0.37151933  0.96942100  0.18343179  1.0
  Zn  Zn1527  1  0.70485267  0.30275433  0.18343179  1.0
  Zn  Zn1528  1  0.70485267  0.63608767  0.18343179  1.0
  Zn  Zn1529  1  0.70485267  0.96942100  0.18343179  1.0
  Zn  Zn1530  1  0.18595267  0.28088533  0.20259293  1.0
  Zn  Zn1531  1  0.18595267  0.61421867  0.20259293  1.0
  Zn  Zn1532  1  0.18595267  0.94755200  0.20259293  1.0
  Zn  Zn1533  1  0.51928600  0.28088533  0.20259293  1.0
  Zn  Zn1534  1  0.51928600  0.61421867  0.20259293  1.0
  Zn  Zn1535  1  0.51928600  0.94755200  0.20259293  1.0
  Zn  Zn1536  1  0.85261933  0.28088533  0.20259293  1.0
  Zn  Zn1537  1  0.85261933  0.61421867  0.20259293  1.0
  Zn  Zn1538  1  0.85261933  0.94755200  0.20259293  1.0
  Zn  Zn1539  1  0.02832433  0.17728333  0.20785164  1.0
  Zn  Zn1540  1  0.02832433  0.51061667  0.20785164  1.0
  Zn  Zn1541  1  0.02832433  0.84395000  0.20785164  1.0
  Zn  Zn1542  1  0.36165767  0.17728333  0.20785164  1.0
  Zn  Zn1543  1  0.36165767  0.51061667  0.20785164  1.0
  Zn  Zn1544  1  0.36165767  0.84395000  0.20785164  1.0
  Zn  Zn1545  1  0.69499100  0.17728333  0.20785164  1.0
  Zn  Zn1546  1  0.69499100  0.51061667  0.20785164  1.0
  Zn  Zn1547  1  0.69499100  0.84395000  0.20785164  1.0
  Zn  Zn1548  1  0.19499100  0.32271667  0.18965164  1.0
  Zn  Zn1549  1  0.19499100  0.65605000  0.18965164  1.0
  Zn  Zn1550  1  0.19499100  0.98938333  0.18965164  1.0
  Zn  Zn1551  1  0.52832433  0.32271667  0.18965164  1.0
  Zn  Zn1552  1  0.52832433  0.65605000  0.18965164  1.0
  Zn  Zn1553  1  0.52832433  0.98938333  0.18965164  1.0
  Zn  Zn1554  1  0.86165767  0.32271667  0.18965164  1.0
  Zn  Zn1555  1  0.86165767  0.65605000  0.18965164  1.0
  Zn  Zn1556  1  0.86165767  0.98938333  0.18965164  1.0
  Zn  Zn1557  1  0.26283200  0.26393867  0.25582379  1.0
  Zn  Zn1558  1  0.26283200  0.59727200  0.25582379  1.0
  Zn  Zn1559  1  0.26283200  0.93060533  0.25582379  1.0
  Zn  Zn1560  1  0.59616533  0.26393867  0.25582379  1.0
  Zn  Zn1561  1  0.59616533  0.59727200  0.25582379  1.0
  Zn  Zn1562  1  0.59616533  0.93060533  0.25582379  1.0
  Zn  Zn1563  1  0.92949867  0.26393867  0.25582379  1.0
  Zn  Zn1564  1  0.92949867  0.59727200  0.25582379  1.0
  Zn  Zn1565  1  0.92949867  0.93060533  0.25582379  1.0
  Zn  Zn1566  1  0.13736733  0.21800367  0.27090921  1.0
  Zn  Zn1567  1  0.13736733  0.55133700  0.27090921  1.0
  Zn  Zn1568  1  0.13736733  0.88467033  0.27090921  1.0
  Zn  Zn1569  1  0.47070067  0.21800367  0.27090921  1.0
  Zn  Zn1570  1  0.47070067  0.55133700  0.27090921  1.0
  Zn  Zn1571  1  0.47070067  0.88467033  0.27090921  1.0
  Zn  Zn1572  1  0.80403400  0.21800367  0.27090921  1.0
  Zn  Zn1573  1  0.80403400  0.55133700  0.27090921  1.0
  Zn  Zn1574  1  0.80403400  0.88467033  0.27090921  1.0
  Zn  Zn1575  1  0.12169500  0.30275433  0.18343179  1.0
  Zn  Zn1576  1  0.12169500  0.63608767  0.18343179  1.0
  Zn  Zn1577  1  0.12169500  0.96942100  0.18343179  1.0
  Zn  Zn1578  1  0.45502833  0.30275433  0.18343179  1.0
  Zn  Zn1579  1  0.45502833  0.63608767  0.18343179  1.0
  Zn  Zn1580  1  0.45502833  0.96942100  0.18343179  1.0
  Zn  Zn1581  1  0.78836167  0.30275433  0.18343179  1.0
  Zn  Zn1582  1  0.78836167  0.63608767  0.18343179  1.0
  Zn  Zn1583  1  0.78836167  0.96942100  0.18343179  1.0
  Zn  Zn1584  1  0.16231733  0.10314033  0.22579993  1.0
  Zn  Zn1585  1  0.16231733  0.43647367  0.22579993  1.0
  Zn  Zn1586  1  0.16231733  0.76980700  0.22579993  1.0
  Zn  Zn1587  1  0.49565067  0.10314033  0.22579993  1.0
  Zn  Zn1588  1  0.49565067  0.43647367  0.22579993  1.0
  Zn  Zn1589  1  0.49565067  0.76980700  0.22579993  1.0
  Zn  Zn1590  1  0.82898400  0.10314033  0.22579993  1.0
  Zn  Zn1591  1  0.82898400  0.43647367  0.22579993  1.0
  Zn  Zn1592  1  0.82898400  0.76980700  0.22579993  1.0
  Zn  Zn1593  1  0.19962067  0.23990600  0.26650921  1.0
  Zn  Zn1594  1  0.19962067  0.57323933  0.26650921  1.0
  Zn  Zn1595  1  0.19962067  0.90657267  0.26650921  1.0
  Zn  Zn1596  1  0.53295400  0.23990600  0.26650921  1.0
  Zn  Zn1597  1  0.53295400  0.57323933  0.26650921  1.0
  Zn  Zn1598  1  0.53295400  0.90657267  0.26650921  1.0
  Zn  Zn1599  1  0.86628733  0.23990600  0.26650921  1.0
  Zn  Zn1600  1  0.86628733  0.57323933  0.26650921  1.0
  Zn  Zn1601  1  0.86628733  0.90657267  0.26650921  1.0
  Zn  Zn1602  1  0.06052167  0.01061667  0.23544936  1.0
  Zn  Zn1603  1  0.06052167  0.34395000  0.23544936  1.0
  Zn  Zn1604  1  0.06052167  0.67728333  0.23544936  1.0
  Zn  Zn1605  1  0.39385500  0.01061667  0.23544936  1.0
  Zn  Zn1606  1  0.39385500  0.34395000  0.23544936  1.0
  Zn  Zn1607  1  0.39385500  0.67728333  0.23544936  1.0
  Zn  Zn1608  1  0.72718833  0.01061667  0.23544936  1.0
  Zn  Zn1609  1  0.72718833  0.34395000  0.23544936  1.0
  Zn  Zn1610  1  0.72718833  0.67728333  0.23544936  1.0
  Zn  Zn1611  1  0.22904233  0.21911467  0.14964664  1.0
  Zn  Zn1612  1  0.22904233  0.55244800  0.14964664  1.0
  Zn  Zn1613  1  0.22904233  0.88578133  0.14964664  1.0
  Zn  Zn1614  1  0.56237567  0.21911467  0.14964664  1.0
  Zn  Zn1615  1  0.56237567  0.55244800  0.14964664  1.0
  Zn  Zn1616  1  0.56237567  0.88578133  0.14964664  1.0
  Zn  Zn1617  1  0.89570900  0.21911467  0.14964664  1.0
  Zn  Zn1618  1  0.89570900  0.55244800  0.14964664  1.0
  Zn  Zn1619  1  0.89570900  0.88578133  0.14964664  1.0
  Zn  Zn1620  1  0.24499133  0.25905267  0.19479593  1.0
  Zn  Zn1621  1  0.24499133  0.59238600  0.19479593  1.0
  Zn  Zn1622  1  0.24499133  0.92571933  0.19479593  1.0
  Zn  Zn1623  1  0.57832467  0.25905267  0.19479593  1.0
  Zn  Zn1624  1  0.57832467  0.59238600  0.19479593  1.0
  Zn  Zn1625  1  0.57832467  0.92571933  0.19479593  1.0
  Zn  Zn1626  1  0.91165800  0.25905267  0.19479593  1.0
  Zn  Zn1627  1  0.91165800  0.59238600  0.19479593  1.0
  Zn  Zn1628  1  0.91165800  0.92571933  0.19479593  1.0
  Zn  Zn1629  1  0.30500900  0.15605000  0.21724936  1.0
  Zn  Zn1630  1  0.30500900  0.48938333  0.21724936  1.0
  Zn  Zn1631  1  0.30500900  0.82271667  0.21724936  1.0
  Zn  Zn1632  1  0.63834233  0.15605000  0.21724936  1.0
  Zn  Zn1633  1  0.63834233  0.48938333  0.21724936  1.0
  Zn  Zn1634  1  0.63834233  0.82271667  0.21724936  1.0
  Zn  Zn1635  1  0.97167567  0.15605000  0.21724936  1.0
  Zn  Zn1636  1  0.97167567  0.48938333  0.21724936  1.0
  Zn  Zn1637  1  0.97167567  0.82271667  0.21724936  1.0
  Zn  Zn1638  1  0.19456733  0.19526133  0.28152593  1.0
  Zn  Zn1639  1  0.19456733  0.52859467  0.28152593  1.0
  Zn  Zn1640  1  0.19456733  0.86192800  0.28152593  1.0
  Zn  Zn1641  1  0.52790067  0.19526133  0.28152593  1.0
  Zn  Zn1642  1  0.52790067  0.52859467  0.28152593  1.0
  Zn  Zn1643  1  0.52790067  0.86192800  0.28152593  1.0
  Zn  Zn1644  1  0.86123400  0.19526133  0.28152593  1.0
  Zn  Zn1645  1  0.86123400  0.52859467  0.28152593  1.0
  Zn  Zn1646  1  0.86123400  0.86192800  0.28152593  1.0
  Zn  Zn1647  1  0.14454100  0.17447900  0.18194464  1.0
  Zn  Zn1648  1  0.14454100  0.50781233  0.18194464  1.0
  Zn  Zn1649  1  0.14454100  0.84114567  0.18194464  1.0
  Zn  Zn1650  1  0.47787433  0.17447900  0.18194464  1.0
  Zn  Zn1651  1  0.47787433  0.50781233  0.18194464  1.0
  Zn  Zn1652  1  0.47787433  0.84114567  0.18194464  1.0
  Zn  Zn1653  1  0.81120767  0.17447900  0.18194464  1.0
  Zn  Zn1654  1  0.81120767  0.50781233  0.18194464  1.0
  Zn  Zn1655  1  0.81120767  0.84114567  0.18194464  1.0
  Zn  Zn1656  1  0.05352900  0.09342733  0.15859179  1.0
  Zn  Zn1657  1  0.05352900  0.42676067  0.15859179  1.0
  Zn  Zn1658  1  0.05352900  0.76009400  0.15859179  1.0
  Zn  Zn1659  1  0.38686233  0.09342733  0.15859179  1.0
  Zn  Zn1660  1  0.38686233  0.42676067  0.15859179  1.0
  Zn  Zn1661  1  0.38686233  0.76009400  0.15859179  1.0
  Zn  Zn1662  1  0.72019567  0.09342733  0.15859179  1.0
  Zn  Zn1663  1  0.72019567  0.42676067  0.15859179  1.0
  Zn  Zn1664  1  0.72019567  0.76009400  0.15859179  1.0
  Zn  Zn1665  1  0.15063067  0.05120400  0.17126593  1.0
  Zn  Zn1666  1  0.15063067  0.38453733  0.17126593  1.0
  Zn  Zn1667  1  0.15063067  0.71787067  0.17126593  1.0
  Zn  Zn1668  1  0.48396400  0.05120400  0.17126593  1.0
  Zn  Zn1669  1  0.48396400  0.38453733  0.17126593  1.0
  Zn  Zn1670  1  0.48396400  0.71787067  0.17126593  1.0
  Zn  Zn1671  1  0.81729733  0.05120400  0.17126593  1.0
  Zn  Zn1672  1  0.81729733  0.38453733  0.17126593  1.0
  Zn  Zn1673  1  0.81729733  0.71787067  0.17126593  1.0
  Zn  Zn1674  1  0.15352700  0.25728067  0.20752850  1.0
  Zn  Zn1675  1  0.15352700  0.59061400  0.20752850  1.0
  Zn  Zn1676  1  0.15352700  0.92394733  0.20752850  1.0
  Zn  Zn1677  1  0.48686033  0.25728067  0.20752850  1.0
  Zn  Zn1678  1  0.48686033  0.59061400  0.20752850  1.0
  Zn  Zn1679  1  0.48686033  0.92394733  0.20752850  1.0
  Zn  Zn1680  1  0.82019367  0.25728067  0.20752850  1.0
  Zn  Zn1681  1  0.82019367  0.59061400  0.20752850  1.0
  Zn  Zn1682  1  0.82019367  0.92394733  0.20752850  1.0
  Zn  Zn1683  1  0.19547600  0.24094733  0.17927707  1.0
  Zn  Zn1684  1  0.19547600  0.57428067  0.17927707  1.0
  Zn  Zn1685  1  0.19547600  0.90761400  0.17927707  1.0
  Zn  Zn1686  1  0.52880933  0.24094733  0.17927707  1.0
  Zn  Zn1687  1  0.52880933  0.57428067  0.17927707  1.0
  Zn  Zn1688  1  0.52880933  0.90761400  0.17927707  1.0
  Zn  Zn1689  1  0.86214267  0.24094733  0.17927707  1.0
  Zn  Zn1690  1  0.86214267  0.57428067  0.17927707  1.0
  Zn  Zn1691  1  0.86214267  0.90761400  0.17927707  1.0
  Zn  Zn1692  1  0.22946233  0.28199633  0.18290293  1.0
  Zn  Zn1693  1  0.22946233  0.61532967  0.18290293  1.0
  Zn  Zn1694  1  0.22946233  0.94866300  0.18290293  1.0
  Zn  Zn1695  1  0.56279567  0.28199633  0.18290293  1.0
  Zn  Zn1696  1  0.56279567  0.61532967  0.18290293  1.0
  Zn  Zn1697  1  0.56279567  0.94866300  0.18290293  1.0
  Zn  Zn1698  1  0.89612900  0.28199633  0.18290293  1.0
  Zn  Zn1699  1  0.89612900  0.61532967  0.18290293  1.0
  Zn  Zn1700  1  0.89612900  0.94866300  0.18290293  1.0
  Zn  Zn1701  1  0.13988667  0.29948233  0.28281079  1.0
  Zn  Zn1702  1  0.13988667  0.63281567  0.28281079  1.0
  Zn  Zn1703  1  0.13988667  0.96614900  0.28281079  1.0
  Zn  Zn1704  1  0.47322000  0.29948233  0.28281079  1.0
  Zn  Zn1705  1  0.47322000  0.63281567  0.28281079  1.0
  Zn  Zn1706  1  0.47322000  0.96614900  0.28281079  1.0
  Zn  Zn1707  1  0.80655333  0.29948233  0.28281079  1.0
  Zn  Zn1708  1  0.80655333  0.63281567  0.28281079  1.0
  Zn  Zn1709  1  0.80655333  0.96614900  0.28281079  1.0
  Zn  Zn1710  1  0.00434933  0.26980700  0.23325593  1.0
  Zn  Zn1711  1  0.00434933  0.60314033  0.23325593  1.0
  Zn  Zn1712  1  0.00434933  0.93647367  0.23325593  1.0
  Zn  Zn1713  1  0.33768267  0.26980700  0.23325593  1.0
  Zn  Zn1714  1  0.33768267  0.60314033  0.23325593  1.0
  Zn  Zn1715  1  0.33768267  0.93647367  0.23325593  1.0
  Zn  Zn1716  1  0.67101600  0.26980700  0.23325593  1.0
  Zn  Zn1717  1  0.67101600  0.60314033  0.23325593  1.0
  Zn  Zn1718  1  0.67101600  0.93647367  0.23325593  1.0
  Zn  Zn1719  1  0.07585267  0.19526133  0.28152593  1.0
  Zn  Zn1720  1  0.07585267  0.52859467  0.28152593  1.0
  Zn  Zn1721  1  0.07585267  0.86192800  0.28152593  1.0
  Zn  Zn1722  1  0.40918600  0.19526133  0.28152593  1.0
  Zn  Zn1723  1  0.40918600  0.52859467  0.28152593  1.0
  Zn  Zn1724  1  0.40918600  0.86192800  0.28152593  1.0
  Zn  Zn1725  1  0.74251933  0.19526133  0.28152593  1.0
  Zn  Zn1726  1  0.74251933  0.52859467  0.28152593  1.0
  Zn  Zn1727  1  0.74251933  0.86192800  0.28152593  1.0
  Zn  Zn1728  1  0.01928600  0.21911467  0.14964664  1.0
  Zn  Zn1729  1  0.01928600  0.55244800  0.14964664  1.0
  Zn  Zn1730  1  0.01928600  0.88578133  0.14964664  1.0
  Zn  Zn1731  1  0.35261933  0.21911467  0.14964664  1.0
  Zn  Zn1732  1  0.35261933  0.55244800  0.14964664  1.0
  Zn  Zn1733  1  0.35261933  0.88578133  0.14964664  1.0
  Zn  Zn1734  1  0.68595267  0.21911467  0.14964664  1.0
  Zn  Zn1735  1  0.68595267  0.55244800  0.14964664  1.0
  Zn  Zn1736  1  0.68595267  0.88578133  0.14964664  1.0
  Zn  Zn1737  1  0.32898400  0.06352633  0.19184507  1.0
  Zn  Zn1738  1  0.32898400  0.39685967  0.19184507  1.0
  Zn  Zn1739  1  0.32898400  0.73019300  0.19184507  1.0
  Zn  Zn1740  1  0.66231733  0.06352633  0.19184507  1.0
  Zn  Zn1741  1  0.66231733  0.39685967  0.19184507  1.0
  Zn  Zn1742  1  0.66231733  0.73019300  0.19184507  1.0
  Zn  Zn1743  1  0.99565067  0.06352633  0.19184507  1.0
  Zn  Zn1744  1  0.99565067  0.39685967  0.19184507  1.0
  Zn  Zn1745  1  0.99565067  0.73019300  0.19184507  1.0
  Zn  Zn1746  1  0.30403400  0.28199633  0.18290293  1.0
  Zn  Zn1747  1  0.30403400  0.61532967  0.18290293  1.0
  Zn  Zn1748  1  0.30403400  0.94866300  0.18290293  1.0
  Zn  Zn1749  1  0.63736733  0.28199633  0.18290293  1.0
  Zn  Zn1750  1  0.63736733  0.61532967  0.18290293  1.0
  Zn  Zn1751  1  0.63736733  0.94866300  0.18290293  1.0
  Zn  Zn1752  1  0.97070067  0.28199633  0.18290293  1.0
  Zn  Zn1753  1  0.97070067  0.61532967  0.18290293  1.0
  Zn  Zn1754  1  0.97070067  0.94866300  0.18290293  1.0
  Zn  Zn1755  1  0.19596600  0.11532967  0.15419179  1.0
  Zn  Zn1756  1  0.19596600  0.44866300  0.15419179  1.0
  Zn  Zn1757  1  0.19596600  0.78199633  0.15419179  1.0
  Zn  Zn1758  1  0.52929933  0.11532967  0.15419179  1.0
  Zn  Zn1759  1  0.52929933  0.44866300  0.15419179  1.0
  Zn  Zn1760  1  0.52929933  0.78199633  0.15419179  1.0
  Zn  Zn1761  1  0.86263267  0.11532967  0.15419179  1.0
  Zn  Zn1762  1  0.86263267  0.44866300  0.15419179  1.0
  Zn  Zn1763  1  0.86263267  0.78199633  0.15419179  1.0
  Zn  Zn1764  1  0.02929933  0.05133700  0.24219807  1.0
  Zn  Zn1765  1  0.02929933  0.38467033  0.24219807  1.0
  Zn  Zn1766  1  0.02929933  0.71800367  0.24219807  1.0
  Zn  Zn1767  1  0.36263267  0.05133700  0.24219807  1.0
  Zn  Zn1768  1  0.36263267  0.38467033  0.24219807  1.0
  Zn  Zn1769  1  0.36263267  0.71800367  0.24219807  1.0
  Zn  Zn1770  1  0.69596600  0.05133700  0.24219807  1.0
  Zn  Zn1771  1  0.69596600  0.38467033  0.24219807  1.0
  Zn  Zn1772  1  0.69596600  0.71800367  0.24219807  1.0
  Zn  Zn1773  1  0.01313967  0.09061400  0.23005364  1.0
  Zn  Zn1774  1  0.01313967  0.42394733  0.23005364  1.0
  Zn  Zn1775  1  0.01313967  0.75728067  0.23005364  1.0
  Zn  Zn1776  1  0.34647300  0.09061400  0.23005364  1.0
  Zn  Zn1777  1  0.34647300  0.42394733  0.23005364  1.0
  Zn  Zn1778  1  0.34647300  0.75728067  0.23005364  1.0
  Zn  Zn1779  1  0.67980633  0.09061400  0.23005364  1.0
  Zn  Zn1780  1  0.67980633  0.42394733  0.23005364  1.0
  Zn  Zn1781  1  0.67980633  0.75728067  0.23005364  1.0
  Zn  Zn1782  1  0.07832467  0.24094733  0.17927707  1.0
  Zn  Zn1783  1  0.07832467  0.57428067  0.17927707  1.0
  Zn  Zn1784  1  0.07832467  0.90761400  0.17927707  1.0
  Zn  Zn1785  1  0.41165800  0.24094733  0.17927707  1.0
  Zn  Zn1786  1  0.41165800  0.57428067  0.17927707  1.0
  Zn  Zn1787  1  0.41165800  0.90761400  0.17927707  1.0
  Zn  Zn1788  1  0.74499133  0.24094733  0.17927707  1.0
  Zn  Zn1789  1  0.74499133  0.57428067  0.17927707  1.0
  Zn  Zn1790  1  0.74499133  0.90761400  0.17927707  1.0
  Zn  Zn1791  1  0.03295400  0.26009400  0.28381321  1.0
  Zn  Zn1792  1  0.03295400  0.59342733  0.28381321  1.0
  Zn  Zn1793  1  0.03295400  0.92676067  0.28381321  1.0
  Zn  Zn1794  1  0.36628733  0.26009400  0.28381321  1.0
  Zn  Zn1795  1  0.36628733  0.59342733  0.28381321  1.0
  Zn  Zn1796  1  0.36628733  0.92676067  0.28381321  1.0
  Zn  Zn1797  1  0.69962067  0.26009400  0.28381321  1.0
  Zn  Zn1798  1  0.69962067  0.59342733  0.28381321  1.0
  Zn  Zn1799  1  0.69962067  0.92676067  0.28381321  1.0
  Zn  Zn1800  1  0.10429100  0.11421867  0.27545436  1.0
  Zn  Zn1801  1  0.10429100  0.44755200  0.27545436  1.0
  Zn  Zn1802  1  0.10429100  0.78088533  0.27545436  1.0
  Zn  Zn1803  1  0.43762433  0.11421867  0.27545436  1.0
  Zn  Zn1804  1  0.43762433  0.44755200  0.27545436  1.0
  Zn  Zn1805  1  0.43762433  0.78088533  0.27545436  1.0
  Zn  Zn1806  1  0.77095767  0.11421867  0.27545436  1.0
  Zn  Zn1807  1  0.77095767  0.44755200  0.27545436  1.0
  Zn  Zn1808  1  0.77095767  0.78088533  0.27545436  1.0
  Zn  Zn1809  1  0.31404733  0.11421867  0.27545436  1.0
  Zn  Zn1810  1  0.31404733  0.44755200  0.27545436  1.0
  Zn  Zn1811  1  0.31404733  0.78088533  0.27545436  1.0
  Zn  Zn1812  1  0.64738067  0.11421867  0.27545436  1.0
  Zn  Zn1813  1  0.64738067  0.44755200  0.27545436  1.0
  Zn  Zn1814  1  0.64738067  0.78088533  0.27545436  1.0
  Zn  Zn1815  1  0.98071400  0.11421867  0.27545436  1.0
  Zn  Zn1816  1  0.98071400  0.44755200  0.27545436  1.0
  Zn  Zn1817  1  0.98071400  0.78088533  0.27545436  1.0
  Zn  Zn1818  1  0.32184900  0.19213200  0.15310564  1.0
  Zn  Zn1819  1  0.32184900  0.52546533  0.15310564  1.0
  Zn  Zn1820  1  0.32184900  0.85879867  0.15310564  1.0
  Zn  Zn1821  1  0.65518233  0.19213200  0.15310564  1.0
  Zn  Zn1822  1  0.65518233  0.52546533  0.15310564  1.0
  Zn  Zn1823  1  0.65518233  0.85879867  0.15310564  1.0
  Zn  Zn1824  1  0.98851567  0.19213200  0.15310564  1.0
  Zn  Zn1825  1  0.98851567  0.52546533  0.15310564  1.0
  Zn  Zn1826  1  0.98851567  0.85879867  0.15310564  1.0
  Zn  Zn1827  1  0.00843667  0.29543467  0.25872593  1.0
  Zn  Zn1828  1  0.00843667  0.62876800  0.25872593  1.0
  Zn  Zn1829  1  0.00843667  0.96210133  0.25872593  1.0
  Zn  Zn1830  1  0.34177000  0.29543467  0.25872593  1.0
  Zn  Zn1831  1  0.34177000  0.62876800  0.25872593  1.0
  Zn  Zn1832  1  0.34177000  0.96210133  0.25872593  1.0
  Zn  Zn1833  1  0.67510333  0.29543467  0.25872593  1.0
  Zn  Zn1834  1  0.67510333  0.62876800  0.25872593  1.0
  Zn  Zn1835  1  0.67510333  0.96210133  0.25872593  1.0
  Zn  Zn1836  1  0.07050133  0.06939467  0.16927721  1.0
  Zn  Zn1837  1  0.07050133  0.40272800  0.16927721  1.0
  Zn  Zn1838  1  0.07050133  0.73606133  0.16927721  1.0
  Zn  Zn1839  1  0.40383467  0.06939467  0.16927721  1.0
  Zn  Zn1840  1  0.40383467  0.40272800  0.16927721  1.0
  Zn  Zn1841  1  0.40383467  0.73606133  0.16927721  1.0
  Zn  Zn1842  1  0.73716800  0.06939467  0.16927721  1.0
  Zn  Zn1843  1  0.73716800  0.40272800  0.16927721  1.0
  Zn  Zn1844  1  0.73716800  0.73606133  0.16927721  1.0
  Zn  Zn1845  1  0.17101600  0.23019300  0.19930107  1.0
  Zn  Zn1846  1  0.17101600  0.56352633  0.19930107  1.0
  Zn  Zn1847  1  0.17101600  0.89685967  0.19930107  1.0
  Zn  Zn1848  1  0.50434933  0.23019300  0.19930107  1.0
  Zn  Zn1849  1  0.50434933  0.56352633  0.19930107  1.0
  Zn  Zn1850  1  0.50434933  0.89685967  0.19930107  1.0
  Zn  Zn1851  1  0.83768267  0.23019300  0.19930107  1.0
  Zn  Zn1852  1  0.83768267  0.56352633  0.19930107  1.0
  Zn  Zn1853  1  0.83768267  0.89685967  0.19930107  1.0
  Zn  Zn1854  1  0.14359500  0.26393867  0.25582379  1.0
  Zn  Zn1855  1  0.14359500  0.59727200  0.25582379  1.0
  Zn  Zn1856  1  0.14359500  0.93060533  0.25582379  1.0
  Zn  Zn1857  1  0.47692833  0.26393867  0.25582379  1.0
  Zn  Zn1858  1  0.47692833  0.59727200  0.25582379  1.0
  Zn  Zn1859  1  0.47692833  0.93060533  0.25582379  1.0
  Zn  Zn1860  1  0.81026167  0.26393867  0.25582379  1.0
  Zn  Zn1861  1  0.81026167  0.59727200  0.25582379  1.0
  Zn  Zn1862  1  0.81026167  0.93060533  0.25582379  1.0
  Zn  Zn1863  1  0.30452400  0.07428067  0.23030507  1.0
  Zn  Zn1864  1  0.30452400  0.40761400  0.23030507  1.0
  Zn  Zn1865  1  0.30452400  0.74094733  0.23030507  1.0
  Zn  Zn1866  1  0.63785733  0.07428067  0.23030507  1.0
  Zn  Zn1867  1  0.63785733  0.40761400  0.23030507  1.0
  Zn  Zn1868  1  0.63785733  0.74094733  0.23030507  1.0
  Zn  Zn1869  1  0.97119067  0.07428067  0.23030507  1.0
  Zn  Zn1870  1  0.97119067  0.40761400  0.23030507  1.0
  Zn  Zn1871  1  0.97119067  0.74094733  0.23030507  1.0
  Zn  Zn1872  1  0.01677300  0.01199733  0.16578221  1.0
  Zn  Zn1873  1  0.01677300  0.34533067  0.16578221  1.0
  Zn  Zn1874  1  0.01677300  0.67866400  0.16578221  1.0
  Zn  Zn1875  1  0.35010633  0.01199733  0.16578221  1.0
  Zn  Zn1876  1  0.35010633  0.34533067  0.16578221  1.0
  Zn  Zn1877  1  0.35010633  0.67866400  0.16578221  1.0
  Zn  Zn1878  1  0.68343967  0.01199733  0.16578221  1.0
  Zn  Zn1879  1  0.68343967  0.34533067  0.16578221  1.0
  Zn  Zn1880  1  0.68343967  0.67866400  0.16578221  1.0
  Zn  Zn1881  1  0.25500867  0.09238600  0.24582393  1.0
  Zn  Zn1882  1  0.25500867  0.42571933  0.24582393  1.0
  Zn  Zn1883  1  0.25500867  0.75905267  0.24582393  1.0
  Zn  Zn1884  1  0.58834200  0.09238600  0.24582393  1.0
  Zn  Zn1885  1  0.58834200  0.42571933  0.24582393  1.0
  Zn  Zn1886  1  0.58834200  0.75905267  0.24582393  1.0
  Zn  Zn1887  1  0.92167533  0.09238600  0.24582393  1.0
  Zn  Zn1888  1  0.92167533  0.42571933  0.24582393  1.0
  Zn  Zn1889  1  0.92167533  0.75905267  0.24582393  1.0
  Zn  Zn1890  1  0.12848067  0.13608767  0.18924807  1.0
  Zn  Zn1891  1  0.12848067  0.46942100  0.18924807  1.0
  Zn  Zn1892  1  0.12848067  0.80275433  0.18924807  1.0
  Zn  Zn1893  1  0.46181400  0.13608767  0.18924807  1.0
  Zn  Zn1894  1  0.46181400  0.46942100  0.18924807  1.0
  Zn  Zn1895  1  0.46181400  0.80275433  0.18924807  1.0
  Zn  Zn1896  1  0.79514733  0.13608767  0.18924807  1.0
  Zn  Zn1897  1  0.79514733  0.46942100  0.18924807  1.0
  Zn  Zn1898  1  0.79514733  0.80275433  0.18924807  1.0
  Zn  Zn1899  1  0.18270267  0.28212933  0.25383507  1.0
  Zn  Zn1900  1  0.18270267  0.61546267  0.25383507  1.0
  Zn  Zn1901  1  0.18270267  0.94879600  0.25383507  1.0
  Zn  Zn1902  1  0.51603600  0.28212933  0.25383507  1.0
  Zn  Zn1903  1  0.51603600  0.61546267  0.25383507  1.0
  Zn  Zn1904  1  0.51603600  0.94879600  0.25383507  1.0
  Zn  Zn1905  1  0.84936933  0.28212933  0.25383507  1.0
  Zn  Zn1906  1  0.84936933  0.61546267  0.25383507  1.0
  Zn  Zn1907  1  0.84936933  0.94879600  0.25383507  1.0
  Zn  Zn1908  1  0.23716800  0.09727200  0.19317207  1.0
  Zn  Zn1909  1  0.23716800  0.43060533  0.19317207  1.0
  Zn  Zn1910  1  0.23716800  0.76393867  0.19317207  1.0
  Zn  Zn1911  1  0.57050133  0.09727200  0.19317207  1.0
  Zn  Zn1912  1  0.57050133  0.43060533  0.19317207  1.0
  Zn  Zn1913  1  0.57050133  0.76393867  0.19317207  1.0
  Zn  Zn1914  1  0.90383467  0.09727200  0.19317207  1.0
  Zn  Zn1915  1  0.90383467  0.43060533  0.19317207  1.0
  Zn  Zn1916  1  0.90383467  0.76393867  0.19317207  1.0
  Zn  Zn1917  1  0.04497167  0.13608767  0.18924807  1.0
  Zn  Zn1918  1  0.04497167  0.46942100  0.18924807  1.0
  Zn  Zn1919  1  0.04497167  0.80275433  0.18924807  1.0
  Zn  Zn1920  1  0.37830500  0.13608767  0.18924807  1.0
  Zn  Zn1921  1  0.37830500  0.46942100  0.18924807  1.0
  Zn  Zn1922  1  0.37830500  0.80275433  0.18924807  1.0
  Zn  Zn1923  1  0.71163833  0.13608767  0.18924807  1.0
  Zn  Zn1924  1  0.71163833  0.46942100  0.18924807  1.0
  Zn  Zn1925  1  0.71163833  0.80275433  0.18924807  1.0
  Zn  Zn1926  1  0.10614500  0.17728333  0.20785164  1.0
  Zn  Zn1927  1  0.10614500  0.51061667  0.20785164  1.0
  Zn  Zn1928  1  0.10614500  0.84395000  0.20785164  1.0
  Zn  Zn1929  1  0.43947833  0.17728333  0.20785164  1.0
  Zn  Zn1930  1  0.43947833  0.51061667  0.20785164  1.0
  Zn  Zn1931  1  0.43947833  0.84395000  0.20785164  1.0
  Zn  Zn1932  1  0.77281167  0.17728333  0.20785164  1.0
  Zn  Zn1933  1  0.77281167  0.51061667  0.20785164  1.0
  Zn  Zn1934  1  0.77281167  0.84395000  0.20785164  1.0
  Zn  Zn1935  1  0.09175600  0.20051767  0.19798393  1.0
  Zn  Zn1936  1  0.09175600  0.53385100  0.19798393  1.0
  Zn  Zn1937  1  0.09175600  0.86718433  0.19798393  1.0
  Zn  Zn1938  1  0.42508933  0.20051767  0.19798393  1.0
  Zn  Zn1939  1  0.42508933  0.53385100  0.19798393  1.0
  Zn  Zn1940  1  0.42508933  0.86718433  0.19798393  1.0
  Zn  Zn1941  1  0.75842267  0.20051767  0.19798393  1.0
  Zn  Zn1942  1  0.75842267  0.53385100  0.19798393  1.0
  Zn  Zn1943  1  0.75842267  0.86718433  0.19798393  1.0
  Zn  Zn1944  1  0.02212567  0.00781233  0.25654893  1.0
  Zn  Zn1945  1  0.02212567  0.34114567  0.25654893  1.0
  Zn  Zn1946  1  0.02212567  0.67447900  0.25654893  1.0
  Zn  Zn1947  1  0.35545900  0.00781233  0.25654893  1.0
  Zn  Zn1948  1  0.35545900  0.34114567  0.25654893  1.0
  Zn  Zn1949  1  0.35545900  0.67447900  0.25654893  1.0
  Zn  Zn1950  1  0.68879233  0.00781233  0.25654893  1.0
  Zn  Zn1951  1  0.68879233  0.34114567  0.25654893  1.0
  Zn  Zn1952  1  0.68879233  0.67447900  0.25654893  1.0
  Zn  Zn1953  1  0.02678000  0.13281567  0.22711707  1.0
  Zn  Zn1954  1  0.02678000  0.46614900  0.22711707  1.0
  Zn  Zn1955  1  0.02678000  0.79948233  0.22711707  1.0
  Zn  Zn1956  1  0.36011333  0.13281567  0.22711707  1.0
  Zn  Zn1957  1  0.36011333  0.46614900  0.22711707  1.0
  Zn  Zn1958  1  0.36011333  0.79948233  0.22711707  1.0
  Zn  Zn1959  1  0.69344667  0.13281567  0.22711707  1.0
  Zn  Zn1960  1  0.69344667  0.46614900  0.22711707  1.0
  Zn  Zn1961  1  0.69344667  0.79948233  0.22711707  1.0
  Zn  Zn1962  1  0.07491067  0.03385100  0.28514736  1.0
  Zn  Zn1963  1  0.07491067  0.36718433  0.28514736  1.0
  Zn  Zn1964  1  0.07491067  0.70051767  0.28514736  1.0
  Zn  Zn1965  1  0.40824400  0.03385100  0.28514736  1.0
  Zn  Zn1966  1  0.40824400  0.36718433  0.28514736  1.0
  Zn  Zn1967  1  0.40824400  0.70051767  0.28514736  1.0
  Zn  Zn1968  1  0.74157733  0.03385100  0.28514736  1.0
  Zn  Zn1969  1  0.74157733  0.36718433  0.28514736  1.0
  Zn  Zn1970  1  0.74157733  0.70051767  0.28514736  1.0
  Zn  Zn1971  1  0.22718833  0.15605000  0.21724936  1.0
  Zn  Zn1972  1  0.22718833  0.48938333  0.21724936  1.0
  Zn  Zn1973  1  0.22718833  0.82271667  0.21724936  1.0
  Zn  Zn1974  1  0.56052167  0.15605000  0.21724936  1.0
  Zn  Zn1975  1  0.56052167  0.48938333  0.21724936  1.0
  Zn  Zn1976  1  0.56052167  0.82271667  0.21724936  1.0
  Zn  Zn1977  1  0.89385500  0.15605000  0.21724936  1.0
  Zn  Zn1978  1  0.89385500  0.48938333  0.21724936  1.0
  Zn  Zn1979  1  0.89385500  0.82271667  0.21724936  1.0
  Zn  Zn1980  1  0.15518233  0.30786800  0.25230793  1.0
  Zn  Zn1981  1  0.15518233  0.64120133  0.25230793  1.0
  Zn  Zn1982  1  0.15518233  0.97453467  0.25230793  1.0
  Zn  Zn1983  1  0.48851567  0.30786800  0.25230793  1.0
  Zn  Zn1984  1  0.48851567  0.64120133  0.25230793  1.0
  Zn  Zn1985  1  0.48851567  0.97453467  0.25230793  1.0
  Zn  Zn1986  1  0.82184900  0.30786800  0.25230793  1.0
  Zn  Zn1987  1  0.82184900  0.64120133  0.25230793  1.0
  Zn  Zn1988  1  0.82184900  0.97453467  0.25230793  1.0
  Zn  Zn1989  1  0.02307167  0.09727200  0.19317207  1.0
  Zn  Zn1990  1  0.02307167  0.43060533  0.19317207  1.0
  Zn  Zn1991  1  0.02307167  0.76393867  0.19317207  1.0
  Zn  Zn1992  1  0.35640500  0.09727200  0.19317207  1.0
  Zn  Zn1993  1  0.35640500  0.43060533  0.19317207  1.0
  Zn  Zn1994  1  0.35640500  0.76393867  0.19317207  1.0
  Zn  Zn1995  1  0.68973833  0.09727200  0.19317207  1.0
  Zn  Zn1996  1  0.68973833  0.43060533  0.19317207  1.0
  Zn  Zn1997  1  0.68973833  0.76393867  0.19317207  1.0
  Zn  Zn1998  1  0.26842067  0.17447900  0.18194464  1.0
  Zn  Zn1999  1  0.26842067  0.50781233  0.18194464  1.0
  Zn  Zn2000  1  0.26842067  0.84114567  0.18194464  1.0
  Zn  Zn2001  1  0.60175400  0.17447900  0.18194464  1.0
  Zn  Zn2002  1  0.60175400  0.50781233  0.18194464  1.0
  Zn  Zn2003  1  0.60175400  0.84114567  0.18194464  1.0
  Zn  Zn2004  1  0.93508733  0.17447900  0.18194464  1.0
  Zn  Zn2005  1  0.93508733  0.50781233  0.18194464  1.0
  Zn  Zn2006  1  0.93508733  0.84114567  0.18194464  1.0
  Zn  Zn2007  1  0.20485267  0.19724567  0.23585293  1.0
  Zn  Zn2008  1  0.20485267  0.53057900  0.23585293  1.0
  Zn  Zn2009  1  0.20485267  0.86391233  0.23585293  1.0
  Zn  Zn2010  1  0.53818600  0.19724567  0.23585293  1.0
  Zn  Zn2011  1  0.53818600  0.53057900  0.23585293  1.0
  Zn  Zn2012  1  0.53818600  0.86391233  0.23585293  1.0
  Zn  Zn2013  1  0.87151933  0.19724567  0.23585293  1.0
  Zn  Zn2014  1  0.87151933  0.53057900  0.23585293  1.0
  Zn  Zn2015  1  0.87151933  0.86391233  0.23585293  1.0
  Zn  Zn2016  1  0.10387100  0.05133700  0.24219807  1.0
  Zn  Zn2017  1  0.10387100  0.38467033  0.24219807  1.0
  Zn  Zn2018  1  0.10387100  0.71800367  0.24219807  1.0
  Zn  Zn2019  1  0.43720433  0.05133700  0.24219807  1.0
  Zn  Zn2020  1  0.43720433  0.38467033  0.24219807  1.0
  Zn  Zn2021  1  0.43720433  0.71800367  0.24219807  1.0
  Zn  Zn2022  1  0.77053767  0.05133700  0.24219807  1.0
  Zn  Zn2023  1  0.77053767  0.38467033  0.24219807  1.0
  Zn  Zn2024  1  0.77053767  0.71800367  0.24219807  1.0
  Zn  Zn2025  1  0.28836167  0.19724567  0.23585293  1.0
  Zn  Zn2026  1  0.28836167  0.53057900  0.23585293  1.0
  Zn  Zn2027  1  0.28836167  0.86391233  0.23585293  1.0
  Zn  Zn2028  1  0.62169500  0.19724567  0.23585293  1.0
  Zn  Zn2029  1  0.62169500  0.53057900  0.23585293  1.0
  Zn  Zn2030  1  0.62169500  0.86391233  0.23585293  1.0
  Zn  Zn2031  1  0.95502833  0.19724567  0.23585293  1.0
  Zn  Zn2032  1  0.95502833  0.53057900  0.23585293  1.0
  Zn  Zn2033  1  0.95502833  0.86391233  0.23585293  1.0
  Zn  Zn2034  1  0.13834233  0.01061667  0.23544936  1.0
  Zn  Zn2035  1  0.13834233  0.34395000  0.23544936  1.0
  Zn  Zn2036  1  0.13834233  0.67728333  0.23544936  1.0
  Zn  Zn2037  1  0.47167567  0.01061667  0.23544936  1.0
  Zn  Zn2038  1  0.47167567  0.34395000  0.23544936  1.0
  Zn  Zn2039  1  0.47167567  0.67728333  0.23544936  1.0
  Zn  Zn2040  1  0.80500900  0.01061667  0.23544936  1.0
  Zn  Zn2041  1  0.80500900  0.34395000  0.23544936  1.0
  Zn  Zn2042  1  0.80500900  0.67728333  0.23544936  1.0
  Zn  Zn2043  1  0.17510333  0.20456533  0.18083793  1.0
  Zn  Zn2044  1  0.17510333  0.53789867  0.18083793  1.0
  Zn  Zn2045  1  0.17510333  0.87123200  0.18083793  1.0
  Zn  Zn2046  1  0.50843667  0.20456533  0.18083793  1.0
  Zn  Zn2047  1  0.50843667  0.53789867  0.18083793  1.0
  Zn  Zn2048  1  0.50843667  0.87123200  0.18083793  1.0
  Zn  Zn2049  1  0.84177000  0.20456533  0.18083793  1.0
  Zn  Zn2050  1  0.84177000  0.53789867  0.18083793  1.0
  Zn  Zn2051  1  0.84177000  0.87123200  0.18083793  1.0
  Zn  Zn2052  1  0.16666667  0.00000000  0.28397907  1.0
  Zn  Zn2053  1  0.16666667  0.33333333  0.28397907  1.0
  Zn  Zn2054  1  0.16666667  0.66666667  0.28397907  1.0
  Zn  Zn2055  1  0.50000000  0.00000000  0.28397907  1.0
  Zn  Zn2056  1  0.50000000  0.33333333  0.28397907  1.0
  Zn  Zn2057  1  0.50000000  0.66666667  0.28397907  1.0
  Zn  Zn2058  1  0.83333333  0.00000000  0.28397907  1.0
  Zn  Zn2059  1  0.83333333  0.33333333  0.28397907  1.0
  Zn  Zn2060  1  0.83333333  0.66666667  0.28397907  1.0
  Zn  Zn2061  1  0.30037933  0.07323933  0.28414493  1.0
  Zn  Zn2062  1  0.30037933  0.40657267  0.28414493  1.0
  Zn  Zn2063  1  0.30037933  0.73990600  0.28414493  1.0
  Zn  Zn2064  1  0.63371267  0.07323933  0.28414493  1.0
  Zn  Zn2065  1  0.63371267  0.40657267  0.28414493  1.0
  Zn  Zn2066  1  0.63371267  0.73990600  0.28414493  1.0
  Zn  Zn2067  1  0.96704600  0.07323933  0.28414493  1.0
  Zn  Zn2068  1  0.96704600  0.40657267  0.28414493  1.0
  Zn  Zn2069  1  0.96704600  0.73990600  0.28414493  1.0
  Zn  Zn2070  1  0.11313767  0.26009400  0.28381321  1.0
  Zn  Zn2071  1  0.11313767  0.59342733  0.28381321  1.0
  Zn  Zn2072  1  0.11313767  0.92676067  0.28381321  1.0
  Zn  Zn2073  1  0.44647100  0.26009400  0.28381321  1.0
  Zn  Zn2074  1  0.44647100  0.59342733  0.28381321  1.0
  Zn  Zn2075  1  0.44647100  0.92676067  0.28381321  1.0
  Zn  Zn2076  1  0.77980433  0.26009400  0.28381321  1.0
  Zn  Zn2077  1  0.77980433  0.59342733  0.28381321  1.0
  Zn  Zn2078  1  0.77980433  0.92676067  0.28381321  1.0
  Zn  Zn2079  1  0.30543267  0.02859467  0.19259450  1.0
  Zn  Zn2080  1  0.30543267  0.36192800  0.19259450  1.0
  Zn  Zn2081  1  0.30543267  0.69526133  0.19259450  1.0
  Zn  Zn2082  1  0.63876600  0.02859467  0.19259450  1.0
  Zn  Zn2083  1  0.63876600  0.36192800  0.19259450  1.0
  Zn  Zn2084  1  0.63876600  0.69526133  0.19259450  1.0
  Zn  Zn2085  1  0.97209933  0.02859467  0.19259450  1.0
  Zn  Zn2086  1  0.97209933  0.36192800  0.19259450  1.0
  Zn  Zn2087  1  0.97209933  0.69526133  0.19259450  1.0
  Zn  Zn2088  1  0.29514733  0.03057900  0.24166921  1.0
  Zn  Zn2089  1  0.29514733  0.36391233  0.24166921  1.0
  Zn  Zn2090  1  0.29514733  0.69724567  0.24166921  1.0
  Zn  Zn2091  1  0.62848067  0.03057900  0.24166921  1.0
  Zn  Zn2092  1  0.62848067  0.36391233  0.24166921  1.0
  Zn  Zn2093  1  0.62848067  0.69724567  0.24166921  1.0
  Zn  Zn2094  1  0.96181400  0.03057900  0.24166921  1.0
  Zn  Zn2095  1  0.96181400  0.36391233  0.24166921  1.0
  Zn  Zn2096  1  0.96181400  0.69724567  0.24166921  1.0
  Zn  Zn2097  1  0.13785733  0.09238600  0.24582393  1.0
  Zn  Zn2098  1  0.13785733  0.42571933  0.24582393  1.0
  Zn  Zn2099  1  0.13785733  0.75905267  0.24582393  1.0
  Zn  Zn2100  1  0.47119067  0.09238600  0.24582393  1.0
  Zn  Zn2101  1  0.47119067  0.42571933  0.24582393  1.0
  Zn  Zn2102  1  0.47119067  0.75905267  0.24582393  1.0
  Zn  Zn2103  1  0.80452400  0.09238600  0.24582393  1.0
  Zn  Zn2104  1  0.80452400  0.42571933  0.24582393  1.0
  Zn  Zn2105  1  0.80452400  0.75905267  0.24582393  1.0
  Zn  Zn2106  1  0.15823000  0.12876800  0.24426307  1.0
  Zn  Zn2107  1  0.15823000  0.46210133  0.24426307  1.0
  Zn  Zn2108  1  0.15823000  0.79543467  0.24426307  1.0
  Zn  Zn2109  1  0.49156333  0.12876800  0.24426307  1.0
  Zn  Zn2110  1  0.49156333  0.46210133  0.24426307  1.0
  Zn  Zn2111  1  0.49156333  0.79543467  0.24426307  1.0
  Zn  Zn2112  1  0.82489667  0.12876800  0.24426307  1.0
  Zn  Zn2113  1  0.82489667  0.46210133  0.24426307  1.0
  Zn  Zn2114  1  0.82489667  0.79543467  0.24426307  1.0
  Zn  Zn2115  1  0.27095767  0.05244800  0.22250807  1.0
  Zn  Zn2116  1  0.27095767  0.38578133  0.22250807  1.0
  Zn  Zn2117  1  0.27095767  0.71911467  0.22250807  1.0
  Zn  Zn2118  1  0.60429100  0.05244800  0.22250807  1.0
  Zn  Zn2119  1  0.60429100  0.38578133  0.22250807  1.0
  Zn  Zn2120  1  0.60429100  0.71911467  0.22250807  1.0
  Zn  Zn2121  1  0.93762433  0.05244800  0.22250807  1.0
  Zn  Zn2122  1  0.93762433  0.38578133  0.22250807  1.0
  Zn  Zn2123  1  0.93762433  0.71911467  0.22250807  1.0
  Zn  Zn2124  1  0.27281167  0.32271667  0.18965164  1.0
  Zn  Zn2125  1  0.27281167  0.65605000  0.18965164  1.0
  Zn  Zn2126  1  0.27281167  0.98938333  0.18965164  1.0
  Zn  Zn2127  1  0.60614500  0.32271667  0.18965164  1.0
  Zn  Zn2128  1  0.60614500  0.65605000  0.18965164  1.0
  Zn  Zn2129  1  0.60614500  0.98938333  0.18965164  1.0
  Zn  Zn2130  1  0.93947833  0.32271667  0.18965164  1.0
  Zn  Zn2131  1  0.93947833  0.65605000  0.18965164  1.0
  Zn  Zn2132  1  0.93947833  0.98938333  0.18965164  1.0
  Zn  Zn2133  1  0.24251933  0.30473867  0.23250650  1.0
  Zn  Zn2134  1  0.24251933  0.63807200  0.23250650  1.0
  Zn  Zn2135  1  0.24251933  0.97140533  0.23250650  1.0
  Zn  Zn2136  1  0.57585267  0.30473867  0.23250650  1.0
  Zn  Zn2137  1  0.57585267  0.63807200  0.23250650  1.0
  Zn  Zn2138  1  0.57585267  0.97140533  0.23250650  1.0
  Zn  Zn2139  1  0.90918600  0.30473867  0.23250650  1.0
  Zn  Zn2140  1  0.90918600  0.63807200  0.23250650  1.0
  Zn  Zn2141  1  0.90918600  0.97140533  0.23250650  1.0
  Zn  Zn2142  1  0.27980433  0.23990600  0.26650921  1.0
  Zn  Zn2143  1  0.27980433  0.57323933  0.26650921  1.0
  Zn  Zn2144  1  0.27980433  0.90657267  0.26650921  1.0
  Zn  Zn2145  1  0.61313767  0.23990600  0.26650921  1.0
  Zn  Zn2146  1  0.61313767  0.57323933  0.26650921  1.0
  Zn  Zn2147  1  0.61313767  0.90657267  0.26650921  1.0
  Zn  Zn2148  1  0.94647100  0.23990600  0.26650921  1.0
  Zn  Zn2149  1  0.94647100  0.57323933  0.26650921  1.0
  Zn  Zn2150  1  0.94647100  0.90657267  0.26650921  1.0
  Zn  Zn2151  1  0.13876600  0.13807200  0.14357507  1.0
  Zn  Zn2152  1  0.13876600  0.47140533  0.14357507  1.0
  Zn  Zn2153  1  0.13876600  0.80473867  0.14357507  1.0
  Zn  Zn2154  1  0.47209933  0.13807200  0.14357507  1.0
  Zn  Zn2155  1  0.47209933  0.47140533  0.14357507  1.0
  Zn  Zn2156  1  0.47209933  0.80473867  0.14357507  1.0
  Zn  Zn2157  1  0.80543267  0.13807200  0.14357507  1.0
  Zn  Zn2158  1  0.80543267  0.47140533  0.14357507  1.0
  Zn  Zn2159  1  0.80543267  0.80473867  0.14357507  1.0
  Zn  Zn2160  1  0.06491267  0.15885433  0.24315636  1.0
  Zn  Zn2161  1  0.06491267  0.49218767  0.24315636  1.0
  Zn  Zn2162  1  0.06491267  0.82552100  0.24315636  1.0
  Zn  Zn2163  1  0.39824600  0.15885433  0.24315636  1.0
  Zn  Zn2164  1  0.39824600  0.49218767  0.24315636  1.0
  Zn  Zn2165  1  0.39824600  0.82552100  0.24315636  1.0
  Zn  Zn2166  1  0.73157933  0.15885433  0.24315636  1.0
  Zn  Zn2167  1  0.73157933  0.49218767  0.24315636  1.0
  Zn  Zn2168  1  0.73157933  0.82552100  0.24315636  1.0
  Zn  Zn2169  1  0.10175400  0.32552100  0.16855207  1.0
  Zn  Zn2170  1  0.10175400  0.65885433  0.16855207  1.0
  Zn  Zn2171  1  0.10175400  0.99218767  0.16855207  1.0
  Zn  Zn2172  1  0.43508733  0.32552100  0.16855207  1.0
  Zn  Zn2173  1  0.43508733  0.65885433  0.16855207  1.0
  Zn  Zn2174  1  0.43508733  0.99218767  0.16855207  1.0
  Zn  Zn2175  1  0.76842067  0.32552100  0.16855207  1.0
  Zn  Zn2176  1  0.76842067  0.65885433  0.16855207  1.0
  Zn  Zn2177  1  0.76842067  0.99218767  0.16855207  1.0
  Zn  Zn2178  1  0.24157733  0.13281567  0.22711707  1.0
  Zn  Zn2179  1  0.24157733  0.46614900  0.22711707  1.0
  Zn  Zn2180  1  0.24157733  0.79948233  0.22711707  1.0
  Zn  Zn2181  1  0.57491067  0.13281567  0.22711707  1.0
  Zn  Zn2182  1  0.57491067  0.46614900  0.22711707  1.0
  Zn  Zn2183  1  0.57491067  0.79948233  0.22711707  1.0
  Zn  Zn2184  1  0.90824400  0.13281567  0.22711707  1.0
  Zn  Zn2185  1  0.90824400  0.46614900  0.22711707  1.0
  Zn  Zn2186  1  0.90824400  0.79948233  0.22711707  1.0
  Zn  Zn2187  1  0.27053767  0.11532967  0.15419179  1.0
  Zn  Zn2188  1  0.27053767  0.44866300  0.15419179  1.0
  Zn  Zn2189  1  0.27053767  0.78199633  0.15419179  1.0
  Zn  Zn2190  1  0.60387100  0.11532967  0.15419179  1.0
  Zn  Zn2191  1  0.60387100  0.44866300  0.15419179  1.0
  Zn  Zn2192  1  0.60387100  0.78199633  0.15419179  1.0
  Zn  Zn2193  1  0.93720433  0.11532967  0.15419179  1.0
  Zn  Zn2194  1  0.93720433  0.44866300  0.15419179  1.0
  Zn  Zn2195  1  0.93720433  0.78199633  0.15419179  1.0
  Ni  Ni2196  1  0.24806100  0.26047433  0.14843793  1.0
  Ni  Ni2197  1  0.24806100  0.59380767  0.14843793  1.0
  Ni  Ni2198  1  0.24806100  0.92714100  0.14843793  1.0
  Ni  Ni2199  1  0.58139433  0.26047433  0.14843793  1.0
  Ni  Ni2200  1  0.58139433  0.59380767  0.14843793  1.0
  Ni  Ni2201  1  0.58139433  0.92714100  0.14843793  1.0
  Ni  Ni2202  1  0.91472767  0.26047433  0.14843793  1.0
  Ni  Ni2203  1  0.91472767  0.59380767  0.14843793  1.0
  Ni  Ni2204  1  0.91472767  0.92714100  0.14843793  1.0
  Ni  Ni2205  1  0.24449067  0.05206367  0.25245421  1.0
  Ni  Ni2206  1  0.24449067  0.38539700  0.25245421  1.0
  Ni  Ni2207  1  0.24449067  0.71873033  0.25245421  1.0
  Ni  Ni2208  1  0.57782400  0.05206367  0.25245421  1.0
  Ni  Ni2209  1  0.57782400  0.38539700  0.25245421  1.0
  Ni  Ni2210  1  0.57782400  0.71873033  0.25245421  1.0
  Ni  Ni2211  1  0.91115733  0.05206367  0.25245421  1.0
  Ni  Ni2212  1  0.91115733  0.38539700  0.25245421  1.0
  Ni  Ni2213  1  0.91115733  0.71873033  0.25245421  1.0
  Ni  Ni2214  1  0.19715600  0.32174400  0.25011221  1.0
  Ni  Ni2215  1  0.19715600  0.65507733  0.25011221  1.0
  Ni  Ni2216  1  0.19715600  0.98841067  0.25011221  1.0
  Ni  Ni2217  1  0.53048933  0.32174400  0.25011221  1.0
  Ni  Ni2218  1  0.53048933  0.65507733  0.25011221  1.0
  Ni  Ni2219  1  0.53048933  0.98841067  0.25011221  1.0
  Ni  Ni2220  1  0.86382267  0.32174400  0.25011221  1.0
  Ni  Ni2221  1  0.86382267  0.65507733  0.25011221  1.0
  Ni  Ni2222  1  0.86382267  0.98841067  0.25011221  1.0
  Ni  Ni2223  1  0.25611133  0.01011367  0.22645764  1.0
  Ni  Ni2224  1  0.25611133  0.34344700  0.22645764  1.0
  Ni  Ni2225  1  0.25611133  0.67678033  0.22645764  1.0
  Ni  Ni2226  1  0.58944467  0.01011367  0.22645764  1.0
  Ni  Ni2227  1  0.58944467  0.34344700  0.22645764  1.0
  Ni  Ni2228  1  0.58944467  0.67678033  0.22645764  1.0
  Ni  Ni2229  1  0.92277800  0.01011367  0.22645764  1.0
  Ni  Ni2230  1  0.92277800  0.34344700  0.22645764  1.0
  Ni  Ni2231  1  0.92277800  0.67678033  0.22645764  1.0
  Ni  Ni2232  1  0.08033333  0.32174400  0.25011221  1.0
  Ni  Ni2233  1  0.08033333  0.65507733  0.25011221  1.0
  Ni  Ni2234  1  0.08033333  0.98841067  0.25011221  1.0
  Ni  Ni2235  1  0.41366667  0.32174400  0.25011221  1.0
  Ni  Ni2236  1  0.41366667  0.65507733  0.25011221  1.0
  Ni  Ni2237  1  0.41366667  0.98841067  0.25011221  1.0
  Ni  Ni2238  1  0.74700000  0.32174400  0.25011221  1.0
  Ni  Ni2239  1  0.74700000  0.65507733  0.25011221  1.0
  Ni  Ni2240  1  0.74700000  0.98841067  0.25011221  1.0
  Ni  Ni2241  1  0.08633333  0.15507733  0.15512136  1.0
  Ni  Ni2242  1  0.08633333  0.48841067  0.15512136  1.0
  Ni  Ni2243  1  0.08633333  0.82174400  0.15512136  1.0
  Ni  Ni2244  1  0.41966667  0.15507733  0.15512136  1.0
  Ni  Ni2245  1  0.41966667  0.48841067  0.15512136  1.0
  Ni  Ni2246  1  0.41966667  0.82174400  0.15512136  1.0
  Ni  Ni2247  1  0.75300000  0.15507733  0.15512136  1.0
  Ni  Ni2248  1  0.75300000  0.48841067  0.15512136  1.0
  Ni  Ni2249  1  0.75300000  0.82174400  0.15512136  1.0
  Ni  Ni2250  1  0.08463900  0.03079467  0.24006507  1.0
  Ni  Ni2251  1  0.08463900  0.36412800  0.24006507  1.0
  Ni  Ni2252  1  0.08463900  0.69746133  0.24006507  1.0
  Ni  Ni2253  1  0.41797233  0.03079467  0.24006507  1.0
  Ni  Ni2254  1  0.41797233  0.36412800  0.24006507  1.0
  Ni  Ni2255  1  0.41797233  0.69746133  0.24006507  1.0
  Ni  Ni2256  1  0.75130567  0.03079467  0.24006507  1.0
  Ni  Ni2257  1  0.75130567  0.36412800  0.24006507  1.0
  Ni  Ni2258  1  0.75130567  0.69746133  0.24006507  1.0
  Ni  Ni2259  1  0.08884267  0.28126967  0.17264679  1.0
  Ni  Ni2260  1  0.08884267  0.61460300  0.17264679  1.0
  Ni  Ni2261  1  0.08884267  0.94793633  0.17264679  1.0
  Ni  Ni2262  1  0.42217600  0.28126967  0.17264679  1.0
  Ni  Ni2263  1  0.42217600  0.61460300  0.17264679  1.0
  Ni  Ni2264  1  0.42217600  0.94793633  0.17264679  1.0
  Ni  Ni2265  1  0.75550933  0.28126967  0.17264679  1.0
  Ni  Ni2266  1  0.75550933  0.61460300  0.17264679  1.0
  Ni  Ni2267  1  0.75550933  0.94793633  0.17264679  1.0
  Ni  Ni2268  1  0.08944467  0.15655300  0.20911993  1.0
  Ni  Ni2269  1  0.08944467  0.48988633  0.20911993  1.0
  Ni  Ni2270  1  0.08944467  0.82321967  0.20911993  1.0
  Ni  Ni2271  1  0.42277800  0.15655300  0.20911993  1.0
  Ni  Ni2272  1  0.42277800  0.48988633  0.20911993  1.0
  Ni  Ni2273  1  0.42277800  0.82321967  0.20911993  1.0
  Ni  Ni2274  1  0.75611133  0.15655300  0.20911993  1.0
  Ni  Ni2275  1  0.75611133  0.48988633  0.20911993  1.0
  Ni  Ni2276  1  0.75611133  0.82321967  0.20911993  1.0
  Ni  Ni2277  1  0.08527233  0.07285900  0.27666307  1.0
  Ni  Ni2278  1  0.08527233  0.40619233  0.27666307  1.0
  Ni  Ni2279  1  0.08527233  0.73952567  0.27666307  1.0
  Ni  Ni2280  1  0.41860567  0.07285900  0.27666307  1.0
  Ni  Ni2281  1  0.41860567  0.40619233  0.27666307  1.0
  Ni  Ni2282  1  0.41860567  0.73952567  0.27666307  1.0
  Ni  Ni2283  1  0.75193900  0.07285900  0.27666307  1.0
  Ni  Ni2284  1  0.75193900  0.40619233  0.27666307  1.0
  Ni  Ni2285  1  0.75193900  0.73952567  0.27666307  1.0
  Ni  Ni2286  1  0.07722200  0.32321967  0.19864336  1.0
  Ni  Ni2287  1  0.07722200  0.65655300  0.19864336  1.0
  Ni  Ni2288  1  0.07722200  0.98988633  0.19864336  1.0
  Ni  Ni2289  1  0.41055533  0.32321967  0.19864336  1.0
  Ni  Ni2290  1  0.41055533  0.65655300  0.19864336  1.0
  Ni  Ni2291  1  0.41055533  0.98988633  0.19864336  1.0
  Ni  Ni2292  1  0.74388867  0.32321967  0.19864336  1.0
  Ni  Ni2293  1  0.74388867  0.65655300  0.19864336  1.0
  Ni  Ni2294  1  0.74388867  0.98988633  0.19864336  1.0
  Ni  Ni2295  1  0.03165333  0.05156100  0.16193350  1.0
  Ni  Ni2296  1  0.03165333  0.38489433  0.16193350  1.0
  Ni  Ni2297  1  0.03165333  0.71822767  0.16193350  1.0
  Ni  Ni2298  1  0.36498667  0.05156100  0.16193350  1.0
  Ni  Ni2299  1  0.36498667  0.38489433  0.16193350  1.0
  Ni  Ni2300  1  0.36498667  0.71822767  0.16193350  1.0
  Ni  Ni2301  1  0.69832000  0.05156100  0.16193350  1.0
  Ni  Ni2302  1  0.69832000  0.38489433  0.16193350  1.0
  Ni  Ni2303  1  0.69832000  0.71822767  0.16193350  1.0
  Ni  Ni2304  1  0.25550933  0.21873033  0.26189879  1.0
  Ni  Ni2305  1  0.25550933  0.55206367  0.26189879  1.0
  Ni  Ni2306  1  0.25550933  0.88539700  0.26189879  1.0
  Ni  Ni2307  1  0.58884267  0.21873033  0.26189879  1.0
  Ni  Ni2308  1  0.58884267  0.55206367  0.26189879  1.0
  Ni  Ni2309  1  0.58884267  0.88539700  0.26189879  1.0
  Ni  Ni2310  1  0.92217600  0.21873033  0.26189879  1.0
  Ni  Ni2311  1  0.92217600  0.55206367  0.26189879  1.0
  Ni  Ni2312  1  0.92217600  0.88539700  0.26189879  1.0
  Ni  Ni2313  1  0.08621500  0.28177233  0.26316750  1.0
  Ni  Ni2314  1  0.08621500  0.61510567  0.26316750  1.0
  Ni  Ni2315  1  0.08621500  0.94843900  0.26316750  1.0
  Ni  Ni2316  1  0.41954833  0.28177233  0.26316750  1.0
  Ni  Ni2317  1  0.41954833  0.61510567  0.26316750  1.0
  Ni  Ni2318  1  0.41954833  0.94843900  0.26316750  1.0
  Ni  Ni2319  1  0.75288167  0.28177233  0.26316750  1.0
  Ni  Ni2320  1  0.75288167  0.61510567  0.26316750  1.0
  Ni  Ni2321  1  0.75288167  0.94843900  0.26316750  1.0
  Ni  Ni2322  1  0.08139433  0.23952567  0.27333907  1.0
  Ni  Ni2323  1  0.08139433  0.57285900  0.27333907  1.0
  Ni  Ni2324  1  0.08139433  0.90619233  0.27333907  1.0
  Ni  Ni2325  1  0.41472767  0.23952567  0.27333907  1.0
  Ni  Ni2326  1  0.41472767  0.57285900  0.27333907  1.0
  Ni  Ni2327  1  0.41472767  0.90619233  0.27333907  1.0
  Ni  Ni2328  1  0.74806100  0.23952567  0.27333907  1.0
  Ni  Ni2329  1  0.74806100  0.57285900  0.27333907  1.0
  Ni  Ni2330  1  0.74806100  0.90619233  0.27333907  1.0
  Ni  Ni2331  1  0.24711833  0.05156100  0.16193350  1.0
  Ni  Ni2332  1  0.24711833  0.38489433  0.16193350  1.0
  Ni  Ni2333  1  0.24711833  0.71822767  0.16193350  1.0
  Ni  Ni2334  1  0.58045167  0.05156100  0.16193350  1.0
  Ni  Ni2335  1  0.58045167  0.38489433  0.16193350  1.0
  Ni  Ni2336  1  0.58045167  0.71822767  0.16193350  1.0
  Ni  Ni2337  1  0.91378500  0.05156100  0.16193350  1.0
  Ni  Ni2338  1  0.91378500  0.38489433  0.16193350  1.0
  Ni  Ni2339  1  0.91378500  0.71822767  0.16193350  1.0
  Ni  Ni2340  1  0.13501333  0.21822767  0.20870064  1.0
  Ni  Ni2341  1  0.13501333  0.55156100  0.20870064  1.0
  Ni  Ni2342  1  0.13501333  0.88489433  0.20870064  1.0
  Ni  Ni2343  1  0.46834667  0.21822767  0.20870064  1.0
  Ni  Ni2344  1  0.46834667  0.55156100  0.20870064  1.0
  Ni  Ni2345  1  0.46834667  0.88489433  0.20870064  1.0
  Ni  Ni2346  1  0.80168000  0.21822767  0.20870064  1.0
  Ni  Ni2347  1  0.80168000  0.55156100  0.20870064  1.0
  Ni  Ni2348  1  0.80168000  0.88489433  0.20870064  1.0
  Ni  Ni2349  1  0.24388867  0.17678033  0.21598107  1.0
  Ni  Ni2350  1  0.24388867  0.51011367  0.21598107  1.0
  Ni  Ni2351  1  0.24388867  0.84344700  0.21598107  1.0
  Ni  Ni2352  1  0.57722200  0.17678033  0.21598107  1.0
  Ni  Ni2353  1  0.57722200  0.51011367  0.21598107  1.0
  Ni  Ni2354  1  0.57722200  0.84344700  0.21598107  1.0
  Ni  Ni2355  1  0.91055533  0.17678033  0.21598107  1.0
  Ni  Ni2356  1  0.91055533  0.51011367  0.21598107  1.0
  Ni  Ni2357  1  0.91055533  0.84344700  0.21598107  1.0
  Ni  Ni2358  1  0.30284400  0.15507733  0.15512136  1.0
  Ni  Ni2359  1  0.30284400  0.48841067  0.15512136  1.0
  Ni  Ni2360  1  0.30284400  0.82174400  0.15512136  1.0
  Ni  Ni2361  1  0.63617733  0.15507733  0.15512136  1.0
  Ni  Ni2362  1  0.63617733  0.48841067  0.15512136  1.0
  Ni  Ni2363  1  0.63617733  0.82174400  0.15512136  1.0
  Ni  Ni2364  1  0.96951067  0.15507733  0.15512136  1.0
  Ni  Ni2365  1  0.96951067  0.48841067  0.15512136  1.0
  Ni  Ni2366  1  0.96951067  0.82174400  0.15512136  1.0
  Ni  Ni2367  1  0.25288167  0.21822767  0.20870064  1.0
  Ni  Ni2368  1  0.25288167  0.55156100  0.20870064  1.0
  Ni  Ni2369  1  0.25288167  0.88489433  0.20870064  1.0
  Ni  Ni2370  1  0.58621500  0.21822767  0.20870064  1.0
  Ni  Ni2371  1  0.58621500  0.55156100  0.20870064  1.0
  Ni  Ni2372  1  0.58621500  0.88489433  0.20870064  1.0
  Ni  Ni2373  1  0.91954833  0.21822767  0.20870064  1.0
  Ni  Ni2374  1  0.91954833  0.55156100  0.20870064  1.0
  Ni  Ni2375  1  0.91954833  0.88489433  0.20870064  1.0
  Ni  Ni2376  1  0.24869433  0.30253867  0.18503593  1.0
  Ni  Ni2377  1  0.24869433  0.63587200  0.18503593  1.0
  Ni  Ni2378  1  0.24869433  0.96920533  0.18503593  1.0
  Ni  Ni2379  1  0.58202767  0.30253867  0.18503593  1.0
  Ni  Ni2380  1  0.58202767  0.63587200  0.18503593  1.0
  Ni  Ni2381  1  0.58202767  0.96920533  0.18503593  1.0
  Ni  Ni2382  1  0.91536100  0.30253867  0.18503593  1.0
  Ni  Ni2383  1  0.91536100  0.63587200  0.18503593  1.0
  Ni  Ni2384  1  0.91536100  0.96920533  0.18503593  1.0
  Ni  Ni2385  1  0.24700000  0.17825600  0.26997964  1.0
  Ni  Ni2386  1  0.24700000  0.51158933  0.26997964  1.0
  Ni  Ni2387  1  0.24700000  0.84492267  0.26997964  1.0
  Ni  Ni2388  1  0.58033333  0.17825600  0.26997964  1.0
  Ni  Ni2389  1  0.58033333  0.51158933  0.26997964  1.0
  Ni  Ni2390  1  0.58033333  0.84492267  0.26997964  1.0
  Ni  Ni2391  1  0.91366667  0.17825600  0.26997964  1.0
  Ni  Ni2392  1  0.91366667  0.51158933  0.26997964  1.0
  Ni  Ni2393  1  0.91366667  0.84492267  0.26997964  1.0
  Ni  Ni2394  1  0.30168000  0.28177233  0.26316750  1.0
  Ni  Ni2395  1  0.30168000  0.61510567  0.26316750  1.0
  Ni  Ni2396  1  0.30168000  0.94843900  0.26316750  1.0
  Ni  Ni2397  1  0.63501333  0.28177233  0.26316750  1.0
  Ni  Ni2398  1  0.63501333  0.61510567  0.26316750  1.0
  Ni  Ni2399  1  0.63501333  0.94843900  0.26316750  1.0
  Ni  Ni2400  1  0.96834667  0.28177233  0.26316750  1.0
  Ni  Ni2401  1  0.96834667  0.61510567  0.26316750  1.0
  Ni  Ni2402  1  0.96834667  0.94843900  0.26316750  1.0
  Ni  Ni2403  1  0.08202767  0.19746133  0.23782679  1.0
  Ni  Ni2404  1  0.08202767  0.53079467  0.23782679  1.0
  Ni  Ni2405  1  0.08202767  0.86412800  0.23782679  1.0
  Ni  Ni2406  1  0.41536100  0.19746133  0.23782679  1.0
  Ni  Ni2407  1  0.41536100  0.53079467  0.23782679  1.0
  Ni  Ni2408  1  0.41536100  0.86412800  0.23782679  1.0
  Ni  Ni2409  1  0.74869433  0.19746133  0.23782679  1.0
  Ni  Ni2410  1  0.74869433  0.53079467  0.23782679  1.0
  Ni  Ni2411  1  0.74869433  0.86412800  0.23782679  1.0
  Ni  Ni2412  1  0.08045167  0.11510567  0.21640036  1.0
  Ni  Ni2413  1  0.08045167  0.44843900  0.21640036  1.0
  Ni  Ni2414  1  0.08045167  0.78177233  0.21640036  1.0
  Ni  Ni2415  1  0.41378500  0.11510567  0.21640036  1.0
  Ni  Ni2416  1  0.41378500  0.44843900  0.21640036  1.0
  Ni  Ni2417  1  0.41378500  0.78177233  0.21640036  1.0
  Ni  Ni2418  1  0.74711833  0.11510567  0.21640036  1.0
  Ni  Ni2419  1  0.74711833  0.44843900  0.21640036  1.0
  Ni  Ni2420  1  0.74711833  0.78177233  0.21640036  1.0
  Ni  Ni2421  1  0.25300000  0.01158933  0.17498879  1.0
  Ni  Ni2422  1  0.25300000  0.34492267  0.17498879  1.0
  Ni  Ni2423  1  0.25300000  0.67825600  0.17498879  1.0
  Ni  Ni2424  1  0.58633333  0.01158933  0.17498879  1.0
  Ni  Ni2425  1  0.58633333  0.34492267  0.17498879  1.0
  Ni  Ni2426  1  0.58633333  0.67825600  0.17498879  1.0
  Ni  Ni2427  1  0.91966667  0.01158933  0.17498879  1.0
  Ni  Ni2428  1  0.91966667  0.34492267  0.17498879  1.0
  Ni  Ni2429  1  0.91966667  0.67825600  0.17498879  1.0
  Ni  Ni2430  1  0.25193900  0.09380767  0.15176193  1.0
  Ni  Ni2431  1  0.25193900  0.42714100  0.15176193  1.0
  Ni  Ni2432  1  0.25193900  0.76047433  0.15176193  1.0
  Ni  Ni2433  1  0.58527233  0.09380767  0.15176193  1.0
  Ni  Ni2434  1  0.58527233  0.42714100  0.15176193  1.0
  Ni  Ni2435  1  0.58527233  0.76047433  0.15176193  1.0
  Ni  Ni2436  1  0.91860567  0.09380767  0.15176193  1.0
  Ni  Ni2437  1  0.91860567  0.42714100  0.15176193  1.0
  Ni  Ni2438  1  0.91860567  0.76047433  0.15176193  1.0
  Ni  Ni2439  1  0.03048933  0.17825600  0.26997964  1.0
  Ni  Ni2440  1  0.03048933  0.51158933  0.26997964  1.0
  Ni  Ni2441  1  0.03048933  0.84492267  0.26997964  1.0
  Ni  Ni2442  1  0.36382267  0.17825600  0.26997964  1.0
  Ni  Ni2443  1  0.36382267  0.51158933  0.26997964  1.0
  Ni  Ni2444  1  0.36382267  0.84492267  0.26997964  1.0
  Ni  Ni2445  1  0.69715600  0.17825600  0.26997964  1.0
  Ni  Ni2446  1  0.69715600  0.51158933  0.26997964  1.0
  Ni  Ni2447  1  0.69715600  0.84492267  0.26997964  1.0
  Ni  Ni2448  1  0.07782400  0.11460300  0.16320221  1.0
  Ni  Ni2449  1  0.07782400  0.44793633  0.16320221  1.0
  Ni  Ni2450  1  0.07782400  0.78126967  0.16320221  1.0
  Ni  Ni2451  1  0.41115733  0.11460300  0.16320221  1.0
  Ni  Ni2452  1  0.41115733  0.44793633  0.16320221  1.0
  Ni  Ni2453  1  0.41115733  0.78126967  0.16320221  1.0
  Ni  Ni2454  1  0.74449067  0.11460300  0.16320221  1.0
  Ni  Ni2455  1  0.74449067  0.44793633  0.16320221  1.0
  Ni  Ni2456  1  0.74449067  0.78126967  0.16320221  1.0
  Ni  Ni2457  1  0.19832000  0.11510567  0.21640036  1.0
  Ni  Ni2458  1  0.19832000  0.44843900  0.21640036  1.0
  Ni  Ni2459  1  0.19832000  0.78177233  0.21640036  1.0
  Ni  Ni2460  1  0.53165333  0.11510567  0.21640036  1.0
  Ni  Ni2461  1  0.53165333  0.44843900  0.21640036  1.0
  Ni  Ni2462  1  0.53165333  0.78177233  0.21640036  1.0
  Ni  Ni2463  1  0.86498667  0.11510567  0.21640036  1.0
  Ni  Ni2464  1  0.86498667  0.44843900  0.21640036  1.0
  Ni  Ni2465  1  0.86498667  0.78177233  0.21640036  1.0
  Ni  Ni2466  1  0.25130567  0.13587200  0.18727421  1.0
  Ni  Ni2467  1  0.25130567  0.46920533  0.18727421  1.0
  Ni  Ni2468  1  0.25130567  0.80253867  0.18727421  1.0
  Ni  Ni2469  1  0.58463900  0.13587200  0.18727421  1.0
  Ni  Ni2470  1  0.58463900  0.46920533  0.18727421  1.0
  Ni  Ni2471  1  0.58463900  0.80253867  0.18727421  1.0
  Ni  Ni2472  1  0.91797233  0.13587200  0.18727421  1.0
  Ni  Ni2473  1  0.91797233  0.46920533  0.18727421  1.0
  Ni  Ni2474  1  0.91797233  0.80253867  0.18727421  1.0
  Ni  Ni2475  1  0.13617733  0.01158933  0.17498879  1.0
  Ni  Ni2476  1  0.13617733  0.34492267  0.17498879  1.0
  Ni  Ni2477  1  0.13617733  0.67825600  0.17498879  1.0
  Ni  Ni2478  1  0.46951067  0.01158933  0.17498879  1.0
  Ni  Ni2479  1  0.46951067  0.34492267  0.17498879  1.0
  Ni  Ni2480  1  0.46951067  0.67825600  0.17498879  1.0
  Ni  Ni2481  1  0.80284400  0.01158933  0.17498879  1.0
  Ni  Ni2482  1  0.80284400  0.34492267  0.17498879  1.0
  Ni  Ni2483  1  0.80284400  0.67825600  0.17498879  1.0
  Zn  Zn2484  1  0.08834200  0.07428067  0.37316221  1.0
  Zn  Zn2485  1  0.08834200  0.40761400  0.37316221  1.0
  Zn  Zn2486  1  0.08834200  0.74094733  0.37316221  1.0
  Zn  Zn2487  1  0.42167533  0.07428067  0.37316221  1.0
  Zn  Zn2488  1  0.42167533  0.40761400  0.37316221  1.0
  Zn  Zn2489  1  0.42167533  0.74094733  0.37316221  1.0
  Zn  Zn2490  1  0.75500867  0.07428067  0.37316221  1.0
  Zn  Zn2491  1  0.75500867  0.40761400  0.37316221  1.0
  Zn  Zn2492  1  0.75500867  0.74094733  0.37316221  1.0
  Zn  Zn2493  1  0.30655333  0.20051767  0.34084107  1.0
  Zn  Zn2494  1  0.30655333  0.53385100  0.34084107  1.0
  Zn  Zn2495  1  0.30655333  0.86718433  0.34084107  1.0
  Zn  Zn2496  1  0.63988667  0.20051767  0.34084107  1.0
  Zn  Zn2497  1  0.63988667  0.53385100  0.34084107  1.0
  Zn  Zn2498  1  0.63988667  0.86718433  0.34084107  1.0
  Zn  Zn2499  1  0.97322000  0.20051767  0.34084107  1.0
  Zn  Zn2500  1  0.97322000  0.53385100  0.34084107  1.0
  Zn  Zn2501  1  0.97322000  0.86718433  0.34084107  1.0
  Zn  Zn2502  1  0.17815100  0.02546533  0.31565021  1.0
  Zn  Zn2503  1  0.17815100  0.35879867  0.31565021  1.0
  Zn  Zn2504  1  0.17815100  0.69213200  0.31565021  1.0
  Zn  Zn2505  1  0.51148433  0.02546533  0.31565021  1.0
  Zn  Zn2506  1  0.51148433  0.35879867  0.31565021  1.0
  Zn  Zn2507  1  0.51148433  0.69213200  0.31565021  1.0
  Zn  Zn2508  1  0.84481767  0.02546533  0.31565021  1.0
  Zn  Zn2509  1  0.84481767  0.35879867  0.31565021  1.0
  Zn  Zn2510  1  0.84481767  0.69213200  0.31565021  1.0
  Zn  Zn2511  1  0.32489667  0.03789867  0.30923221  1.0
  Zn  Zn2512  1  0.32489667  0.37123200  0.30923221  1.0
  Zn  Zn2513  1  0.32489667  0.70456533  0.30923221  1.0
  Zn  Zn2514  1  0.65823000  0.03789867  0.30923221  1.0
  Zn  Zn2515  1  0.65823000  0.37123200  0.30923221  1.0
  Zn  Zn2516  1  0.65823000  0.70456533  0.30923221  1.0
  Zn  Zn2517  1  0.99156333  0.03789867  0.30923221  1.0
  Zn  Zn2518  1  0.99156333  0.37123200  0.30923221  1.0
  Zn  Zn2519  1  0.99156333  0.70456533  0.30923221  1.0
  Zn  Zn2520  1  0.09616533  0.23606133  0.37478607  1.0
  Zn  Zn2521  1  0.09616533  0.56939467  0.37478607  1.0
  Zn  Zn2522  1  0.09616533  0.90272800  0.37478607  1.0
  Zn  Zn2523  1  0.42949867  0.23606133  0.37478607  1.0
  Zn  Zn2524  1  0.42949867  0.56939467  0.37478607  1.0
  Zn  Zn2525  1  0.42949867  0.90272800  0.37478607  1.0
  Zn  Zn2526  1  0.76283200  0.23606133  0.37478607  1.0
  Zn  Zn2527  1  0.76283200  0.56939467  0.37478607  1.0
  Zn  Zn2528  1  0.76283200  0.90272800  0.37478607  1.0
  Zn  Zn2529  1  0.31729733  0.11546267  0.36920193  1.0
  Zn  Zn2530  1  0.31729733  0.44879600  0.36920193  1.0
  Zn  Zn2531  1  0.31729733  0.78212933  0.36920193  1.0
  Zn  Zn2532  1  0.65063067  0.11546267  0.36920193  1.0
  Zn  Zn2533  1  0.65063067  0.44879600  0.36920193  1.0
  Zn  Zn2534  1  0.65063067  0.78212933  0.36920193  1.0
  Zn  Zn2535  1  0.98396400  0.11546267  0.36920193  1.0
  Zn  Zn2536  1  0.98396400  0.44879600  0.36920193  1.0
  Zn  Zn2537  1  0.98396400  0.78212933  0.36920193  1.0
  Zn  Zn2538  1  0.32019367  0.24271933  0.33790450  1.0
  Zn  Zn2539  1  0.32019367  0.57605267  0.33790450  1.0
  Zn  Zn2540  1  0.32019367  0.90938600  0.33790450  1.0
  Zn  Zn2541  1  0.65352700  0.24271933  0.33790450  1.0
  Zn  Zn2542  1  0.65352700  0.57605267  0.33790450  1.0
  Zn  Zn2543  1  0.65352700  0.90938600  0.33790450  1.0
  Zn  Zn2544  1  0.98686033  0.24271933  0.33790450  1.0
  Zn  Zn2545  1  0.98686033  0.57605267  0.33790450  1.0
  Zn  Zn2546  1  0.98686033  0.90938600  0.33790450  1.0
  Zn  Zn2547  1  0.18879233  0.15885433  0.38601350  1.0
  Zn  Zn2548  1  0.18879233  0.49218767  0.38601350  1.0
  Zn  Zn2549  1  0.18879233  0.82552100  0.38601350  1.0
  Zn  Zn2550  1  0.52212567  0.15885433  0.38601350  1.0
  Zn  Zn2551  1  0.52212567  0.49218767  0.38601350  1.0
  Zn  Zn2552  1  0.52212567  0.82552100  0.38601350  1.0
  Zn  Zn2553  1  0.85545900  0.15885433  0.38601350  1.0
  Zn  Zn2554  1  0.85545900  0.49218767  0.38601350  1.0
  Zn  Zn2555  1  0.85545900  0.82552100  0.38601350  1.0
  Zn  Zn2556  1  0.13371267  0.09342733  0.30144893  1.0
  Zn  Zn2557  1  0.13371267  0.42676067  0.30144893  1.0
  Zn  Zn2558  1  0.13371267  0.76009400  0.30144893  1.0
  Zn  Zn2559  1  0.46704600  0.09342733  0.30144893  1.0
  Zn  Zn2560  1  0.46704600  0.42676067  0.30144893  1.0
  Zn  Zn2561  1  0.46704600  0.76009400  0.30144893  1.0
  Zn  Zn2562  1  0.80037933  0.09342733  0.30144893  1.0
  Zn  Zn2563  1  0.80037933  0.42676067  0.30144893  1.0
  Zn  Zn2564  1  0.80037933  0.76009400  0.30144893  1.0
  Zn  Zn2565  1  0.06279567  0.21800367  0.41376636  1.0
  Zn  Zn2566  1  0.06279567  0.55133700  0.41376636  1.0
  Zn  Zn2567  1  0.06279567  0.88467033  0.41376636  1.0
  Zn  Zn2568  1  0.39612900  0.21800367  0.41376636  1.0
  Zn  Zn2569  1  0.39612900  0.55133700  0.41376636  1.0
  Zn  Zn2570  1  0.39612900  0.88467033  0.41376636  1.0
  Zn  Zn2571  1  0.72946233  0.21800367  0.41376636  1.0
  Zn  Zn2572  1  0.72946233  0.55133700  0.41376636  1.0
  Zn  Zn2573  1  0.72946233  0.88467033  0.41376636  1.0
  Zn  Zn2574  1  0.02790067  0.30473867  0.37536364  1.0
  Zn  Zn2575  1  0.02790067  0.63807200  0.37536364  1.0
  Zn  Zn2576  1  0.02790067  0.97140533  0.37536364  1.0
  Zn  Zn2577  1  0.36123400  0.30473867  0.37536364  1.0
  Zn  Zn2578  1  0.36123400  0.63807200  0.37536364  1.0
  Zn  Zn2579  1  0.36123400  0.97140533  0.37536364  1.0
  Zn  Zn2580  1  0.69456733  0.30473867  0.37536364  1.0
  Zn  Zn2581  1  0.69456733  0.63807200  0.37536364  1.0
  Zn  Zn2582  1  0.69456733  0.97140533  0.37536364  1.0
  Zn  Zn2583  1  0.23157933  0.00781233  0.39940607  1.0
  Zn  Zn2584  1  0.23157933  0.34114567  0.39940607  1.0
  Zn  Zn2585  1  0.23157933  0.67447900  0.39940607  1.0
  Zn  Zn2586  1  0.56491267  0.00781233  0.39940607  1.0
  Zn  Zn2587  1  0.56491267  0.34114567  0.39940607  1.0
  Zn  Zn2588  1  0.56491267  0.67447900  0.39940607  1.0
  Zn  Zn2589  1  0.89824600  0.00781233  0.39940607  1.0
  Zn  Zn2590  1  0.89824600  0.34114567  0.39940607  1.0
  Zn  Zn2591  1  0.89824600  0.67447900  0.39940607  1.0
  Zn  Zn2592  1  0.00000000  0.16666667  0.42683621  1.0
  Zn  Zn2593  1  0.00000000  0.50000000  0.42683621  1.0
  Zn  Zn2594  1  0.00000000  0.83333333  0.42683621  1.0
  Zn  Zn2595  1  0.33333333  0.16666667  0.42683621  1.0
  Zn  Zn2596  1  0.33333333  0.50000000  0.42683621  1.0
  Zn  Zn2597  1  0.33333333  0.83333333  0.42683621  1.0
  Zn  Zn2598  1  0.66666667  0.16666667  0.42683621  1.0
  Zn  Zn2599  1  0.66666667  0.50000000  0.42683621  1.0
  Zn  Zn2600  1  0.66666667  0.83333333  0.42683621  1.0
  Zn  Zn2601  1  0.14738067  0.05244800  0.36536521  1.0
  Zn  Zn2602  1  0.14738067  0.38578133  0.36536521  1.0
  Zn  Zn2603  1  0.14738067  0.71911467  0.36536521  1.0
  Zn  Zn2604  1  0.48071400  0.05244800  0.36536521  1.0
  Zn  Zn2605  1  0.48071400  0.38578133  0.36536521  1.0
  Zn  Zn2606  1  0.48071400  0.71911467  0.36536521  1.0
  Zn  Zn2607  1  0.81404733  0.05244800  0.36536521  1.0
  Zn  Zn2608  1  0.81404733  0.38578133  0.36536521  1.0
  Zn  Zn2609  1  0.81404733  0.71911467  0.36536521  1.0
  Zn  Zn2610  1  0.18973833  0.06939467  0.31213436  1.0
  Zn  Zn2611  1  0.18973833  0.40272800  0.31213436  1.0
  Zn  Zn2612  1  0.18973833  0.73606133  0.31213436  1.0
  Zn  Zn2613  1  0.52307167  0.06939467  0.31213436  1.0
  Zn  Zn2614  1  0.52307167  0.40272800  0.31213436  1.0
  Zn  Zn2615  1  0.52307167  0.73606133  0.31213436  1.0
  Zn  Zn2616  1  0.85640500  0.06939467  0.31213436  1.0
  Zn  Zn2617  1  0.85640500  0.40272800  0.31213436  1.0
  Zn  Zn2618  1  0.85640500  0.73606133  0.31213436  1.0
  Zn  Zn2619  1  0.21163833  0.03057900  0.38452636  1.0
  Zn  Zn2620  1  0.21163833  0.36391233  0.38452636  1.0
  Zn  Zn2621  1  0.21163833  0.69724567  0.38452636  1.0
  Zn  Zn2622  1  0.54497167  0.03057900  0.38452636  1.0
  Zn  Zn2623  1  0.54497167  0.36391233  0.38452636  1.0
  Zn  Zn2624  1  0.54497167  0.69724567  0.38452636  1.0
  Zn  Zn2625  1  0.87830500  0.03057900  0.38452636  1.0
  Zn  Zn2626  1  0.87830500  0.36391233  0.38452636  1.0
  Zn  Zn2627  1  0.87830500  0.69724567  0.38452636  1.0
  Zn  Zn2628  1  0.01148433  0.14120133  0.41485250  1.0
  Zn  Zn2629  1  0.01148433  0.47453467  0.41485250  1.0
  Zn  Zn2630  1  0.01148433  0.80786800  0.41485250  1.0
  Zn  Zn2631  1  0.34481767  0.14120133  0.41485250  1.0
  Zn  Zn2632  1  0.34481767  0.47453467  0.41485250  1.0
  Zn  Zn2633  1  0.34481767  0.80786800  0.41485250  1.0
  Zn  Zn2634  1  0.67815100  0.14120133  0.41485250  1.0
  Zn  Zn2635  1  0.67815100  0.47453467  0.41485250  1.0
  Zn  Zn2636  1  0.67815100  0.80786800  0.41485250  1.0
  Zn  Zn2637  1  0.19344667  0.03385100  0.42800450  1.0
  Zn  Zn2638  1  0.19344667  0.36718433  0.42800450  1.0
  Zn  Zn2639  1  0.19344667  0.70051767  0.42800450  1.0
  Zn  Zn2640  1  0.52678000  0.03385100  0.42800450  1.0
  Zn  Zn2641  1  0.52678000  0.36718433  0.42800450  1.0
  Zn  Zn2642  1  0.52678000  0.70051767  0.42800450  1.0
  Zn  Zn2643  1  0.86011333  0.03385100  0.42800450  1.0
  Zn  Zn2644  1  0.86011333  0.36718433  0.42800450  1.0
  Zn  Zn2645  1  0.86011333  0.70051767  0.42800450  1.0
  Zn  Zn2646  1  0.02880933  0.25905267  0.33765307  1.0
  Zn  Zn2647  1  0.02880933  0.59238600  0.33765307  1.0
  Zn  Zn2648  1  0.02880933  0.92571933  0.33765307  1.0
  Zn  Zn2649  1  0.36214267  0.25905267  0.33765307  1.0
  Zn  Zn2650  1  0.36214267  0.59238600  0.33765307  1.0
  Zn  Zn2651  1  0.36214267  0.92571933  0.33765307  1.0
  Zn  Zn2652  1  0.69547600  0.25905267  0.33765307  1.0
  Zn  Zn2653  1  0.69547600  0.59238600  0.33765307  1.0
  Zn  Zn2654  1  0.69547600  0.92571933  0.33765307  1.0
  Zn  Zn2655  1  0.09081400  0.02859467  0.33545164  1.0
  Zn  Zn2656  1  0.09081400  0.36192800  0.33545164  1.0
  Zn  Zn2657  1  0.09081400  0.69526133  0.33545164  1.0
  Zn  Zn2658  1  0.42414733  0.02859467  0.33545164  1.0
  Zn  Zn2659  1  0.42414733  0.36192800  0.33545164  1.0
  Zn  Zn2660  1  0.42414733  0.69526133  0.33545164  1.0
  Zn  Zn2661  1  0.75748067  0.02859467  0.33545164  1.0
  Zn  Zn2662  1  0.75748067  0.36192800  0.33545164  1.0
  Zn  Zn2663  1  0.75748067  0.69526133  0.33545164  1.0
  Zn  Zn2664  1  0.31120767  0.32552100  0.31140921  1.0
  Zn  Zn2665  1  0.31120767  0.65885433  0.31140921  1.0
  Zn  Zn2666  1  0.31120767  0.99218767  0.31140921  1.0
  Zn  Zn2667  1  0.64454100  0.32552100  0.31140921  1.0
  Zn  Zn2668  1  0.64454100  0.65885433  0.31140921  1.0
  Zn  Zn2669  1  0.64454100  0.99218767  0.31140921  1.0
  Zn  Zn2670  1  0.97787433  0.32552100  0.31140921  1.0
  Zn  Zn2671  1  0.97787433  0.65885433  0.31140921  1.0
  Zn  Zn2672  1  0.97787433  0.99218767  0.31140921  1.0
  Zn  Zn2673  1  0.14989367  0.17866400  0.42274279  1.0
  Zn  Zn2674  1  0.14989367  0.51199733  0.42274279  1.0
  Zn  Zn2675  1  0.14989367  0.84533067  0.42274279  1.0
  Zn  Zn2676  1  0.48322700  0.17866400  0.42274279  1.0
  Zn  Zn2677  1  0.48322700  0.51199733  0.42274279  1.0
  Zn  Zn2678  1  0.48322700  0.84533067  0.42274279  1.0
  Zn  Zn2679  1  0.81656033  0.17866400  0.42274279  1.0
  Zn  Zn2680  1  0.81656033  0.51199733  0.42274279  1.0
  Zn  Zn2681  1  0.81656033  0.84533067  0.42274279  1.0
  Zn  Zn2682  1  0.01603600  0.21787067  0.34161336  1.0
  Zn  Zn2683  1  0.01603600  0.55120400  0.34161336  1.0
  Zn  Zn2684  1  0.01603600  0.88453733  0.34161336  1.0
  Zn  Zn2685  1  0.34936933  0.21787067  0.34161336  1.0
  Zn  Zn2686  1  0.34936933  0.55120400  0.34161336  1.0
  Zn  Zn2687  1  0.34936933  0.88453733  0.34161336  1.0
  Zn  Zn2688  1  0.68270267  0.21787067  0.34161336  1.0
  Zn  Zn2689  1  0.68270267  0.55120400  0.34161336  1.0
  Zn  Zn2690  1  0.68270267  0.88453733  0.34161336  1.0
  Zn  Zn2691  1  0.25748067  0.13807200  0.28643221  1.0
  Zn  Zn2692  1  0.25748067  0.47140533  0.28643221  1.0
  Zn  Zn2693  1  0.25748067  0.80473867  0.28643221  1.0
  Zn  Zn2694  1  0.59081400  0.13807200  0.28643221  1.0
  Zn  Zn2695  1  0.59081400  0.47140533  0.28643221  1.0
  Zn  Zn2696  1  0.59081400  0.80473867  0.28643221  1.0
  Zn  Zn2697  1  0.92414733  0.13807200  0.28643221  1.0
  Zn  Zn2698  1  0.92414733  0.47140533  0.28643221  1.0
  Zn  Zn2699  1  0.92414733  0.80473867  0.28643221  1.0
  Zn  Zn2700  1  0.17980633  0.07605267  0.36042964  1.0
  Zn  Zn2701  1  0.17980633  0.40938600  0.36042964  1.0
  Zn  Zn2702  1  0.17980633  0.74271933  0.36042964  1.0
  Zn  Zn2703  1  0.51313967  0.07605267  0.36042964  1.0
  Zn  Zn2704  1  0.51313967  0.40938600  0.36042964  1.0
  Zn  Zn2705  1  0.51313967  0.74271933  0.36042964  1.0
  Zn  Zn2706  1  0.84647300  0.07605267  0.36042964  1.0
  Zn  Zn2707  1  0.84647300  0.40938600  0.36042964  1.0
  Zn  Zn2708  1  0.84647300  0.74271933  0.36042964  1.0
  Zn  Zn2709  1  0.25842267  0.29948233  0.42566793  1.0
  Zn  Zn2710  1  0.25842267  0.63281567  0.42566793  1.0
  Zn  Zn2711  1  0.25842267  0.96614900  0.42566793  1.0
  Zn  Zn2712  1  0.59175600  0.29948233  0.42566793  1.0
  Zn  Zn2713  1  0.59175600  0.63281567  0.42566793  1.0
  Zn  Zn2714  1  0.59175600  0.96614900  0.42566793  1.0
  Zn  Zn2715  1  0.92508933  0.29948233  0.42566793  1.0
  Zn  Zn2716  1  0.92508933  0.63281567  0.42566793  1.0
  Zn  Zn2717  1  0.92508933  0.96614900  0.42566793  1.0
  Zn  Zn2718  1  0.31026167  0.23606133  0.37478607  1.0
  Zn  Zn2719  1  0.31026167  0.56939467  0.37478607  1.0
  Zn  Zn2720  1  0.31026167  0.90272800  0.37478607  1.0
  Zn  Zn2721  1  0.64359500  0.23606133  0.37478607  1.0
  Zn  Zn2722  1  0.64359500  0.56939467  0.37478607  1.0
  Zn  Zn2723  1  0.64359500  0.90272800  0.37478607  1.0
  Zn  Zn2724  1  0.97692833  0.23606133  0.37478607  1.0
  Zn  Zn2725  1  0.97692833  0.56939467  0.37478607  1.0
  Zn  Zn2726  1  0.97692833  0.90272800  0.37478607  1.0
  Zn  Zn2727  1  0.31656033  0.32133600  0.40217593  1.0
  Zn  Zn2728  1  0.31656033  0.65466933  0.40217593  1.0
  Zn  Zn2729  1  0.31656033  0.98800267  0.40217593  1.0
  Zn  Zn2730  1  0.64989367  0.32133600  0.40217593  1.0
  Zn  Zn2731  1  0.64989367  0.65466933  0.40217593  1.0
  Zn  Zn2732  1  0.64989367  0.98800267  0.40217593  1.0
  Zn  Zn2733  1  0.98322700  0.32133600  0.40217593  1.0
  Zn  Zn2734  1  0.98322700  0.65466933  0.40217593  1.0
  Zn  Zn2735  1  0.98322700  0.98800267  0.40217593  1.0
  Zn  Zn2736  1  0.22019567  0.07323933  0.42700207  1.0
  Zn  Zn2737  1  0.22019567  0.40657267  0.42700207  1.0
  Zn  Zn2738  1  0.22019567  0.73990600  0.42700207  1.0
  Zn  Zn2739  1  0.55352900  0.07323933  0.42700207  1.0
  Zn  Zn2740  1  0.55352900  0.40657267  0.42700207  1.0
  Zn  Zn2741  1  0.55352900  0.73990600  0.42700207  1.0
  Zn  Zn2742  1  0.88686233  0.07323933  0.42700207  1.0
  Zn  Zn2743  1  0.88686233  0.40657267  0.42700207  1.0
  Zn  Zn2744  1  0.88686233  0.73990600  0.42700207  1.0
  Zn  Zn2745  1  0.06237567  0.28088533  0.34545007  1.0
  Zn  Zn2746  1  0.06237567  0.61421867  0.34545007  1.0
  Zn  Zn2747  1  0.06237567  0.94755200  0.34545007  1.0
  Zn  Zn2748  1  0.39570900  0.28088533  0.34545007  1.0
  Zn  Zn2749  1  0.39570900  0.61421867  0.34545007  1.0
  Zn  Zn2750  1  0.39570900  0.94755200  0.34545007  1.0
  Zn  Zn2751  1  0.72904233  0.28088533  0.34545007  1.0
  Zn  Zn2752  1  0.72904233  0.61421867  0.34545007  1.0
  Zn  Zn2753  1  0.72904233  0.94755200  0.34545007  1.0
  Zn  Zn2754  1  0.18343967  0.15466933  0.28807250  1.0
  Zn  Zn2755  1  0.18343967  0.48800267  0.28807250  1.0
  Zn  Zn2756  1  0.18343967  0.82133600  0.28807250  1.0
  Zn  Zn2757  1  0.51677300  0.15466933  0.28807250  1.0
  Zn  Zn2758  1  0.51677300  0.48800267  0.28807250  1.0
  Zn  Zn2759  1  0.51677300  0.82133600  0.28807250  1.0
  Zn  Zn2760  1  0.85010633  0.15466933  0.28807250  1.0
  Zn  Zn2761  1  0.85010633  0.48800267  0.28807250  1.0
  Zn  Zn2762  1  0.85010633  0.82133600  0.28807250  1.0
  Zn  Zn2763  1  0.03818600  0.30275433  0.32628893  1.0
  Zn  Zn2764  1  0.03818600  0.63608767  0.32628893  1.0
  Zn  Zn2765  1  0.03818600  0.96942100  0.32628893  1.0
  Zn  Zn2766  1  0.37151933  0.30275433  0.32628893  1.0
  Zn  Zn2767  1  0.37151933  0.63608767  0.32628893  1.0
  Zn  Zn2768  1  0.37151933  0.96942100  0.32628893  1.0
  Zn  Zn2769  1  0.70485267  0.30275433  0.32628893  1.0
  Zn  Zn2770  1  0.70485267  0.63608767  0.32628893  1.0
  Zn  Zn2771  1  0.70485267  0.96942100  0.32628893  1.0
  Zn  Zn2772  1  0.18595267  0.28088533  0.34545007  1.0
  Zn  Zn2773  1  0.18595267  0.61421867  0.34545007  1.0
  Zn  Zn2774  1  0.18595267  0.94755200  0.34545007  1.0
  Zn  Zn2775  1  0.51928600  0.28088533  0.34545007  1.0
  Zn  Zn2776  1  0.51928600  0.61421867  0.34545007  1.0
  Zn  Zn2777  1  0.51928600  0.94755200  0.34545007  1.0
  Zn  Zn2778  1  0.85261933  0.28088533  0.34545007  1.0
  Zn  Zn2779  1  0.85261933  0.61421867  0.34545007  1.0
  Zn  Zn2780  1  0.85261933  0.94755200  0.34545007  1.0
  Zn  Zn2781  1  0.02832433  0.17728333  0.35070879  1.0
  Zn  Zn2782  1  0.02832433  0.51061667  0.35070879  1.0
  Zn  Zn2783  1  0.02832433  0.84395000  0.35070879  1.0
  Zn  Zn2784  1  0.36165767  0.17728333  0.35070879  1.0
  Zn  Zn2785  1  0.36165767  0.51061667  0.35070879  1.0
  Zn  Zn2786  1  0.36165767  0.84395000  0.35070879  1.0
  Zn  Zn2787  1  0.69499100  0.17728333  0.35070879  1.0
  Zn  Zn2788  1  0.69499100  0.51061667  0.35070879  1.0
  Zn  Zn2789  1  0.69499100  0.84395000  0.35070879  1.0
  Zn  Zn2790  1  0.19499100  0.32271667  0.33250879  1.0
  Zn  Zn2791  1  0.19499100  0.65605000  0.33250879  1.0
  Zn  Zn2792  1  0.19499100  0.98938333  0.33250879  1.0
  Zn  Zn2793  1  0.52832433  0.32271667  0.33250879  1.0
  Zn  Zn2794  1  0.52832433  0.65605000  0.33250879  1.0
  Zn  Zn2795  1  0.52832433  0.98938333  0.33250879  1.0
  Zn  Zn2796  1  0.86165767  0.32271667  0.33250879  1.0
  Zn  Zn2797  1  0.86165767  0.65605000  0.33250879  1.0
  Zn  Zn2798  1  0.86165767  0.98938333  0.33250879  1.0
  Zn  Zn2799  1  0.26283200  0.26393867  0.39868093  1.0
  Zn  Zn2800  1  0.26283200  0.59727200  0.39868093  1.0
  Zn  Zn2801  1  0.26283200  0.93060533  0.39868093  1.0
  Zn  Zn2802  1  0.59616533  0.26393867  0.39868093  1.0
  Zn  Zn2803  1  0.59616533  0.59727200  0.39868093  1.0
  Zn  Zn2804  1  0.59616533  0.93060533  0.39868093  1.0
  Zn  Zn2805  1  0.92949867  0.26393867  0.39868093  1.0
  Zn  Zn2806  1  0.92949867  0.59727200  0.39868093  1.0
  Zn  Zn2807  1  0.92949867  0.93060533  0.39868093  1.0
  Zn  Zn2808  1  0.13736733  0.21800367  0.41376636  1.0
  Zn  Zn2809  1  0.13736733  0.55133700  0.41376636  1.0
  Zn  Zn2810  1  0.13736733  0.88467033  0.41376636  1.0
  Zn  Zn2811  1  0.47070067  0.21800367  0.41376636  1.0
  Zn  Zn2812  1  0.47070067  0.55133700  0.41376636  1.0
  Zn  Zn2813  1  0.47070067  0.88467033  0.41376636  1.0
  Zn  Zn2814  1  0.80403400  0.21800367  0.41376636  1.0
  Zn  Zn2815  1  0.80403400  0.55133700  0.41376636  1.0
  Zn  Zn2816  1  0.80403400  0.88467033  0.41376636  1.0
  Zn  Zn2817  1  0.12169500  0.30275433  0.32628893  1.0
  Zn  Zn2818  1  0.12169500  0.63608767  0.32628893  1.0
  Zn  Zn2819  1  0.12169500  0.96942100  0.32628893  1.0
  Zn  Zn2820  1  0.45502833  0.30275433  0.32628893  1.0
  Zn  Zn2821  1  0.45502833  0.63608767  0.32628893  1.0
  Zn  Zn2822  1  0.45502833  0.96942100  0.32628893  1.0
  Zn  Zn2823  1  0.78836167  0.30275433  0.32628893  1.0
  Zn  Zn2824  1  0.78836167  0.63608767  0.32628893  1.0
  Zn  Zn2825  1  0.78836167  0.96942100  0.32628893  1.0
  Zn  Zn2826  1  0.16231733  0.10314033  0.36865707  1.0
  Zn  Zn2827  1  0.16231733  0.43647367  0.36865707  1.0
  Zn  Zn2828  1  0.16231733  0.76980700  0.36865707  1.0
  Zn  Zn2829  1  0.49565067  0.10314033  0.36865707  1.0
  Zn  Zn2830  1  0.49565067  0.43647367  0.36865707  1.0
  Zn  Zn2831  1  0.49565067  0.76980700  0.36865707  1.0
  Zn  Zn2832  1  0.82898400  0.10314033  0.36865707  1.0
  Zn  Zn2833  1  0.82898400  0.43647367  0.36865707  1.0
  Zn  Zn2834  1  0.82898400  0.76980700  0.36865707  1.0
  Zn  Zn2835  1  0.19962067  0.23990600  0.40936636  1.0
  Zn  Zn2836  1  0.19962067  0.57323933  0.40936636  1.0
  Zn  Zn2837  1  0.19962067  0.90657267  0.40936636  1.0
  Zn  Zn2838  1  0.53295400  0.23990600  0.40936636  1.0
  Zn  Zn2839  1  0.53295400  0.57323933  0.40936636  1.0
  Zn  Zn2840  1  0.53295400  0.90657267  0.40936636  1.0
  Zn  Zn2841  1  0.86628733  0.23990600  0.40936636  1.0
  Zn  Zn2842  1  0.86628733  0.57323933  0.40936636  1.0
  Zn  Zn2843  1  0.86628733  0.90657267  0.40936636  1.0
  Zn  Zn2844  1  0.06052167  0.01061667  0.37830650  1.0
  Zn  Zn2845  1  0.06052167  0.34395000  0.37830650  1.0
  Zn  Zn2846  1  0.06052167  0.67728333  0.37830650  1.0
  Zn  Zn2847  1  0.39385500  0.01061667  0.37830650  1.0
  Zn  Zn2848  1  0.39385500  0.34395000  0.37830650  1.0
  Zn  Zn2849  1  0.39385500  0.67728333  0.37830650  1.0
  Zn  Zn2850  1  0.72718833  0.01061667  0.37830650  1.0
  Zn  Zn2851  1  0.72718833  0.34395000  0.37830650  1.0
  Zn  Zn2852  1  0.72718833  0.67728333  0.37830650  1.0
  Zn  Zn2853  1  0.22904233  0.21911467  0.29250379  1.0
  Zn  Zn2854  1  0.22904233  0.55244800  0.29250379  1.0
  Zn  Zn2855  1  0.22904233  0.88578133  0.29250379  1.0
  Zn  Zn2856  1  0.56237567  0.21911467  0.29250379  1.0
  Zn  Zn2857  1  0.56237567  0.55244800  0.29250379  1.0
  Zn  Zn2858  1  0.56237567  0.88578133  0.29250379  1.0
  Zn  Zn2859  1  0.89570900  0.21911467  0.29250379  1.0
  Zn  Zn2860  1  0.89570900  0.55244800  0.29250379  1.0
  Zn  Zn2861  1  0.89570900  0.88578133  0.29250379  1.0
  Zn  Zn2862  1  0.24499133  0.25905267  0.33765307  1.0
  Zn  Zn2863  1  0.24499133  0.59238600  0.33765307  1.0
  Zn  Zn2864  1  0.24499133  0.92571933  0.33765307  1.0
  Zn  Zn2865  1  0.57832467  0.25905267  0.33765307  1.0
  Zn  Zn2866  1  0.57832467  0.59238600  0.33765307  1.0
  Zn  Zn2867  1  0.57832467  0.92571933  0.33765307  1.0
  Zn  Zn2868  1  0.91165800  0.25905267  0.33765307  1.0
  Zn  Zn2869  1  0.91165800  0.59238600  0.33765307  1.0
  Zn  Zn2870  1  0.91165800  0.92571933  0.33765307  1.0
  Zn  Zn2871  1  0.30500900  0.15605000  0.36010650  1.0
  Zn  Zn2872  1  0.30500900  0.48938333  0.36010650  1.0
  Zn  Zn2873  1  0.30500900  0.82271667  0.36010650  1.0
  Zn  Zn2874  1  0.63834233  0.15605000  0.36010650  1.0
  Zn  Zn2875  1  0.63834233  0.48938333  0.36010650  1.0
  Zn  Zn2876  1  0.63834233  0.82271667  0.36010650  1.0
  Zn  Zn2877  1  0.97167567  0.15605000  0.36010650  1.0
  Zn  Zn2878  1  0.97167567  0.48938333  0.36010650  1.0
  Zn  Zn2879  1  0.97167567  0.82271667  0.36010650  1.0
  Zn  Zn2880  1  0.19456733  0.19526133  0.42438307  1.0
  Zn  Zn2881  1  0.19456733  0.52859467  0.42438307  1.0
  Zn  Zn2882  1  0.19456733  0.86192800  0.42438307  1.0
  Zn  Zn2883  1  0.52790067  0.19526133  0.42438307  1.0
  Zn  Zn2884  1  0.52790067  0.52859467  0.42438307  1.0
  Zn  Zn2885  1  0.52790067  0.86192800  0.42438307  1.0
  Zn  Zn2886  1  0.86123400  0.19526133  0.42438307  1.0
  Zn  Zn2887  1  0.86123400  0.52859467  0.42438307  1.0
  Zn  Zn2888  1  0.86123400  0.86192800  0.42438307  1.0
  Zn  Zn2889  1  0.14454100  0.17447900  0.32480179  1.0
  Zn  Zn2890  1  0.14454100  0.50781233  0.32480179  1.0
  Zn  Zn2891  1  0.14454100  0.84114567  0.32480179  1.0
  Zn  Zn2892  1  0.47787433  0.17447900  0.32480179  1.0
  Zn  Zn2893  1  0.47787433  0.50781233  0.32480179  1.0
  Zn  Zn2894  1  0.47787433  0.84114567  0.32480179  1.0
  Zn  Zn2895  1  0.81120767  0.17447900  0.32480179  1.0
  Zn  Zn2896  1  0.81120767  0.50781233  0.32480179  1.0
  Zn  Zn2897  1  0.81120767  0.84114567  0.32480179  1.0
  Zn  Zn2898  1  0.05352900  0.09342733  0.30144893  1.0
  Zn  Zn2899  1  0.05352900  0.42676067  0.30144893  1.0
  Zn  Zn2900  1  0.05352900  0.76009400  0.30144893  1.0
  Zn  Zn2901  1  0.38686233  0.09342733  0.30144893  1.0
  Zn  Zn2902  1  0.38686233  0.42676067  0.30144893  1.0
  Zn  Zn2903  1  0.38686233  0.76009400  0.30144893  1.0
  Zn  Zn2904  1  0.72019567  0.09342733  0.30144893  1.0
  Zn  Zn2905  1  0.72019567  0.42676067  0.30144893  1.0
  Zn  Zn2906  1  0.72019567  0.76009400  0.30144893  1.0
  Zn  Zn2907  1  0.15063067  0.05120400  0.31412307  1.0
  Zn  Zn2908  1  0.15063067  0.38453733  0.31412307  1.0
  Zn  Zn2909  1  0.15063067  0.71787067  0.31412307  1.0
  Zn  Zn2910  1  0.48396400  0.05120400  0.31412307  1.0
  Zn  Zn2911  1  0.48396400  0.38453733  0.31412307  1.0
  Zn  Zn2912  1  0.48396400  0.71787067  0.31412307  1.0
  Zn  Zn2913  1  0.81729733  0.05120400  0.31412307  1.0
  Zn  Zn2914  1  0.81729733  0.38453733  0.31412307  1.0
  Zn  Zn2915  1  0.81729733  0.71787067  0.31412307  1.0
  Zn  Zn2916  1  0.15352700  0.25728067  0.35038564  1.0
  Zn  Zn2917  1  0.15352700  0.59061400  0.35038564  1.0
  Zn  Zn2918  1  0.15352700  0.92394733  0.35038564  1.0
  Zn  Zn2919  1  0.48686033  0.25728067  0.35038564  1.0
  Zn  Zn2920  1  0.48686033  0.59061400  0.35038564  1.0
  Zn  Zn2921  1  0.48686033  0.92394733  0.35038564  1.0
  Zn  Zn2922  1  0.82019367  0.25728067  0.35038564  1.0
  Zn  Zn2923  1  0.82019367  0.59061400  0.35038564  1.0
  Zn  Zn2924  1  0.82019367  0.92394733  0.35038564  1.0
  Zn  Zn2925  1  0.19547600  0.24094733  0.32213421  1.0
  Zn  Zn2926  1  0.19547600  0.57428067  0.32213421  1.0
  Zn  Zn2927  1  0.19547600  0.90761400  0.32213421  1.0
  Zn  Zn2928  1  0.52880933  0.24094733  0.32213421  1.0
  Zn  Zn2929  1  0.52880933  0.57428067  0.32213421  1.0
  Zn  Zn2930  1  0.52880933  0.90761400  0.32213421  1.0
  Zn  Zn2931  1  0.86214267  0.24094733  0.32213421  1.0
  Zn  Zn2932  1  0.86214267  0.57428067  0.32213421  1.0
  Zn  Zn2933  1  0.86214267  0.90761400  0.32213421  1.0
  Zn  Zn2934  1  0.22946233  0.28199633  0.32576007  1.0
  Zn  Zn2935  1  0.22946233  0.61532967  0.32576007  1.0
  Zn  Zn2936  1  0.22946233  0.94866300  0.32576007  1.0
  Zn  Zn2937  1  0.56279567  0.28199633  0.32576007  1.0
  Zn  Zn2938  1  0.56279567  0.61532967  0.32576007  1.0
  Zn  Zn2939  1  0.56279567  0.94866300  0.32576007  1.0
  Zn  Zn2940  1  0.89612900  0.28199633  0.32576007  1.0
  Zn  Zn2941  1  0.89612900  0.61532967  0.32576007  1.0
  Zn  Zn2942  1  0.89612900  0.94866300  0.32576007  1.0
  Zn  Zn2943  1  0.13988667  0.29948233  0.42566793  1.0
  Zn  Zn2944  1  0.13988667  0.63281567  0.42566793  1.0
  Zn  Zn2945  1  0.13988667  0.96614900  0.42566793  1.0
  Zn  Zn2946  1  0.47322000  0.29948233  0.42566793  1.0
  Zn  Zn2947  1  0.47322000  0.63281567  0.42566793  1.0
  Zn  Zn2948  1  0.47322000  0.96614900  0.42566793  1.0
  Zn  Zn2949  1  0.80655333  0.29948233  0.42566793  1.0
  Zn  Zn2950  1  0.80655333  0.63281567  0.42566793  1.0
  Zn  Zn2951  1  0.80655333  0.96614900  0.42566793  1.0
  Zn  Zn2952  1  0.00434933  0.26980700  0.37611307  1.0
  Zn  Zn2953  1  0.00434933  0.60314033  0.37611307  1.0
  Zn  Zn2954  1  0.00434933  0.93647367  0.37611307  1.0
  Zn  Zn2955  1  0.33768267  0.26980700  0.37611307  1.0
  Zn  Zn2956  1  0.33768267  0.60314033  0.37611307  1.0
  Zn  Zn2957  1  0.33768267  0.93647367  0.37611307  1.0
  Zn  Zn2958  1  0.67101600  0.26980700  0.37611307  1.0
  Zn  Zn2959  1  0.67101600  0.60314033  0.37611307  1.0
  Zn  Zn2960  1  0.67101600  0.93647367  0.37611307  1.0
  Zn  Zn2961  1  0.07585267  0.19526133  0.42438307  1.0
  Zn  Zn2962  1  0.07585267  0.52859467  0.42438307  1.0
  Zn  Zn2963  1  0.07585267  0.86192800  0.42438307  1.0
  Zn  Zn2964  1  0.40918600  0.19526133  0.42438307  1.0
  Zn  Zn2965  1  0.40918600  0.52859467  0.42438307  1.0
  Zn  Zn2966  1  0.40918600  0.86192800  0.42438307  1.0
  Zn  Zn2967  1  0.74251933  0.19526133  0.42438307  1.0
  Zn  Zn2968  1  0.74251933  0.52859467  0.42438307  1.0
  Zn  Zn2969  1  0.74251933  0.86192800  0.42438307  1.0
  Zn  Zn2970  1  0.01928600  0.21911467  0.29250379  1.0
  Zn  Zn2971  1  0.01928600  0.55244800  0.29250379  1.0
  Zn  Zn2972  1  0.01928600  0.88578133  0.29250379  1.0
  Zn  Zn2973  1  0.35261933  0.21911467  0.29250379  1.0
  Zn  Zn2974  1  0.35261933  0.55244800  0.29250379  1.0
  Zn  Zn2975  1  0.35261933  0.88578133  0.29250379  1.0
  Zn  Zn2976  1  0.68595267  0.21911467  0.29250379  1.0
  Zn  Zn2977  1  0.68595267  0.55244800  0.29250379  1.0
  Zn  Zn2978  1  0.68595267  0.88578133  0.29250379  1.0
  Zn  Zn2979  1  0.32898400  0.06352633  0.33470221  1.0
  Zn  Zn2980  1  0.32898400  0.39685967  0.33470221  1.0
  Zn  Zn2981  1  0.32898400  0.73019300  0.33470221  1.0
  Zn  Zn2982  1  0.66231733  0.06352633  0.33470221  1.0
  Zn  Zn2983  1  0.66231733  0.39685967  0.33470221  1.0
  Zn  Zn2984  1  0.66231733  0.73019300  0.33470221  1.0
  Zn  Zn2985  1  0.99565067  0.06352633  0.33470221  1.0
  Zn  Zn2986  1  0.99565067  0.39685967  0.33470221  1.0
  Zn  Zn2987  1  0.99565067  0.73019300  0.33470221  1.0
  Zn  Zn2988  1  0.30403400  0.28199633  0.32576007  1.0
  Zn  Zn2989  1  0.30403400  0.61532967  0.32576007  1.0
  Zn  Zn2990  1  0.30403400  0.94866300  0.32576007  1.0
  Zn  Zn2991  1  0.63736733  0.28199633  0.32576007  1.0
  Zn  Zn2992  1  0.63736733  0.61532967  0.32576007  1.0
  Zn  Zn2993  1  0.63736733  0.94866300  0.32576007  1.0
  Zn  Zn2994  1  0.97070067  0.28199633  0.32576007  1.0
  Zn  Zn2995  1  0.97070067  0.61532967  0.32576007  1.0
  Zn  Zn2996  1  0.97070067  0.94866300  0.32576007  1.0
  Zn  Zn2997  1  0.19596600  0.11532967  0.29704893  1.0
  Zn  Zn2998  1  0.19596600  0.44866300  0.29704893  1.0
  Zn  Zn2999  1  0.19596600  0.78199633  0.29704893  1.0
  Zn  Zn3000  1  0.52929933  0.11532967  0.29704893  1.0
  Zn  Zn3001  1  0.52929933  0.44866300  0.29704893  1.0
  Zn  Zn3002  1  0.52929933  0.78199633  0.29704893  1.0
  Zn  Zn3003  1  0.86263267  0.11532967  0.29704893  1.0
  Zn  Zn3004  1  0.86263267  0.44866300  0.29704893  1.0
  Zn  Zn3005  1  0.86263267  0.78199633  0.29704893  1.0
  Zn  Zn3006  1  0.02929933  0.05133700  0.38505521  1.0
  Zn  Zn3007  1  0.02929933  0.38467033  0.38505521  1.0
  Zn  Zn3008  1  0.02929933  0.71800367  0.38505521  1.0
  Zn  Zn3009  1  0.36263267  0.05133700  0.38505521  1.0
  Zn  Zn3010  1  0.36263267  0.38467033  0.38505521  1.0
  Zn  Zn3011  1  0.36263267  0.71800367  0.38505521  1.0
  Zn  Zn3012  1  0.69596600  0.05133700  0.38505521  1.0
  Zn  Zn3013  1  0.69596600  0.38467033  0.38505521  1.0
  Zn  Zn3014  1  0.69596600  0.71800367  0.38505521  1.0
  Zn  Zn3015  1  0.01313967  0.09061400  0.37291079  1.0
  Zn  Zn3016  1  0.01313967  0.42394733  0.37291079  1.0
  Zn  Zn3017  1  0.01313967  0.75728067  0.37291079  1.0
  Zn  Zn3018  1  0.34647300  0.09061400  0.37291079  1.0
  Zn  Zn3019  1  0.34647300  0.42394733  0.37291079  1.0
  Zn  Zn3020  1  0.34647300  0.75728067  0.37291079  1.0
  Zn  Zn3021  1  0.67980633  0.09061400  0.37291079  1.0
  Zn  Zn3022  1  0.67980633  0.42394733  0.37291079  1.0
  Zn  Zn3023  1  0.67980633  0.75728067  0.37291079  1.0
  Zn  Zn3024  1  0.07832467  0.24094733  0.32213421  1.0
  Zn  Zn3025  1  0.07832467  0.57428067  0.32213421  1.0
  Zn  Zn3026  1  0.07832467  0.90761400  0.32213421  1.0
  Zn  Zn3027  1  0.41165800  0.24094733  0.32213421  1.0
  Zn  Zn3028  1  0.41165800  0.57428067  0.32213421  1.0
  Zn  Zn3029  1  0.41165800  0.90761400  0.32213421  1.0
  Zn  Zn3030  1  0.74499133  0.24094733  0.32213421  1.0
  Zn  Zn3031  1  0.74499133  0.57428067  0.32213421  1.0
  Zn  Zn3032  1  0.74499133  0.90761400  0.32213421  1.0
  Zn  Zn3033  1  0.03295400  0.26009400  0.42667036  1.0
  Zn  Zn3034  1  0.03295400  0.59342733  0.42667036  1.0
  Zn  Zn3035  1  0.03295400  0.92676067  0.42667036  1.0
  Zn  Zn3036  1  0.36628733  0.26009400  0.42667036  1.0
  Zn  Zn3037  1  0.36628733  0.59342733  0.42667036  1.0
  Zn  Zn3038  1  0.36628733  0.92676067  0.42667036  1.0
  Zn  Zn3039  1  0.69962067  0.26009400  0.42667036  1.0
  Zn  Zn3040  1  0.69962067  0.59342733  0.42667036  1.0
  Zn  Zn3041  1  0.69962067  0.92676067  0.42667036  1.0
  Zn  Zn3042  1  0.10429100  0.11421867  0.41831150  1.0
  Zn  Zn3043  1  0.10429100  0.44755200  0.41831150  1.0
  Zn  Zn3044  1  0.10429100  0.78088533  0.41831150  1.0
  Zn  Zn3045  1  0.43762433  0.11421867  0.41831150  1.0
  Zn  Zn3046  1  0.43762433  0.44755200  0.41831150  1.0
  Zn  Zn3047  1  0.43762433  0.78088533  0.41831150  1.0
  Zn  Zn3048  1  0.77095767  0.11421867  0.41831150  1.0
  Zn  Zn3049  1  0.77095767  0.44755200  0.41831150  1.0
  Zn  Zn3050  1  0.77095767  0.78088533  0.41831150  1.0
  Zn  Zn3051  1  0.31404733  0.11421867  0.41831150  1.0
  Zn  Zn3052  1  0.31404733  0.44755200  0.41831150  1.0
  Zn  Zn3053  1  0.31404733  0.78088533  0.41831150  1.0
  Zn  Zn3054  1  0.64738067  0.11421867  0.41831150  1.0
  Zn  Zn3055  1  0.64738067  0.44755200  0.41831150  1.0
  Zn  Zn3056  1  0.64738067  0.78088533  0.41831150  1.0
  Zn  Zn3057  1  0.98071400  0.11421867  0.41831150  1.0
  Zn  Zn3058  1  0.98071400  0.44755200  0.41831150  1.0
  Zn  Zn3059  1  0.98071400  0.78088533  0.41831150  1.0
  Zn  Zn3060  1  0.32184900  0.19213200  0.29596279  1.0
  Zn  Zn3061  1  0.32184900  0.52546533  0.29596279  1.0
  Zn  Zn3062  1  0.32184900  0.85879867  0.29596279  1.0
  Zn  Zn3063  1  0.65518233  0.19213200  0.29596279  1.0
  Zn  Zn3064  1  0.65518233  0.52546533  0.29596279  1.0
  Zn  Zn3065  1  0.65518233  0.85879867  0.29596279  1.0
  Zn  Zn3066  1  0.98851567  0.19213200  0.29596279  1.0
  Zn  Zn3067  1  0.98851567  0.52546533  0.29596279  1.0
  Zn  Zn3068  1  0.98851567  0.85879867  0.29596279  1.0
  Zn  Zn3069  1  0.00843667  0.29543467  0.40158307  1.0
  Zn  Zn3070  1  0.00843667  0.62876800  0.40158307  1.0
  Zn  Zn3071  1  0.00843667  0.96210133  0.40158307  1.0
  Zn  Zn3072  1  0.34177000  0.29543467  0.40158307  1.0
  Zn  Zn3073  1  0.34177000  0.62876800  0.40158307  1.0
  Zn  Zn3074  1  0.34177000  0.96210133  0.40158307  1.0
  Zn  Zn3075  1  0.67510333  0.29543467  0.40158307  1.0
  Zn  Zn3076  1  0.67510333  0.62876800  0.40158307  1.0
  Zn  Zn3077  1  0.67510333  0.96210133  0.40158307  1.0
  Zn  Zn3078  1  0.07050133  0.06939467  0.31213436  1.0
  Zn  Zn3079  1  0.07050133  0.40272800  0.31213436  1.0
  Zn  Zn3080  1  0.07050133  0.73606133  0.31213436  1.0
  Zn  Zn3081  1  0.40383467  0.06939467  0.31213436  1.0
  Zn  Zn3082  1  0.40383467  0.40272800  0.31213436  1.0
  Zn  Zn3083  1  0.40383467  0.73606133  0.31213436  1.0
  Zn  Zn3084  1  0.73716800  0.06939467  0.31213436  1.0
  Zn  Zn3085  1  0.73716800  0.40272800  0.31213436  1.0
  Zn  Zn3086  1  0.73716800  0.73606133  0.31213436  1.0
  Zn  Zn3087  1  0.17101600  0.23019300  0.34215821  1.0
  Zn  Zn3088  1  0.17101600  0.56352633  0.34215821  1.0
  Zn  Zn3089  1  0.17101600  0.89685967  0.34215821  1.0
  Zn  Zn3090  1  0.50434933  0.23019300  0.34215821  1.0
  Zn  Zn3091  1  0.50434933  0.56352633  0.34215821  1.0
  Zn  Zn3092  1  0.50434933  0.89685967  0.34215821  1.0
  Zn  Zn3093  1  0.83768267  0.23019300  0.34215821  1.0
  Zn  Zn3094  1  0.83768267  0.56352633  0.34215821  1.0
  Zn  Zn3095  1  0.83768267  0.89685967  0.34215821  1.0
  Zn  Zn3096  1  0.14359500  0.26393867  0.39868093  1.0
  Zn  Zn3097  1  0.14359500  0.59727200  0.39868093  1.0
  Zn  Zn3098  1  0.14359500  0.93060533  0.39868093  1.0
  Zn  Zn3099  1  0.47692833  0.26393867  0.39868093  1.0
  Zn  Zn3100  1  0.47692833  0.59727200  0.39868093  1.0
  Zn  Zn3101  1  0.47692833  0.93060533  0.39868093  1.0
  Zn  Zn3102  1  0.81026167  0.26393867  0.39868093  1.0
  Zn  Zn3103  1  0.81026167  0.59727200  0.39868093  1.0
  Zn  Zn3104  1  0.81026167  0.93060533  0.39868093  1.0
  Zn  Zn3105  1  0.30452400  0.07428067  0.37316221  1.0
  Zn  Zn3106  1  0.30452400  0.40761400  0.37316221  1.0
  Zn  Zn3107  1  0.30452400  0.74094733  0.37316221  1.0
  Zn  Zn3108  1  0.63785733  0.07428067  0.37316221  1.0
  Zn  Zn3109  1  0.63785733  0.40761400  0.37316221  1.0
  Zn  Zn3110  1  0.63785733  0.74094733  0.37316221  1.0
  Zn  Zn3111  1  0.97119067  0.07428067  0.37316221  1.0
  Zn  Zn3112  1  0.97119067  0.40761400  0.37316221  1.0
  Zn  Zn3113  1  0.97119067  0.74094733  0.37316221  1.0
  Zn  Zn3114  1  0.01677300  0.01199733  0.30863936  1.0
  Zn  Zn3115  1  0.01677300  0.34533067  0.30863936  1.0
  Zn  Zn3116  1  0.01677300  0.67866400  0.30863936  1.0
  Zn  Zn3117  1  0.35010633  0.01199733  0.30863936  1.0
  Zn  Zn3118  1  0.35010633  0.34533067  0.30863936  1.0
  Zn  Zn3119  1  0.35010633  0.67866400  0.30863936  1.0
  Zn  Zn3120  1  0.68343967  0.01199733  0.30863936  1.0
  Zn  Zn3121  1  0.68343967  0.34533067  0.30863936  1.0
  Zn  Zn3122  1  0.68343967  0.67866400  0.30863936  1.0
  Zn  Zn3123  1  0.25500867  0.09238600  0.38868107  1.0
  Zn  Zn3124  1  0.25500867  0.42571933  0.38868107  1.0
  Zn  Zn3125  1  0.25500867  0.75905267  0.38868107  1.0
  Zn  Zn3126  1  0.58834200  0.09238600  0.38868107  1.0
  Zn  Zn3127  1  0.58834200  0.42571933  0.38868107  1.0
  Zn  Zn3128  1  0.58834200  0.75905267  0.38868107  1.0
  Zn  Zn3129  1  0.92167533  0.09238600  0.38868107  1.0
  Zn  Zn3130  1  0.92167533  0.42571933  0.38868107  1.0
  Zn  Zn3131  1  0.92167533  0.75905267  0.38868107  1.0
  Zn  Zn3132  1  0.12848067  0.13608767  0.33210521  1.0
  Zn  Zn3133  1  0.12848067  0.46942100  0.33210521  1.0
  Zn  Zn3134  1  0.12848067  0.80275433  0.33210521  1.0
  Zn  Zn3135  1  0.46181400  0.13608767  0.33210521  1.0
  Zn  Zn3136  1  0.46181400  0.46942100  0.33210521  1.0
  Zn  Zn3137  1  0.46181400  0.80275433  0.33210521  1.0
  Zn  Zn3138  1  0.79514733  0.13608767  0.33210521  1.0
  Zn  Zn3139  1  0.79514733  0.46942100  0.33210521  1.0
  Zn  Zn3140  1  0.79514733  0.80275433  0.33210521  1.0
  Zn  Zn3141  1  0.18270267  0.28212933  0.39669221  1.0
  Zn  Zn3142  1  0.18270267  0.61546267  0.39669221  1.0
  Zn  Zn3143  1  0.18270267  0.94879600  0.39669221  1.0
  Zn  Zn3144  1  0.51603600  0.28212933  0.39669221  1.0
  Zn  Zn3145  1  0.51603600  0.61546267  0.39669221  1.0
  Zn  Zn3146  1  0.51603600  0.94879600  0.39669221  1.0
  Zn  Zn3147  1  0.84936933  0.28212933  0.39669221  1.0
  Zn  Zn3148  1  0.84936933  0.61546267  0.39669221  1.0
  Zn  Zn3149  1  0.84936933  0.94879600  0.39669221  1.0
  Zn  Zn3150  1  0.23716800  0.09727200  0.33602921  1.0
  Zn  Zn3151  1  0.23716800  0.43060533  0.33602921  1.0
  Zn  Zn3152  1  0.23716800  0.76393867  0.33602921  1.0
  Zn  Zn3153  1  0.57050133  0.09727200  0.33602921  1.0
  Zn  Zn3154  1  0.57050133  0.43060533  0.33602921  1.0
  Zn  Zn3155  1  0.57050133  0.76393867  0.33602921  1.0
  Zn  Zn3156  1  0.90383467  0.09727200  0.33602921  1.0
  Zn  Zn3157  1  0.90383467  0.43060533  0.33602921  1.0
  Zn  Zn3158  1  0.90383467  0.76393867  0.33602921  1.0
  Zn  Zn3159  1  0.04497167  0.13608767  0.33210521  1.0
  Zn  Zn3160  1  0.04497167  0.46942100  0.33210521  1.0
  Zn  Zn3161  1  0.04497167  0.80275433  0.33210521  1.0
  Zn  Zn3162  1  0.37830500  0.13608767  0.33210521  1.0
  Zn  Zn3163  1  0.37830500  0.46942100  0.33210521  1.0
  Zn  Zn3164  1  0.37830500  0.80275433  0.33210521  1.0
  Zn  Zn3165  1  0.71163833  0.13608767  0.33210521  1.0
  Zn  Zn3166  1  0.71163833  0.46942100  0.33210521  1.0
  Zn  Zn3167  1  0.71163833  0.80275433  0.33210521  1.0
  Zn  Zn3168  1  0.10614500  0.17728333  0.35070879  1.0
  Zn  Zn3169  1  0.10614500  0.51061667  0.35070879  1.0
  Zn  Zn3170  1  0.10614500  0.84395000  0.35070879  1.0
  Zn  Zn3171  1  0.43947833  0.17728333  0.35070879  1.0
  Zn  Zn3172  1  0.43947833  0.51061667  0.35070879  1.0
  Zn  Zn3173  1  0.43947833  0.84395000  0.35070879  1.0
  Zn  Zn3174  1  0.77281167  0.17728333  0.35070879  1.0
  Zn  Zn3175  1  0.77281167  0.51061667  0.35070879  1.0
  Zn  Zn3176  1  0.77281167  0.84395000  0.35070879  1.0
  Zn  Zn3177  1  0.09175600  0.20051767  0.34084107  1.0
  Zn  Zn3178  1  0.09175600  0.53385100  0.34084107  1.0
  Zn  Zn3179  1  0.09175600  0.86718433  0.34084107  1.0
  Zn  Zn3180  1  0.42508933  0.20051767  0.34084107  1.0
  Zn  Zn3181  1  0.42508933  0.53385100  0.34084107  1.0
  Zn  Zn3182  1  0.42508933  0.86718433  0.34084107  1.0
  Zn  Zn3183  1  0.75842267  0.20051767  0.34084107  1.0
  Zn  Zn3184  1  0.75842267  0.53385100  0.34084107  1.0
  Zn  Zn3185  1  0.75842267  0.86718433  0.34084107  1.0
  Zn  Zn3186  1  0.02212567  0.00781233  0.39940607  1.0
  Zn  Zn3187  1  0.02212567  0.34114567  0.39940607  1.0
  Zn  Zn3188  1  0.02212567  0.67447900  0.39940607  1.0
  Zn  Zn3189  1  0.35545900  0.00781233  0.39940607  1.0
  Zn  Zn3190  1  0.35545900  0.34114567  0.39940607  1.0
  Zn  Zn3191  1  0.35545900  0.67447900  0.39940607  1.0
  Zn  Zn3192  1  0.68879233  0.00781233  0.39940607  1.0
  Zn  Zn3193  1  0.68879233  0.34114567  0.39940607  1.0
  Zn  Zn3194  1  0.68879233  0.67447900  0.39940607  1.0
  Zn  Zn3195  1  0.02678000  0.13281567  0.36997421  1.0
  Zn  Zn3196  1  0.02678000  0.46614900  0.36997421  1.0
  Zn  Zn3197  1  0.02678000  0.79948233  0.36997421  1.0
  Zn  Zn3198  1  0.36011333  0.13281567  0.36997421  1.0
  Zn  Zn3199  1  0.36011333  0.46614900  0.36997421  1.0
  Zn  Zn3200  1  0.36011333  0.79948233  0.36997421  1.0
  Zn  Zn3201  1  0.69344667  0.13281567  0.36997421  1.0
  Zn  Zn3202  1  0.69344667  0.46614900  0.36997421  1.0
  Zn  Zn3203  1  0.69344667  0.79948233  0.36997421  1.0
  Zn  Zn3204  1  0.07491067  0.03385100  0.42800450  1.0
  Zn  Zn3205  1  0.07491067  0.36718433  0.42800450  1.0
  Zn  Zn3206  1  0.07491067  0.70051767  0.42800450  1.0
  Zn  Zn3207  1  0.40824400  0.03385100  0.42800450  1.0
  Zn  Zn3208  1  0.40824400  0.36718433  0.42800450  1.0
  Zn  Zn3209  1  0.40824400  0.70051767  0.42800450  1.0
  Zn  Zn3210  1  0.74157733  0.03385100  0.42800450  1.0
  Zn  Zn3211  1  0.74157733  0.36718433  0.42800450  1.0
  Zn  Zn3212  1  0.74157733  0.70051767  0.42800450  1.0
  Zn  Zn3213  1  0.22718833  0.15605000  0.36010650  1.0
  Zn  Zn3214  1  0.22718833  0.48938333  0.36010650  1.0
  Zn  Zn3215  1  0.22718833  0.82271667  0.36010650  1.0
  Zn  Zn3216  1  0.56052167  0.15605000  0.36010650  1.0
  Zn  Zn3217  1  0.56052167  0.48938333  0.36010650  1.0
  Zn  Zn3218  1  0.56052167  0.82271667  0.36010650  1.0
  Zn  Zn3219  1  0.89385500  0.15605000  0.36010650  1.0
  Zn  Zn3220  1  0.89385500  0.48938333  0.36010650  1.0
  Zn  Zn3221  1  0.89385500  0.82271667  0.36010650  1.0
  Zn  Zn3222  1  0.15518233  0.30786800  0.39516507  1.0
  Zn  Zn3223  1  0.15518233  0.64120133  0.39516507  1.0
  Zn  Zn3224  1  0.15518233  0.97453467  0.39516507  1.0
  Zn  Zn3225  1  0.48851567  0.30786800  0.39516507  1.0
  Zn  Zn3226  1  0.48851567  0.64120133  0.39516507  1.0
  Zn  Zn3227  1  0.48851567  0.97453467  0.39516507  1.0
  Zn  Zn3228  1  0.82184900  0.30786800  0.39516507  1.0
  Zn  Zn3229  1  0.82184900  0.64120133  0.39516507  1.0
  Zn  Zn3230  1  0.82184900  0.97453467  0.39516507  1.0
  Zn  Zn3231  1  0.02307167  0.09727200  0.33602921  1.0
  Zn  Zn3232  1  0.02307167  0.43060533  0.33602921  1.0
  Zn  Zn3233  1  0.02307167  0.76393867  0.33602921  1.0
  Zn  Zn3234  1  0.35640500  0.09727200  0.33602921  1.0
  Zn  Zn3235  1  0.35640500  0.43060533  0.33602921  1.0
  Zn  Zn3236  1  0.35640500  0.76393867  0.33602921  1.0
  Zn  Zn3237  1  0.68973833  0.09727200  0.33602921  1.0
  Zn  Zn3238  1  0.68973833  0.43060533  0.33602921  1.0
  Zn  Zn3239  1  0.68973833  0.76393867  0.33602921  1.0
  Zn  Zn3240  1  0.26842067  0.17447900  0.32480179  1.0
  Zn  Zn3241  1  0.26842067  0.50781233  0.32480179  1.0
  Zn  Zn3242  1  0.26842067  0.84114567  0.32480179  1.0
  Zn  Zn3243  1  0.60175400  0.17447900  0.32480179  1.0
  Zn  Zn3244  1  0.60175400  0.50781233  0.32480179  1.0
  Zn  Zn3245  1  0.60175400  0.84114567  0.32480179  1.0
  Zn  Zn3246  1  0.93508733  0.17447900  0.32480179  1.0
  Zn  Zn3247  1  0.93508733  0.50781233  0.32480179  1.0
  Zn  Zn3248  1  0.93508733  0.84114567  0.32480179  1.0
  Zn  Zn3249  1  0.20485267  0.19724567  0.37871007  1.0
  Zn  Zn3250  1  0.20485267  0.53057900  0.37871007  1.0
  Zn  Zn3251  1  0.20485267  0.86391233  0.37871007  1.0
  Zn  Zn3252  1  0.53818600  0.19724567  0.37871007  1.0
  Zn  Zn3253  1  0.53818600  0.53057900  0.37871007  1.0
  Zn  Zn3254  1  0.53818600  0.86391233  0.37871007  1.0
  Zn  Zn3255  1  0.87151933  0.19724567  0.37871007  1.0
  Zn  Zn3256  1  0.87151933  0.53057900  0.37871007  1.0
  Zn  Zn3257  1  0.87151933  0.86391233  0.37871007  1.0
  Zn  Zn3258  1  0.10387100  0.05133700  0.38505521  1.0
  Zn  Zn3259  1  0.10387100  0.38467033  0.38505521  1.0
  Zn  Zn3260  1  0.10387100  0.71800367  0.38505521  1.0
  Zn  Zn3261  1  0.43720433  0.05133700  0.38505521  1.0
  Zn  Zn3262  1  0.43720433  0.38467033  0.38505521  1.0
  Zn  Zn3263  1  0.43720433  0.71800367  0.38505521  1.0
  Zn  Zn3264  1  0.77053767  0.05133700  0.38505521  1.0
  Zn  Zn3265  1  0.77053767  0.38467033  0.38505521  1.0
  Zn  Zn3266  1  0.77053767  0.71800367  0.38505521  1.0
  Zn  Zn3267  1  0.28836167  0.19724567  0.37871007  1.0
  Zn  Zn3268  1  0.28836167  0.53057900  0.37871007  1.0
  Zn  Zn3269  1  0.28836167  0.86391233  0.37871007  1.0
  Zn  Zn3270  1  0.62169500  0.19724567  0.37871007  1.0
  Zn  Zn3271  1  0.62169500  0.53057900  0.37871007  1.0
  Zn  Zn3272  1  0.62169500  0.86391233  0.37871007  1.0
  Zn  Zn3273  1  0.95502833  0.19724567  0.37871007  1.0
  Zn  Zn3274  1  0.95502833  0.53057900  0.37871007  1.0
  Zn  Zn3275  1  0.95502833  0.86391233  0.37871007  1.0
  Zn  Zn3276  1  0.13834233  0.01061667  0.37830650  1.0
  Zn  Zn3277  1  0.13834233  0.34395000  0.37830650  1.0
  Zn  Zn3278  1  0.13834233  0.67728333  0.37830650  1.0
  Zn  Zn3279  1  0.47167567  0.01061667  0.37830650  1.0
  Zn  Zn3280  1  0.47167567  0.34395000  0.37830650  1.0
  Zn  Zn3281  1  0.47167567  0.67728333  0.37830650  1.0
  Zn  Zn3282  1  0.80500900  0.01061667  0.37830650  1.0
  Zn  Zn3283  1  0.80500900  0.34395000  0.37830650  1.0
  Zn  Zn3284  1  0.80500900  0.67728333  0.37830650  1.0
  Zn  Zn3285  1  0.17510333  0.20456533  0.32369507  1.0
  Zn  Zn3286  1  0.17510333  0.53789867  0.32369507  1.0
  Zn  Zn3287  1  0.17510333  0.87123200  0.32369507  1.0
  Zn  Zn3288  1  0.50843667  0.20456533  0.32369507  1.0
  Zn  Zn3289  1  0.50843667  0.53789867  0.32369507  1.0
  Zn  Zn3290  1  0.50843667  0.87123200  0.32369507  1.0
  Zn  Zn3291  1  0.84177000  0.20456533  0.32369507  1.0
  Zn  Zn3292  1  0.84177000  0.53789867  0.32369507  1.0
  Zn  Zn3293  1  0.84177000  0.87123200  0.32369507  1.0
  Zn  Zn3294  1  0.16666667  0.00000000  0.42683621  1.0
  Zn  Zn3295  1  0.16666667  0.33333333  0.42683621  1.0
  Zn  Zn3296  1  0.16666667  0.66666667  0.42683621  1.0
  Zn  Zn3297  1  0.50000000  0.00000000  0.42683621  1.0
  Zn  Zn3298  1  0.50000000  0.33333333  0.42683621  1.0
  Zn  Zn3299  1  0.50000000  0.66666667  0.42683621  1.0
  Zn  Zn3300  1  0.83333333  0.00000000  0.42683621  1.0
  Zn  Zn3301  1  0.83333333  0.33333333  0.42683621  1.0
  Zn  Zn3302  1  0.83333333  0.66666667  0.42683621  1.0
  Zn  Zn3303  1  0.30037933  0.07323933  0.42700207  1.0
  Zn  Zn3304  1  0.30037933  0.40657267  0.42700207  1.0
  Zn  Zn3305  1  0.30037933  0.73990600  0.42700207  1.0
  Zn  Zn3306  1  0.63371267  0.07323933  0.42700207  1.0
  Zn  Zn3307  1  0.63371267  0.40657267  0.42700207  1.0
  Zn  Zn3308  1  0.63371267  0.73990600  0.42700207  1.0
  Zn  Zn3309  1  0.96704600  0.07323933  0.42700207  1.0
  Zn  Zn3310  1  0.96704600  0.40657267  0.42700207  1.0
  Zn  Zn3311  1  0.96704600  0.73990600  0.42700207  1.0
  Zn  Zn3312  1  0.11313767  0.26009400  0.42667036  1.0
  Zn  Zn3313  1  0.11313767  0.59342733  0.42667036  1.0
  Zn  Zn3314  1  0.11313767  0.92676067  0.42667036  1.0
  Zn  Zn3315  1  0.44647100  0.26009400  0.42667036  1.0
  Zn  Zn3316  1  0.44647100  0.59342733  0.42667036  1.0
  Zn  Zn3317  1  0.44647100  0.92676067  0.42667036  1.0
  Zn  Zn3318  1  0.77980433  0.26009400  0.42667036  1.0
  Zn  Zn3319  1  0.77980433  0.59342733  0.42667036  1.0
  Zn  Zn3320  1  0.77980433  0.92676067  0.42667036  1.0
  Zn  Zn3321  1  0.30543267  0.02859467  0.33545164  1.0
  Zn  Zn3322  1  0.30543267  0.36192800  0.33545164  1.0
  Zn  Zn3323  1  0.30543267  0.69526133  0.33545164  1.0
  Zn  Zn3324  1  0.63876600  0.02859467  0.33545164  1.0
  Zn  Zn3325  1  0.63876600  0.36192800  0.33545164  1.0
  Zn  Zn3326  1  0.63876600  0.69526133  0.33545164  1.0
  Zn  Zn3327  1  0.97209933  0.02859467  0.33545164  1.0
  Zn  Zn3328  1  0.97209933  0.36192800  0.33545164  1.0
  Zn  Zn3329  1  0.97209933  0.69526133  0.33545164  1.0
  Zn  Zn3330  1  0.29514733  0.03057900  0.38452636  1.0
  Zn  Zn3331  1  0.29514733  0.36391233  0.38452636  1.0
  Zn  Zn3332  1  0.29514733  0.69724567  0.38452636  1.0
  Zn  Zn3333  1  0.62848067  0.03057900  0.38452636  1.0
  Zn  Zn3334  1  0.62848067  0.36391233  0.38452636  1.0
  Zn  Zn3335  1  0.62848067  0.69724567  0.38452636  1.0
  Zn  Zn3336  1  0.96181400  0.03057900  0.38452636  1.0
  Zn  Zn3337  1  0.96181400  0.36391233  0.38452636  1.0
  Zn  Zn3338  1  0.96181400  0.69724567  0.38452636  1.0
  Zn  Zn3339  1  0.13785733  0.09238600  0.38868107  1.0
  Zn  Zn3340  1  0.13785733  0.42571933  0.38868107  1.0
  Zn  Zn3341  1  0.13785733  0.75905267  0.38868107  1.0
  Zn  Zn3342  1  0.47119067  0.09238600  0.38868107  1.0
  Zn  Zn3343  1  0.47119067  0.42571933  0.38868107  1.0
  Zn  Zn3344  1  0.47119067  0.75905267  0.38868107  1.0
  Zn  Zn3345  1  0.80452400  0.09238600  0.38868107  1.0
  Zn  Zn3346  1  0.80452400  0.42571933  0.38868107  1.0
  Zn  Zn3347  1  0.80452400  0.75905267  0.38868107  1.0
  Zn  Zn3348  1  0.15823000  0.12876800  0.38712021  1.0
  Zn  Zn3349  1  0.15823000  0.46210133  0.38712021  1.0
  Zn  Zn3350  1  0.15823000  0.79543467  0.38712021  1.0
  Zn  Zn3351  1  0.49156333  0.12876800  0.38712021  1.0
  Zn  Zn3352  1  0.49156333  0.46210133  0.38712021  1.0
  Zn  Zn3353  1  0.49156333  0.79543467  0.38712021  1.0
  Zn  Zn3354  1  0.82489667  0.12876800  0.38712021  1.0
  Zn  Zn3355  1  0.82489667  0.46210133  0.38712021  1.0
  Zn  Zn3356  1  0.82489667  0.79543467  0.38712021  1.0
  Zn  Zn3357  1  0.27095767  0.05244800  0.36536521  1.0
  Zn  Zn3358  1  0.27095767  0.38578133  0.36536521  1.0
  Zn  Zn3359  1  0.27095767  0.71911467  0.36536521  1.0
  Zn  Zn3360  1  0.60429100  0.05244800  0.36536521  1.0
  Zn  Zn3361  1  0.60429100  0.38578133  0.36536521  1.0
  Zn  Zn3362  1  0.60429100  0.71911467  0.36536521  1.0
  Zn  Zn3363  1  0.93762433  0.05244800  0.36536521  1.0
  Zn  Zn3364  1  0.93762433  0.38578133  0.36536521  1.0
  Zn  Zn3365  1  0.93762433  0.71911467  0.36536521  1.0
  Zn  Zn3366  1  0.27281167  0.32271667  0.33250879  1.0
  Zn  Zn3367  1  0.27281167  0.65605000  0.33250879  1.0
  Zn  Zn3368  1  0.27281167  0.98938333  0.33250879  1.0
  Zn  Zn3369  1  0.60614500  0.32271667  0.33250879  1.0
  Zn  Zn3370  1  0.60614500  0.65605000  0.33250879  1.0
  Zn  Zn3371  1  0.60614500  0.98938333  0.33250879  1.0
  Zn  Zn3372  1  0.93947833  0.32271667  0.33250879  1.0
  Zn  Zn3373  1  0.93947833  0.65605000  0.33250879  1.0
  Zn  Zn3374  1  0.93947833  0.98938333  0.33250879  1.0
  Zn  Zn3375  1  0.24251933  0.30473867  0.37536364  1.0
  Zn  Zn3376  1  0.24251933  0.63807200  0.37536364  1.0
  Zn  Zn3377  1  0.24251933  0.97140533  0.37536364  1.0
  Zn  Zn3378  1  0.57585267  0.30473867  0.37536364  1.0
  Zn  Zn3379  1  0.57585267  0.63807200  0.37536364  1.0
  Zn  Zn3380  1  0.57585267  0.97140533  0.37536364  1.0
  Zn  Zn3381  1  0.90918600  0.30473867  0.37536364  1.0
  Zn  Zn3382  1  0.90918600  0.63807200  0.37536364  1.0
  Zn  Zn3383  1  0.90918600  0.97140533  0.37536364  1.0
  Zn  Zn3384  1  0.27980433  0.23990600  0.40936636  1.0
  Zn  Zn3385  1  0.27980433  0.57323933  0.40936636  1.0
  Zn  Zn3386  1  0.27980433  0.90657267  0.40936636  1.0
  Zn  Zn3387  1  0.61313767  0.23990600  0.40936636  1.0
  Zn  Zn3388  1  0.61313767  0.57323933  0.40936636  1.0
  Zn  Zn3389  1  0.61313767  0.90657267  0.40936636  1.0
  Zn  Zn3390  1  0.94647100  0.23990600  0.40936636  1.0
  Zn  Zn3391  1  0.94647100  0.57323933  0.40936636  1.0
  Zn  Zn3392  1  0.94647100  0.90657267  0.40936636  1.0
  Zn  Zn3393  1  0.13876600  0.13807200  0.28643221  1.0
  Zn  Zn3394  1  0.13876600  0.47140533  0.28643221  1.0
  Zn  Zn3395  1  0.13876600  0.80473867  0.28643221  1.0
  Zn  Zn3396  1  0.47209933  0.13807200  0.28643221  1.0
  Zn  Zn3397  1  0.47209933  0.47140533  0.28643221  1.0
  Zn  Zn3398  1  0.47209933  0.80473867  0.28643221  1.0
  Zn  Zn3399  1  0.80543267  0.13807200  0.28643221  1.0
  Zn  Zn3400  1  0.80543267  0.47140533  0.28643221  1.0
  Zn  Zn3401  1  0.80543267  0.80473867  0.28643221  1.0
  Zn  Zn3402  1  0.06491267  0.15885433  0.38601350  1.0
  Zn  Zn3403  1  0.06491267  0.49218767  0.38601350  1.0
  Zn  Zn3404  1  0.06491267  0.82552100  0.38601350  1.0
  Zn  Zn3405  1  0.39824600  0.15885433  0.38601350  1.0
  Zn  Zn3406  1  0.39824600  0.49218767  0.38601350  1.0
  Zn  Zn3407  1  0.39824600  0.82552100  0.38601350  1.0
  Zn  Zn3408  1  0.73157933  0.15885433  0.38601350  1.0
  Zn  Zn3409  1  0.73157933  0.49218767  0.38601350  1.0
  Zn  Zn3410  1  0.73157933  0.82552100  0.38601350  1.0
  Zn  Zn3411  1  0.10175400  0.32552100  0.31140921  1.0
  Zn  Zn3412  1  0.10175400  0.65885433  0.31140921  1.0
  Zn  Zn3413  1  0.10175400  0.99218767  0.31140921  1.0
  Zn  Zn3414  1  0.43508733  0.32552100  0.31140921  1.0
  Zn  Zn3415  1  0.43508733  0.65885433  0.31140921  1.0
  Zn  Zn3416  1  0.43508733  0.99218767  0.31140921  1.0
  Zn  Zn3417  1  0.76842067  0.32552100  0.31140921  1.0
  Zn  Zn3418  1  0.76842067  0.65885433  0.31140921  1.0
  Zn  Zn3419  1  0.76842067  0.99218767  0.31140921  1.0
  Zn  Zn3420  1  0.24157733  0.13281567  0.36997421  1.0
  Zn  Zn3421  1  0.24157733  0.46614900  0.36997421  1.0
  Zn  Zn3422  1  0.24157733  0.79948233  0.36997421  1.0
  Zn  Zn3423  1  0.57491067  0.13281567  0.36997421  1.0
  Zn  Zn3424  1  0.57491067  0.46614900  0.36997421  1.0
  Zn  Zn3425  1  0.57491067  0.79948233  0.36997421  1.0
  Zn  Zn3426  1  0.90824400  0.13281567  0.36997421  1.0
  Zn  Zn3427  1  0.90824400  0.46614900  0.36997421  1.0
  Zn  Zn3428  1  0.90824400  0.79948233  0.36997421  1.0
  Zn  Zn3429  1  0.27053767  0.11532967  0.29704893  1.0
  Zn  Zn3430  1  0.27053767  0.44866300  0.29704893  1.0
  Zn  Zn3431  1  0.27053767  0.78199633  0.29704893  1.0
  Zn  Zn3432  1  0.60387100  0.11532967  0.29704893  1.0
  Zn  Zn3433  1  0.60387100  0.44866300  0.29704893  1.0
  Zn  Zn3434  1  0.60387100  0.78199633  0.29704893  1.0
  Zn  Zn3435  1  0.93720433  0.11532967  0.29704893  1.0
  Zn  Zn3436  1  0.93720433  0.44866300  0.29704893  1.0
  Zn  Zn3437  1  0.93720433  0.78199633  0.29704893  1.0
  Ni  Ni3438  1  0.24806100  0.26047433  0.29129507  1.0
  Ni  Ni3439  1  0.24806100  0.59380767  0.29129507  1.0
  Ni  Ni3440  1  0.24806100  0.92714100  0.29129507  1.0
  Ni  Ni3441  1  0.58139433  0.26047433  0.29129507  1.0
  Ni  Ni3442  1  0.58139433  0.59380767  0.29129507  1.0
  Ni  Ni3443  1  0.58139433  0.92714100  0.29129507  1.0
  Ni  Ni3444  1  0.91472767  0.26047433  0.29129507  1.0
  Ni  Ni3445  1  0.91472767  0.59380767  0.29129507  1.0
  Ni  Ni3446  1  0.91472767  0.92714100  0.29129507  1.0
  Ni  Ni3447  1  0.24449067  0.05206367  0.39531136  1.0
  Ni  Ni3448  1  0.24449067  0.38539700  0.39531136  1.0
  Ni  Ni3449  1  0.24449067  0.71873033  0.39531136  1.0
  Ni  Ni3450  1  0.57782400  0.05206367  0.39531136  1.0
  Ni  Ni3451  1  0.57782400  0.38539700  0.39531136  1.0
  Ni  Ni3452  1  0.57782400  0.71873033  0.39531136  1.0
  Ni  Ni3453  1  0.91115733  0.05206367  0.39531136  1.0
  Ni  Ni3454  1  0.91115733  0.38539700  0.39531136  1.0
  Ni  Ni3455  1  0.91115733  0.71873033  0.39531136  1.0
  Ni  Ni3456  1  0.19715600  0.32174400  0.39296936  1.0
  Ni  Ni3457  1  0.19715600  0.65507733  0.39296936  1.0
  Ni  Ni3458  1  0.19715600  0.98841067  0.39296936  1.0
  Ni  Ni3459  1  0.53048933  0.32174400  0.39296936  1.0
  Ni  Ni3460  1  0.53048933  0.65507733  0.39296936  1.0
  Ni  Ni3461  1  0.53048933  0.98841067  0.39296936  1.0
  Ni  Ni3462  1  0.86382267  0.32174400  0.39296936  1.0
  Ni  Ni3463  1  0.86382267  0.65507733  0.39296936  1.0
  Ni  Ni3464  1  0.86382267  0.98841067  0.39296936  1.0
  Ni  Ni3465  1  0.25611133  0.01011367  0.36931479  1.0
  Ni  Ni3466  1  0.25611133  0.34344700  0.36931479  1.0
  Ni  Ni3467  1  0.25611133  0.67678033  0.36931479  1.0
  Ni  Ni3468  1  0.58944467  0.01011367  0.36931479  1.0
  Ni  Ni3469  1  0.58944467  0.34344700  0.36931479  1.0
  Ni  Ni3470  1  0.58944467  0.67678033  0.36931479  1.0
  Ni  Ni3471  1  0.92277800  0.01011367  0.36931479  1.0
  Ni  Ni3472  1  0.92277800  0.34344700  0.36931479  1.0
  Ni  Ni3473  1  0.92277800  0.67678033  0.36931479  1.0
  Ni  Ni3474  1  0.08033333  0.32174400  0.39296936  1.0
  Ni  Ni3475  1  0.08033333  0.65507733  0.39296936  1.0
  Ni  Ni3476  1  0.08033333  0.98841067  0.39296936  1.0
  Ni  Ni3477  1  0.41366667  0.32174400  0.39296936  1.0
  Ni  Ni3478  1  0.41366667  0.65507733  0.39296936  1.0
  Ni  Ni3479  1  0.41366667  0.98841067  0.39296936  1.0
  Ni  Ni3480  1  0.74700000  0.32174400  0.39296936  1.0
  Ni  Ni3481  1  0.74700000  0.65507733  0.39296936  1.0
  Ni  Ni3482  1  0.74700000  0.98841067  0.39296936  1.0
  Ni  Ni3483  1  0.08633333  0.15507733  0.29797850  1.0
  Ni  Ni3484  1  0.08633333  0.48841067  0.29797850  1.0
  Ni  Ni3485  1  0.08633333  0.82174400  0.29797850  1.0
  Ni  Ni3486  1  0.41966667  0.15507733  0.29797850  1.0
  Ni  Ni3487  1  0.41966667  0.48841067  0.29797850  1.0
  Ni  Ni3488  1  0.41966667  0.82174400  0.29797850  1.0
  Ni  Ni3489  1  0.75300000  0.15507733  0.29797850  1.0
  Ni  Ni3490  1  0.75300000  0.48841067  0.29797850  1.0
  Ni  Ni3491  1  0.75300000  0.82174400  0.29797850  1.0
  Ni  Ni3492  1  0.08463900  0.03079467  0.38292221  1.0
  Ni  Ni3493  1  0.08463900  0.36412800  0.38292221  1.0
  Ni  Ni3494  1  0.08463900  0.69746133  0.38292221  1.0
  Ni  Ni3495  1  0.41797233  0.03079467  0.38292221  1.0
  Ni  Ni3496  1  0.41797233  0.36412800  0.38292221  1.0
  Ni  Ni3497  1  0.41797233  0.69746133  0.38292221  1.0
  Ni  Ni3498  1  0.75130567  0.03079467  0.38292221  1.0
  Ni  Ni3499  1  0.75130567  0.36412800  0.38292221  1.0
  Ni  Ni3500  1  0.75130567  0.69746133  0.38292221  1.0
  Ni  Ni3501  1  0.08884267  0.28126967  0.31550393  1.0
  Ni  Ni3502  1  0.08884267  0.61460300  0.31550393  1.0
  Ni  Ni3503  1  0.08884267  0.94793633  0.31550393  1.0
  Ni  Ni3504  1  0.42217600  0.28126967  0.31550393  1.0
  Ni  Ni3505  1  0.42217600  0.61460300  0.31550393  1.0
  Ni  Ni3506  1  0.42217600  0.94793633  0.31550393  1.0
  Ni  Ni3507  1  0.75550933  0.28126967  0.31550393  1.0
  Ni  Ni3508  1  0.75550933  0.61460300  0.31550393  1.0
  Ni  Ni3509  1  0.75550933  0.94793633  0.31550393  1.0
  Ni  Ni3510  1  0.08944467  0.15655300  0.35197707  1.0
  Ni  Ni3511  1  0.08944467  0.48988633  0.35197707  1.0
  Ni  Ni3512  1  0.08944467  0.82321967  0.35197707  1.0
  Ni  Ni3513  1  0.42277800  0.15655300  0.35197707  1.0
  Ni  Ni3514  1  0.42277800  0.48988633  0.35197707  1.0
  Ni  Ni3515  1  0.42277800  0.82321967  0.35197707  1.0
  Ni  Ni3516  1  0.75611133  0.15655300  0.35197707  1.0
  Ni  Ni3517  1  0.75611133  0.48988633  0.35197707  1.0
  Ni  Ni3518  1  0.75611133  0.82321967  0.35197707  1.0
  Ni  Ni3519  1  0.08527233  0.07285900  0.41952021  1.0
  Ni  Ni3520  1  0.08527233  0.40619233  0.41952021  1.0
  Ni  Ni3521  1  0.08527233  0.73952567  0.41952021  1.0
  Ni  Ni3522  1  0.41860567  0.07285900  0.41952021  1.0
  Ni  Ni3523  1  0.41860567  0.40619233  0.41952021  1.0
  Ni  Ni3524  1  0.41860567  0.73952567  0.41952021  1.0
  Ni  Ni3525  1  0.75193900  0.07285900  0.41952021  1.0
  Ni  Ni3526  1  0.75193900  0.40619233  0.41952021  1.0
  Ni  Ni3527  1  0.75193900  0.73952567  0.41952021  1.0
  Ni  Ni3528  1  0.07722200  0.32321967  0.34150050  1.0
  Ni  Ni3529  1  0.07722200  0.65655300  0.34150050  1.0
  Ni  Ni3530  1  0.07722200  0.98988633  0.34150050  1.0
  Ni  Ni3531  1  0.41055533  0.32321967  0.34150050  1.0
  Ni  Ni3532  1  0.41055533  0.65655300  0.34150050  1.0
  Ni  Ni3533  1  0.41055533  0.98988633  0.34150050  1.0
  Ni  Ni3534  1  0.74388867  0.32321967  0.34150050  1.0
  Ni  Ni3535  1  0.74388867  0.65655300  0.34150050  1.0
  Ni  Ni3536  1  0.74388867  0.98988633  0.34150050  1.0
  Ni  Ni3537  1  0.03165333  0.05156100  0.30479064  1.0
  Ni  Ni3538  1  0.03165333  0.38489433  0.30479064  1.0
  Ni  Ni3539  1  0.03165333  0.71822767  0.30479064  1.0
  Ni  Ni3540  1  0.36498667  0.05156100  0.30479064  1.0
  Ni  Ni3541  1  0.36498667  0.38489433  0.30479064  1.0
  Ni  Ni3542  1  0.36498667  0.71822767  0.30479064  1.0
  Ni  Ni3543  1  0.69832000  0.05156100  0.30479064  1.0
  Ni  Ni3544  1  0.69832000  0.38489433  0.30479064  1.0
  Ni  Ni3545  1  0.69832000  0.71822767  0.30479064  1.0
  Ni  Ni3546  1  0.25550933  0.21873033  0.40475593  1.0
  Ni  Ni3547  1  0.25550933  0.55206367  0.40475593  1.0
  Ni  Ni3548  1  0.25550933  0.88539700  0.40475593  1.0
  Ni  Ni3549  1  0.58884267  0.21873033  0.40475593  1.0
  Ni  Ni3550  1  0.58884267  0.55206367  0.40475593  1.0
  Ni  Ni3551  1  0.58884267  0.88539700  0.40475593  1.0
  Ni  Ni3552  1  0.92217600  0.21873033  0.40475593  1.0
  Ni  Ni3553  1  0.92217600  0.55206367  0.40475593  1.0
  Ni  Ni3554  1  0.92217600  0.88539700  0.40475593  1.0
  Ni  Ni3555  1  0.08621500  0.28177233  0.40602464  1.0
  Ni  Ni3556  1  0.08621500  0.61510567  0.40602464  1.0
  Ni  Ni3557  1  0.08621500  0.94843900  0.40602464  1.0
  Ni  Ni3558  1  0.41954833  0.28177233  0.40602464  1.0
  Ni  Ni3559  1  0.41954833  0.61510567  0.40602464  1.0
  Ni  Ni3560  1  0.41954833  0.94843900  0.40602464  1.0
  Ni  Ni3561  1  0.75288167  0.28177233  0.40602464  1.0
  Ni  Ni3562  1  0.75288167  0.61510567  0.40602464  1.0
  Ni  Ni3563  1  0.75288167  0.94843900  0.40602464  1.0
  Ni  Ni3564  1  0.08139433  0.23952567  0.41619621  1.0
  Ni  Ni3565  1  0.08139433  0.57285900  0.41619621  1.0
  Ni  Ni3566  1  0.08139433  0.90619233  0.41619621  1.0
  Ni  Ni3567  1  0.41472767  0.23952567  0.41619621  1.0
  Ni  Ni3568  1  0.41472767  0.57285900  0.41619621  1.0
  Ni  Ni3569  1  0.41472767  0.90619233  0.41619621  1.0
  Ni  Ni3570  1  0.74806100  0.23952567  0.41619621  1.0
  Ni  Ni3571  1  0.74806100  0.57285900  0.41619621  1.0
  Ni  Ni3572  1  0.74806100  0.90619233  0.41619621  1.0
  Ni  Ni3573  1  0.24711833  0.05156100  0.30479064  1.0
  Ni  Ni3574  1  0.24711833  0.38489433  0.30479064  1.0
  Ni  Ni3575  1  0.24711833  0.71822767  0.30479064  1.0
  Ni  Ni3576  1  0.58045167  0.05156100  0.30479064  1.0
  Ni  Ni3577  1  0.58045167  0.38489433  0.30479064  1.0
  Ni  Ni3578  1  0.58045167  0.71822767  0.30479064  1.0
  Ni  Ni3579  1  0.91378500  0.05156100  0.30479064  1.0
  Ni  Ni3580  1  0.91378500  0.38489433  0.30479064  1.0
  Ni  Ni3581  1  0.91378500  0.71822767  0.30479064  1.0
  Ni  Ni3582  1  0.13501333  0.21822767  0.35155779  1.0
  Ni  Ni3583  1  0.13501333  0.55156100  0.35155779  1.0
  Ni  Ni3584  1  0.13501333  0.88489433  0.35155779  1.0
  Ni  Ni3585  1  0.46834667  0.21822767  0.35155779  1.0
  Ni  Ni3586  1  0.46834667  0.55156100  0.35155779  1.0
  Ni  Ni3587  1  0.46834667  0.88489433  0.35155779  1.0
  Ni  Ni3588  1  0.80168000  0.21822767  0.35155779  1.0
  Ni  Ni3589  1  0.80168000  0.55156100  0.35155779  1.0
  Ni  Ni3590  1  0.80168000  0.88489433  0.35155779  1.0
  Ni  Ni3591  1  0.24388867  0.17678033  0.35883821  1.0
  Ni  Ni3592  1  0.24388867  0.51011367  0.35883821  1.0
  Ni  Ni3593  1  0.24388867  0.84344700  0.35883821  1.0
  Ni  Ni3594  1  0.57722200  0.17678033  0.35883821  1.0
  Ni  Ni3595  1  0.57722200  0.51011367  0.35883821  1.0
  Ni  Ni3596  1  0.57722200  0.84344700  0.35883821  1.0
  Ni  Ni3597  1  0.91055533  0.17678033  0.35883821  1.0
  Ni  Ni3598  1  0.91055533  0.51011367  0.35883821  1.0
  Ni  Ni3599  1  0.91055533  0.84344700  0.35883821  1.0
  Ni  Ni3600  1  0.30284400  0.15507733  0.29797850  1.0
  Ni  Ni3601  1  0.30284400  0.48841067  0.29797850  1.0
  Ni  Ni3602  1  0.30284400  0.82174400  0.29797850  1.0
  Ni  Ni3603  1  0.63617733  0.15507733  0.29797850  1.0
  Ni  Ni3604  1  0.63617733  0.48841067  0.29797850  1.0
  Ni  Ni3605  1  0.63617733  0.82174400  0.29797850  1.0
  Ni  Ni3606  1  0.96951067  0.15507733  0.29797850  1.0
  Ni  Ni3607  1  0.96951067  0.48841067  0.29797850  1.0
  Ni  Ni3608  1  0.96951067  0.82174400  0.29797850  1.0
  Ni  Ni3609  1  0.25288167  0.21822767  0.35155779  1.0
  Ni  Ni3610  1  0.25288167  0.55156100  0.35155779  1.0
  Ni  Ni3611  1  0.25288167  0.88489433  0.35155779  1.0
  Ni  Ni3612  1  0.58621500  0.21822767  0.35155779  1.0
  Ni  Ni3613  1  0.58621500  0.55156100  0.35155779  1.0
  Ni  Ni3614  1  0.58621500  0.88489433  0.35155779  1.0
  Ni  Ni3615  1  0.91954833  0.21822767  0.35155779  1.0
  Ni  Ni3616  1  0.91954833  0.55156100  0.35155779  1.0
  Ni  Ni3617  1  0.91954833  0.88489433  0.35155779  1.0
  Ni  Ni3618  1  0.24869433  0.30253867  0.32789307  1.0
  Ni  Ni3619  1  0.24869433  0.63587200  0.32789307  1.0
  Ni  Ni3620  1  0.24869433  0.96920533  0.32789307  1.0
  Ni  Ni3621  1  0.58202767  0.30253867  0.32789307  1.0
  Ni  Ni3622  1  0.58202767  0.63587200  0.32789307  1.0
  Ni  Ni3623  1  0.58202767  0.96920533  0.32789307  1.0
  Ni  Ni3624  1  0.91536100  0.30253867  0.32789307  1.0
  Ni  Ni3625  1  0.91536100  0.63587200  0.32789307  1.0
  Ni  Ni3626  1  0.91536100  0.96920533  0.32789307  1.0
  Ni  Ni3627  1  0.24700000  0.17825600  0.41283679  1.0
  Ni  Ni3628  1  0.24700000  0.51158933  0.41283679  1.0
  Ni  Ni3629  1  0.24700000  0.84492267  0.41283679  1.0
  Ni  Ni3630  1  0.58033333  0.17825600  0.41283679  1.0
  Ni  Ni3631  1  0.58033333  0.51158933  0.41283679  1.0
  Ni  Ni3632  1  0.58033333  0.84492267  0.41283679  1.0
  Ni  Ni3633  1  0.91366667  0.17825600  0.41283679  1.0
  Ni  Ni3634  1  0.91366667  0.51158933  0.41283679  1.0
  Ni  Ni3635  1  0.91366667  0.84492267  0.41283679  1.0
  Ni  Ni3636  1  0.30168000  0.28177233  0.40602464  1.0
  Ni  Ni3637  1  0.30168000  0.61510567  0.40602464  1.0
  Ni  Ni3638  1  0.30168000  0.94843900  0.40602464  1.0
  Ni  Ni3639  1  0.63501333  0.28177233  0.40602464  1.0
  Ni  Ni3640  1  0.63501333  0.61510567  0.40602464  1.0
  Ni  Ni3641  1  0.63501333  0.94843900  0.40602464  1.0
  Ni  Ni3642  1  0.96834667  0.28177233  0.40602464  1.0
  Ni  Ni3643  1  0.96834667  0.61510567  0.40602464  1.0
  Ni  Ni3644  1  0.96834667  0.94843900  0.40602464  1.0
  Ni  Ni3645  1  0.08202767  0.19746133  0.38068393  1.0
  Ni  Ni3646  1  0.08202767  0.53079467  0.38068393  1.0
  Ni  Ni3647  1  0.08202767  0.86412800  0.38068393  1.0
  Ni  Ni3648  1  0.41536100  0.19746133  0.38068393  1.0
  Ni  Ni3649  1  0.41536100  0.53079467  0.38068393  1.0
  Ni  Ni3650  1  0.41536100  0.86412800  0.38068393  1.0
  Ni  Ni3651  1  0.74869433  0.19746133  0.38068393  1.0
  Ni  Ni3652  1  0.74869433  0.53079467  0.38068393  1.0
  Ni  Ni3653  1  0.74869433  0.86412800  0.38068393  1.0
  Ni  Ni3654  1  0.08045167  0.11510567  0.35925750  1.0
  Ni  Ni3655  1  0.08045167  0.44843900  0.35925750  1.0
  Ni  Ni3656  1  0.08045167  0.78177233  0.35925750  1.0
  Ni  Ni3657  1  0.41378500  0.11510567  0.35925750  1.0
  Ni  Ni3658  1  0.41378500  0.44843900  0.35925750  1.0
  Ni  Ni3659  1  0.41378500  0.78177233  0.35925750  1.0
  Ni  Ni3660  1  0.74711833  0.11510567  0.35925750  1.0
  Ni  Ni3661  1  0.74711833  0.44843900  0.35925750  1.0
  Ni  Ni3662  1  0.74711833  0.78177233  0.35925750  1.0
  Ni  Ni3663  1  0.25300000  0.01158933  0.31784593  1.0
  Ni  Ni3664  1  0.25300000  0.34492267  0.31784593  1.0
  Ni  Ni3665  1  0.25300000  0.67825600  0.31784593  1.0
  Ni  Ni3666  1  0.58633333  0.01158933  0.31784593  1.0
  Ni  Ni3667  1  0.58633333  0.34492267  0.31784593  1.0
  Ni  Ni3668  1  0.58633333  0.67825600  0.31784593  1.0
  Ni  Ni3669  1  0.91966667  0.01158933  0.31784593  1.0
  Ni  Ni3670  1  0.91966667  0.34492267  0.31784593  1.0
  Ni  Ni3671  1  0.91966667  0.67825600  0.31784593  1.0
  Ni  Ni3672  1  0.25193900  0.09380767  0.29461907  1.0
  Ni  Ni3673  1  0.25193900  0.42714100  0.29461907  1.0
  Ni  Ni3674  1  0.25193900  0.76047433  0.29461907  1.0
  Ni  Ni3675  1  0.58527233  0.09380767  0.29461907  1.0
  Ni  Ni3676  1  0.58527233  0.42714100  0.29461907  1.0
  Ni  Ni3677  1  0.58527233  0.76047433  0.29461907  1.0
  Ni  Ni3678  1  0.91860567  0.09380767  0.29461907  1.0
  Ni  Ni3679  1  0.91860567  0.42714100  0.29461907  1.0
  Ni  Ni3680  1  0.91860567  0.76047433  0.29461907  1.0
  Ni  Ni3681  1  0.03048933  0.17825600  0.41283679  1.0
  Ni  Ni3682  1  0.03048933  0.51158933  0.41283679  1.0
  Ni  Ni3683  1  0.03048933  0.84492267  0.41283679  1.0
  Ni  Ni3684  1  0.36382267  0.17825600  0.41283679  1.0
  Ni  Ni3685  1  0.36382267  0.51158933  0.41283679  1.0
  Ni  Ni3686  1  0.36382267  0.84492267  0.41283679  1.0
  Ni  Ni3687  1  0.69715600  0.17825600  0.41283679  1.0
  Ni  Ni3688  1  0.69715600  0.51158933  0.41283679  1.0
  Ni  Ni3689  1  0.69715600  0.84492267  0.41283679  1.0
  Ni  Ni3690  1  0.07782400  0.11460300  0.30605936  1.0
  Ni  Ni3691  1  0.07782400  0.44793633  0.30605936  1.0
  Ni  Ni3692  1  0.07782400  0.78126967  0.30605936  1.0
  Ni  Ni3693  1  0.41115733  0.11460300  0.30605936  1.0
  Ni  Ni3694  1  0.41115733  0.44793633  0.30605936  1.0
  Ni  Ni3695  1  0.41115733  0.78126967  0.30605936  1.0
  Ni  Ni3696  1  0.74449067  0.11460300  0.30605936  1.0
  Ni  Ni3697  1  0.74449067  0.44793633  0.30605936  1.0
  Ni  Ni3698  1  0.74449067  0.78126967  0.30605936  1.0
  Ni  Ni3699  1  0.19832000  0.11510567  0.35925750  1.0
  Ni  Ni3700  1  0.19832000  0.44843900  0.35925750  1.0
  Ni  Ni3701  1  0.19832000  0.78177233  0.35925750  1.0
  Ni  Ni3702  1  0.53165333  0.11510567  0.35925750  1.0
  Ni  Ni3703  1  0.53165333  0.44843900  0.35925750  1.0
  Ni  Ni3704  1  0.53165333  0.78177233  0.35925750  1.0
  Ni  Ni3705  1  0.86498667  0.11510567  0.35925750  1.0
  Ni  Ni3706  1  0.86498667  0.44843900  0.35925750  1.0
  Ni  Ni3707  1  0.86498667  0.78177233  0.35925750  1.0
  Ni  Ni3708  1  0.25130567  0.13587200  0.33013136  1.0
  Ni  Ni3709  1  0.25130567  0.46920533  0.33013136  1.0
  Ni  Ni3710  1  0.25130567  0.80253867  0.33013136  1.0
  Ni  Ni3711  1  0.58463900  0.13587200  0.33013136  1.0
  Ni  Ni3712  1  0.58463900  0.46920533  0.33013136  1.0
  Ni  Ni3713  1  0.58463900  0.80253867  0.33013136  1.0
  Ni  Ni3714  1  0.91797233  0.13587200  0.33013136  1.0
  Ni  Ni3715  1  0.91797233  0.46920533  0.33013136  1.0
  Ni  Ni3716  1  0.91797233  0.80253867  0.33013136  1.0
  Ni  Ni3717  1  0.13617733  0.01158933  0.31784593  1.0
  Ni  Ni3718  1  0.13617733  0.34492267  0.31784593  1.0
  Ni  Ni3719  1  0.13617733  0.67825600  0.31784593  1.0
  Ni  Ni3720  1  0.46951067  0.01158933  0.31784593  1.0
  Ni  Ni3721  1  0.46951067  0.34492267  0.31784593  1.0
  Ni  Ni3722  1  0.46951067  0.67825600  0.31784593  1.0
  Ni  Ni3723  1  0.80284400  0.01158933  0.31784593  1.0
  Ni  Ni3724  1  0.80284400  0.34492267  0.31784593  1.0
  Ni  Ni3725  1  0.80284400  0.67825600  0.31784593  1.0
