# generated using pymatgen
data_Zr2Ni7
_symmetry_space_group_name_H-M   'P 1'
_cell_length_a   37.70530114
_cell_length_b   25.12839907
_cell_length_c   56.84797500
_cell_angle_alpha   48.05697164
_cell_angle_beta   40.43461772
_cell_angle_gamma   66.93771155
_symmetry_Int_Tables_number   1
_chemical_formula_structural   Zr2Ni7
_chemical_formula_sum   'Zr180 Ni630'
_cell_volume   25208.16692526
_cell_formula_units_Z   90
loop_
 _symmetry_equiv_pos_site_id
 _symmetry_equiv_pos_as_xyz
  1  'x, y, z'
loop_
 _atom_site_type_symbol
 _atom_site_label
 _atom_site_symmetry_multiplicity
 _atom_site_fract_x
 _atom_site_fract_y
 _atom_site_fract_z
 _atom_site_occupancy
  Zr  Zr0  1  0.10118150  0.25723567  0.02440448  1.0
  Zr  Zr1  1  0.10118150  0.59056900  0.02440448  1.0
  Zr  Zr2  1  0.10118150  0.92390233  0.02440448  1.0
  Zr  Zr3  1  0.43451483  0.25723567  0.02440448  1.0
  Zr  Zr4  1  0.43451483  0.59056900  0.02440448  1.0
  Zr  Zr5  1  0.43451483  0.92390233  0.02440448  1.0
  Zr  Zr6  1  0.76784817  0.25723567  0.02440448  1.0
  Zr  Zr7  1  0.76784817  0.59056900  0.02440448  1.0
  Zr  Zr8  1  0.76784817  0.92390233  0.02440448  1.0
  Zr  Zr9  1  0.26784817  0.25723567  0.06607115  1.0
  Zr  Zr10  1  0.26784817  0.59056900  0.06607115  1.0
  Zr  Zr11  1  0.26784817  0.92390233  0.06607115  1.0
  Zr  Zr12  1  0.60118150  0.25723567  0.06607115  1.0
  Zr  Zr13  1  0.60118150  0.59056900  0.06607115  1.0
  Zr  Zr14  1  0.60118150  0.92390233  0.06607115  1.0
  Zr  Zr15  1  0.93451483  0.25723567  0.06607115  1.0
  Zr  Zr16  1  0.93451483  0.59056900  0.06607115  1.0
  Zr  Zr17  1  0.93451483  0.92390233  0.06607115  1.0
  Zr  Zr18  1  0.06548517  0.07609767  0.01312790  1.0
  Zr  Zr19  1  0.06548517  0.40943100  0.01312790  1.0
  Zr  Zr20  1  0.06548517  0.74276433  0.01312790  1.0
  Zr  Zr21  1  0.39881850  0.07609767  0.01312790  1.0
  Zr  Zr22  1  0.39881850  0.40943100  0.01312790  1.0
  Zr  Zr23  1  0.39881850  0.74276433  0.01312790  1.0
  Zr  Zr24  1  0.73215183  0.07609767  0.01312790  1.0
  Zr  Zr25  1  0.73215183  0.40943100  0.01312790  1.0
  Zr  Zr26  1  0.73215183  0.74276433  0.01312790  1.0
  Zr  Zr27  1  0.23215183  0.07609767  0.05479456  1.0
  Zr  Zr28  1  0.23215183  0.40943100  0.05479456  1.0
  Zr  Zr29  1  0.23215183  0.74276433  0.05479456  1.0
  Zr  Zr30  1  0.56548517  0.07609767  0.05479456  1.0
  Zr  Zr31  1  0.56548517  0.40943100  0.05479456  1.0
  Zr  Zr32  1  0.56548517  0.74276433  0.05479456  1.0
  Zr  Zr33  1  0.89881850  0.07609767  0.05479456  1.0
  Zr  Zr34  1  0.89881850  0.40943100  0.05479456  1.0
  Zr  Zr35  1  0.89881850  0.74276433  0.05479456  1.0
  Ni  Ni36  1  0.16666667  0.16666667  0.08126619  1.0
  Ni  Ni37  1  0.16666667  0.50000000  0.08126619  1.0
  Ni  Ni38  1  0.16666667  0.83333333  0.08126619  1.0
  Ni  Ni39  1  0.50000000  0.16666667  0.08126619  1.0
  Ni  Ni40  1  0.50000000  0.50000000  0.08126619  1.0
  Ni  Ni41  1  0.50000000  0.83333333  0.08126619  1.0
  Ni  Ni42  1  0.83333333  0.16666667  0.08126619  1.0
  Ni  Ni43  1  0.83333333  0.50000000  0.08126619  1.0
  Ni  Ni44  1  0.83333333  0.83333333  0.08126619  1.0
  Ni  Ni45  1  0.00000000  0.16666667  0.03959952  1.0
  Ni  Ni46  1  0.00000000  0.50000000  0.03959952  1.0
  Ni  Ni47  1  0.00000000  0.83333333  0.03959952  1.0
  Ni  Ni48  1  0.33333333  0.16666667  0.03959952  1.0
  Ni  Ni49  1  0.33333333  0.50000000  0.03959952  1.0
  Ni  Ni50  1  0.33333333  0.83333333  0.03959952  1.0
  Ni  Ni51  1  0.66666667  0.16666667  0.03959952  1.0
  Ni  Ni52  1  0.66666667  0.50000000  0.03959952  1.0
  Ni  Ni53  1  0.66666667  0.83333333  0.03959952  1.0
  Ni  Ni54  1  0.04872417  0.28119700  0.00206715  1.0
  Ni  Ni55  1  0.04872417  0.61453033  0.00206715  1.0
  Ni  Ni56  1  0.04872417  0.94786367  0.00206715  1.0
  Ni  Ni57  1  0.38205750  0.28119700  0.00206715  1.0
  Ni  Ni58  1  0.38205750  0.61453033  0.00206715  1.0
  Ni  Ni59  1  0.38205750  0.94786367  0.00206715  1.0
  Ni  Ni60  1  0.71539083  0.28119700  0.00206715  1.0
  Ni  Ni61  1  0.71539083  0.61453033  0.00206715  1.0
  Ni  Ni62  1  0.71539083  0.94786367  0.00206715  1.0
  Ni  Ni63  1  0.21539083  0.28119700  0.04373381  1.0
  Ni  Ni64  1  0.21539083  0.61453033  0.04373381  1.0
  Ni  Ni65  1  0.21539083  0.94786367  0.04373381  1.0
  Ni  Ni66  1  0.54872417  0.28119700  0.04373381  1.0
  Ni  Ni67  1  0.54872417  0.61453033  0.04373381  1.0
  Ni  Ni68  1  0.54872417  0.94786367  0.04373381  1.0
  Ni  Ni69  1  0.88205750  0.28119700  0.04373381  1.0
  Ni  Ni70  1  0.88205750  0.61453033  0.04373381  1.0
  Ni  Ni71  1  0.88205750  0.94786367  0.04373381  1.0
  Ni  Ni72  1  0.00656250  0.05213633  0.00762023  1.0
  Ni  Ni73  1  0.00656250  0.38546967  0.00762023  1.0
  Ni  Ni74  1  0.00656250  0.71880300  0.00762023  1.0
  Ni  Ni75  1  0.33989583  0.05213633  0.00762023  1.0
  Ni  Ni76  1  0.33989583  0.38546967  0.00762023  1.0
  Ni  Ni77  1  0.33989583  0.71880300  0.00762023  1.0
  Ni  Ni78  1  0.67322917  0.05213633  0.00762023  1.0
  Ni  Ni79  1  0.67322917  0.38546967  0.00762023  1.0
  Ni  Ni80  1  0.67322917  0.71880300  0.00762023  1.0
  Ni  Ni81  1  0.17322917  0.05213633  0.04928690  1.0
  Ni  Ni82  1  0.17322917  0.38546967  0.04928690  1.0
  Ni  Ni83  1  0.17322917  0.71880300  0.04928690  1.0
  Ni  Ni84  1  0.50656250  0.05213633  0.04928690  1.0
  Ni  Ni85  1  0.50656250  0.38546967  0.04928690  1.0
  Ni  Ni86  1  0.50656250  0.71880300  0.04928690  1.0
  Ni  Ni87  1  0.83989583  0.05213633  0.04928690  1.0
  Ni  Ni88  1  0.83989583  0.38546967  0.04928690  1.0
  Ni  Ni89  1  0.83989583  0.71880300  0.04928690  1.0
  Ni  Ni90  1  0.11794250  0.05213633  0.03546523  1.0
  Ni  Ni91  1  0.11794250  0.38546967  0.03546523  1.0
  Ni  Ni92  1  0.11794250  0.71880300  0.03546523  1.0
  Ni  Ni93  1  0.45127583  0.05213633  0.03546523  1.0
  Ni  Ni94  1  0.45127583  0.38546967  0.03546523  1.0
  Ni  Ni95  1  0.45127583  0.71880300  0.03546523  1.0
  Ni  Ni96  1  0.78460917  0.05213633  0.03546523  1.0
  Ni  Ni97  1  0.78460917  0.38546967  0.03546523  1.0
  Ni  Ni98  1  0.78460917  0.71880300  0.03546523  1.0
  Ni  Ni99  1  0.28460917  0.05213633  0.07713190  1.0
  Ni  Ni100  1  0.28460917  0.38546967  0.07713190  1.0
  Ni  Ni101  1  0.28460917  0.71880300  0.07713190  1.0
  Ni  Ni102  1  0.61794250  0.05213633  0.07713190  1.0
  Ni  Ni103  1  0.61794250  0.38546967  0.07713190  1.0
  Ni  Ni104  1  0.61794250  0.71880300  0.07713190  1.0
  Ni  Ni105  1  0.95127583  0.05213633  0.07713190  1.0
  Ni  Ni106  1  0.95127583  0.38546967  0.07713190  1.0
  Ni  Ni107  1  0.95127583  0.71880300  0.07713190  1.0
  Ni  Ni108  1  0.16010417  0.28119700  0.02991215  1.0
  Ni  Ni109  1  0.16010417  0.61453033  0.02991215  1.0
  Ni  Ni110  1  0.16010417  0.94786367  0.02991215  1.0
  Ni  Ni111  1  0.49343750  0.28119700  0.02991215  1.0
  Ni  Ni112  1  0.49343750  0.61453033  0.02991215  1.0
  Ni  Ni113  1  0.49343750  0.94786367  0.02991215  1.0
  Ni  Ni114  1  0.82677083  0.28119700  0.02991215  1.0
  Ni  Ni115  1  0.82677083  0.61453033  0.02991215  1.0
  Ni  Ni116  1  0.82677083  0.94786367  0.02991215  1.0
  Ni  Ni117  1  0.32677083  0.28119700  0.07157881  1.0
  Ni  Ni118  1  0.32677083  0.61453033  0.07157881  1.0
  Ni  Ni119  1  0.32677083  0.94786367  0.07157881  1.0
  Ni  Ni120  1  0.66010417  0.28119700  0.07157881  1.0
  Ni  Ni121  1  0.66010417  0.61453033  0.07157881  1.0
  Ni  Ni122  1  0.66010417  0.94786367  0.07157881  1.0
  Ni  Ni123  1  0.99343750  0.28119700  0.07157881  1.0
  Ni  Ni124  1  0.99343750  0.61453033  0.07157881  1.0
  Ni  Ni125  1  0.99343750  0.94786367  0.07157881  1.0
  Ni  Ni126  1  0.08333333  0.16666667  0.01876619  1.0
  Ni  Ni127  1  0.08333333  0.50000000  0.01876619  1.0
  Ni  Ni128  1  0.08333333  0.83333333  0.01876619  1.0
  Ni  Ni129  1  0.41666667  0.16666667  0.01876619  1.0
  Ni  Ni130  1  0.41666667  0.50000000  0.01876619  1.0
  Ni  Ni131  1  0.41666667  0.83333333  0.01876619  1.0
  Ni  Ni132  1  0.75000000  0.16666667  0.01876619  1.0
  Ni  Ni133  1  0.75000000  0.50000000  0.01876619  1.0
  Ni  Ni134  1  0.75000000  0.83333333  0.01876619  1.0
  Ni  Ni135  1  0.25000000  0.16666667  0.06043285  1.0
  Ni  Ni136  1  0.25000000  0.50000000  0.06043285  1.0
  Ni  Ni137  1  0.25000000  0.83333333  0.06043285  1.0
  Ni  Ni138  1  0.58333333  0.16666667  0.06043285  1.0
  Ni  Ni139  1  0.58333333  0.50000000  0.06043285  1.0
  Ni  Ni140  1  0.58333333  0.83333333  0.06043285  1.0
  Ni  Ni141  1  0.91666667  0.16666667  0.06043285  1.0
  Ni  Ni142  1  0.91666667  0.50000000  0.06043285  1.0
  Ni  Ni143  1  0.91666667  0.83333333  0.06043285  1.0
  Ni  Ni144  1  0.16666667  0.16666667  0.03959952  1.0
  Ni  Ni145  1  0.16666667  0.50000000  0.03959952  1.0
  Ni  Ni146  1  0.16666667  0.83333333  0.03959952  1.0
  Ni  Ni147  1  0.50000000  0.16666667  0.03959952  1.0
  Ni  Ni148  1  0.50000000  0.50000000  0.03959952  1.0
  Ni  Ni149  1  0.50000000  0.83333333  0.03959952  1.0
  Ni  Ni150  1  0.83333333  0.16666667  0.03959952  1.0
  Ni  Ni151  1  0.83333333  0.50000000  0.03959952  1.0
  Ni  Ni152  1  0.83333333  0.83333333  0.03959952  1.0
  Ni  Ni153  1  0.00000000  0.16666667  0.08126619  1.0
  Ni  Ni154  1  0.00000000  0.50000000  0.08126619  1.0
  Ni  Ni155  1  0.00000000  0.83333333  0.08126619  1.0
  Ni  Ni156  1  0.33333333  0.16666667  0.08126619  1.0
  Ni  Ni157  1  0.33333333  0.50000000  0.08126619  1.0
  Ni  Ni158  1  0.33333333  0.83333333  0.08126619  1.0
  Ni  Ni159  1  0.66666667  0.16666667  0.08126619  1.0
  Ni  Ni160  1  0.66666667  0.50000000  0.08126619  1.0
  Ni  Ni161  1  0.66666667  0.83333333  0.08126619  1.0
  Zr  Zr162  1  0.10118150  0.25723567  0.10773781  1.0
  Zr  Zr163  1  0.10118150  0.59056900  0.10773781  1.0
  Zr  Zr164  1  0.10118150  0.92390233  0.10773781  1.0
  Zr  Zr165  1  0.43451483  0.25723567  0.10773781  1.0
  Zr  Zr166  1  0.43451483  0.59056900  0.10773781  1.0
  Zr  Zr167  1  0.43451483  0.92390233  0.10773781  1.0
  Zr  Zr168  1  0.76784817  0.25723567  0.10773781  1.0
  Zr  Zr169  1  0.76784817  0.59056900  0.10773781  1.0
  Zr  Zr170  1  0.76784817  0.92390233  0.10773781  1.0
  Zr  Zr171  1  0.26784817  0.25723567  0.14940448  1.0
  Zr  Zr172  1  0.26784817  0.59056900  0.14940448  1.0
  Zr  Zr173  1  0.26784817  0.92390233  0.14940448  1.0
  Zr  Zr174  1  0.60118150  0.25723567  0.14940448  1.0
  Zr  Zr175  1  0.60118150  0.59056900  0.14940448  1.0
  Zr  Zr176  1  0.60118150  0.92390233  0.14940448  1.0
  Zr  Zr177  1  0.93451483  0.25723567  0.14940448  1.0
  Zr  Zr178  1  0.93451483  0.59056900  0.14940448  1.0
  Zr  Zr179  1  0.93451483  0.92390233  0.14940448  1.0
  Zr  Zr180  1  0.06548517  0.07609767  0.09646123  1.0
  Zr  Zr181  1  0.06548517  0.40943100  0.09646123  1.0
  Zr  Zr182  1  0.06548517  0.74276433  0.09646123  1.0
  Zr  Zr183  1  0.39881850  0.07609767  0.09646123  1.0
  Zr  Zr184  1  0.39881850  0.40943100  0.09646123  1.0
  Zr  Zr185  1  0.39881850  0.74276433  0.09646123  1.0
  Zr  Zr186  1  0.73215183  0.07609767  0.09646123  1.0
  Zr  Zr187  1  0.73215183  0.40943100  0.09646123  1.0
  Zr  Zr188  1  0.73215183  0.74276433  0.09646123  1.0
  Zr  Zr189  1  0.23215183  0.07609767  0.13812790  1.0
  Zr  Zr190  1  0.23215183  0.40943100  0.13812790  1.0
  Zr  Zr191  1  0.23215183  0.74276433  0.13812790  1.0
  Zr  Zr192  1  0.56548517  0.07609767  0.13812790  1.0
  Zr  Zr193  1  0.56548517  0.40943100  0.13812790  1.0
  Zr  Zr194  1  0.56548517  0.74276433  0.13812790  1.0
  Zr  Zr195  1  0.89881850  0.07609767  0.13812790  1.0
  Zr  Zr196  1  0.89881850  0.40943100  0.13812790  1.0
  Zr  Zr197  1  0.89881850  0.74276433  0.13812790  1.0
  Ni  Ni198  1  0.16666667  0.16666667  0.16459952  1.0
  Ni  Ni199  1  0.16666667  0.50000000  0.16459952  1.0
  Ni  Ni200  1  0.16666667  0.83333333  0.16459952  1.0
  Ni  Ni201  1  0.50000000  0.16666667  0.16459952  1.0
  Ni  Ni202  1  0.50000000  0.50000000  0.16459952  1.0
  Ni  Ni203  1  0.50000000  0.83333333  0.16459952  1.0
  Ni  Ni204  1  0.83333333  0.16666667  0.16459952  1.0
  Ni  Ni205  1  0.83333333  0.50000000  0.16459952  1.0
  Ni  Ni206  1  0.83333333  0.83333333  0.16459952  1.0
  Ni  Ni207  1  0.00000000  0.16666667  0.12293285  1.0
  Ni  Ni208  1  0.00000000  0.50000000  0.12293285  1.0
  Ni  Ni209  1  0.00000000  0.83333333  0.12293285  1.0
  Ni  Ni210  1  0.33333333  0.16666667  0.12293285  1.0
  Ni  Ni211  1  0.33333333  0.50000000  0.12293285  1.0
  Ni  Ni212  1  0.33333333  0.83333333  0.12293285  1.0
  Ni  Ni213  1  0.66666667  0.16666667  0.12293285  1.0
  Ni  Ni214  1  0.66666667  0.50000000  0.12293285  1.0
  Ni  Ni215  1  0.66666667  0.83333333  0.12293285  1.0
  Ni  Ni216  1  0.04872417  0.28119700  0.08540048  1.0
  Ni  Ni217  1  0.04872417  0.61453033  0.08540048  1.0
  Ni  Ni218  1  0.04872417  0.94786367  0.08540048  1.0
  Ni  Ni219  1  0.38205750  0.28119700  0.08540048  1.0
  Ni  Ni220  1  0.38205750  0.61453033  0.08540048  1.0
  Ni  Ni221  1  0.38205750  0.94786367  0.08540048  1.0
  Ni  Ni222  1  0.71539083  0.28119700  0.08540048  1.0
  Ni  Ni223  1  0.71539083  0.61453033  0.08540048  1.0
  Ni  Ni224  1  0.71539083  0.94786367  0.08540048  1.0
  Ni  Ni225  1  0.21539083  0.28119700  0.12706715  1.0
  Ni  Ni226  1  0.21539083  0.61453033  0.12706715  1.0
  Ni  Ni227  1  0.21539083  0.94786367  0.12706715  1.0
  Ni  Ni228  1  0.54872417  0.28119700  0.12706715  1.0
  Ni  Ni229  1  0.54872417  0.61453033  0.12706715  1.0
  Ni  Ni230  1  0.54872417  0.94786367  0.12706715  1.0
  Ni  Ni231  1  0.88205750  0.28119700  0.12706715  1.0
  Ni  Ni232  1  0.88205750  0.61453033  0.12706715  1.0
  Ni  Ni233  1  0.88205750  0.94786367  0.12706715  1.0
  Ni  Ni234  1  0.00656250  0.05213633  0.09095356  1.0
  Ni  Ni235  1  0.00656250  0.38546967  0.09095356  1.0
  Ni  Ni236  1  0.00656250  0.71880300  0.09095356  1.0
  Ni  Ni237  1  0.33989583  0.05213633  0.09095356  1.0
  Ni  Ni238  1  0.33989583  0.38546967  0.09095356  1.0
  Ni  Ni239  1  0.33989583  0.71880300  0.09095356  1.0
  Ni  Ni240  1  0.67322917  0.05213633  0.09095356  1.0
  Ni  Ni241  1  0.67322917  0.38546967  0.09095356  1.0
  Ni  Ni242  1  0.67322917  0.71880300  0.09095356  1.0
  Ni  Ni243  1  0.17322917  0.05213633  0.13262023  1.0
  Ni  Ni244  1  0.17322917  0.38546967  0.13262023  1.0
  Ni  Ni245  1  0.17322917  0.71880300  0.13262023  1.0
  Ni  Ni246  1  0.50656250  0.05213633  0.13262023  1.0
  Ni  Ni247  1  0.50656250  0.38546967  0.13262023  1.0
  Ni  Ni248  1  0.50656250  0.71880300  0.13262023  1.0
  Ni  Ni249  1  0.83989583  0.05213633  0.13262023  1.0
  Ni  Ni250  1  0.83989583  0.38546967  0.13262023  1.0
  Ni  Ni251  1  0.83989583  0.71880300  0.13262023  1.0
  Ni  Ni252  1  0.11794250  0.05213633  0.11879856  1.0
  Ni  Ni253  1  0.11794250  0.38546967  0.11879856  1.0
  Ni  Ni254  1  0.11794250  0.71880300  0.11879856  1.0
  Ni  Ni255  1  0.45127583  0.05213633  0.11879856  1.0
  Ni  Ni256  1  0.45127583  0.38546967  0.11879856  1.0
  Ni  Ni257  1  0.45127583  0.71880300  0.11879856  1.0
  Ni  Ni258  1  0.78460917  0.05213633  0.11879856  1.0
  Ni  Ni259  1  0.78460917  0.38546967  0.11879856  1.0
  Ni  Ni260  1  0.78460917  0.71880300  0.11879856  1.0
  Ni  Ni261  1  0.28460917  0.05213633  0.16046523  1.0
  Ni  Ni262  1  0.28460917  0.38546967  0.16046523  1.0
  Ni  Ni263  1  0.28460917  0.71880300  0.16046523  1.0
  Ni  Ni264  1  0.61794250  0.05213633  0.16046523  1.0
  Ni  Ni265  1  0.61794250  0.38546967  0.16046523  1.0
  Ni  Ni266  1  0.61794250  0.71880300  0.16046523  1.0
  Ni  Ni267  1  0.95127583  0.05213633  0.16046523  1.0
  Ni  Ni268  1  0.95127583  0.38546967  0.16046523  1.0
  Ni  Ni269  1  0.95127583  0.71880300  0.16046523  1.0
  Ni  Ni270  1  0.16010417  0.28119700  0.11324548  1.0
  Ni  Ni271  1  0.16010417  0.61453033  0.11324548  1.0
  Ni  Ni272  1  0.16010417  0.94786367  0.11324548  1.0
  Ni  Ni273  1  0.49343750  0.28119700  0.11324548  1.0
  Ni  Ni274  1  0.49343750  0.61453033  0.11324548  1.0
  Ni  Ni275  1  0.49343750  0.94786367  0.11324548  1.0
  Ni  Ni276  1  0.82677083  0.28119700  0.11324548  1.0
  Ni  Ni277  1  0.82677083  0.61453033  0.11324548  1.0
  Ni  Ni278  1  0.82677083  0.94786367  0.11324548  1.0
  Ni  Ni279  1  0.32677083  0.28119700  0.15491215  1.0
  Ni  Ni280  1  0.32677083  0.61453033  0.15491215  1.0
  Ni  Ni281  1  0.32677083  0.94786367  0.15491215  1.0
  Ni  Ni282  1  0.66010417  0.28119700  0.15491215  1.0
  Ni  Ni283  1  0.66010417  0.61453033  0.15491215  1.0
  Ni  Ni284  1  0.66010417  0.94786367  0.15491215  1.0
  Ni  Ni285  1  0.99343750  0.28119700  0.15491215  1.0
  Ni  Ni286  1  0.99343750  0.61453033  0.15491215  1.0
  Ni  Ni287  1  0.99343750  0.94786367  0.15491215  1.0
  Ni  Ni288  1  0.08333333  0.16666667  0.10209952  1.0
  Ni  Ni289  1  0.08333333  0.50000000  0.10209952  1.0
  Ni  Ni290  1  0.08333333  0.83333333  0.10209952  1.0
  Ni  Ni291  1  0.41666667  0.16666667  0.10209952  1.0
  Ni  Ni292  1  0.41666667  0.50000000  0.10209952  1.0
  Ni  Ni293  1  0.41666667  0.83333333  0.10209952  1.0
  Ni  Ni294  1  0.75000000  0.16666667  0.10209952  1.0
  Ni  Ni295  1  0.75000000  0.50000000  0.10209952  1.0
  Ni  Ni296  1  0.75000000  0.83333333  0.10209952  1.0
  Ni  Ni297  1  0.25000000  0.16666667  0.14376619  1.0
  Ni  Ni298  1  0.25000000  0.50000000  0.14376619  1.0
  Ni  Ni299  1  0.25000000  0.83333333  0.14376619  1.0
  Ni  Ni300  1  0.58333333  0.16666667  0.14376619  1.0
  Ni  Ni301  1  0.58333333  0.50000000  0.14376619  1.0
  Ni  Ni302  1  0.58333333  0.83333333  0.14376619  1.0
  Ni  Ni303  1  0.91666667  0.16666667  0.14376619  1.0
  Ni  Ni304  1  0.91666667  0.50000000  0.14376619  1.0
  Ni  Ni305  1  0.91666667  0.83333333  0.14376619  1.0
  Ni  Ni306  1  0.16666667  0.16666667  0.12293285  1.0
  Ni  Ni307  1  0.16666667  0.50000000  0.12293285  1.0
  Ni  Ni308  1  0.16666667  0.83333333  0.12293285  1.0
  Ni  Ni309  1  0.50000000  0.16666667  0.12293285  1.0
  Ni  Ni310  1  0.50000000  0.50000000  0.12293285  1.0
  Ni  Ni311  1  0.50000000  0.83333333  0.12293285  1.0
  Ni  Ni312  1  0.83333333  0.16666667  0.12293285  1.0
  Ni  Ni313  1  0.83333333  0.50000000  0.12293285  1.0
  Ni  Ni314  1  0.83333333  0.83333333  0.12293285  1.0
  Ni  Ni315  1  0.00000000  0.16666667  0.16459952  1.0
  Ni  Ni316  1  0.00000000  0.50000000  0.16459952  1.0
  Ni  Ni317  1  0.00000000  0.83333333  0.16459952  1.0
  Ni  Ni318  1  0.33333333  0.16666667  0.16459952  1.0
  Ni  Ni319  1  0.33333333  0.50000000  0.16459952  1.0
  Ni  Ni320  1  0.33333333  0.83333333  0.16459952  1.0
  Ni  Ni321  1  0.66666667  0.16666667  0.16459952  1.0
  Ni  Ni322  1  0.66666667  0.50000000  0.16459952  1.0
  Ni  Ni323  1  0.66666667  0.83333333  0.16459952  1.0
  Zr  Zr324  1  0.10118150  0.25723567  0.19107115  1.0
  Zr  Zr325  1  0.10118150  0.59056900  0.19107115  1.0
  Zr  Zr326  1  0.10118150  0.92390233  0.19107115  1.0
  Zr  Zr327  1  0.43451483  0.25723567  0.19107115  1.0
  Zr  Zr328  1  0.43451483  0.59056900  0.19107115  1.0
  Zr  Zr329  1  0.43451483  0.92390233  0.19107115  1.0
  Zr  Zr330  1  0.76784817  0.25723567  0.19107115  1.0
  Zr  Zr331  1  0.76784817  0.59056900  0.19107115  1.0
  Zr  Zr332  1  0.76784817  0.92390233  0.19107115  1.0
  Zr  Zr333  1  0.26784817  0.25723567  0.23273781  1.0
  Zr  Zr334  1  0.26784817  0.59056900  0.23273781  1.0
  Zr  Zr335  1  0.26784817  0.92390233  0.23273781  1.0
  Zr  Zr336  1  0.60118150  0.25723567  0.23273781  1.0
  Zr  Zr337  1  0.60118150  0.59056900  0.23273781  1.0
  Zr  Zr338  1  0.60118150  0.92390233  0.23273781  1.0
  Zr  Zr339  1  0.93451483  0.25723567  0.23273781  1.0
  Zr  Zr340  1  0.93451483  0.59056900  0.23273781  1.0
  Zr  Zr341  1  0.93451483  0.92390233  0.23273781  1.0
  Zr  Zr342  1  0.06548517  0.07609767  0.17979456  1.0
  Zr  Zr343  1  0.06548517  0.40943100  0.17979456  1.0
  Zr  Zr344  1  0.06548517  0.74276433  0.17979456  1.0
  Zr  Zr345  1  0.39881850  0.07609767  0.17979456  1.0
  Zr  Zr346  1  0.39881850  0.40943100  0.17979456  1.0
  Zr  Zr347  1  0.39881850  0.74276433  0.17979456  1.0
  Zr  Zr348  1  0.73215183  0.07609767  0.17979456  1.0
  Zr  Zr349  1  0.73215183  0.40943100  0.17979456  1.0
  Zr  Zr350  1  0.73215183  0.74276433  0.17979456  1.0
  Zr  Zr351  1  0.23215183  0.07609767  0.22146123  1.0
  Zr  Zr352  1  0.23215183  0.40943100  0.22146123  1.0
  Zr  Zr353  1  0.23215183  0.74276433  0.22146123  1.0
  Zr  Zr354  1  0.56548517  0.07609767  0.22146123  1.0
  Zr  Zr355  1  0.56548517  0.40943100  0.22146123  1.0
  Zr  Zr356  1  0.56548517  0.74276433  0.22146123  1.0
  Zr  Zr357  1  0.89881850  0.07609767  0.22146123  1.0
  Zr  Zr358  1  0.89881850  0.40943100  0.22146123  1.0
  Zr  Zr359  1  0.89881850  0.74276433  0.22146123  1.0
  Ni  Ni360  1  0.16666667  0.16666667  0.24793285  1.0
  Ni  Ni361  1  0.16666667  0.50000000  0.24793285  1.0
  Ni  Ni362  1  0.16666667  0.83333333  0.24793285  1.0
  Ni  Ni363  1  0.50000000  0.16666667  0.24793285  1.0
  Ni  Ni364  1  0.50000000  0.50000000  0.24793285  1.0
  Ni  Ni365  1  0.50000000  0.83333333  0.24793285  1.0
  Ni  Ni366  1  0.83333333  0.16666667  0.24793285  1.0
  Ni  Ni367  1  0.83333333  0.50000000  0.24793285  1.0
  Ni  Ni368  1  0.83333333  0.83333333  0.24793285  1.0
  Ni  Ni369  1  0.00000000  0.16666667  0.20626619  1.0
  Ni  Ni370  1  0.00000000  0.50000000  0.20626619  1.0
  Ni  Ni371  1  0.00000000  0.83333333  0.20626619  1.0
  Ni  Ni372  1  0.33333333  0.16666667  0.20626619  1.0
  Ni  Ni373  1  0.33333333  0.50000000  0.20626619  1.0
  Ni  Ni374  1  0.33333333  0.83333333  0.20626619  1.0
  Ni  Ni375  1  0.66666667  0.16666667  0.20626619  1.0
  Ni  Ni376  1  0.66666667  0.50000000  0.20626619  1.0
  Ni  Ni377  1  0.66666667  0.83333333  0.20626619  1.0
  Ni  Ni378  1  0.04872417  0.28119700  0.16873381  1.0
  Ni  Ni379  1  0.04872417  0.61453033  0.16873381  1.0
  Ni  Ni380  1  0.04872417  0.94786367  0.16873381  1.0
  Ni  Ni381  1  0.38205750  0.28119700  0.16873381  1.0
  Ni  Ni382  1  0.38205750  0.61453033  0.16873381  1.0
  Ni  Ni383  1  0.38205750  0.94786367  0.16873381  1.0
  Ni  Ni384  1  0.71539083  0.28119700  0.16873381  1.0
  Ni  Ni385  1  0.71539083  0.61453033  0.16873381  1.0
  Ni  Ni386  1  0.71539083  0.94786367  0.16873381  1.0
  Ni  Ni387  1  0.21539083  0.28119700  0.21040048  1.0
  Ni  Ni388  1  0.21539083  0.61453033  0.21040048  1.0
  Ni  Ni389  1  0.21539083  0.94786367  0.21040048  1.0
  Ni  Ni390  1  0.54872417  0.28119700  0.21040048  1.0
  Ni  Ni391  1  0.54872417  0.61453033  0.21040048  1.0
  Ni  Ni392  1  0.54872417  0.94786367  0.21040048  1.0
  Ni  Ni393  1  0.88205750  0.28119700  0.21040048  1.0
  Ni  Ni394  1  0.88205750  0.61453033  0.21040048  1.0
  Ni  Ni395  1  0.88205750  0.94786367  0.21040048  1.0
  Ni  Ni396  1  0.00656250  0.05213633  0.17428690  1.0
  Ni  Ni397  1  0.00656250  0.38546967  0.17428690  1.0
  Ni  Ni398  1  0.00656250  0.71880300  0.17428690  1.0
  Ni  Ni399  1  0.33989583  0.05213633  0.17428690  1.0
  Ni  Ni400  1  0.33989583  0.38546967  0.17428690  1.0
  Ni  Ni401  1  0.33989583  0.71880300  0.17428690  1.0
  Ni  Ni402  1  0.67322917  0.05213633  0.17428690  1.0
  Ni  Ni403  1  0.67322917  0.38546967  0.17428690  1.0
  Ni  Ni404  1  0.67322917  0.71880300  0.17428690  1.0
  Ni  Ni405  1  0.17322917  0.05213633  0.21595356  1.0
  Ni  Ni406  1  0.17322917  0.38546967  0.21595356  1.0
  Ni  Ni407  1  0.17322917  0.71880300  0.21595356  1.0
  Ni  Ni408  1  0.50656250  0.05213633  0.21595356  1.0
  Ni  Ni409  1  0.50656250  0.38546967  0.21595356  1.0
  Ni  Ni410  1  0.50656250  0.71880300  0.21595356  1.0
  Ni  Ni411  1  0.83989583  0.05213633  0.21595356  1.0
  Ni  Ni412  1  0.83989583  0.38546967  0.21595356  1.0
  Ni  Ni413  1  0.83989583  0.71880300  0.21595356  1.0
  Ni  Ni414  1  0.11794250  0.05213633  0.20213190  1.0
  Ni  Ni415  1  0.11794250  0.38546967  0.20213190  1.0
  Ni  Ni416  1  0.11794250  0.71880300  0.20213190  1.0
  Ni  Ni417  1  0.45127583  0.05213633  0.20213190  1.0
  Ni  Ni418  1  0.45127583  0.38546967  0.20213190  1.0
  Ni  Ni419  1  0.45127583  0.71880300  0.20213190  1.0
  Ni  Ni420  1  0.78460917  0.05213633  0.20213190  1.0
  Ni  Ni421  1  0.78460917  0.38546967  0.20213190  1.0
  Ni  Ni422  1  0.78460917  0.71880300  0.20213190  1.0
  Ni  Ni423  1  0.28460917  0.05213633  0.24379856  1.0
  Ni  Ni424  1  0.28460917  0.38546967  0.24379856  1.0
  Ni  Ni425  1  0.28460917  0.71880300  0.24379856  1.0
  Ni  Ni426  1  0.61794250  0.05213633  0.24379856  1.0
  Ni  Ni427  1  0.61794250  0.38546967  0.24379856  1.0
  Ni  Ni428  1  0.61794250  0.71880300  0.24379856  1.0
  Ni  Ni429  1  0.95127583  0.05213633  0.24379856  1.0
  Ni  Ni430  1  0.95127583  0.38546967  0.24379856  1.0
  Ni  Ni431  1  0.95127583  0.71880300  0.24379856  1.0
  Ni  Ni432  1  0.16010417  0.28119700  0.19657881  1.0
  Ni  Ni433  1  0.16010417  0.61453033  0.19657881  1.0
  Ni  Ni434  1  0.16010417  0.94786367  0.19657881  1.0
  Ni  Ni435  1  0.49343750  0.28119700  0.19657881  1.0
  Ni  Ni436  1  0.49343750  0.61453033  0.19657881  1.0
  Ni  Ni437  1  0.49343750  0.94786367  0.19657881  1.0
  Ni  Ni438  1  0.82677083  0.28119700  0.19657881  1.0
  Ni  Ni439  1  0.82677083  0.61453033  0.19657881  1.0
  Ni  Ni440  1  0.82677083  0.94786367  0.19657881  1.0
  Ni  Ni441  1  0.32677083  0.28119700  0.23824548  1.0
  Ni  Ni442  1  0.32677083  0.61453033  0.23824548  1.0
  Ni  Ni443  1  0.32677083  0.94786367  0.23824548  1.0
  Ni  Ni444  1  0.66010417  0.28119700  0.23824548  1.0
  Ni  Ni445  1  0.66010417  0.61453033  0.23824548  1.0
  Ni  Ni446  1  0.66010417  0.94786367  0.23824548  1.0
  Ni  Ni447  1  0.99343750  0.28119700  0.23824548  1.0
  Ni  Ni448  1  0.99343750  0.61453033  0.23824548  1.0
  Ni  Ni449  1  0.99343750  0.94786367  0.23824548  1.0
  Ni  Ni450  1  0.08333333  0.16666667  0.18543285  1.0
  Ni  Ni451  1  0.08333333  0.50000000  0.18543285  1.0
  Ni  Ni452  1  0.08333333  0.83333333  0.18543285  1.0
  Ni  Ni453  1  0.41666667  0.16666667  0.18543285  1.0
  Ni  Ni454  1  0.41666667  0.50000000  0.18543285  1.0
  Ni  Ni455  1  0.41666667  0.83333333  0.18543285  1.0
  Ni  Ni456  1  0.75000000  0.16666667  0.18543285  1.0
  Ni  Ni457  1  0.75000000  0.50000000  0.18543285  1.0
  Ni  Ni458  1  0.75000000  0.83333333  0.18543285  1.0
  Ni  Ni459  1  0.25000000  0.16666667  0.22709952  1.0
  Ni  Ni460  1  0.25000000  0.50000000  0.22709952  1.0
  Ni  Ni461  1  0.25000000  0.83333333  0.22709952  1.0
  Ni  Ni462  1  0.58333333  0.16666667  0.22709952  1.0
  Ni  Ni463  1  0.58333333  0.50000000  0.22709952  1.0
  Ni  Ni464  1  0.58333333  0.83333333  0.22709952  1.0
  Ni  Ni465  1  0.91666667  0.16666667  0.22709952  1.0
  Ni  Ni466  1  0.91666667  0.50000000  0.22709952  1.0
  Ni  Ni467  1  0.91666667  0.83333333  0.22709952  1.0
  Ni  Ni468  1  0.16666667  0.16666667  0.20626619  1.0
  Ni  Ni469  1  0.16666667  0.50000000  0.20626619  1.0
  Ni  Ni470  1  0.16666667  0.83333333  0.20626619  1.0
  Ni  Ni471  1  0.50000000  0.16666667  0.20626619  1.0
  Ni  Ni472  1  0.50000000  0.50000000  0.20626619  1.0
  Ni  Ni473  1  0.50000000  0.83333333  0.20626619  1.0
  Ni  Ni474  1  0.83333333  0.16666667  0.20626619  1.0
  Ni  Ni475  1  0.83333333  0.50000000  0.20626619  1.0
  Ni  Ni476  1  0.83333333  0.83333333  0.20626619  1.0
  Ni  Ni477  1  0.00000000  0.16666667  0.24793285  1.0
  Ni  Ni478  1  0.00000000  0.50000000  0.24793285  1.0
  Ni  Ni479  1  0.00000000  0.83333333  0.24793285  1.0
  Ni  Ni480  1  0.33333333  0.16666667  0.24793285  1.0
  Ni  Ni481  1  0.33333333  0.50000000  0.24793285  1.0
  Ni  Ni482  1  0.33333333  0.83333333  0.24793285  1.0
  Ni  Ni483  1  0.66666667  0.16666667  0.24793285  1.0
  Ni  Ni484  1  0.66666667  0.50000000  0.24793285  1.0
  Ni  Ni485  1  0.66666667  0.83333333  0.24793285  1.0
  Zr  Zr486  1  0.10118150  0.25723567  0.27440448  1.0
  Zr  Zr487  1  0.10118150  0.59056900  0.27440448  1.0
  Zr  Zr488  1  0.10118150  0.92390233  0.27440448  1.0
  Zr  Zr489  1  0.43451483  0.25723567  0.27440448  1.0
  Zr  Zr490  1  0.43451483  0.59056900  0.27440448  1.0
  Zr  Zr491  1  0.43451483  0.92390233  0.27440448  1.0
  Zr  Zr492  1  0.76784817  0.25723567  0.27440448  1.0
  Zr  Zr493  1  0.76784817  0.59056900  0.27440448  1.0
  Zr  Zr494  1  0.76784817  0.92390233  0.27440448  1.0
  Zr  Zr495  1  0.26784817  0.25723567  0.31607115  1.0
  Zr  Zr496  1  0.26784817  0.59056900  0.31607115  1.0
  Zr  Zr497  1  0.26784817  0.92390233  0.31607115  1.0
  Zr  Zr498  1  0.60118150  0.25723567  0.31607115  1.0
  Zr  Zr499  1  0.60118150  0.59056900  0.31607115  1.0
  Zr  Zr500  1  0.60118150  0.92390233  0.31607115  1.0
  Zr  Zr501  1  0.93451483  0.25723567  0.31607115  1.0
  Zr  Zr502  1  0.93451483  0.59056900  0.31607115  1.0
  Zr  Zr503  1  0.93451483  0.92390233  0.31607115  1.0
  Zr  Zr504  1  0.06548517  0.07609767  0.26312790  1.0
  Zr  Zr505  1  0.06548517  0.40943100  0.26312790  1.0
  Zr  Zr506  1  0.06548517  0.74276433  0.26312790  1.0
  Zr  Zr507  1  0.39881850  0.07609767  0.26312790  1.0
  Zr  Zr508  1  0.39881850  0.40943100  0.26312790  1.0
  Zr  Zr509  1  0.39881850  0.74276433  0.26312790  1.0
  Zr  Zr510  1  0.73215183  0.07609767  0.26312790  1.0
  Zr  Zr511  1  0.73215183  0.40943100  0.26312790  1.0
  Zr  Zr512  1  0.73215183  0.74276433  0.26312790  1.0
  Zr  Zr513  1  0.23215183  0.07609767  0.30479456  1.0
  Zr  Zr514  1  0.23215183  0.40943100  0.30479456  1.0
  Zr  Zr515  1  0.23215183  0.74276433  0.30479456  1.0
  Zr  Zr516  1  0.56548517  0.07609767  0.30479456  1.0
  Zr  Zr517  1  0.56548517  0.40943100  0.30479456  1.0
  Zr  Zr518  1  0.56548517  0.74276433  0.30479456  1.0
  Zr  Zr519  1  0.89881850  0.07609767  0.30479456  1.0
  Zr  Zr520  1  0.89881850  0.40943100  0.30479456  1.0
  Zr  Zr521  1  0.89881850  0.74276433  0.30479456  1.0
  Ni  Ni522  1  0.16666667  0.16666667  0.33126619  1.0
  Ni  Ni523  1  0.16666667  0.50000000  0.33126619  1.0
  Ni  Ni524  1  0.16666667  0.83333333  0.33126619  1.0
  Ni  Ni525  1  0.50000000  0.16666667  0.33126619  1.0
  Ni  Ni526  1  0.50000000  0.50000000  0.33126619  1.0
  Ni  Ni527  1  0.50000000  0.83333333  0.33126619  1.0
  Ni  Ni528  1  0.83333333  0.16666667  0.33126619  1.0
  Ni  Ni529  1  0.83333333  0.50000000  0.33126619  1.0
  Ni  Ni530  1  0.83333333  0.83333333  0.33126619  1.0
  Ni  Ni531  1  0.00000000  0.16666667  0.28959952  1.0
  Ni  Ni532  1  0.00000000  0.50000000  0.28959952  1.0
  Ni  Ni533  1  0.00000000  0.83333333  0.28959952  1.0
  Ni  Ni534  1  0.33333333  0.16666667  0.28959952  1.0
  Ni  Ni535  1  0.33333333  0.50000000  0.28959952  1.0
  Ni  Ni536  1  0.33333333  0.83333333  0.28959952  1.0
  Ni  Ni537  1  0.66666667  0.16666667  0.28959952  1.0
  Ni  Ni538  1  0.66666667  0.50000000  0.28959952  1.0
  Ni  Ni539  1  0.66666667  0.83333333  0.28959952  1.0
  Ni  Ni540  1  0.04872417  0.28119700  0.25206715  1.0
  Ni  Ni541  1  0.04872417  0.61453033  0.25206715  1.0
  Ni  Ni542  1  0.04872417  0.94786367  0.25206715  1.0
  Ni  Ni543  1  0.38205750  0.28119700  0.25206715  1.0
  Ni  Ni544  1  0.38205750  0.61453033  0.25206715  1.0
  Ni  Ni545  1  0.38205750  0.94786367  0.25206715  1.0
  Ni  Ni546  1  0.71539083  0.28119700  0.25206715  1.0
  Ni  Ni547  1  0.71539083  0.61453033  0.25206715  1.0
  Ni  Ni548  1  0.71539083  0.94786367  0.25206715  1.0
  Ni  Ni549  1  0.21539083  0.28119700  0.29373381  1.0
  Ni  Ni550  1  0.21539083  0.61453033  0.29373381  1.0
  Ni  Ni551  1  0.21539083  0.94786367  0.29373381  1.0
  Ni  Ni552  1  0.54872417  0.28119700  0.29373381  1.0
  Ni  Ni553  1  0.54872417  0.61453033  0.29373381  1.0
  Ni  Ni554  1  0.54872417  0.94786367  0.29373381  1.0
  Ni  Ni555  1  0.88205750  0.28119700  0.29373381  1.0
  Ni  Ni556  1  0.88205750  0.61453033  0.29373381  1.0
  Ni  Ni557  1  0.88205750  0.94786367  0.29373381  1.0
  Ni  Ni558  1  0.00656250  0.05213633  0.25762023  1.0
  Ni  Ni559  1  0.00656250  0.38546967  0.25762023  1.0
  Ni  Ni560  1  0.00656250  0.71880300  0.25762023  1.0
  Ni  Ni561  1  0.33989583  0.05213633  0.25762023  1.0
  Ni  Ni562  1  0.33989583  0.38546967  0.25762023  1.0
  Ni  Ni563  1  0.33989583  0.71880300  0.25762023  1.0
  Ni  Ni564  1  0.67322917  0.05213633  0.25762023  1.0
  Ni  Ni565  1  0.67322917  0.38546967  0.25762023  1.0
  Ni  Ni566  1  0.67322917  0.71880300  0.25762023  1.0
  Ni  Ni567  1  0.17322917  0.05213633  0.29928690  1.0
  Ni  Ni568  1  0.17322917  0.38546967  0.29928690  1.0
  Ni  Ni569  1  0.17322917  0.71880300  0.29928690  1.0
  Ni  Ni570  1  0.50656250  0.05213633  0.29928690  1.0
  Ni  Ni571  1  0.50656250  0.38546967  0.29928690  1.0
  Ni  Ni572  1  0.50656250  0.71880300  0.29928690  1.0
  Ni  Ni573  1  0.83989583  0.05213633  0.29928690  1.0
  Ni  Ni574  1  0.83989583  0.38546967  0.29928690  1.0
  Ni  Ni575  1  0.83989583  0.71880300  0.29928690  1.0
  Ni  Ni576  1  0.11794250  0.05213633  0.28546523  1.0
  Ni  Ni577  1  0.11794250  0.38546967  0.28546523  1.0
  Ni  Ni578  1  0.11794250  0.71880300  0.28546523  1.0
  Ni  Ni579  1  0.45127583  0.05213633  0.28546523  1.0
  Ni  Ni580  1  0.45127583  0.38546967  0.28546523  1.0
  Ni  Ni581  1  0.45127583  0.71880300  0.28546523  1.0
  Ni  Ni582  1  0.78460917  0.05213633  0.28546523  1.0
  Ni  Ni583  1  0.78460917  0.38546967  0.28546523  1.0
  Ni  Ni584  1  0.78460917  0.71880300  0.28546523  1.0
  Ni  Ni585  1  0.28460917  0.05213633  0.32713190  1.0
  Ni  Ni586  1  0.28460917  0.38546967  0.32713190  1.0
  Ni  Ni587  1  0.28460917  0.71880300  0.32713190  1.0
  Ni  Ni588  1  0.61794250  0.05213633  0.32713190  1.0
  Ni  Ni589  1  0.61794250  0.38546967  0.32713190  1.0
  Ni  Ni590  1  0.61794250  0.71880300  0.32713190  1.0
  Ni  Ni591  1  0.95127583  0.05213633  0.32713190  1.0
  Ni  Ni592  1  0.95127583  0.38546967  0.32713190  1.0
  Ni  Ni593  1  0.95127583  0.71880300  0.32713190  1.0
  Ni  Ni594  1  0.16010417  0.28119700  0.27991215  1.0
  Ni  Ni595  1  0.16010417  0.61453033  0.27991215  1.0
  Ni  Ni596  1  0.16010417  0.94786367  0.27991215  1.0
  Ni  Ni597  1  0.49343750  0.28119700  0.27991215  1.0
  Ni  Ni598  1  0.49343750  0.61453033  0.27991215  1.0
  Ni  Ni599  1  0.49343750  0.94786367  0.27991215  1.0
  Ni  Ni600  1  0.82677083  0.28119700  0.27991215  1.0
  Ni  Ni601  1  0.82677083  0.61453033  0.27991215  1.0
  Ni  Ni602  1  0.82677083  0.94786367  0.27991215  1.0
  Ni  Ni603  1  0.32677083  0.28119700  0.32157881  1.0
  Ni  Ni604  1  0.32677083  0.61453033  0.32157881  1.0
  Ni  Ni605  1  0.32677083  0.94786367  0.32157881  1.0
  Ni  Ni606  1  0.66010417  0.28119700  0.32157881  1.0
  Ni  Ni607  1  0.66010417  0.61453033  0.32157881  1.0
  Ni  Ni608  1  0.66010417  0.94786367  0.32157881  1.0
  Ni  Ni609  1  0.99343750  0.28119700  0.32157881  1.0
  Ni  Ni610  1  0.99343750  0.61453033  0.32157881  1.0
  Ni  Ni611  1  0.99343750  0.94786367  0.32157881  1.0
  Ni  Ni612  1  0.08333333  0.16666667  0.26876619  1.0
  Ni  Ni613  1  0.08333333  0.50000000  0.26876619  1.0
  Ni  Ni614  1  0.08333333  0.83333333  0.26876619  1.0
  Ni  Ni615  1  0.41666667  0.16666667  0.26876619  1.0
  Ni  Ni616  1  0.41666667  0.50000000  0.26876619  1.0
  Ni  Ni617  1  0.41666667  0.83333333  0.26876619  1.0
  Ni  Ni618  1  0.75000000  0.16666667  0.26876619  1.0
  Ni  Ni619  1  0.75000000  0.50000000  0.26876619  1.0
  Ni  Ni620  1  0.75000000  0.83333333  0.26876619  1.0
  Ni  Ni621  1  0.25000000  0.16666667  0.31043285  1.0
  Ni  Ni622  1  0.25000000  0.50000000  0.31043285  1.0
  Ni  Ni623  1  0.25000000  0.83333333  0.31043285  1.0
  Ni  Ni624  1  0.58333333  0.16666667  0.31043285  1.0
  Ni  Ni625  1  0.58333333  0.50000000  0.31043285  1.0
  Ni  Ni626  1  0.58333333  0.83333333  0.31043285  1.0
  Ni  Ni627  1  0.91666667  0.16666667  0.31043285  1.0
  Ni  Ni628  1  0.91666667  0.50000000  0.31043285  1.0
  Ni  Ni629  1  0.91666667  0.83333333  0.31043285  1.0
  Ni  Ni630  1  0.16666667  0.16666667  0.28959952  1.0
  Ni  Ni631  1  0.16666667  0.50000000  0.28959952  1.0
  Ni  Ni632  1  0.16666667  0.83333333  0.28959952  1.0
  Ni  Ni633  1  0.50000000  0.16666667  0.28959952  1.0
  Ni  Ni634  1  0.50000000  0.50000000  0.28959952  1.0
  Ni  Ni635  1  0.50000000  0.83333333  0.28959952  1.0
  Ni  Ni636  1  0.83333333  0.16666667  0.28959952  1.0
  Ni  Ni637  1  0.83333333  0.50000000  0.28959952  1.0
  Ni  Ni638  1  0.83333333  0.83333333  0.28959952  1.0
  Ni  Ni639  1  0.00000000  0.16666667  0.33126619  1.0
  Ni  Ni640  1  0.00000000  0.50000000  0.33126619  1.0
  Ni  Ni641  1  0.00000000  0.83333333  0.33126619  1.0
  Ni  Ni642  1  0.33333333  0.16666667  0.33126619  1.0
  Ni  Ni643  1  0.33333333  0.50000000  0.33126619  1.0
  Ni  Ni644  1  0.33333333  0.83333333  0.33126619  1.0
  Ni  Ni645  1  0.66666667  0.16666667  0.33126619  1.0
  Ni  Ni646  1  0.66666667  0.50000000  0.33126619  1.0
  Ni  Ni647  1  0.66666667  0.83333333  0.33126619  1.0
  Zr  Zr648  1  0.10118150  0.25723567  0.35773781  1.0
  Zr  Zr649  1  0.10118150  0.59056900  0.35773781  1.0
  Zr  Zr650  1  0.10118150  0.92390233  0.35773781  1.0
  Zr  Zr651  1  0.43451483  0.25723567  0.35773781  1.0
  Zr  Zr652  1  0.43451483  0.59056900  0.35773781  1.0
  Zr  Zr653  1  0.43451483  0.92390233  0.35773781  1.0
  Zr  Zr654  1  0.76784817  0.25723567  0.35773781  1.0
  Zr  Zr655  1  0.76784817  0.59056900  0.35773781  1.0
  Zr  Zr656  1  0.76784817  0.92390233  0.35773781  1.0
  Zr  Zr657  1  0.26784817  0.25723567  0.39940448  1.0
  Zr  Zr658  1  0.26784817  0.59056900  0.39940448  1.0
  Zr  Zr659  1  0.26784817  0.92390233  0.39940448  1.0
  Zr  Zr660  1  0.60118150  0.25723567  0.39940448  1.0
  Zr  Zr661  1  0.60118150  0.59056900  0.39940448  1.0
  Zr  Zr662  1  0.60118150  0.92390233  0.39940448  1.0
  Zr  Zr663  1  0.93451483  0.25723567  0.39940448  1.0
  Zr  Zr664  1  0.93451483  0.59056900  0.39940448  1.0
  Zr  Zr665  1  0.93451483  0.92390233  0.39940448  1.0
  Zr  Zr666  1  0.06548517  0.07609767  0.34646123  1.0
  Zr  Zr667  1  0.06548517  0.40943100  0.34646123  1.0
  Zr  Zr668  1  0.06548517  0.74276433  0.34646123  1.0
  Zr  Zr669  1  0.39881850  0.07609767  0.34646123  1.0
  Zr  Zr670  1  0.39881850  0.40943100  0.34646123  1.0
  Zr  Zr671  1  0.39881850  0.74276433  0.34646123  1.0
  Zr  Zr672  1  0.73215183  0.07609767  0.34646123  1.0
  Zr  Zr673  1  0.73215183  0.40943100  0.34646123  1.0
  Zr  Zr674  1  0.73215183  0.74276433  0.34646123  1.0
  Zr  Zr675  1  0.23215183  0.07609767  0.38812790  1.0
  Zr  Zr676  1  0.23215183  0.40943100  0.38812790  1.0
  Zr  Zr677  1  0.23215183  0.74276433  0.38812790  1.0
  Zr  Zr678  1  0.56548517  0.07609767  0.38812790  1.0
  Zr  Zr679  1  0.56548517  0.40943100  0.38812790  1.0
  Zr  Zr680  1  0.56548517  0.74276433  0.38812790  1.0
  Zr  Zr681  1  0.89881850  0.07609767  0.38812790  1.0
  Zr  Zr682  1  0.89881850  0.40943100  0.38812790  1.0
  Zr  Zr683  1  0.89881850  0.74276433  0.38812790  1.0
  Ni  Ni684  1  0.16666667  0.16666667  0.41459952  1.0
  Ni  Ni685  1  0.16666667  0.50000000  0.41459952  1.0
  Ni  Ni686  1  0.16666667  0.83333333  0.41459952  1.0
  Ni  Ni687  1  0.50000000  0.16666667  0.41459952  1.0
  Ni  Ni688  1  0.50000000  0.50000000  0.41459952  1.0
  Ni  Ni689  1  0.50000000  0.83333333  0.41459952  1.0
  Ni  Ni690  1  0.83333333  0.16666667  0.41459952  1.0
  Ni  Ni691  1  0.83333333  0.50000000  0.41459952  1.0
  Ni  Ni692  1  0.83333333  0.83333333  0.41459952  1.0
  Ni  Ni693  1  0.00000000  0.16666667  0.37293285  1.0
  Ni  Ni694  1  0.00000000  0.50000000  0.37293285  1.0
  Ni  Ni695  1  0.00000000  0.83333333  0.37293285  1.0
  Ni  Ni696  1  0.33333333  0.16666667  0.37293285  1.0
  Ni  Ni697  1  0.33333333  0.50000000  0.37293285  1.0
  Ni  Ni698  1  0.33333333  0.83333333  0.37293285  1.0
  Ni  Ni699  1  0.66666667  0.16666667  0.37293285  1.0
  Ni  Ni700  1  0.66666667  0.50000000  0.37293285  1.0
  Ni  Ni701  1  0.66666667  0.83333333  0.37293285  1.0
  Ni  Ni702  1  0.04872417  0.28119700  0.33540048  1.0
  Ni  Ni703  1  0.04872417  0.61453033  0.33540048  1.0
  Ni  Ni704  1  0.04872417  0.94786367  0.33540048  1.0
  Ni  Ni705  1  0.38205750  0.28119700  0.33540048  1.0
  Ni  Ni706  1  0.38205750  0.61453033  0.33540048  1.0
  Ni  Ni707  1  0.38205750  0.94786367  0.33540048  1.0
  Ni  Ni708  1  0.71539083  0.28119700  0.33540048  1.0
  Ni  Ni709  1  0.71539083  0.61453033  0.33540048  1.0
  Ni  Ni710  1  0.71539083  0.94786367  0.33540048  1.0
  Ni  Ni711  1  0.21539083  0.28119700  0.37706715  1.0
  Ni  Ni712  1  0.21539083  0.61453033  0.37706715  1.0
  Ni  Ni713  1  0.21539083  0.94786367  0.37706715  1.0
  Ni  Ni714  1  0.54872417  0.28119700  0.37706715  1.0
  Ni  Ni715  1  0.54872417  0.61453033  0.37706715  1.0
  Ni  Ni716  1  0.54872417  0.94786367  0.37706715  1.0
  Ni  Ni717  1  0.88205750  0.28119700  0.37706715  1.0
  Ni  Ni718  1  0.88205750  0.61453033  0.37706715  1.0
  Ni  Ni719  1  0.88205750  0.94786367  0.37706715  1.0
  Ni  Ni720  1  0.00656250  0.05213633  0.34095356  1.0
  Ni  Ni721  1  0.00656250  0.38546967  0.34095356  1.0
  Ni  Ni722  1  0.00656250  0.71880300  0.34095356  1.0
  Ni  Ni723  1  0.33989583  0.05213633  0.34095356  1.0
  Ni  Ni724  1  0.33989583  0.38546967  0.34095356  1.0
  Ni  Ni725  1  0.33989583  0.71880300  0.34095356  1.0
  Ni  Ni726  1  0.67322917  0.05213633  0.34095356  1.0
  Ni  Ni727  1  0.67322917  0.38546967  0.34095356  1.0
  Ni  Ni728  1  0.67322917  0.71880300  0.34095356  1.0
  Ni  Ni729  1  0.17322917  0.05213633  0.38262023  1.0
  Ni  Ni730  1  0.17322917  0.38546967  0.38262023  1.0
  Ni  Ni731  1  0.17322917  0.71880300  0.38262023  1.0
  Ni  Ni732  1  0.50656250  0.05213633  0.38262023  1.0
  Ni  Ni733  1  0.50656250  0.38546967  0.38262023  1.0
  Ni  Ni734  1  0.50656250  0.71880300  0.38262023  1.0
  Ni  Ni735  1  0.83989583  0.05213633  0.38262023  1.0
  Ni  Ni736  1  0.83989583  0.38546967  0.38262023  1.0
  Ni  Ni737  1  0.83989583  0.71880300  0.38262023  1.0
  Ni  Ni738  1  0.11794250  0.05213633  0.36879856  1.0
  Ni  Ni739  1  0.11794250  0.38546967  0.36879856  1.0
  Ni  Ni740  1  0.11794250  0.71880300  0.36879856  1.0
  Ni  Ni741  1  0.45127583  0.05213633  0.36879856  1.0
  Ni  Ni742  1  0.45127583  0.38546967  0.36879856  1.0
  Ni  Ni743  1  0.45127583  0.71880300  0.36879856  1.0
  Ni  Ni744  1  0.78460917  0.05213633  0.36879856  1.0
  Ni  Ni745  1  0.78460917  0.38546967  0.36879856  1.0
  Ni  Ni746  1  0.78460917  0.71880300  0.36879856  1.0
  Ni  Ni747  1  0.28460917  0.05213633  0.41046523  1.0
  Ni  Ni748  1  0.28460917  0.38546967  0.41046523  1.0
  Ni  Ni749  1  0.28460917  0.71880300  0.41046523  1.0
  Ni  Ni750  1  0.61794250  0.05213633  0.41046523  1.0
  Ni  Ni751  1  0.61794250  0.38546967  0.41046523  1.0
  Ni  Ni752  1  0.61794250  0.71880300  0.41046523  1.0
  Ni  Ni753  1  0.95127583  0.05213633  0.41046523  1.0
  Ni  Ni754  1  0.95127583  0.38546967  0.41046523  1.0
  Ni  Ni755  1  0.95127583  0.71880300  0.41046523  1.0
  Ni  Ni756  1  0.16010417  0.28119700  0.36324548  1.0
  Ni  Ni757  1  0.16010417  0.61453033  0.36324548  1.0
  Ni  Ni758  1  0.16010417  0.94786367  0.36324548  1.0
  Ni  Ni759  1  0.49343750  0.28119700  0.36324548  1.0
  Ni  Ni760  1  0.49343750  0.61453033  0.36324548  1.0
  Ni  Ni761  1  0.49343750  0.94786367  0.36324548  1.0
  Ni  Ni762  1  0.82677083  0.28119700  0.36324548  1.0
  Ni  Ni763  1  0.82677083  0.61453033  0.36324548  1.0
  Ni  Ni764  1  0.82677083  0.94786367  0.36324548  1.0
  Ni  Ni765  1  0.32677083  0.28119700  0.40491215  1.0
  Ni  Ni766  1  0.32677083  0.61453033  0.40491215  1.0
  Ni  Ni767  1  0.32677083  0.94786367  0.40491215  1.0
  Ni  Ni768  1  0.66010417  0.28119700  0.40491215  1.0
  Ni  Ni769  1  0.66010417  0.61453033  0.40491215  1.0
  Ni  Ni770  1  0.66010417  0.94786367  0.40491215  1.0
  Ni  Ni771  1  0.99343750  0.28119700  0.40491215  1.0
  Ni  Ni772  1  0.99343750  0.61453033  0.40491215  1.0
  Ni  Ni773  1  0.99343750  0.94786367  0.40491215  1.0
  Ni  Ni774  1  0.08333333  0.16666667  0.35209952  1.0
  Ni  Ni775  1  0.08333333  0.50000000  0.35209952  1.0
  Ni  Ni776  1  0.08333333  0.83333333  0.35209952  1.0
  Ni  Ni777  1  0.41666667  0.16666667  0.35209952  1.0
  Ni  Ni778  1  0.41666667  0.50000000  0.35209952  1.0
  Ni  Ni779  1  0.41666667  0.83333333  0.35209952  1.0
  Ni  Ni780  1  0.75000000  0.16666667  0.35209952  1.0
  Ni  Ni781  1  0.75000000  0.50000000  0.35209952  1.0
  Ni  Ni782  1  0.75000000  0.83333333  0.35209952  1.0
  Ni  Ni783  1  0.25000000  0.16666667  0.39376619  1.0
  Ni  Ni784  1  0.25000000  0.50000000  0.39376619  1.0
  Ni  Ni785  1  0.25000000  0.83333333  0.39376619  1.0
  Ni  Ni786  1  0.58333333  0.16666667  0.39376619  1.0
  Ni  Ni787  1  0.58333333  0.50000000  0.39376619  1.0
  Ni  Ni788  1  0.58333333  0.83333333  0.39376619  1.0
  Ni  Ni789  1  0.91666667  0.16666667  0.39376619  1.0
  Ni  Ni790  1  0.91666667  0.50000000  0.39376619  1.0
  Ni  Ni791  1  0.91666667  0.83333333  0.39376619  1.0
  Ni  Ni792  1  0.16666667  0.16666667  0.37293285  1.0
  Ni  Ni793  1  0.16666667  0.50000000  0.37293285  1.0
  Ni  Ni794  1  0.16666667  0.83333333  0.37293285  1.0
  Ni  Ni795  1  0.50000000  0.16666667  0.37293285  1.0
  Ni  Ni796  1  0.50000000  0.50000000  0.37293285  1.0
  Ni  Ni797  1  0.50000000  0.83333333  0.37293285  1.0
  Ni  Ni798  1  0.83333333  0.16666667  0.37293285  1.0
  Ni  Ni799  1  0.83333333  0.50000000  0.37293285  1.0
  Ni  Ni800  1  0.83333333  0.83333333  0.37293285  1.0
  Ni  Ni801  1  0.00000000  0.16666667  0.41459952  1.0
  Ni  Ni802  1  0.00000000  0.50000000  0.41459952  1.0
  Ni  Ni803  1  0.00000000  0.83333333  0.41459952  1.0
  Ni  Ni804  1  0.33333333  0.16666667  0.41459952  1.0
  Ni  Ni805  1  0.33333333  0.50000000  0.41459952  1.0
  Ni  Ni806  1  0.33333333  0.83333333  0.41459952  1.0
  Ni  Ni807  1  0.66666667  0.16666667  0.41459952  1.0
  Ni  Ni808  1  0.66666667  0.50000000  0.41459952  1.0
  Ni  Ni809  1  0.66666667  0.83333333  0.41459952  1.0
