# generated using pymatgen
data_Zr2Ni7
_symmetry_space_group_name_H-M   'P 1'
_cell_length_a   24.37380227
_cell_length_b   38.35863201
_cell_length_c   32.50833991
_cell_angle_alpha   81.05238542
_cell_angle_beta   85.20497394
_cell_angle_gamma   76.17241093
_symmetry_Int_Tables_number   1
_chemical_formula_structural   Zr2Ni7
_chemical_formula_sum   'Zr216 Ni756'
_cell_volume   29119.40813689
_cell_formula_units_Z   108
loop_
 _symmetry_equiv_pos_site_id
 _symmetry_equiv_pos_as_xyz
  1  'x, y, z'
loop_
 _atom_site_type_symbol
 _atom_site_label
 _atom_site_symmetry_multiplicity
 _atom_site_fract_x
 _atom_site_fract_y
 _atom_site_fract_z
 _atom_site_occupancy
  Ni  Ni0  1  0.11605733  0.32638686  0.94278843  1.0
  Ni  Ni1  1  0.11605733  0.65972019  0.94278843  1.0
  Ni  Ni2  1  0.11605733  0.99305352  0.94278843  1.0
  Ni  Ni3  1  0.44939067  0.32638686  0.94278843  1.0
  Ni  Ni4  1  0.44939067  0.65972019  0.94278843  1.0
  Ni  Ni5  1  0.44939067  0.99305352  0.94278843  1.0
  Ni  Ni6  1  0.78272400  0.32638686  0.94278843  1.0
  Ni  Ni7  1  0.78272400  0.65972019  0.94278843  1.0
  Ni  Ni8  1  0.78272400  0.99305352  0.94278843  1.0
  Ni  Ni9  1  0.28272400  0.01686305  0.87135986  1.0
  Ni  Ni10  1  0.28272400  0.35019638  0.87135986  1.0
  Ni  Ni11  1  0.28272400  0.68352971  0.87135986  1.0
  Ni  Ni12  1  0.61605733  0.01686305  0.87135986  1.0
  Ni  Ni13  1  0.61605733  0.35019638  0.87135986  1.0
  Ni  Ni14  1  0.61605733  0.68352971  0.87135986  1.0
  Ni  Ni15  1  0.94939067  0.01686305  0.87135986  1.0
  Ni  Ni16  1  0.94939067  0.35019638  0.87135986  1.0
  Ni  Ni17  1  0.94939067  0.68352971  0.87135986  1.0
  Ni  Ni18  1  0.17095700  0.01658195  0.87220314  1.0
  Ni  Ni19  1  0.17095700  0.34991529  0.87220314  1.0
  Ni  Ni20  1  0.17095700  0.68324862  0.87220314  1.0
  Ni  Ni21  1  0.50429033  0.01658195  0.87220314  1.0
  Ni  Ni22  1  0.50429033  0.34991529  0.87220314  1.0
  Ni  Ni23  1  0.50429033  0.68324862  0.87220314  1.0
  Ni  Ni24  1  0.83762367  0.01658195  0.87220314  1.0
  Ni  Ni25  1  0.83762367  0.34991529  0.87220314  1.0
  Ni  Ni26  1  0.83762367  0.68324862  0.87220314  1.0
  Ni  Ni27  1  0.00429033  0.32610576  0.94363171  1.0
  Ni  Ni28  1  0.00429033  0.65943910  0.94363171  1.0
  Ni  Ni29  1  0.00429033  0.99277243  0.94363171  1.0
  Ni  Ni30  1  0.33762367  0.32610576  0.94363171  1.0
  Ni  Ni31  1  0.33762367  0.65943910  0.94363171  1.0
  Ni  Ni32  1  0.33762367  0.99277243  0.94363171  1.0
  Ni  Ni33  1  0.67095700  0.32610576  0.94363171  1.0
  Ni  Ni34  1  0.67095700  0.65943910  0.94363171  1.0
  Ni  Ni35  1  0.67095700  0.99277243  0.94363171  1.0
  Ni  Ni36  1  0.16337733  0.26222562  0.96352714  1.0
  Ni  Ni37  1  0.16337733  0.59555895  0.96352714  1.0
  Ni  Ni38  1  0.16337733  0.92889229  0.96352714  1.0
  Ni  Ni39  1  0.49671067  0.26222562  0.96352714  1.0
  Ni  Ni40  1  0.49671067  0.59555895  0.96352714  1.0
  Ni  Ni41  1  0.49671067  0.92889229  0.96352714  1.0
  Ni  Ni42  1  0.83004400  0.26222562  0.96352714  1.0
  Ni  Ni43  1  0.83004400  0.59555895  0.96352714  1.0
  Ni  Ni44  1  0.83004400  0.92889229  0.96352714  1.0
  Ni  Ni45  1  0.33004400  0.28603514  0.89209857  1.0
  Ni  Ni46  1  0.33004400  0.61936848  0.89209857  1.0
  Ni  Ni47  1  0.33004400  0.95270181  0.89209857  1.0
  Ni  Ni48  1  0.66337733  0.28603514  0.89209857  1.0
  Ni  Ni49  1  0.66337733  0.61936848  0.89209857  1.0
  Ni  Ni50  1  0.66337733  0.95270181  0.89209857  1.0
  Ni  Ni51  1  0.99671067  0.28603514  0.89209857  1.0
  Ni  Ni52  1  0.99671067  0.61936848  0.89209857  1.0
  Ni  Ni53  1  0.99671067  0.95270181  0.89209857  1.0
  Ni  Ni54  1  0.08076967  0.27444138  0.92687986  1.0
  Ni  Ni55  1  0.08076967  0.60777471  0.92687986  1.0
  Ni  Ni56  1  0.08076967  0.94110805  0.92687986  1.0
  Ni  Ni57  1  0.41410300  0.27444138  0.92687986  1.0
  Ni  Ni58  1  0.41410300  0.60777471  0.92687986  1.0
  Ni  Ni59  1  0.41410300  0.94110805  0.92687986  1.0
  Ni  Ni60  1  0.74743633  0.27444138  0.92687986  1.0
  Ni  Ni61  1  0.74743633  0.60777471  0.92687986  1.0
  Ni  Ni62  1  0.74743633  0.94110805  0.92687986  1.0
  Ni  Ni63  1  0.24743633  0.25063186  0.99830843  1.0
  Ni  Ni64  1  0.24743633  0.58396519  0.99830843  1.0
  Ni  Ni65  1  0.24743633  0.91729852  0.99830843  1.0
  Ni  Ni66  1  0.58076967  0.25063186  0.99830843  1.0
  Ni  Ni67  1  0.58076967  0.58396519  0.99830843  1.0
  Ni  Ni68  1  0.58076967  0.91729852  0.99830843  1.0
  Ni  Ni69  1  0.91410300  0.25063186  0.99830843  1.0
  Ni  Ni70  1  0.91410300  0.58396519  0.99830843  1.0
  Ni  Ni71  1  0.91410300  0.91729852  0.99830843  1.0
  Ni  Ni72  1  0.16489683  0.28585140  0.89204079  1.0
  Ni  Ni73  1  0.16489683  0.61918474  0.89204079  1.0
  Ni  Ni74  1  0.16489683  0.95251807  0.89204079  1.0
  Ni  Ni75  1  0.49823017  0.28585140  0.89204079  1.0
  Ni  Ni76  1  0.49823017  0.61918474  0.89204079  1.0
  Ni  Ni77  1  0.49823017  0.95251807  0.89204079  1.0
  Ni  Ni78  1  0.83156350  0.28585140  0.89204079  1.0
  Ni  Ni79  1  0.83156350  0.61918474  0.89204079  1.0
  Ni  Ni80  1  0.83156350  0.95251807  0.89204079  1.0
  Ni  Ni81  1  0.33156350  0.26204188  0.96346936  1.0
  Ni  Ni82  1  0.33156350  0.59537521  0.96346936  1.0
  Ni  Ni83  1  0.33156350  0.92870855  0.96346936  1.0
  Ni  Ni84  1  0.66489683  0.26204188  0.96346936  1.0
  Ni  Ni85  1  0.66489683  0.59537521  0.96346936  1.0
  Ni  Ni86  1  0.66489683  0.92870855  0.96346936  1.0
  Ni  Ni87  1  0.99823017  0.26204188  0.96346936  1.0
  Ni  Ni88  1  0.99823017  0.59537521  0.96346936  1.0
  Ni  Ni89  1  0.99823017  0.92870855  0.96346936  1.0
  Ni  Ni90  1  0.21385783  0.19807969  0.98379493  1.0
  Ni  Ni91  1  0.21385783  0.53141302  0.98379493  1.0
  Ni  Ni92  1  0.21385783  0.86474636  0.98379493  1.0
  Ni  Ni93  1  0.54719117  0.19807969  0.98379493  1.0
  Ni  Ni94  1  0.54719117  0.53141302  0.98379493  1.0
  Ni  Ni95  1  0.54719117  0.86474636  0.98379493  1.0
  Ni  Ni96  1  0.88052450  0.19807969  0.98379493  1.0
  Ni  Ni97  1  0.88052450  0.53141302  0.98379493  1.0
  Ni  Ni98  1  0.88052450  0.86474636  0.98379493  1.0
  Ni  Ni99  1  0.04719117  0.22188921  0.91236636  1.0
  Ni  Ni100  1  0.04719117  0.55522255  0.91236636  1.0
  Ni  Ni101  1  0.04719117  0.88855588  0.91236636  1.0
  Ni  Ni102  1  0.38052450  0.22188921  0.91236636  1.0
  Ni  Ni103  1  0.38052450  0.55522255  0.91236636  1.0
  Ni  Ni104  1  0.38052450  0.88855588  0.91236636  1.0
  Ni  Ni105  1  0.71385783  0.22188921  0.91236636  1.0
  Ni  Ni106  1  0.71385783  0.55522255  0.91236636  1.0
  Ni  Ni107  1  0.71385783  0.88855588  0.91236636  1.0
  Ni  Ni108  1  0.15835067  0.22190995  0.91230414  1.0
  Ni  Ni109  1  0.15835067  0.55524329  0.91230414  1.0
  Ni  Ni110  1  0.15835067  0.88857662  0.91230414  1.0
  Ni  Ni111  1  0.49168400  0.22190995  0.91230414  1.0
  Ni  Ni112  1  0.49168400  0.55524329  0.91230414  1.0
  Ni  Ni113  1  0.49168400  0.88857662  0.91230414  1.0
  Ni  Ni114  1  0.82501733  0.22190995  0.91230414  1.0
  Ni  Ni115  1  0.82501733  0.55524329  0.91230414  1.0
  Ni  Ni116  1  0.82501733  0.88857662  0.91230414  1.0
  Ni  Ni117  1  0.32501733  0.19810043  0.98373271  1.0
  Ni  Ni118  1  0.32501733  0.53143376  0.98373271  1.0
  Ni  Ni119  1  0.32501733  0.86476710  0.98373271  1.0
  Ni  Ni120  1  0.65835067  0.19810043  0.98373271  1.0
  Ni  Ni121  1  0.65835067  0.53143376  0.98373271  1.0
  Ni  Ni122  1  0.65835067  0.86476710  0.98373271  1.0
  Ni  Ni123  1  0.99168400  0.19810043  0.98373271  1.0
  Ni  Ni124  1  0.99168400  0.53143376  0.98373271  1.0
  Ni  Ni125  1  0.99168400  0.86476710  0.98373271  1.0
  Ni  Ni126  1  0.11947550  0.18287269  0.87334793  1.0
  Ni  Ni127  1  0.11947550  0.51620602  0.87334793  1.0
  Ni  Ni128  1  0.11947550  0.84953936  0.87334793  1.0
  Ni  Ni129  1  0.45280883  0.18287269  0.87334793  1.0
  Ni  Ni130  1  0.45280883  0.51620602  0.87334793  1.0
  Ni  Ni131  1  0.45280883  0.84953936  0.87334793  1.0
  Ni  Ni132  1  0.78614217  0.18287269  0.87334793  1.0
  Ni  Ni133  1  0.78614217  0.51620602  0.87334793  1.0
  Ni  Ni134  1  0.78614217  0.84953936  0.87334793  1.0
  Ni  Ni135  1  0.28614217  0.15906317  0.94477650  1.0
  Ni  Ni136  1  0.28614217  0.49239650  0.94477650  1.0
  Ni  Ni137  1  0.28614217  0.82572983  0.94477650  1.0
  Ni  Ni138  1  0.61947550  0.15906317  0.94477650  1.0
  Ni  Ni139  1  0.61947550  0.49239650  0.94477650  1.0
  Ni  Ni140  1  0.61947550  0.82572983  0.94477650  1.0
  Ni  Ni141  1  0.95280883  0.15906317  0.94477650  1.0
  Ni  Ni142  1  0.95280883  0.49239650  0.94477650  1.0
  Ni  Ni143  1  0.95280883  0.82572983  0.94477650  1.0
  Ni  Ni144  1  0.17498267  0.15904243  0.94483871  1.0
  Ni  Ni145  1  0.17498267  0.49237576  0.94483871  1.0
  Ni  Ni146  1  0.17498267  0.82570910  0.94483871  1.0
  Ni  Ni147  1  0.50831600  0.15904243  0.94483871  1.0
  Ni  Ni148  1  0.50831600  0.49237576  0.94483871  1.0
  Ni  Ni149  1  0.50831600  0.82570910  0.94483871  1.0
  Ni  Ni150  1  0.84164933  0.15904243  0.94483871  1.0
  Ni  Ni151  1  0.84164933  0.49237576  0.94483871  1.0
  Ni  Ni152  1  0.84164933  0.82570910  0.94483871  1.0
  Ni  Ni153  1  0.00831600  0.18285195  0.87341014  1.0
  Ni  Ni154  1  0.00831600  0.51618529  0.87341014  1.0
  Ni  Ni155  1  0.00831600  0.84951862  0.87341014  1.0
  Ni  Ni156  1  0.34164933  0.18285195  0.87341014  1.0
  Ni  Ni157  1  0.34164933  0.51618529  0.87341014  1.0
  Ni  Ni158  1  0.34164933  0.84951862  0.87341014  1.0
  Ni  Ni159  1  0.67498267  0.18285195  0.87341014  1.0
  Ni  Ni160  1  0.67498267  0.51618529  0.87341014  1.0
  Ni  Ni161  1  0.67498267  0.84951862  0.87341014  1.0
  Ni  Ni162  1  0.16843650  0.09510098  0.96510207  1.0
  Ni  Ni163  1  0.16843650  0.42843431  0.96510207  1.0
  Ni  Ni164  1  0.16843650  0.76176764  0.96510207  1.0
  Ni  Ni165  1  0.50176983  0.09510098  0.96510207  1.0
  Ni  Ni166  1  0.50176983  0.42843431  0.96510207  1.0
  Ni  Ni167  1  0.50176983  0.76176764  0.96510207  1.0
  Ni  Ni168  1  0.83510317  0.09510098  0.96510207  1.0
  Ni  Ni169  1  0.83510317  0.42843431  0.96510207  1.0
  Ni  Ni170  1  0.83510317  0.76176764  0.96510207  1.0
  Ni  Ni171  1  0.00176983  0.11891050  0.89367350  1.0
  Ni  Ni172  1  0.00176983  0.45224383  0.89367350  1.0
  Ni  Ni173  1  0.00176983  0.78557717  0.89367350  1.0
  Ni  Ni174  1  0.33510317  0.11891050  0.89367350  1.0
  Ni  Ni175  1  0.33510317  0.45224383  0.89367350  1.0
  Ni  Ni176  1  0.33510317  0.78557717  0.89367350  1.0
  Ni  Ni177  1  0.66843650  0.11891050  0.89367350  1.0
  Ni  Ni178  1  0.66843650  0.45224383  0.89367350  1.0
  Ni  Ni179  1  0.66843650  0.78557717  0.89367350  1.0
  Ni  Ni180  1  0.16995600  0.11872676  0.89361571  1.0
  Ni  Ni181  1  0.16995600  0.45206010  0.89361571  1.0
  Ni  Ni182  1  0.16995600  0.78539343  0.89361571  1.0
  Ni  Ni183  1  0.50328933  0.11872676  0.89361571  1.0
  Ni  Ni184  1  0.50328933  0.45206010  0.89361571  1.0
  Ni  Ni185  1  0.50328933  0.78539343  0.89361571  1.0
  Ni  Ni186  1  0.83662267  0.11872676  0.89361571  1.0
  Ni  Ni187  1  0.83662267  0.45206010  0.89361571  1.0
  Ni  Ni188  1  0.83662267  0.78539343  0.89361571  1.0
  Ni  Ni189  1  0.00328933  0.09491724  0.96504429  1.0
  Ni  Ni190  1  0.00328933  0.42825057  0.96504429  1.0
  Ni  Ni191  1  0.00328933  0.76158390  0.96504429  1.0
  Ni  Ni192  1  0.33662267  0.09491724  0.96504429  1.0
  Ni  Ni193  1  0.33662267  0.42825057  0.96504429  1.0
  Ni  Ni194  1  0.33662267  0.76158390  0.96504429  1.0
  Ni  Ni195  1  0.66995600  0.09491724  0.96504429  1.0
  Ni  Ni196  1  0.66995600  0.42825057  0.96504429  1.0
  Ni  Ni197  1  0.66995600  0.76158390  0.96504429  1.0
  Ni  Ni198  1  0.25256367  0.10651100  0.93026300  1.0
  Ni  Ni199  1  0.25256367  0.43984433  0.93026300  1.0
  Ni  Ni200  1  0.25256367  0.77317767  0.93026300  1.0
  Ni  Ni201  1  0.58589700  0.10651100  0.93026300  1.0
  Ni  Ni202  1  0.58589700  0.43984433  0.93026300  1.0
  Ni  Ni203  1  0.58589700  0.77317767  0.93026300  1.0
  Ni  Ni204  1  0.91923033  0.10651100  0.93026300  1.0
  Ni  Ni205  1  0.91923033  0.43984433  0.93026300  1.0
  Ni  Ni206  1  0.91923033  0.77317767  0.93026300  1.0
  Ni  Ni207  1  0.08589700  0.13032052  0.85883443  1.0
  Ni  Ni208  1  0.08589700  0.46365386  0.85883443  1.0
  Ni  Ni209  1  0.08589700  0.79698719  0.85883443  1.0
  Ni  Ni210  1  0.41923033  0.13032052  0.85883443  1.0
  Ni  Ni211  1  0.41923033  0.46365386  0.85883443  1.0
  Ni  Ni212  1  0.41923033  0.79698719  0.85883443  1.0
  Ni  Ni213  1  0.75256367  0.13032052  0.85883443  1.0
  Ni  Ni214  1  0.75256367  0.46365386  0.85883443  1.0
  Ni  Ni215  1  0.75256367  0.79698719  0.85883443  1.0
  Ni  Ni216  1  0.21727600  0.05456552  0.91435443  1.0
  Ni  Ni217  1  0.21727600  0.38789886  0.91435443  1.0
  Ni  Ni218  1  0.21727600  0.72123219  0.91435443  1.0
  Ni  Ni219  1  0.55060933  0.05456552  0.91435443  1.0
  Ni  Ni220  1  0.55060933  0.38789886  0.91435443  1.0
  Ni  Ni221  1  0.55060933  0.72123219  0.91435443  1.0
  Ni  Ni222  1  0.88394267  0.05456552  0.91435443  1.0
  Ni  Ni223  1  0.88394267  0.38789886  0.91435443  1.0
  Ni  Ni224  1  0.88394267  0.72123219  0.91435443  1.0
  Ni  Ni225  1  0.05060933  0.03075600  0.98578300  1.0
  Ni  Ni226  1  0.05060933  0.36408933  0.98578300  1.0
  Ni  Ni227  1  0.05060933  0.69742267  0.98578300  1.0
  Ni  Ni228  1  0.38394267  0.03075600  0.98578300  1.0
  Ni  Ni229  1  0.38394267  0.36408933  0.98578300  1.0
  Ni  Ni230  1  0.38394267  0.69742267  0.98578300  1.0
  Ni  Ni231  1  0.71727600  0.03075600  0.98578300  1.0
  Ni  Ni232  1  0.71727600  0.36408933  0.98578300  1.0
  Ni  Ni233  1  0.71727600  0.69742267  0.98578300  1.0
  Ni  Ni234  1  0.16237633  0.03103710  0.98493971  1.0
  Ni  Ni235  1  0.16237633  0.36437043  0.98493971  1.0
  Ni  Ni236  1  0.16237633  0.69770376  0.98493971  1.0
  Ni  Ni237  1  0.49570967  0.03103710  0.98493971  1.0
  Ni  Ni238  1  0.49570967  0.36437043  0.98493971  1.0
  Ni  Ni239  1  0.49570967  0.69770376  0.98493971  1.0
  Ni  Ni240  1  0.82904300  0.03103710  0.98493971  1.0
  Ni  Ni241  1  0.82904300  0.36437043  0.98493971  1.0
  Ni  Ni242  1  0.82904300  0.69770376  0.98493971  1.0
  Ni  Ni243  1  0.32904300  0.05484662  0.91351114  1.0
  Ni  Ni244  1  0.32904300  0.38817995  0.91351114  1.0
  Ni  Ni245  1  0.32904300  0.72151329  0.91351114  1.0
  Ni  Ni246  1  0.66237633  0.05484662  0.91351114  1.0
  Ni  Ni247  1  0.66237633  0.38817995  0.91351114  1.0
  Ni  Ni248  1  0.66237633  0.72151329  0.91351114  1.0
  Ni  Ni249  1  0.99570967  0.05484662  0.91351114  1.0
  Ni  Ni250  1  0.99570967  0.38817995  0.91351114  1.0
  Ni  Ni251  1  0.99570967  0.72151329  0.91351114  1.0
  Ni  Ni252  1  0.11605733  0.04067257  0.79993129  1.0
  Ni  Ni253  1  0.11605733  0.37400590  0.79993129  1.0
  Ni  Ni254  1  0.11605733  0.70733924  0.79993129  1.0
  Ni  Ni255  1  0.44939067  0.04067257  0.79993129  1.0
  Ni  Ni256  1  0.44939067  0.37400590  0.79993129  1.0
  Ni  Ni257  1  0.44939067  0.70733924  0.79993129  1.0
  Ni  Ni258  1  0.78272400  0.04067257  0.79993129  1.0
  Ni  Ni259  1  0.78272400  0.37400590  0.79993129  1.0
  Ni  Ni260  1  0.78272400  0.70733924  0.79993129  1.0
  Ni  Ni261  1  0.28272400  0.06448210  0.72850271  1.0
  Ni  Ni262  1  0.28272400  0.39781543  0.72850271  1.0
  Ni  Ni263  1  0.28272400  0.73114876  0.72850271  1.0
  Ni  Ni264  1  0.61605733  0.06448210  0.72850271  1.0
  Ni  Ni265  1  0.61605733  0.39781543  0.72850271  1.0
  Ni  Ni266  1  0.61605733  0.73114876  0.72850271  1.0
  Ni  Ni267  1  0.94939067  0.06448210  0.72850271  1.0
  Ni  Ni268  1  0.94939067  0.39781543  0.72850271  1.0
  Ni  Ni269  1  0.94939067  0.73114876  0.72850271  1.0
  Ni  Ni270  1  0.17095700  0.06420100  0.72934600  1.0
  Ni  Ni271  1  0.17095700  0.39753433  0.72934600  1.0
  Ni  Ni272  1  0.17095700  0.73086767  0.72934600  1.0
  Ni  Ni273  1  0.50429033  0.06420100  0.72934600  1.0
  Ni  Ni274  1  0.50429033  0.39753433  0.72934600  1.0
  Ni  Ni275  1  0.50429033  0.73086767  0.72934600  1.0
  Ni  Ni276  1  0.83762367  0.06420100  0.72934600  1.0
  Ni  Ni277  1  0.83762367  0.39753433  0.72934600  1.0
  Ni  Ni278  1  0.83762367  0.73086767  0.72934600  1.0
  Ni  Ni279  1  0.00429033  0.04039148  0.80077457  1.0
  Ni  Ni280  1  0.00429033  0.37372481  0.80077457  1.0
  Ni  Ni281  1  0.00429033  0.70705814  0.80077457  1.0
  Ni  Ni282  1  0.33762367  0.04039148  0.80077457  1.0
  Ni  Ni283  1  0.33762367  0.37372481  0.80077457  1.0
  Ni  Ni284  1  0.33762367  0.70705814  0.80077457  1.0
  Ni  Ni285  1  0.67095700  0.04039148  0.80077457  1.0
  Ni  Ni286  1  0.67095700  0.37372481  0.80077457  1.0
  Ni  Ni287  1  0.67095700  0.70705814  0.80077457  1.0
  Ni  Ni288  1  0.16337733  0.30984467  0.82067000  1.0
  Ni  Ni289  1  0.16337733  0.64317800  0.82067000  1.0
  Ni  Ni290  1  0.16337733  0.97651133  0.82067000  1.0
  Ni  Ni291  1  0.49671067  0.30984467  0.82067000  1.0
  Ni  Ni292  1  0.49671067  0.64317800  0.82067000  1.0
  Ni  Ni293  1  0.49671067  0.97651133  0.82067000  1.0
  Ni  Ni294  1  0.83004400  0.30984467  0.82067000  1.0
  Ni  Ni295  1  0.83004400  0.64317800  0.82067000  1.0
  Ni  Ni296  1  0.83004400  0.97651133  0.82067000  1.0
  Ni  Ni297  1  0.33004400  0.00032086  0.74924143  1.0
  Ni  Ni298  1  0.33004400  0.33365419  0.74924143  1.0
  Ni  Ni299  1  0.33004400  0.66698752  0.74924143  1.0
  Ni  Ni300  1  0.66337733  0.00032086  0.74924143  1.0
  Ni  Ni301  1  0.66337733  0.33365419  0.74924143  1.0
  Ni  Ni302  1  0.66337733  0.66698752  0.74924143  1.0
  Ni  Ni303  1  0.99671067  0.00032086  0.74924143  1.0
  Ni  Ni304  1  0.99671067  0.33365419  0.74924143  1.0
  Ni  Ni305  1  0.99671067  0.66698752  0.74924143  1.0
  Ni  Ni306  1  0.08076967  0.32206043  0.78402271  1.0
  Ni  Ni307  1  0.08076967  0.65539376  0.78402271  1.0
  Ni  Ni308  1  0.08076967  0.98872710  0.78402271  1.0
  Ni  Ni309  1  0.41410300  0.32206043  0.78402271  1.0
  Ni  Ni310  1  0.41410300  0.65539376  0.78402271  1.0
  Ni  Ni311  1  0.41410300  0.98872710  0.78402271  1.0
  Ni  Ni312  1  0.74743633  0.32206043  0.78402271  1.0
  Ni  Ni313  1  0.74743633  0.65539376  0.78402271  1.0
  Ni  Ni314  1  0.74743633  0.98872710  0.78402271  1.0
  Ni  Ni315  1  0.24743633  0.29825090  0.85545129  1.0
  Ni  Ni316  1  0.24743633  0.63158424  0.85545129  1.0
  Ni  Ni317  1  0.24743633  0.96491757  0.85545129  1.0
  Ni  Ni318  1  0.58076967  0.29825090  0.85545129  1.0
  Ni  Ni319  1  0.58076967  0.63158424  0.85545129  1.0
  Ni  Ni320  1  0.58076967  0.96491757  0.85545129  1.0
  Ni  Ni321  1  0.91410300  0.29825090  0.85545129  1.0
  Ni  Ni322  1  0.91410300  0.63158424  0.85545129  1.0
  Ni  Ni323  1  0.91410300  0.96491757  0.85545129  1.0
  Ni  Ni324  1  0.16489683  0.00013712  0.74918364  1.0
  Ni  Ni325  1  0.16489683  0.33347045  0.74918364  1.0
  Ni  Ni326  1  0.16489683  0.66680379  0.74918364  1.0
  Ni  Ni327  1  0.49823017  0.00013712  0.74918364  1.0
  Ni  Ni328  1  0.49823017  0.33347045  0.74918364  1.0
  Ni  Ni329  1  0.49823017  0.66680379  0.74918364  1.0
  Ni  Ni330  1  0.83156350  0.00013712  0.74918364  1.0
  Ni  Ni331  1  0.83156350  0.33347045  0.74918364  1.0
  Ni  Ni332  1  0.83156350  0.66680379  0.74918364  1.0
  Ni  Ni333  1  0.33156350  0.30966093  0.82061221  1.0
  Ni  Ni334  1  0.33156350  0.64299426  0.82061221  1.0
  Ni  Ni335  1  0.33156350  0.97632760  0.82061221  1.0
  Ni  Ni336  1  0.66489683  0.30966093  0.82061221  1.0
  Ni  Ni337  1  0.66489683  0.64299426  0.82061221  1.0
  Ni  Ni338  1  0.66489683  0.97632760  0.82061221  1.0
  Ni  Ni339  1  0.99823017  0.30966093  0.82061221  1.0
  Ni  Ni340  1  0.99823017  0.64299426  0.82061221  1.0
  Ni  Ni341  1  0.99823017  0.97632760  0.82061221  1.0
  Ni  Ni342  1  0.21385783  0.24569874  0.84093779  1.0
  Ni  Ni343  1  0.21385783  0.57903207  0.84093779  1.0
  Ni  Ni344  1  0.21385783  0.91236540  0.84093779  1.0
  Ni  Ni345  1  0.54719117  0.24569874  0.84093779  1.0
  Ni  Ni346  1  0.54719117  0.57903207  0.84093779  1.0
  Ni  Ni347  1  0.54719117  0.91236540  0.84093779  1.0
  Ni  Ni348  1  0.88052450  0.24569874  0.84093779  1.0
  Ni  Ni349  1  0.88052450  0.57903207  0.84093779  1.0
  Ni  Ni350  1  0.88052450  0.91236540  0.84093779  1.0
  Ni  Ni351  1  0.04719117  0.26950826  0.76950921  1.0
  Ni  Ni352  1  0.04719117  0.60284160  0.76950921  1.0
  Ni  Ni353  1  0.04719117  0.93617493  0.76950921  1.0
  Ni  Ni354  1  0.38052450  0.26950826  0.76950921  1.0
  Ni  Ni355  1  0.38052450  0.60284160  0.76950921  1.0
  Ni  Ni356  1  0.38052450  0.93617493  0.76950921  1.0
  Ni  Ni357  1  0.71385783  0.26950826  0.76950921  1.0
  Ni  Ni358  1  0.71385783  0.60284160  0.76950921  1.0
  Ni  Ni359  1  0.71385783  0.93617493  0.76950921  1.0
  Ni  Ni360  1  0.15835067  0.26952900  0.76944700  1.0
  Ni  Ni361  1  0.15835067  0.60286233  0.76944700  1.0
  Ni  Ni362  1  0.15835067  0.93619567  0.76944700  1.0
  Ni  Ni363  1  0.49168400  0.26952900  0.76944700  1.0
  Ni  Ni364  1  0.49168400  0.60286233  0.76944700  1.0
  Ni  Ni365  1  0.49168400  0.93619567  0.76944700  1.0
  Ni  Ni366  1  0.82501733  0.26952900  0.76944700  1.0
  Ni  Ni367  1  0.82501733  0.60286233  0.76944700  1.0
  Ni  Ni368  1  0.82501733  0.93619567  0.76944700  1.0
  Ni  Ni369  1  0.32501733  0.24571948  0.84087557  1.0
  Ni  Ni370  1  0.32501733  0.57905281  0.84087557  1.0
  Ni  Ni371  1  0.32501733  0.91238614  0.84087557  1.0
  Ni  Ni372  1  0.65835067  0.24571948  0.84087557  1.0
  Ni  Ni373  1  0.65835067  0.57905281  0.84087557  1.0
  Ni  Ni374  1  0.65835067  0.91238614  0.84087557  1.0
  Ni  Ni375  1  0.99168400  0.24571948  0.84087557  1.0
  Ni  Ni376  1  0.99168400  0.57905281  0.84087557  1.0
  Ni  Ni377  1  0.99168400  0.91238614  0.84087557  1.0
  Ni  Ni378  1  0.11947550  0.23049174  0.73049079  1.0
  Ni  Ni379  1  0.11947550  0.56382507  0.73049079  1.0
  Ni  Ni380  1  0.11947550  0.89715840  0.73049079  1.0
  Ni  Ni381  1  0.45280883  0.23049174  0.73049079  1.0
  Ni  Ni382  1  0.45280883  0.56382507  0.73049079  1.0
  Ni  Ni383  1  0.45280883  0.89715840  0.73049079  1.0
  Ni  Ni384  1  0.78614217  0.23049174  0.73049079  1.0
  Ni  Ni385  1  0.78614217  0.56382507  0.73049079  1.0
  Ni  Ni386  1  0.78614217  0.89715840  0.73049079  1.0
  Ni  Ni387  1  0.28614217  0.20668221  0.80191936  1.0
  Ni  Ni388  1  0.28614217  0.54001555  0.80191936  1.0
  Ni  Ni389  1  0.28614217  0.87334888  0.80191936  1.0
  Ni  Ni390  1  0.61947550  0.20668221  0.80191936  1.0
  Ni  Ni391  1  0.61947550  0.54001555  0.80191936  1.0
  Ni  Ni392  1  0.61947550  0.87334888  0.80191936  1.0
  Ni  Ni393  1  0.95280883  0.20668221  0.80191936  1.0
  Ni  Ni394  1  0.95280883  0.54001555  0.80191936  1.0
  Ni  Ni395  1  0.95280883  0.87334888  0.80191936  1.0
  Ni  Ni396  1  0.17498267  0.20666148  0.80198157  1.0
  Ni  Ni397  1  0.17498267  0.53999481  0.80198157  1.0
  Ni  Ni398  1  0.17498267  0.87332814  0.80198157  1.0
  Ni  Ni399  1  0.50831600  0.20666148  0.80198157  1.0
  Ni  Ni400  1  0.50831600  0.53999481  0.80198157  1.0
  Ni  Ni401  1  0.50831600  0.87332814  0.80198157  1.0
  Ni  Ni402  1  0.84164933  0.20666148  0.80198157  1.0
  Ni  Ni403  1  0.84164933  0.53999481  0.80198157  1.0
  Ni  Ni404  1  0.84164933  0.87332814  0.80198157  1.0
  Ni  Ni405  1  0.00831600  0.23047100  0.73055300  1.0
  Ni  Ni406  1  0.00831600  0.56380433  0.73055300  1.0
  Ni  Ni407  1  0.00831600  0.89713767  0.73055300  1.0
  Ni  Ni408  1  0.34164933  0.23047100  0.73055300  1.0
  Ni  Ni409  1  0.34164933  0.56380433  0.73055300  1.0
  Ni  Ni410  1  0.34164933  0.89713767  0.73055300  1.0
  Ni  Ni411  1  0.67498267  0.23047100  0.73055300  1.0
  Ni  Ni412  1  0.67498267  0.56380433  0.73055300  1.0
  Ni  Ni413  1  0.67498267  0.89713767  0.73055300  1.0
  Ni  Ni414  1  0.16843650  0.14272002  0.82224493  1.0
  Ni  Ni415  1  0.16843650  0.47605336  0.82224493  1.0
  Ni  Ni416  1  0.16843650  0.80938669  0.82224493  1.0
  Ni  Ni417  1  0.50176983  0.14272002  0.82224493  1.0
  Ni  Ni418  1  0.50176983  0.47605336  0.82224493  1.0
  Ni  Ni419  1  0.50176983  0.80938669  0.82224493  1.0
  Ni  Ni420  1  0.83510317  0.14272002  0.82224493  1.0
  Ni  Ni421  1  0.83510317  0.47605336  0.82224493  1.0
  Ni  Ni422  1  0.83510317  0.80938669  0.82224493  1.0
  Ni  Ni423  1  0.00176983  0.16652955  0.75081636  1.0
  Ni  Ni424  1  0.00176983  0.49986288  0.75081636  1.0
  Ni  Ni425  1  0.00176983  0.83319621  0.75081636  1.0
  Ni  Ni426  1  0.33510317  0.16652955  0.75081636  1.0
  Ni  Ni427  1  0.33510317  0.49986288  0.75081636  1.0
  Ni  Ni428  1  0.33510317  0.83319621  0.75081636  1.0
  Ni  Ni429  1  0.66843650  0.16652955  0.75081636  1.0
  Ni  Ni430  1  0.66843650  0.49986288  0.75081636  1.0
  Ni  Ni431  1  0.66843650  0.83319621  0.75081636  1.0
  Ni  Ni432  1  0.16995600  0.16634581  0.75075857  1.0
  Ni  Ni433  1  0.16995600  0.49967914  0.75075857  1.0
  Ni  Ni434  1  0.16995600  0.83301248  0.75075857  1.0
  Ni  Ni435  1  0.50328933  0.16634581  0.75075857  1.0
  Ni  Ni436  1  0.50328933  0.49967914  0.75075857  1.0
  Ni  Ni437  1  0.50328933  0.83301248  0.75075857  1.0
  Ni  Ni438  1  0.83662267  0.16634581  0.75075857  1.0
  Ni  Ni439  1  0.83662267  0.49967914  0.75075857  1.0
  Ni  Ni440  1  0.83662267  0.83301248  0.75075857  1.0
  Ni  Ni441  1  0.00328933  0.14253629  0.82218714  1.0
  Ni  Ni442  1  0.00328933  0.47586962  0.82218714  1.0
  Ni  Ni443  1  0.00328933  0.80920295  0.82218714  1.0
  Ni  Ni444  1  0.33662267  0.14253629  0.82218714  1.0
  Ni  Ni445  1  0.33662267  0.47586962  0.82218714  1.0
  Ni  Ni446  1  0.33662267  0.80920295  0.82218714  1.0
  Ni  Ni447  1  0.66995600  0.14253629  0.82218714  1.0
  Ni  Ni448  1  0.66995600  0.47586962  0.82218714  1.0
  Ni  Ni449  1  0.66995600  0.80920295  0.82218714  1.0
  Ni  Ni450  1  0.25256367  0.15413005  0.78740586  1.0
  Ni  Ni451  1  0.25256367  0.48746338  0.78740586  1.0
  Ni  Ni452  1  0.25256367  0.82079671  0.78740586  1.0
  Ni  Ni453  1  0.58589700  0.15413005  0.78740586  1.0
  Ni  Ni454  1  0.58589700  0.48746338  0.78740586  1.0
  Ni  Ni455  1  0.58589700  0.82079671  0.78740586  1.0
  Ni  Ni456  1  0.91923033  0.15413005  0.78740586  1.0
  Ni  Ni457  1  0.91923033  0.48746338  0.78740586  1.0
  Ni  Ni458  1  0.91923033  0.82079671  0.78740586  1.0
  Ni  Ni459  1  0.08589700  0.17793957  0.71597729  1.0
  Ni  Ni460  1  0.08589700  0.51127290  0.71597729  1.0
  Ni  Ni461  1  0.08589700  0.84460624  0.71597729  1.0
  Ni  Ni462  1  0.41923033  0.17793957  0.71597729  1.0
  Ni  Ni463  1  0.41923033  0.51127290  0.71597729  1.0
  Ni  Ni464  1  0.41923033  0.84460624  0.71597729  1.0
  Ni  Ni465  1  0.75256367  0.17793957  0.71597729  1.0
  Ni  Ni466  1  0.75256367  0.51127290  0.71597729  1.0
  Ni  Ni467  1  0.75256367  0.84460624  0.71597729  1.0
  Ni  Ni468  1  0.21727600  0.10218457  0.77149729  1.0
  Ni  Ni469  1  0.21727600  0.43551790  0.77149729  1.0
  Ni  Ni470  1  0.21727600  0.76885124  0.77149729  1.0
  Ni  Ni471  1  0.55060933  0.10218457  0.77149729  1.0
  Ni  Ni472  1  0.55060933  0.43551790  0.77149729  1.0
  Ni  Ni473  1  0.55060933  0.76885124  0.77149729  1.0
  Ni  Ni474  1  0.88394267  0.10218457  0.77149729  1.0
  Ni  Ni475  1  0.88394267  0.43551790  0.77149729  1.0
  Ni  Ni476  1  0.88394267  0.76885124  0.77149729  1.0
  Ni  Ni477  1  0.05060933  0.07837505  0.84292586  1.0
  Ni  Ni478  1  0.05060933  0.41170838  0.84292586  1.0
  Ni  Ni479  1  0.05060933  0.74504171  0.84292586  1.0
  Ni  Ni480  1  0.38394267  0.07837505  0.84292586  1.0
  Ni  Ni481  1  0.38394267  0.41170838  0.84292586  1.0
  Ni  Ni482  1  0.38394267  0.74504171  0.84292586  1.0
  Ni  Ni483  1  0.71727600  0.07837505  0.84292586  1.0
  Ni  Ni484  1  0.71727600  0.41170838  0.84292586  1.0
  Ni  Ni485  1  0.71727600  0.74504171  0.84292586  1.0
  Ni  Ni486  1  0.16237633  0.07865614  0.84208257  1.0
  Ni  Ni487  1  0.16237633  0.41198948  0.84208257  1.0
  Ni  Ni488  1  0.16237633  0.74532281  0.84208257  1.0
  Ni  Ni489  1  0.49570967  0.07865614  0.84208257  1.0
  Ni  Ni490  1  0.49570967  0.41198948  0.84208257  1.0
  Ni  Ni491  1  0.49570967  0.74532281  0.84208257  1.0
  Ni  Ni492  1  0.82904300  0.07865614  0.84208257  1.0
  Ni  Ni493  1  0.82904300  0.41198948  0.84208257  1.0
  Ni  Ni494  1  0.82904300  0.74532281  0.84208257  1.0
  Ni  Ni495  1  0.32904300  0.10246567  0.77065400  1.0
  Ni  Ni496  1  0.32904300  0.43579900  0.77065400  1.0
  Ni  Ni497  1  0.32904300  0.76913233  0.77065400  1.0
  Ni  Ni498  1  0.66237633  0.10246567  0.77065400  1.0
  Ni  Ni499  1  0.66237633  0.43579900  0.77065400  1.0
  Ni  Ni500  1  0.66237633  0.76913233  0.77065400  1.0
  Ni  Ni501  1  0.99570967  0.10246567  0.77065400  1.0
  Ni  Ni502  1  0.99570967  0.43579900  0.77065400  1.0
  Ni  Ni503  1  0.99570967  0.76913233  0.77065400  1.0
  Ni  Ni504  1  0.11605733  0.08829162  0.65707414  1.0
  Ni  Ni505  1  0.11605733  0.42162495  0.65707414  1.0
  Ni  Ni506  1  0.11605733  0.75495829  0.65707414  1.0
  Ni  Ni507  1  0.44939067  0.08829162  0.65707414  1.0
  Ni  Ni508  1  0.44939067  0.42162495  0.65707414  1.0
  Ni  Ni509  1  0.44939067  0.75495829  0.65707414  1.0
  Ni  Ni510  1  0.78272400  0.08829162  0.65707414  1.0
  Ni  Ni511  1  0.78272400  0.42162495  0.65707414  1.0
  Ni  Ni512  1  0.78272400  0.75495829  0.65707414  1.0
  Ni  Ni513  1  0.28272400  0.11210114  0.58564557  1.0
  Ni  Ni514  1  0.28272400  0.44543448  0.58564557  1.0
  Ni  Ni515  1  0.28272400  0.77876781  0.58564557  1.0
  Ni  Ni516  1  0.61605733  0.11210114  0.58564557  1.0
  Ni  Ni517  1  0.61605733  0.44543448  0.58564557  1.0
  Ni  Ni518  1  0.61605733  0.77876781  0.58564557  1.0
  Ni  Ni519  1  0.94939067  0.11210114  0.58564557  1.0
  Ni  Ni520  1  0.94939067  0.44543448  0.58564557  1.0
  Ni  Ni521  1  0.94939067  0.77876781  0.58564557  1.0
  Ni  Ni522  1  0.17095700  0.11182005  0.58648886  1.0
  Ni  Ni523  1  0.17095700  0.44515338  0.58648886  1.0
  Ni  Ni524  1  0.17095700  0.77848671  0.58648886  1.0
  Ni  Ni525  1  0.50429033  0.11182005  0.58648886  1.0
  Ni  Ni526  1  0.50429033  0.44515338  0.58648886  1.0
  Ni  Ni527  1  0.50429033  0.77848671  0.58648886  1.0
  Ni  Ni528  1  0.83762367  0.11182005  0.58648886  1.0
  Ni  Ni529  1  0.83762367  0.44515338  0.58648886  1.0
  Ni  Ni530  1  0.83762367  0.77848671  0.58648886  1.0
  Ni  Ni531  1  0.00429033  0.08801052  0.65791743  1.0
  Ni  Ni532  1  0.00429033  0.42134386  0.65791743  1.0
  Ni  Ni533  1  0.00429033  0.75467719  0.65791743  1.0
  Ni  Ni534  1  0.33762367  0.08801052  0.65791743  1.0
  Ni  Ni535  1  0.33762367  0.42134386  0.65791743  1.0
  Ni  Ni536  1  0.33762367  0.75467719  0.65791743  1.0
  Ni  Ni537  1  0.67095700  0.08801052  0.65791743  1.0
  Ni  Ni538  1  0.67095700  0.42134386  0.65791743  1.0
  Ni  Ni539  1  0.67095700  0.75467719  0.65791743  1.0
  Ni  Ni540  1  0.16337733  0.02413038  0.67781286  1.0
  Ni  Ni541  1  0.16337733  0.35746371  0.67781286  1.0
  Ni  Ni542  1  0.16337733  0.69079705  0.67781286  1.0
  Ni  Ni543  1  0.49671067  0.02413038  0.67781286  1.0
  Ni  Ni544  1  0.49671067  0.35746371  0.67781286  1.0
  Ni  Ni545  1  0.49671067  0.69079705  0.67781286  1.0
  Ni  Ni546  1  0.83004400  0.02413038  0.67781286  1.0
  Ni  Ni547  1  0.83004400  0.35746371  0.67781286  1.0
  Ni  Ni548  1  0.83004400  0.69079705  0.67781286  1.0
  Ni  Ni549  1  0.33004400  0.04793990  0.60638429  1.0
  Ni  Ni550  1  0.33004400  0.38127324  0.60638429  1.0
  Ni  Ni551  1  0.33004400  0.71460657  0.60638429  1.0
  Ni  Ni552  1  0.66337733  0.04793990  0.60638429  1.0
  Ni  Ni553  1  0.66337733  0.38127324  0.60638429  1.0
  Ni  Ni554  1  0.66337733  0.71460657  0.60638429  1.0
  Ni  Ni555  1  0.99671067  0.04793990  0.60638429  1.0
  Ni  Ni556  1  0.99671067  0.38127324  0.60638429  1.0
  Ni  Ni557  1  0.99671067  0.71460657  0.60638429  1.0
  Ni  Ni558  1  0.08076967  0.03634614  0.64116557  1.0
  Ni  Ni559  1  0.08076967  0.36967948  0.64116557  1.0
  Ni  Ni560  1  0.08076967  0.70301281  0.64116557  1.0
  Ni  Ni561  1  0.41410300  0.03634614  0.64116557  1.0
  Ni  Ni562  1  0.41410300  0.36967948  0.64116557  1.0
  Ni  Ni563  1  0.41410300  0.70301281  0.64116557  1.0
  Ni  Ni564  1  0.74743633  0.03634614  0.64116557  1.0
  Ni  Ni565  1  0.74743633  0.36967948  0.64116557  1.0
  Ni  Ni566  1  0.74743633  0.70301281  0.64116557  1.0
  Ni  Ni567  1  0.24743633  0.01253662  0.71259414  1.0
  Ni  Ni568  1  0.24743633  0.34586995  0.71259414  1.0
  Ni  Ni569  1  0.24743633  0.67920329  0.71259414  1.0
  Ni  Ni570  1  0.58076967  0.01253662  0.71259414  1.0
  Ni  Ni571  1  0.58076967  0.34586995  0.71259414  1.0
  Ni  Ni572  1  0.58076967  0.67920329  0.71259414  1.0
  Ni  Ni573  1  0.91410300  0.01253662  0.71259414  1.0
  Ni  Ni574  1  0.91410300  0.34586995  0.71259414  1.0
  Ni  Ni575  1  0.91410300  0.67920329  0.71259414  1.0
  Ni  Ni576  1  0.16489683  0.04775617  0.60632650  1.0
  Ni  Ni577  1  0.16489683  0.38108950  0.60632650  1.0
  Ni  Ni578  1  0.16489683  0.71442283  0.60632650  1.0
  Ni  Ni579  1  0.49823017  0.04775617  0.60632650  1.0
  Ni  Ni580  1  0.49823017  0.38108950  0.60632650  1.0
  Ni  Ni581  1  0.49823017  0.71442283  0.60632650  1.0
  Ni  Ni582  1  0.83156350  0.04775617  0.60632650  1.0
  Ni  Ni583  1  0.83156350  0.38108950  0.60632650  1.0
  Ni  Ni584  1  0.83156350  0.71442283  0.60632650  1.0
  Ni  Ni585  1  0.33156350  0.02394664  0.67775507  1.0
  Ni  Ni586  1  0.33156350  0.35727998  0.67775507  1.0
  Ni  Ni587  1  0.33156350  0.69061331  0.67775507  1.0
  Ni  Ni588  1  0.66489683  0.02394664  0.67775507  1.0
  Ni  Ni589  1  0.66489683  0.35727998  0.67775507  1.0
  Ni  Ni590  1  0.66489683  0.69061331  0.67775507  1.0
  Ni  Ni591  1  0.99823017  0.02394664  0.67775507  1.0
  Ni  Ni592  1  0.99823017  0.35727998  0.67775507  1.0
  Ni  Ni593  1  0.99823017  0.69061331  0.67775507  1.0
  Ni  Ni594  1  0.21385783  0.29331779  0.69808064  1.0
  Ni  Ni595  1  0.21385783  0.62665112  0.69808064  1.0
  Ni  Ni596  1  0.21385783  0.95998445  0.69808064  1.0
  Ni  Ni597  1  0.54719117  0.29331779  0.69808064  1.0
  Ni  Ni598  1  0.54719117  0.62665112  0.69808064  1.0
  Ni  Ni599  1  0.54719117  0.95998445  0.69808064  1.0
  Ni  Ni600  1  0.88052450  0.29331779  0.69808064  1.0
  Ni  Ni601  1  0.88052450  0.62665112  0.69808064  1.0
  Ni  Ni602  1  0.88052450  0.95998445  0.69808064  1.0
  Ni  Ni603  1  0.04719117  0.31712731  0.62665207  1.0
  Ni  Ni604  1  0.04719117  0.65046064  0.62665207  1.0
  Ni  Ni605  1  0.04719117  0.98379398  0.62665207  1.0
  Ni  Ni606  1  0.38052450  0.31712731  0.62665207  1.0
  Ni  Ni607  1  0.38052450  0.65046064  0.62665207  1.0
  Ni  Ni608  1  0.38052450  0.98379398  0.62665207  1.0
  Ni  Ni609  1  0.71385783  0.31712731  0.62665207  1.0
  Ni  Ni610  1  0.71385783  0.65046064  0.62665207  1.0
  Ni  Ni611  1  0.71385783  0.98379398  0.62665207  1.0
  Ni  Ni612  1  0.15835067  0.31714805  0.62658986  1.0
  Ni  Ni613  1  0.15835067  0.65048138  0.62658986  1.0
  Ni  Ni614  1  0.15835067  0.98381471  0.62658986  1.0
  Ni  Ni615  1  0.49168400  0.31714805  0.62658986  1.0
  Ni  Ni616  1  0.49168400  0.65048138  0.62658986  1.0
  Ni  Ni617  1  0.49168400  0.98381471  0.62658986  1.0
  Ni  Ni618  1  0.82501733  0.31714805  0.62658986  1.0
  Ni  Ni619  1  0.82501733  0.65048138  0.62658986  1.0
  Ni  Ni620  1  0.82501733  0.98381471  0.62658986  1.0
  Ni  Ni621  1  0.32501733  0.29333852  0.69801843  1.0
  Ni  Ni622  1  0.32501733  0.62667186  0.69801843  1.0
  Ni  Ni623  1  0.32501733  0.96000519  0.69801843  1.0
  Ni  Ni624  1  0.65835067  0.29333852  0.69801843  1.0
  Ni  Ni625  1  0.65835067  0.62667186  0.69801843  1.0
  Ni  Ni626  1  0.65835067  0.96000519  0.69801843  1.0
  Ni  Ni627  1  0.99168400  0.29333852  0.69801843  1.0
  Ni  Ni628  1  0.99168400  0.62667186  0.69801843  1.0
  Ni  Ni629  1  0.99168400  0.96000519  0.69801843  1.0
  Ni  Ni630  1  0.11947550  0.27811079  0.58763364  1.0
  Ni  Ni631  1  0.11947550  0.61144412  0.58763364  1.0
  Ni  Ni632  1  0.11947550  0.94477745  0.58763364  1.0
  Ni  Ni633  1  0.45280883  0.27811079  0.58763364  1.0
  Ni  Ni634  1  0.45280883  0.61144412  0.58763364  1.0
  Ni  Ni635  1  0.45280883  0.94477745  0.58763364  1.0
  Ni  Ni636  1  0.78614217  0.27811079  0.58763364  1.0
  Ni  Ni637  1  0.78614217  0.61144412  0.58763364  1.0
  Ni  Ni638  1  0.78614217  0.94477745  0.58763364  1.0
  Ni  Ni639  1  0.28614217  0.25430126  0.65906221  1.0
  Ni  Ni640  1  0.28614217  0.58763460  0.65906221  1.0
  Ni  Ni641  1  0.28614217  0.92096793  0.65906221  1.0
  Ni  Ni642  1  0.61947550  0.25430126  0.65906221  1.0
  Ni  Ni643  1  0.61947550  0.58763460  0.65906221  1.0
  Ni  Ni644  1  0.61947550  0.92096793  0.65906221  1.0
  Ni  Ni645  1  0.95280883  0.25430126  0.65906221  1.0
  Ni  Ni646  1  0.95280883  0.58763460  0.65906221  1.0
  Ni  Ni647  1  0.95280883  0.92096793  0.65906221  1.0
  Ni  Ni648  1  0.17498267  0.25428052  0.65912443  1.0
  Ni  Ni649  1  0.17498267  0.58761386  0.65912443  1.0
  Ni  Ni650  1  0.17498267  0.92094719  0.65912443  1.0
  Ni  Ni651  1  0.50831600  0.25428052  0.65912443  1.0
  Ni  Ni652  1  0.50831600  0.58761386  0.65912443  1.0
  Ni  Ni653  1  0.50831600  0.92094719  0.65912443  1.0
  Ni  Ni654  1  0.84164933  0.25428052  0.65912443  1.0
  Ni  Ni655  1  0.84164933  0.58761386  0.65912443  1.0
  Ni  Ni656  1  0.84164933  0.92094719  0.65912443  1.0
  Ni  Ni657  1  0.00831600  0.27809005  0.58769586  1.0
  Ni  Ni658  1  0.00831600  0.61142338  0.58769586  1.0
  Ni  Ni659  1  0.00831600  0.94475671  0.58769586  1.0
  Ni  Ni660  1  0.34164933  0.27809005  0.58769586  1.0
  Ni  Ni661  1  0.34164933  0.61142338  0.58769586  1.0
  Ni  Ni662  1  0.34164933  0.94475671  0.58769586  1.0
  Ni  Ni663  1  0.67498267  0.27809005  0.58769586  1.0
  Ni  Ni664  1  0.67498267  0.61142338  0.58769586  1.0
  Ni  Ni665  1  0.67498267  0.94475671  0.58769586  1.0
  Ni  Ni666  1  0.16843650  0.19033907  0.67938779  1.0
  Ni  Ni667  1  0.16843650  0.52367240  0.67938779  1.0
  Ni  Ni668  1  0.16843650  0.85700574  0.67938779  1.0
  Ni  Ni669  1  0.50176983  0.19033907  0.67938779  1.0
  Ni  Ni670  1  0.50176983  0.52367240  0.67938779  1.0
  Ni  Ni671  1  0.50176983  0.85700574  0.67938779  1.0
  Ni  Ni672  1  0.83510317  0.19033907  0.67938779  1.0
  Ni  Ni673  1  0.83510317  0.52367240  0.67938779  1.0
  Ni  Ni674  1  0.83510317  0.85700574  0.67938779  1.0
  Ni  Ni675  1  0.00176983  0.21414860  0.60795921  1.0
  Ni  Ni676  1  0.00176983  0.54748193  0.60795921  1.0
  Ni  Ni677  1  0.00176983  0.88081526  0.60795921  1.0
  Ni  Ni678  1  0.33510317  0.21414860  0.60795921  1.0
  Ni  Ni679  1  0.33510317  0.54748193  0.60795921  1.0
  Ni  Ni680  1  0.33510317  0.88081526  0.60795921  1.0
  Ni  Ni681  1  0.66843650  0.21414860  0.60795921  1.0
  Ni  Ni682  1  0.66843650  0.54748193  0.60795921  1.0
  Ni  Ni683  1  0.66843650  0.88081526  0.60795921  1.0
  Ni  Ni684  1  0.16995600  0.21396486  0.60790143  1.0
  Ni  Ni685  1  0.16995600  0.54729819  0.60790143  1.0
  Ni  Ni686  1  0.16995600  0.88063152  0.60790143  1.0
  Ni  Ni687  1  0.50328933  0.21396486  0.60790143  1.0
  Ni  Ni688  1  0.50328933  0.54729819  0.60790143  1.0
  Ni  Ni689  1  0.50328933  0.88063152  0.60790143  1.0
  Ni  Ni690  1  0.83662267  0.21396486  0.60790143  1.0
  Ni  Ni691  1  0.83662267  0.54729819  0.60790143  1.0
  Ni  Ni692  1  0.83662267  0.88063152  0.60790143  1.0
  Ni  Ni693  1  0.00328933  0.19015533  0.67933000  1.0
  Ni  Ni694  1  0.00328933  0.52348867  0.67933000  1.0
  Ni  Ni695  1  0.00328933  0.85682200  0.67933000  1.0
  Ni  Ni696  1  0.33662267  0.19015533  0.67933000  1.0
  Ni  Ni697  1  0.33662267  0.52348867  0.67933000  1.0
  Ni  Ni698  1  0.33662267  0.85682200  0.67933000  1.0
  Ni  Ni699  1  0.66995600  0.19015533  0.67933000  1.0
  Ni  Ni700  1  0.66995600  0.52348867  0.67933000  1.0
  Ni  Ni701  1  0.66995600  0.85682200  0.67933000  1.0
  Ni  Ni702  1  0.25256367  0.20174910  0.64454871  1.0
  Ni  Ni703  1  0.25256367  0.53508243  0.64454871  1.0
  Ni  Ni704  1  0.25256367  0.86841576  0.64454871  1.0
  Ni  Ni705  1  0.58589700  0.20174910  0.64454871  1.0
  Ni  Ni706  1  0.58589700  0.53508243  0.64454871  1.0
  Ni  Ni707  1  0.58589700  0.86841576  0.64454871  1.0
  Ni  Ni708  1  0.91923033  0.20174910  0.64454871  1.0
  Ni  Ni709  1  0.91923033  0.53508243  0.64454871  1.0
  Ni  Ni710  1  0.91923033  0.86841576  0.64454871  1.0
  Ni  Ni711  1  0.08589700  0.22555862  0.57312014  1.0
  Ni  Ni712  1  0.08589700  0.55889195  0.57312014  1.0
  Ni  Ni713  1  0.08589700  0.89222529  0.57312014  1.0
  Ni  Ni714  1  0.41923033  0.22555862  0.57312014  1.0
  Ni  Ni715  1  0.41923033  0.55889195  0.57312014  1.0
  Ni  Ni716  1  0.41923033  0.89222529  0.57312014  1.0
  Ni  Ni717  1  0.75256367  0.22555862  0.57312014  1.0
  Ni  Ni718  1  0.75256367  0.55889195  0.57312014  1.0
  Ni  Ni719  1  0.75256367  0.89222529  0.57312014  1.0
  Ni  Ni720  1  0.21727600  0.14980362  0.62864014  1.0
  Ni  Ni721  1  0.21727600  0.48313695  0.62864014  1.0
  Ni  Ni722  1  0.21727600  0.81647029  0.62864014  1.0
  Ni  Ni723  1  0.55060933  0.14980362  0.62864014  1.0
  Ni  Ni724  1  0.55060933  0.48313695  0.62864014  1.0
  Ni  Ni725  1  0.55060933  0.81647029  0.62864014  1.0
  Ni  Ni726  1  0.88394267  0.14980362  0.62864014  1.0
  Ni  Ni727  1  0.88394267  0.48313695  0.62864014  1.0
  Ni  Ni728  1  0.88394267  0.81647029  0.62864014  1.0
  Ni  Ni729  1  0.05060933  0.12599410  0.70006871  1.0
  Ni  Ni730  1  0.05060933  0.45932743  0.70006871  1.0
  Ni  Ni731  1  0.05060933  0.79266076  0.70006871  1.0
  Ni  Ni732  1  0.38394267  0.12599410  0.70006871  1.0
  Ni  Ni733  1  0.38394267  0.45932743  0.70006871  1.0
  Ni  Ni734  1  0.38394267  0.79266076  0.70006871  1.0
  Ni  Ni735  1  0.71727600  0.12599410  0.70006871  1.0
  Ni  Ni736  1  0.71727600  0.45932743  0.70006871  1.0
  Ni  Ni737  1  0.71727600  0.79266076  0.70006871  1.0
  Ni  Ni738  1  0.16237633  0.12627519  0.69922543  1.0
  Ni  Ni739  1  0.16237633  0.45960852  0.69922543  1.0
  Ni  Ni740  1  0.16237633  0.79294186  0.69922543  1.0
  Ni  Ni741  1  0.49570967  0.12627519  0.69922543  1.0
  Ni  Ni742  1  0.49570967  0.45960852  0.69922543  1.0
  Ni  Ni743  1  0.49570967  0.79294186  0.69922543  1.0
  Ni  Ni744  1  0.82904300  0.12627519  0.69922543  1.0
  Ni  Ni745  1  0.82904300  0.45960852  0.69922543  1.0
  Ni  Ni746  1  0.82904300  0.79294186  0.69922543  1.0
  Ni  Ni747  1  0.32904300  0.15008471  0.62779686  1.0
  Ni  Ni748  1  0.32904300  0.48341805  0.62779686  1.0
  Ni  Ni749  1  0.32904300  0.81675138  0.62779686  1.0
  Ni  Ni750  1  0.66237633  0.15008471  0.62779686  1.0
  Ni  Ni751  1  0.66237633  0.48341805  0.62779686  1.0
  Ni  Ni752  1  0.66237633  0.81675138  0.62779686  1.0
  Ni  Ni753  1  0.99570967  0.15008471  0.62779686  1.0
  Ni  Ni754  1  0.99570967  0.48341805  0.62779686  1.0
  Ni  Ni755  1  0.99570967  0.81675138  0.62779686  1.0
  Zr  Zr756  1  0.06345133  0.00610971  0.86811386  1.0
  Zr  Zr757  1  0.06345133  0.33944305  0.86811386  1.0
  Zr  Zr758  1  0.06345133  0.67277638  0.86811386  1.0
  Zr  Zr759  1  0.39678467  0.00610971  0.86811386  1.0
  Zr  Zr760  1  0.39678467  0.33944305  0.86811386  1.0
  Zr  Zr761  1  0.39678467  0.67277638  0.86811386  1.0
  Zr  Zr762  1  0.73011800  0.00610971  0.86811386  1.0
  Zr  Zr763  1  0.73011800  0.33944305  0.86811386  1.0
  Zr  Zr764  1  0.73011800  0.67277638  0.86811386  1.0
  Zr  Zr765  1  0.23011800  0.31563352  0.93954243  1.0
  Zr  Zr766  1  0.23011800  0.64896686  0.93954243  1.0
  Zr  Zr767  1  0.23011800  0.98230019  0.93954243  1.0
  Zr  Zr768  1  0.56345133  0.31563352  0.93954243  1.0
  Zr  Zr769  1  0.56345133  0.64896686  0.93954243  1.0
  Zr  Zr770  1  0.56345133  0.98230019  0.93954243  1.0
  Zr  Zr771  1  0.89678467  0.31563352  0.93954243  1.0
  Zr  Zr772  1  0.89678467  0.64896686  0.93954243  1.0
  Zr  Zr773  1  0.89678467  0.98230019  0.93954243  1.0
  Zr  Zr774  1  0.09908267  0.20910038  0.98742486  1.0
  Zr  Zr775  1  0.09908267  0.54243371  0.98742486  1.0
  Zr  Zr776  1  0.09908267  0.87576705  0.98742486  1.0
  Zr  Zr777  1  0.43241600  0.20910038  0.98742486  1.0
  Zr  Zr778  1  0.43241600  0.54243371  0.98742486  1.0
  Zr  Zr779  1  0.43241600  0.87576705  0.98742486  1.0
  Zr  Zr780  1  0.76574933  0.20910038  0.98742486  1.0
  Zr  Zr781  1  0.76574933  0.54243371  0.98742486  1.0
  Zr  Zr782  1  0.76574933  0.87576705  0.98742486  1.0
  Zr  Zr783  1  0.26574933  0.23290990  0.91599629  1.0
  Zr  Zr784  1  0.26574933  0.56624324  0.91599629  1.0
  Zr  Zr785  1  0.26574933  0.89957657  0.91599629  1.0
  Zr  Zr786  1  0.59908267  0.23290990  0.91599629  1.0
  Zr  Zr787  1  0.59908267  0.56624324  0.91599629  1.0
  Zr  Zr788  1  0.59908267  0.89957657  0.91599629  1.0
  Zr  Zr789  1  0.93241600  0.23290990  0.91599629  1.0
  Zr  Zr790  1  0.93241600  0.56624324  0.91599629  1.0
  Zr  Zr791  1  0.93241600  0.89957657  0.91599629  1.0
  Zr  Zr792  1  0.23425067  0.17185200  0.86971800  1.0
  Zr  Zr793  1  0.23425067  0.50518533  0.86971800  1.0
  Zr  Zr794  1  0.23425067  0.83851867  0.86971800  1.0
  Zr  Zr795  1  0.56758400  0.17185200  0.86971800  1.0
  Zr  Zr796  1  0.56758400  0.50518533  0.86971800  1.0
  Zr  Zr797  1  0.56758400  0.83851867  0.86971800  1.0
  Zr  Zr798  1  0.90091733  0.17185200  0.86971800  1.0
  Zr  Zr799  1  0.90091733  0.50518533  0.86971800  1.0
  Zr  Zr800  1  0.90091733  0.83851867  0.86971800  1.0
  Zr  Zr801  1  0.06758400  0.14804248  0.94114657  1.0
  Zr  Zr802  1  0.06758400  0.48137581  0.94114657  1.0
  Zr  Zr803  1  0.06758400  0.81470914  0.94114657  1.0
  Zr  Zr804  1  0.40091733  0.14804248  0.94114657  1.0
  Zr  Zr805  1  0.40091733  0.48137581  0.94114657  1.0
  Zr  Zr806  1  0.40091733  0.81470914  0.94114657  1.0
  Zr  Zr807  1  0.73425067  0.14804248  0.94114657  1.0
  Zr  Zr808  1  0.73425067  0.48137581  0.94114657  1.0
  Zr  Zr809  1  0.73425067  0.81470914  0.94114657  1.0
  Zr  Zr810  1  0.26988200  0.04150933  0.98902900  1.0
  Zr  Zr811  1  0.26988200  0.37484267  0.98902900  1.0
  Zr  Zr812  1  0.26988200  0.70817600  0.98902900  1.0
  Zr  Zr813  1  0.60321533  0.04150933  0.98902900  1.0
  Zr  Zr814  1  0.60321533  0.37484267  0.98902900  1.0
  Zr  Zr815  1  0.60321533  0.70817600  0.98902900  1.0
  Zr  Zr816  1  0.93654867  0.04150933  0.98902900  1.0
  Zr  Zr817  1  0.93654867  0.37484267  0.98902900  1.0
  Zr  Zr818  1  0.93654867  0.70817600  0.98902900  1.0
  Zr  Zr819  1  0.10321533  0.06531886  0.91760043  1.0
  Zr  Zr820  1  0.10321533  0.39865219  0.91760043  1.0
  Zr  Zr821  1  0.10321533  0.73198552  0.91760043  1.0
  Zr  Zr822  1  0.43654867  0.06531886  0.91760043  1.0
  Zr  Zr823  1  0.43654867  0.39865219  0.91760043  1.0
  Zr  Zr824  1  0.43654867  0.73198552  0.91760043  1.0
  Zr  Zr825  1  0.76988200  0.06531886  0.91760043  1.0
  Zr  Zr826  1  0.76988200  0.39865219  0.91760043  1.0
  Zr  Zr827  1  0.76988200  0.73198552  0.91760043  1.0
  Zr  Zr828  1  0.06345133  0.05372876  0.72525671  1.0
  Zr  Zr829  1  0.06345133  0.38706210  0.72525671  1.0
  Zr  Zr830  1  0.06345133  0.72039543  0.72525671  1.0
  Zr  Zr831  1  0.39678467  0.05372876  0.72525671  1.0
  Zr  Zr832  1  0.39678467  0.38706210  0.72525671  1.0
  Zr  Zr833  1  0.39678467  0.72039543  0.72525671  1.0
  Zr  Zr834  1  0.73011800  0.05372876  0.72525671  1.0
  Zr  Zr835  1  0.73011800  0.38706210  0.72525671  1.0
  Zr  Zr836  1  0.73011800  0.72039543  0.72525671  1.0
  Zr  Zr837  1  0.23011800  0.02991924  0.79668529  1.0
  Zr  Zr838  1  0.23011800  0.36325257  0.79668529  1.0
  Zr  Zr839  1  0.23011800  0.69658590  0.79668529  1.0
  Zr  Zr840  1  0.56345133  0.02991924  0.79668529  1.0
  Zr  Zr841  1  0.56345133  0.36325257  0.79668529  1.0
  Zr  Zr842  1  0.56345133  0.69658590  0.79668529  1.0
  Zr  Zr843  1  0.89678467  0.02991924  0.79668529  1.0
  Zr  Zr844  1  0.89678467  0.36325257  0.79668529  1.0
  Zr  Zr845  1  0.89678467  0.69658590  0.79668529  1.0
  Zr  Zr846  1  0.09908267  0.25671943  0.84456771  1.0
  Zr  Zr847  1  0.09908267  0.59005276  0.84456771  1.0
  Zr  Zr848  1  0.09908267  0.92338610  0.84456771  1.0
  Zr  Zr849  1  0.43241600  0.25671943  0.84456771  1.0
  Zr  Zr850  1  0.43241600  0.59005276  0.84456771  1.0
  Zr  Zr851  1  0.43241600  0.92338610  0.84456771  1.0
  Zr  Zr852  1  0.76574933  0.25671943  0.84456771  1.0
  Zr  Zr853  1  0.76574933  0.59005276  0.84456771  1.0
  Zr  Zr854  1  0.76574933  0.92338610  0.84456771  1.0
  Zr  Zr855  1  0.26574933  0.28052895  0.77313914  1.0
  Zr  Zr856  1  0.26574933  0.61386229  0.77313914  1.0
  Zr  Zr857  1  0.26574933  0.94719562  0.77313914  1.0
  Zr  Zr858  1  0.59908267  0.28052895  0.77313914  1.0
  Zr  Zr859  1  0.59908267  0.61386229  0.77313914  1.0
  Zr  Zr860  1  0.59908267  0.94719562  0.77313914  1.0
  Zr  Zr861  1  0.93241600  0.28052895  0.77313914  1.0
  Zr  Zr862  1  0.93241600  0.61386229  0.77313914  1.0
  Zr  Zr863  1  0.93241600  0.94719562  0.77313914  1.0
  Zr  Zr864  1  0.23425067  0.21947105  0.72686086  1.0
  Zr  Zr865  1  0.23425067  0.55280438  0.72686086  1.0
  Zr  Zr866  1  0.23425067  0.88613771  0.72686086  1.0
  Zr  Zr867  1  0.56758400  0.21947105  0.72686086  1.0
  Zr  Zr868  1  0.56758400  0.55280438  0.72686086  1.0
  Zr  Zr869  1  0.56758400  0.88613771  0.72686086  1.0
  Zr  Zr870  1  0.90091733  0.21947105  0.72686086  1.0
  Zr  Zr871  1  0.90091733  0.55280438  0.72686086  1.0
  Zr  Zr872  1  0.90091733  0.88613771  0.72686086  1.0
  Zr  Zr873  1  0.06758400  0.19566152  0.79828943  1.0
  Zr  Zr874  1  0.06758400  0.52899486  0.79828943  1.0
  Zr  Zr875  1  0.06758400  0.86232819  0.79828943  1.0
  Zr  Zr876  1  0.40091733  0.19566152  0.79828943  1.0
  Zr  Zr877  1  0.40091733  0.52899486  0.79828943  1.0
  Zr  Zr878  1  0.40091733  0.86232819  0.79828943  1.0
  Zr  Zr879  1  0.73425067  0.19566152  0.79828943  1.0
  Zr  Zr880  1  0.73425067  0.52899486  0.79828943  1.0
  Zr  Zr881  1  0.73425067  0.86232819  0.79828943  1.0
  Zr  Zr882  1  0.26988200  0.08912838  0.84617186  1.0
  Zr  Zr883  1  0.26988200  0.42246171  0.84617186  1.0
  Zr  Zr884  1  0.26988200  0.75579505  0.84617186  1.0
  Zr  Zr885  1  0.60321533  0.08912838  0.84617186  1.0
  Zr  Zr886  1  0.60321533  0.42246171  0.84617186  1.0
  Zr  Zr887  1  0.60321533  0.75579505  0.84617186  1.0
  Zr  Zr888  1  0.93654867  0.08912838  0.84617186  1.0
  Zr  Zr889  1  0.93654867  0.42246171  0.84617186  1.0
  Zr  Zr890  1  0.93654867  0.75579505  0.84617186  1.0
  Zr  Zr891  1  0.10321533  0.11293790  0.77474329  1.0
  Zr  Zr892  1  0.10321533  0.44627124  0.77474329  1.0
  Zr  Zr893  1  0.10321533  0.77960457  0.77474329  1.0
  Zr  Zr894  1  0.43654867  0.11293790  0.77474329  1.0
  Zr  Zr895  1  0.43654867  0.44627124  0.77474329  1.0
  Zr  Zr896  1  0.43654867  0.77960457  0.77474329  1.0
  Zr  Zr897  1  0.76988200  0.11293790  0.77474329  1.0
  Zr  Zr898  1  0.76988200  0.44627124  0.77474329  1.0
  Zr  Zr899  1  0.76988200  0.77960457  0.77474329  1.0
  Zr  Zr900  1  0.06345133  0.10134781  0.58239957  1.0
  Zr  Zr901  1  0.06345133  0.43468114  0.58239957  1.0
  Zr  Zr902  1  0.06345133  0.76801448  0.58239957  1.0
  Zr  Zr903  1  0.39678467  0.10134781  0.58239957  1.0
  Zr  Zr904  1  0.39678467  0.43468114  0.58239957  1.0
  Zr  Zr905  1  0.39678467  0.76801448  0.58239957  1.0
  Zr  Zr906  1  0.73011800  0.10134781  0.58239957  1.0
  Zr  Zr907  1  0.73011800  0.43468114  0.58239957  1.0
  Zr  Zr908  1  0.73011800  0.76801448  0.58239957  1.0
  Zr  Zr909  1  0.23011800  0.07753829  0.65382814  1.0
  Zr  Zr910  1  0.23011800  0.41087162  0.65382814  1.0
  Zr  Zr911  1  0.23011800  0.74420495  0.65382814  1.0
  Zr  Zr912  1  0.56345133  0.07753829  0.65382814  1.0
  Zr  Zr913  1  0.56345133  0.41087162  0.65382814  1.0
  Zr  Zr914  1  0.56345133  0.74420495  0.65382814  1.0
  Zr  Zr915  1  0.89678467  0.07753829  0.65382814  1.0
  Zr  Zr916  1  0.89678467  0.41087162  0.65382814  1.0
  Zr  Zr917  1  0.89678467  0.74420495  0.65382814  1.0
  Zr  Zr918  1  0.09908267  0.30433848  0.70171057  1.0
  Zr  Zr919  1  0.09908267  0.63767181  0.70171057  1.0
  Zr  Zr920  1  0.09908267  0.97100514  0.70171057  1.0
  Zr  Zr921  1  0.43241600  0.30433848  0.70171057  1.0
  Zr  Zr922  1  0.43241600  0.63767181  0.70171057  1.0
  Zr  Zr923  1  0.43241600  0.97100514  0.70171057  1.0
  Zr  Zr924  1  0.76574933  0.30433848  0.70171057  1.0
  Zr  Zr925  1  0.76574933  0.63767181  0.70171057  1.0
  Zr  Zr926  1  0.76574933  0.97100514  0.70171057  1.0
  Zr  Zr927  1  0.26574933  0.32814800  0.63028200  1.0
  Zr  Zr928  1  0.26574933  0.66148133  0.63028200  1.0
  Zr  Zr929  1  0.26574933  0.99481467  0.63028200  1.0
  Zr  Zr930  1  0.59908267  0.32814800  0.63028200  1.0
  Zr  Zr931  1  0.59908267  0.66148133  0.63028200  1.0
  Zr  Zr932  1  0.59908267  0.99481467  0.63028200  1.0
  Zr  Zr933  1  0.93241600  0.32814800  0.63028200  1.0
  Zr  Zr934  1  0.93241600  0.66148133  0.63028200  1.0
  Zr  Zr935  1  0.93241600  0.99481467  0.63028200  1.0
  Zr  Zr936  1  0.23425067  0.26709010  0.58400371  1.0
  Zr  Zr937  1  0.23425067  0.60042343  0.58400371  1.0
  Zr  Zr938  1  0.23425067  0.93375676  0.58400371  1.0
  Zr  Zr939  1  0.56758400  0.26709010  0.58400371  1.0
  Zr  Zr940  1  0.56758400  0.60042343  0.58400371  1.0
  Zr  Zr941  1  0.56758400  0.93375676  0.58400371  1.0
  Zr  Zr942  1  0.90091733  0.26709010  0.58400371  1.0
  Zr  Zr943  1  0.90091733  0.60042343  0.58400371  1.0
  Zr  Zr944  1  0.90091733  0.93375676  0.58400371  1.0
  Zr  Zr945  1  0.06758400  0.24328057  0.65543229  1.0
  Zr  Zr946  1  0.06758400  0.57661390  0.65543229  1.0
  Zr  Zr947  1  0.06758400  0.90994724  0.65543229  1.0
  Zr  Zr948  1  0.40091733  0.24328057  0.65543229  1.0
  Zr  Zr949  1  0.40091733  0.57661390  0.65543229  1.0
  Zr  Zr950  1  0.40091733  0.90994724  0.65543229  1.0
  Zr  Zr951  1  0.73425067  0.24328057  0.65543229  1.0
  Zr  Zr952  1  0.73425067  0.57661390  0.65543229  1.0
  Zr  Zr953  1  0.73425067  0.90994724  0.65543229  1.0
  Zr  Zr954  1  0.26988200  0.13674743  0.70331471  1.0
  Zr  Zr955  1  0.26988200  0.47008076  0.70331471  1.0
  Zr  Zr956  1  0.26988200  0.80341410  0.70331471  1.0
  Zr  Zr957  1  0.60321533  0.13674743  0.70331471  1.0
  Zr  Zr958  1  0.60321533  0.47008076  0.70331471  1.0
  Zr  Zr959  1  0.60321533  0.80341410  0.70331471  1.0
  Zr  Zr960  1  0.93654867  0.13674743  0.70331471  1.0
  Zr  Zr961  1  0.93654867  0.47008076  0.70331471  1.0
  Zr  Zr962  1  0.93654867  0.80341410  0.70331471  1.0
  Zr  Zr963  1  0.10321533  0.16055695  0.63188614  1.0
  Zr  Zr964  1  0.10321533  0.49389029  0.63188614  1.0
  Zr  Zr965  1  0.10321533  0.82722362  0.63188614  1.0
  Zr  Zr966  1  0.43654867  0.16055695  0.63188614  1.0
  Zr  Zr967  1  0.43654867  0.49389029  0.63188614  1.0
  Zr  Zr968  1  0.43654867  0.82722362  0.63188614  1.0
  Zr  Zr969  1  0.76988200  0.16055695  0.63188614  1.0
  Zr  Zr970  1  0.76988200  0.49389029  0.63188614  1.0
  Zr  Zr971  1  0.76988200  0.82722362  0.63188614  1.0
