# generated using pymatgen
data_Zr2Ni7
_symmetry_space_group_name_H-M   'P 1'
_cell_length_a   24.59044802
_cell_length_b   73.38160003
_cell_length_c   56.62292436
_cell_angle_alpha   98.42514896
_cell_angle_beta   150.29272913
_cell_angle_gamma   80.35449024
_symmetry_Int_Tables_number   1
_chemical_formula_structural   Zr2Ni7
_chemical_formula_sum   'Zr360 Ni1260'
_cell_volume   49918.98537753
_cell_formula_units_Z   180
loop_
 _symmetry_equiv_pos_site_id
 _symmetry_equiv_pos_as_xyz
  1  'x, y, z'
loop_
 _atom_site_type_symbol
 _atom_site_label
 _atom_site_symmetry_multiplicity
 _atom_site_fract_x
 _atom_site_fract_y
 _atom_site_fract_z
 _atom_site_occupancy
  Zr  Zr0  1  0.22535683  0.01892617  0.03388048  1.0
  Zr  Zr1  1  0.22535683  0.35225950  0.03388048  1.0
  Zr  Zr2  1  0.22535683  0.68559283  0.03388048  1.0
  Zr  Zr3  1  0.55869017  0.01892617  0.03388048  1.0
  Zr  Zr4  1  0.55869017  0.35225950  0.03388048  1.0
  Zr  Zr5  1  0.55869017  0.68559283  0.03388048  1.0
  Zr  Zr6  1  0.89202350  0.01892617  0.03388048  1.0
  Zr  Zr7  1  0.89202350  0.35225950  0.03388048  1.0
  Zr  Zr8  1  0.89202350  0.68559283  0.03388048  1.0
  Zr  Zr9  1  0.05869017  0.18559283  0.07554715  1.0
  Zr  Zr10  1  0.05869017  0.51892617  0.07554715  1.0
  Zr  Zr11  1  0.05869017  0.85225950  0.07554715  1.0
  Zr  Zr12  1  0.39202350  0.18559283  0.07554715  1.0
  Zr  Zr13  1  0.39202350  0.51892617  0.07554715  1.0
  Zr  Zr14  1  0.39202350  0.85225950  0.07554715  1.0
  Zr  Zr15  1  0.72535683  0.18559283  0.07554715  1.0
  Zr  Zr16  1  0.72535683  0.51892617  0.07554715  1.0
  Zr  Zr17  1  0.72535683  0.85225950  0.07554715  1.0
  Zr  Zr18  1  0.19938033  0.06421233  0.03221377  1.0
  Zr  Zr19  1  0.19938033  0.39754567  0.03221377  1.0
  Zr  Zr20  1  0.19938033  0.73087900  0.03221377  1.0
  Zr  Zr21  1  0.53271367  0.06421233  0.03221377  1.0
  Zr  Zr22  1  0.53271367  0.39754567  0.03221377  1.0
  Zr  Zr23  1  0.53271367  0.73087900  0.03221377  1.0
  Zr  Zr24  1  0.86604700  0.06421233  0.03221377  1.0
  Zr  Zr25  1  0.86604700  0.39754567  0.03221377  1.0
  Zr  Zr26  1  0.86604700  0.73087900  0.03221377  1.0
  Zr  Zr27  1  0.03271367  0.23087900  0.07388044  1.0
  Zr  Zr28  1  0.03271367  0.56421233  0.07388044  1.0
  Zr  Zr29  1  0.03271367  0.89754567  0.07388044  1.0
  Zr  Zr30  1  0.36604700  0.23087900  0.07388044  1.0
  Zr  Zr31  1  0.36604700  0.56421233  0.07388044  1.0
  Zr  Zr32  1  0.36604700  0.89754567  0.07388044  1.0
  Zr  Zr33  1  0.69938033  0.23087900  0.07388044  1.0
  Zr  Zr34  1  0.69938033  0.56421233  0.07388044  1.0
  Zr  Zr35  1  0.69938033  0.89754567  0.07388044  1.0
  Zr  Zr36  1  0.30061967  0.10245433  0.00906060  1.0
  Zr  Zr37  1  0.30061967  0.43578767  0.00906060  1.0
  Zr  Zr38  1  0.30061967  0.76912100  0.00906060  1.0
  Zr  Zr39  1  0.63395300  0.10245433  0.00906060  1.0
  Zr  Zr40  1  0.63395300  0.43578767  0.00906060  1.0
  Zr  Zr41  1  0.63395300  0.76912100  0.00906060  1.0
  Zr  Zr42  1  0.96728633  0.10245433  0.00906060  1.0
  Zr  Zr43  1  0.96728633  0.43578767  0.00906060  1.0
  Zr  Zr44  1  0.96728633  0.76912100  0.00906060  1.0
  Zr  Zr45  1  0.13395300  0.26912100  0.05072727  1.0
  Zr  Zr46  1  0.13395300  0.60245433  0.05072727  1.0
  Zr  Zr47  1  0.13395300  0.93578767  0.05072727  1.0
  Zr  Zr48  1  0.46728633  0.26912100  0.05072727  1.0
  Zr  Zr49  1  0.46728633  0.60245433  0.05072727  1.0
  Zr  Zr50  1  0.46728633  0.93578767  0.05072727  1.0
  Zr  Zr51  1  0.80061967  0.26912100  0.05072727  1.0
  Zr  Zr52  1  0.80061967  0.60245433  0.05072727  1.0
  Zr  Zr53  1  0.80061967  0.93578767  0.05072727  1.0
  Zr  Zr54  1  0.27464317  0.14774050  0.00739390  1.0
  Zr  Zr55  1  0.27464317  0.48107383  0.00739390  1.0
  Zr  Zr56  1  0.27464317  0.81440717  0.00739390  1.0
  Zr  Zr57  1  0.60797650  0.14774050  0.00739390  1.0
  Zr  Zr58  1  0.60797650  0.48107383  0.00739390  1.0
  Zr  Zr59  1  0.60797650  0.81440717  0.00739390  1.0
  Zr  Zr60  1  0.94130983  0.14774050  0.00739390  1.0
  Zr  Zr61  1  0.94130983  0.48107383  0.00739390  1.0
  Zr  Zr62  1  0.94130983  0.81440717  0.00739390  1.0
  Zr  Zr63  1  0.10797650  0.31440717  0.04906056  1.0
  Zr  Zr64  1  0.10797650  0.64774050  0.04906056  1.0
  Zr  Zr65  1  0.10797650  0.98107383  0.04906056  1.0
  Zr  Zr66  1  0.44130983  0.31440717  0.04906056  1.0
  Zr  Zr67  1  0.44130983  0.64774050  0.04906056  1.0
  Zr  Zr68  1  0.44130983  0.98107383  0.04906056  1.0
  Zr  Zr69  1  0.77464317  0.31440717  0.04906056  1.0
  Zr  Zr70  1  0.77464317  0.64774050  0.04906056  1.0
  Zr  Zr71  1  0.77464317  0.98107383  0.04906056  1.0
  Ni  Ni72  1  0.00442783  0.01300850  0.03271973  1.0
  Ni  Ni73  1  0.00442783  0.34634183  0.03271973  1.0
  Ni  Ni74  1  0.00442783  0.67967517  0.03271973  1.0
  Ni  Ni75  1  0.33776117  0.01300850  0.03271973  1.0
  Ni  Ni76  1  0.33776117  0.34634183  0.03271973  1.0
  Ni  Ni77  1  0.33776117  0.67967517  0.03271973  1.0
  Ni  Ni78  1  0.67109450  0.01300850  0.03271973  1.0
  Ni  Ni79  1  0.67109450  0.34634183  0.03271973  1.0
  Ni  Ni80  1  0.67109450  0.67967517  0.03271973  1.0
  Ni  Ni81  1  0.17109450  0.17967517  0.07438640  1.0
  Ni  Ni82  1  0.17109450  0.51300850  0.07438640  1.0
  Ni  Ni83  1  0.17109450  0.84634183  0.07438640  1.0
  Ni  Ni84  1  0.50442783  0.17967517  0.07438640  1.0
  Ni  Ni85  1  0.50442783  0.51300850  0.07438640  1.0
  Ni  Ni86  1  0.50442783  0.84634183  0.07438640  1.0
  Ni  Ni87  1  0.83776117  0.17967517  0.07438640  1.0
  Ni  Ni88  1  0.83776117  0.51300850  0.07438640  1.0
  Ni  Ni89  1  0.83776117  0.84634183  0.07438640  1.0
  Ni  Ni90  1  0.11422717  0.01300850  0.03271973  1.0
  Ni  Ni91  1  0.11422717  0.34634183  0.03271973  1.0
  Ni  Ni92  1  0.11422717  0.67967517  0.03271973  1.0
  Ni  Ni93  1  0.44756050  0.01300850  0.03271973  1.0
  Ni  Ni94  1  0.44756050  0.34634183  0.03271973  1.0
  Ni  Ni95  1  0.44756050  0.67967517  0.03271973  1.0
  Ni  Ni96  1  0.78089383  0.01300850  0.03271973  1.0
  Ni  Ni97  1  0.78089383  0.34634183  0.03271973  1.0
  Ni  Ni98  1  0.78089383  0.67967517  0.03271973  1.0
  Ni  Ni99  1  0.28089383  0.17967517  0.07438640  1.0
  Ni  Ni100  1  0.28089383  0.51300850  0.07438640  1.0
  Ni  Ni101  1  0.28089383  0.84634183  0.07438640  1.0
  Ni  Ni102  1  0.61422717  0.17967517  0.07438640  1.0
  Ni  Ni103  1  0.61422717  0.51300850  0.07438640  1.0
  Ni  Ni104  1  0.61422717  0.84634183  0.07438640  1.0
  Ni  Ni105  1  0.94756050  0.17967517  0.07438640  1.0
  Ni  Ni106  1  0.94756050  0.51300850  0.07438640  1.0
  Ni  Ni107  1  0.94756050  0.84634183  0.07438640  1.0
  Ni  Ni108  1  0.21342667  0.04163267  0.07562152  1.0
  Ni  Ni109  1  0.21342667  0.37496600  0.07562152  1.0
  Ni  Ni110  1  0.21342667  0.70829933  0.07562152  1.0
  Ni  Ni111  1  0.54676000  0.04163267  0.07562152  1.0
  Ni  Ni112  1  0.54676000  0.37496600  0.07562152  1.0
  Ni  Ni113  1  0.54676000  0.70829933  0.07562152  1.0
  Ni  Ni114  1  0.88009333  0.04163267  0.07562152  1.0
  Ni  Ni115  1  0.88009333  0.37496600  0.07562152  1.0
  Ni  Ni116  1  0.88009333  0.70829933  0.07562152  1.0
  Ni  Ni117  1  0.04676000  0.20829933  0.03395485  1.0
  Ni  Ni118  1  0.04676000  0.54163267  0.03395485  1.0
  Ni  Ni119  1  0.04676000  0.87496600  0.03395485  1.0
  Ni  Ni120  1  0.38009333  0.20829933  0.03395485  1.0
  Ni  Ni121  1  0.38009333  0.54163267  0.03395485  1.0
  Ni  Ni122  1  0.38009333  0.87496600  0.03395485  1.0
  Ni  Ni123  1  0.71342667  0.20829933  0.03395485  1.0
  Ni  Ni124  1  0.71342667  0.54163267  0.03395485  1.0
  Ni  Ni125  1  0.71342667  0.87496600  0.03395485  1.0
  Ni  Ni126  1  0.04821133  0.04163267  0.07562152  1.0
  Ni  Ni127  1  0.04821133  0.37496600  0.07562152  1.0
  Ni  Ni128  1  0.04821133  0.70829933  0.07562152  1.0
  Ni  Ni129  1  0.38154467  0.04163267  0.07562152  1.0
  Ni  Ni130  1  0.38154467  0.37496600  0.07562152  1.0
  Ni  Ni131  1  0.38154467  0.70829933  0.07562152  1.0
  Ni  Ni132  1  0.71487800  0.04163267  0.07562152  1.0
  Ni  Ni133  1  0.71487800  0.37496600  0.07562152  1.0
  Ni  Ni134  1  0.71487800  0.70829933  0.07562152  1.0
  Ni  Ni135  1  0.21487800  0.20829933  0.03395485  1.0
  Ni  Ni136  1  0.21487800  0.54163267  0.03395485  1.0
  Ni  Ni137  1  0.21487800  0.87496600  0.03395485  1.0
  Ni  Ni138  1  0.54821133  0.20829933  0.03395485  1.0
  Ni  Ni139  1  0.54821133  0.54163267  0.03395485  1.0
  Ni  Ni140  1  0.54821133  0.87496600  0.03395485  1.0
  Ni  Ni141  1  0.88154467  0.20829933  0.03395485  1.0
  Ni  Ni142  1  0.88154467  0.54163267  0.03395485  1.0
  Ni  Ni143  1  0.88154467  0.87496600  0.03395485  1.0
  Ni  Ni144  1  0.04527383  0.04173417  0.03287431  1.0
  Ni  Ni145  1  0.04527383  0.37506750  0.03287431  1.0
  Ni  Ni146  1  0.04527383  0.70840083  0.03287431  1.0
  Ni  Ni147  1  0.37860717  0.04173417  0.03287431  1.0
  Ni  Ni148  1  0.37860717  0.37506750  0.03287431  1.0
  Ni  Ni149  1  0.37860717  0.70840083  0.03287431  1.0
  Ni  Ni150  1  0.71194050  0.04173417  0.03287431  1.0
  Ni  Ni151  1  0.71194050  0.37506750  0.03287431  1.0
  Ni  Ni152  1  0.71194050  0.70840083  0.03287431  1.0
  Ni  Ni153  1  0.21194050  0.20840083  0.07454098  1.0
  Ni  Ni154  1  0.21194050  0.54173417  0.07454098  1.0
  Ni  Ni155  1  0.21194050  0.87506750  0.07454098  1.0
  Ni  Ni156  1  0.54527383  0.20840083  0.07454098  1.0
  Ni  Ni157  1  0.54527383  0.54173417  0.07454098  1.0
  Ni  Ni158  1  0.54527383  0.87506750  0.07454098  1.0
  Ni  Ni159  1  0.87860717  0.20840083  0.07454098  1.0
  Ni  Ni160  1  0.87860717  0.54173417  0.07454098  1.0
  Ni  Ni161  1  0.87860717  0.87506750  0.07454098  1.0
  Ni  Ni162  1  0.08695967  0.07032767  0.03311202  1.0
  Ni  Ni163  1  0.08695967  0.40366100  0.03311202  1.0
  Ni  Ni164  1  0.08695967  0.73699433  0.03311202  1.0
  Ni  Ni165  1  0.42029300  0.07032767  0.03311202  1.0
  Ni  Ni166  1  0.42029300  0.40366100  0.03311202  1.0
  Ni  Ni167  1  0.42029300  0.73699433  0.03311202  1.0
  Ni  Ni168  1  0.75362633  0.07032767  0.03311202  1.0
  Ni  Ni169  1  0.75362633  0.40366100  0.03311202  1.0
  Ni  Ni170  1  0.75362633  0.73699433  0.03311202  1.0
  Ni  Ni171  1  0.25362633  0.23699433  0.07477869  1.0
  Ni  Ni172  1  0.25362633  0.57032767  0.07477869  1.0
  Ni  Ni173  1  0.25362633  0.90366100  0.07477869  1.0
  Ni  Ni174  1  0.58695967  0.23699433  0.07477869  1.0
  Ni  Ni175  1  0.58695967  0.57032767  0.07477869  1.0
  Ni  Ni176  1  0.58695967  0.90366100  0.07477869  1.0
  Ni  Ni177  1  0.92029300  0.23699433  0.07477869  1.0
  Ni  Ni178  1  0.92029300  0.57032767  0.07477869  1.0
  Ni  Ni179  1  0.92029300  0.90366100  0.07477869  1.0
  Ni  Ni180  1  0.30927867  0.07032767  0.03311202  1.0
  Ni  Ni181  1  0.30927867  0.40366100  0.03311202  1.0
  Ni  Ni182  1  0.30927867  0.73699433  0.03311202  1.0
  Ni  Ni183  1  0.64261200  0.07032767  0.03311202  1.0
  Ni  Ni184  1  0.64261200  0.40366100  0.03311202  1.0
  Ni  Ni185  1  0.64261200  0.73699433  0.03311202  1.0
  Ni  Ni186  1  0.97594533  0.07032767  0.03311202  1.0
  Ni  Ni187  1  0.97594533  0.40366100  0.03311202  1.0
  Ni  Ni188  1  0.97594533  0.73699433  0.03311202  1.0
  Ni  Ni189  1  0.14261200  0.23699433  0.07477869  1.0
  Ni  Ni190  1  0.14261200  0.57032767  0.07477869  1.0
  Ni  Ni191  1  0.14261200  0.90366100  0.07477869  1.0
  Ni  Ni192  1  0.47594533  0.23699433  0.07477869  1.0
  Ni  Ni193  1  0.47594533  0.57032767  0.07477869  1.0
  Ni  Ni194  1  0.47594533  0.90366100  0.07477869  1.0
  Ni  Ni195  1  0.80927867  0.23699433  0.07477869  1.0
  Ni  Ni196  1  0.80927867  0.57032767  0.07477869  1.0
  Ni  Ni197  1  0.80927867  0.90366100  0.07477869  1.0
  Ni  Ni198  1  0.07970700  0.09633900  0.00816235  1.0
  Ni  Ni199  1  0.07970700  0.42967233  0.00816235  1.0
  Ni  Ni200  1  0.07970700  0.76300567  0.00816235  1.0
  Ni  Ni201  1  0.41304033  0.09633900  0.00816235  1.0
  Ni  Ni202  1  0.41304033  0.42967233  0.00816235  1.0
  Ni  Ni203  1  0.41304033  0.76300567  0.00816235  1.0
  Ni  Ni204  1  0.74637367  0.09633900  0.00816235  1.0
  Ni  Ni205  1  0.74637367  0.42967233  0.00816235  1.0
  Ni  Ni206  1  0.74637367  0.76300567  0.00816235  1.0
  Ni  Ni207  1  0.24637367  0.26300567  0.04982902  1.0
  Ni  Ni208  1  0.24637367  0.59633900  0.04982902  1.0
  Ni  Ni209  1  0.24637367  0.92967233  0.04982902  1.0
  Ni  Ni210  1  0.57970700  0.26300567  0.04982902  1.0
  Ni  Ni211  1  0.57970700  0.59633900  0.04982902  1.0
  Ni  Ni212  1  0.57970700  0.92967233  0.04982902  1.0
  Ni  Ni213  1  0.91304033  0.26300567  0.04982902  1.0
  Ni  Ni214  1  0.91304033  0.59633900  0.04982902  1.0
  Ni  Ni215  1  0.91304033  0.92967233  0.04982902  1.0
  Ni  Ni216  1  0.19072133  0.09633900  0.00816235  1.0
  Ni  Ni217  1  0.19072133  0.42967233  0.00816235  1.0
  Ni  Ni218  1  0.19072133  0.76300567  0.00816235  1.0
  Ni  Ni219  1  0.52405467  0.09633900  0.00816235  1.0
  Ni  Ni220  1  0.52405467  0.42967233  0.00816235  1.0
  Ni  Ni221  1  0.52405467  0.76300567  0.00816235  1.0
  Ni  Ni222  1  0.85738800  0.09633900  0.00816235  1.0
  Ni  Ni223  1  0.85738800  0.42967233  0.00816235  1.0
  Ni  Ni224  1  0.85738800  0.76300567  0.00816235  1.0
  Ni  Ni225  1  0.02405467  0.26300567  0.04982902  1.0
  Ni  Ni226  1  0.02405467  0.59633900  0.04982902  1.0
  Ni  Ni227  1  0.02405467  0.92967233  0.04982902  1.0
  Ni  Ni228  1  0.35738800  0.26300567  0.04982902  1.0
  Ni  Ni229  1  0.35738800  0.59633900  0.04982902  1.0
  Ni  Ni230  1  0.35738800  0.92967233  0.04982902  1.0
  Ni  Ni231  1  0.69072133  0.26300567  0.04982902  1.0
  Ni  Ni232  1  0.69072133  0.59633900  0.04982902  1.0
  Ni  Ni233  1  0.69072133  0.92967233  0.04982902  1.0
  Ni  Ni234  1  0.12139283  0.12493250  0.00840006  1.0
  Ni  Ni235  1  0.12139283  0.45826583  0.00840006  1.0
  Ni  Ni236  1  0.12139283  0.79159917  0.00840006  1.0
  Ni  Ni237  1  0.45472617  0.12493250  0.00840006  1.0
  Ni  Ni238  1  0.45472617  0.45826583  0.00840006  1.0
  Ni  Ni239  1  0.45472617  0.79159917  0.00840006  1.0
  Ni  Ni240  1  0.78805950  0.12493250  0.00840006  1.0
  Ni  Ni241  1  0.78805950  0.45826583  0.00840006  1.0
  Ni  Ni242  1  0.78805950  0.79159917  0.00840006  1.0
  Ni  Ni243  1  0.28805950  0.29159917  0.05006673  1.0
  Ni  Ni244  1  0.28805950  0.62493250  0.05006673  1.0
  Ni  Ni245  1  0.28805950  0.95826583  0.05006673  1.0
  Ni  Ni246  1  0.62139283  0.29159917  0.05006673  1.0
  Ni  Ni247  1  0.62139283  0.62493250  0.05006673  1.0
  Ni  Ni248  1  0.62139283  0.95826583  0.05006673  1.0
  Ni  Ni249  1  0.95472617  0.29159917  0.05006673  1.0
  Ni  Ni250  1  0.95472617  0.62493250  0.05006673  1.0
  Ni  Ni251  1  0.95472617  0.95826583  0.05006673  1.0
  Ni  Ni252  1  0.28657333  0.12503400  0.04898619  1.0
  Ni  Ni253  1  0.28657333  0.45836733  0.04898619  1.0
  Ni  Ni254  1  0.28657333  0.79170067  0.04898619  1.0
  Ni  Ni255  1  0.61990667  0.12503400  0.04898619  1.0
  Ni  Ni256  1  0.61990667  0.45836733  0.04898619  1.0
  Ni  Ni257  1  0.61990667  0.79170067  0.04898619  1.0
  Ni  Ni258  1  0.95324000  0.12503400  0.04898619  1.0
  Ni  Ni259  1  0.95324000  0.45836733  0.04898619  1.0
  Ni  Ni260  1  0.95324000  0.79170067  0.04898619  1.0
  Ni  Ni261  1  0.11990667  0.29170067  0.00731952  1.0
  Ni  Ni262  1  0.11990667  0.62503400  0.00731952  1.0
  Ni  Ni263  1  0.11990667  0.95836733  0.00731952  1.0
  Ni  Ni264  1  0.45324000  0.29170067  0.00731952  1.0
  Ni  Ni265  1  0.45324000  0.62503400  0.00731952  1.0
  Ni  Ni266  1  0.45324000  0.95836733  0.00731952  1.0
  Ni  Ni267  1  0.78657333  0.29170067  0.00731952  1.0
  Ni  Ni268  1  0.78657333  0.62503400  0.00731952  1.0
  Ni  Ni269  1  0.78657333  0.95836733  0.00731952  1.0
  Ni  Ni270  1  0.11845533  0.12503400  0.04898619  1.0
  Ni  Ni271  1  0.11845533  0.45836733  0.04898619  1.0
  Ni  Ni272  1  0.11845533  0.79170067  0.04898619  1.0
  Ni  Ni273  1  0.45178867  0.12503400  0.04898619  1.0
  Ni  Ni274  1  0.45178867  0.45836733  0.04898619  1.0
  Ni  Ni275  1  0.45178867  0.79170067  0.04898619  1.0
  Ni  Ni276  1  0.78512200  0.12503400  0.04898619  1.0
  Ni  Ni277  1  0.78512200  0.45836733  0.04898619  1.0
  Ni  Ni278  1  0.78512200  0.79170067  0.04898619  1.0
  Ni  Ni279  1  0.28512200  0.29170067  0.00731952  1.0
  Ni  Ni280  1  0.28512200  0.62503400  0.00731952  1.0
  Ni  Ni281  1  0.28512200  0.95836733  0.00731952  1.0
  Ni  Ni282  1  0.61845533  0.29170067  0.00731952  1.0
  Ni  Ni283  1  0.61845533  0.62503400  0.00731952  1.0
  Ni  Ni284  1  0.61845533  0.95836733  0.00731952  1.0
  Ni  Ni285  1  0.95178867  0.29170067  0.00731952  1.0
  Ni  Ni286  1  0.95178867  0.62503400  0.00731952  1.0
  Ni  Ni287  1  0.95178867  0.95836733  0.00731952  1.0
  Ni  Ni288  1  0.16223883  0.15365817  0.00855465  1.0
  Ni  Ni289  1  0.16223883  0.48699150  0.00855465  1.0
  Ni  Ni290  1  0.16223883  0.82032483  0.00855465  1.0
  Ni  Ni291  1  0.49557217  0.15365817  0.00855465  1.0
  Ni  Ni292  1  0.49557217  0.48699150  0.00855465  1.0
  Ni  Ni293  1  0.49557217  0.82032483  0.00855465  1.0
  Ni  Ni294  1  0.82890550  0.15365817  0.00855465  1.0
  Ni  Ni295  1  0.82890550  0.48699150  0.00855465  1.0
  Ni  Ni296  1  0.82890550  0.82032483  0.00855465  1.0
  Ni  Ni297  1  0.32890550  0.32032483  0.05022131  1.0
  Ni  Ni298  1  0.32890550  0.65365817  0.05022131  1.0
  Ni  Ni299  1  0.32890550  0.98699150  0.05022131  1.0
  Ni  Ni300  1  0.66223883  0.32032483  0.05022131  1.0
  Ni  Ni301  1  0.66223883  0.65365817  0.05022131  1.0
  Ni  Ni302  1  0.66223883  0.98699150  0.05022131  1.0
  Ni  Ni303  1  0.99557217  0.32032483  0.05022131  1.0
  Ni  Ni304  1  0.99557217  0.65365817  0.05022131  1.0
  Ni  Ni305  1  0.99557217  0.98699150  0.05022131  1.0
  Ni  Ni306  1  0.05243950  0.15365817  0.00855465  1.0
  Ni  Ni307  1  0.05243950  0.48699150  0.00855465  1.0
  Ni  Ni308  1  0.05243950  0.82032483  0.00855465  1.0
  Ni  Ni309  1  0.38577283  0.15365817  0.00855465  1.0
  Ni  Ni310  1  0.38577283  0.48699150  0.00855465  1.0
  Ni  Ni311  1  0.38577283  0.82032483  0.00855465  1.0
  Ni  Ni312  1  0.71910617  0.15365817  0.00855465  1.0
  Ni  Ni313  1  0.71910617  0.48699150  0.00855465  1.0
  Ni  Ni314  1  0.71910617  0.82032483  0.00855465  1.0
  Ni  Ni315  1  0.21910617  0.32032483  0.05022131  1.0
  Ni  Ni316  1  0.21910617  0.65365817  0.05022131  1.0
  Ni  Ni317  1  0.21910617  0.98699150  0.05022131  1.0
  Ni  Ni318  1  0.55243950  0.32032483  0.05022131  1.0
  Ni  Ni319  1  0.55243950  0.65365817  0.05022131  1.0
  Ni  Ni320  1  0.55243950  0.98699150  0.05022131  1.0
  Ni  Ni321  1  0.88577283  0.32032483  0.05022131  1.0
  Ni  Ni322  1  0.88577283  0.65365817  0.05022131  1.0
  Ni  Ni323  1  0.88577283  0.98699150  0.05022131  1.0
  Zr  Zr324  1  0.22535683  0.01892617  0.11721381  1.0
  Zr  Zr325  1  0.22535683  0.35225950  0.11721381  1.0
  Zr  Zr326  1  0.22535683  0.68559283  0.11721381  1.0
  Zr  Zr327  1  0.55869017  0.01892617  0.11721381  1.0
  Zr  Zr328  1  0.55869017  0.35225950  0.11721381  1.0
  Zr  Zr329  1  0.55869017  0.68559283  0.11721381  1.0
  Zr  Zr330  1  0.89202350  0.01892617  0.11721381  1.0
  Zr  Zr331  1  0.89202350  0.35225950  0.11721381  1.0
  Zr  Zr332  1  0.89202350  0.68559283  0.11721381  1.0
  Zr  Zr333  1  0.05869017  0.18559283  0.15888048  1.0
  Zr  Zr334  1  0.05869017  0.51892617  0.15888048  1.0
  Zr  Zr335  1  0.05869017  0.85225950  0.15888048  1.0
  Zr  Zr336  1  0.39202350  0.18559283  0.15888048  1.0
  Zr  Zr337  1  0.39202350  0.51892617  0.15888048  1.0
  Zr  Zr338  1  0.39202350  0.85225950  0.15888048  1.0
  Zr  Zr339  1  0.72535683  0.18559283  0.15888048  1.0
  Zr  Zr340  1  0.72535683  0.51892617  0.15888048  1.0
  Zr  Zr341  1  0.72535683  0.85225950  0.15888048  1.0
  Zr  Zr342  1  0.19938033  0.06421233  0.11554710  1.0
  Zr  Zr343  1  0.19938033  0.39754567  0.11554710  1.0
  Zr  Zr344  1  0.19938033  0.73087900  0.11554710  1.0
  Zr  Zr345  1  0.53271367  0.06421233  0.11554710  1.0
  Zr  Zr346  1  0.53271367  0.39754567  0.11554710  1.0
  Zr  Zr347  1  0.53271367  0.73087900  0.11554710  1.0
  Zr  Zr348  1  0.86604700  0.06421233  0.11554710  1.0
  Zr  Zr349  1  0.86604700  0.39754567  0.11554710  1.0
  Zr  Zr350  1  0.86604700  0.73087900  0.11554710  1.0
  Zr  Zr351  1  0.03271367  0.23087900  0.15721377  1.0
  Zr  Zr352  1  0.03271367  0.56421233  0.15721377  1.0
  Zr  Zr353  1  0.03271367  0.89754567  0.15721377  1.0
  Zr  Zr354  1  0.36604700  0.23087900  0.15721377  1.0
  Zr  Zr355  1  0.36604700  0.56421233  0.15721377  1.0
  Zr  Zr356  1  0.36604700  0.89754567  0.15721377  1.0
  Zr  Zr357  1  0.69938033  0.23087900  0.15721377  1.0
  Zr  Zr358  1  0.69938033  0.56421233  0.15721377  1.0
  Zr  Zr359  1  0.69938033  0.89754567  0.15721377  1.0
  Zr  Zr360  1  0.30061967  0.10245433  0.09239394  1.0
  Zr  Zr361  1  0.30061967  0.43578767  0.09239394  1.0
  Zr  Zr362  1  0.30061967  0.76912100  0.09239394  1.0
  Zr  Zr363  1  0.63395300  0.10245433  0.09239394  1.0
  Zr  Zr364  1  0.63395300  0.43578767  0.09239394  1.0
  Zr  Zr365  1  0.63395300  0.76912100  0.09239394  1.0
  Zr  Zr366  1  0.96728633  0.10245433  0.09239394  1.0
  Zr  Zr367  1  0.96728633  0.43578767  0.09239394  1.0
  Zr  Zr368  1  0.96728633  0.76912100  0.09239394  1.0
  Zr  Zr369  1  0.13395300  0.26912100  0.13406060  1.0
  Zr  Zr370  1  0.13395300  0.60245433  0.13406060  1.0
  Zr  Zr371  1  0.13395300  0.93578767  0.13406060  1.0
  Zr  Zr372  1  0.46728633  0.26912100  0.13406060  1.0
  Zr  Zr373  1  0.46728633  0.60245433  0.13406060  1.0
  Zr  Zr374  1  0.46728633  0.93578767  0.13406060  1.0
  Zr  Zr375  1  0.80061967  0.26912100  0.13406060  1.0
  Zr  Zr376  1  0.80061967  0.60245433  0.13406060  1.0
  Zr  Zr377  1  0.80061967  0.93578767  0.13406060  1.0
  Zr  Zr378  1  0.27464317  0.14774050  0.09072723  1.0
  Zr  Zr379  1  0.27464317  0.48107383  0.09072723  1.0
  Zr  Zr380  1  0.27464317  0.81440717  0.09072723  1.0
  Zr  Zr381  1  0.60797650  0.14774050  0.09072723  1.0
  Zr  Zr382  1  0.60797650  0.48107383  0.09072723  1.0
  Zr  Zr383  1  0.60797650  0.81440717  0.09072723  1.0
  Zr  Zr384  1  0.94130983  0.14774050  0.09072723  1.0
  Zr  Zr385  1  0.94130983  0.48107383  0.09072723  1.0
  Zr  Zr386  1  0.94130983  0.81440717  0.09072723  1.0
  Zr  Zr387  1  0.10797650  0.31440717  0.13239390  1.0
  Zr  Zr388  1  0.10797650  0.64774050  0.13239390  1.0
  Zr  Zr389  1  0.10797650  0.98107383  0.13239390  1.0
  Zr  Zr390  1  0.44130983  0.31440717  0.13239390  1.0
  Zr  Zr391  1  0.44130983  0.64774050  0.13239390  1.0
  Zr  Zr392  1  0.44130983  0.98107383  0.13239390  1.0
  Zr  Zr393  1  0.77464317  0.31440717  0.13239390  1.0
  Zr  Zr394  1  0.77464317  0.64774050  0.13239390  1.0
  Zr  Zr395  1  0.77464317  0.98107383  0.13239390  1.0
  Ni  Ni396  1  0.00442783  0.01300850  0.11605306  1.0
  Ni  Ni397  1  0.00442783  0.34634183  0.11605306  1.0
  Ni  Ni398  1  0.00442783  0.67967517  0.11605306  1.0
  Ni  Ni399  1  0.33776117  0.01300850  0.11605306  1.0
  Ni  Ni400  1  0.33776117  0.34634183  0.11605306  1.0
  Ni  Ni401  1  0.33776117  0.67967517  0.11605306  1.0
  Ni  Ni402  1  0.67109450  0.01300850  0.11605306  1.0
  Ni  Ni403  1  0.67109450  0.34634183  0.11605306  1.0
  Ni  Ni404  1  0.67109450  0.67967517  0.11605306  1.0
  Ni  Ni405  1  0.17109450  0.17967517  0.15771973  1.0
  Ni  Ni406  1  0.17109450  0.51300850  0.15771973  1.0
  Ni  Ni407  1  0.17109450  0.84634183  0.15771973  1.0
  Ni  Ni408  1  0.50442783  0.17967517  0.15771973  1.0
  Ni  Ni409  1  0.50442783  0.51300850  0.15771973  1.0
  Ni  Ni410  1  0.50442783  0.84634183  0.15771973  1.0
  Ni  Ni411  1  0.83776117  0.17967517  0.15771973  1.0
  Ni  Ni412  1  0.83776117  0.51300850  0.15771973  1.0
  Ni  Ni413  1  0.83776117  0.84634183  0.15771973  1.0
  Ni  Ni414  1  0.11422717  0.01300850  0.11605306  1.0
  Ni  Ni415  1  0.11422717  0.34634183  0.11605306  1.0
  Ni  Ni416  1  0.11422717  0.67967517  0.11605306  1.0
  Ni  Ni417  1  0.44756050  0.01300850  0.11605306  1.0
  Ni  Ni418  1  0.44756050  0.34634183  0.11605306  1.0
  Ni  Ni419  1  0.44756050  0.67967517  0.11605306  1.0
  Ni  Ni420  1  0.78089383  0.01300850  0.11605306  1.0
  Ni  Ni421  1  0.78089383  0.34634183  0.11605306  1.0
  Ni  Ni422  1  0.78089383  0.67967517  0.11605306  1.0
  Ni  Ni423  1  0.28089383  0.17967517  0.15771973  1.0
  Ni  Ni424  1  0.28089383  0.51300850  0.15771973  1.0
  Ni  Ni425  1  0.28089383  0.84634183  0.15771973  1.0
  Ni  Ni426  1  0.61422717  0.17967517  0.15771973  1.0
  Ni  Ni427  1  0.61422717  0.51300850  0.15771973  1.0
  Ni  Ni428  1  0.61422717  0.84634183  0.15771973  1.0
  Ni  Ni429  1  0.94756050  0.17967517  0.15771973  1.0
  Ni  Ni430  1  0.94756050  0.51300850  0.15771973  1.0
  Ni  Ni431  1  0.94756050  0.84634183  0.15771973  1.0
  Ni  Ni432  1  0.21342667  0.04163267  0.15895485  1.0
  Ni  Ni433  1  0.21342667  0.37496600  0.15895485  1.0
  Ni  Ni434  1  0.21342667  0.70829933  0.15895485  1.0
  Ni  Ni435  1  0.54676000  0.04163267  0.15895485  1.0
  Ni  Ni436  1  0.54676000  0.37496600  0.15895485  1.0
  Ni  Ni437  1  0.54676000  0.70829933  0.15895485  1.0
  Ni  Ni438  1  0.88009333  0.04163267  0.15895485  1.0
  Ni  Ni439  1  0.88009333  0.37496600  0.15895485  1.0
  Ni  Ni440  1  0.88009333  0.70829933  0.15895485  1.0
  Ni  Ni441  1  0.04676000  0.20829933  0.11728819  1.0
  Ni  Ni442  1  0.04676000  0.54163267  0.11728819  1.0
  Ni  Ni443  1  0.04676000  0.87496600  0.11728819  1.0
  Ni  Ni444  1  0.38009333  0.20829933  0.11728819  1.0
  Ni  Ni445  1  0.38009333  0.54163267  0.11728819  1.0
  Ni  Ni446  1  0.38009333  0.87496600  0.11728819  1.0
  Ni  Ni447  1  0.71342667  0.20829933  0.11728819  1.0
  Ni  Ni448  1  0.71342667  0.54163267  0.11728819  1.0
  Ni  Ni449  1  0.71342667  0.87496600  0.11728819  1.0
  Ni  Ni450  1  0.04821133  0.04163267  0.15895485  1.0
  Ni  Ni451  1  0.04821133  0.37496600  0.15895485  1.0
  Ni  Ni452  1  0.04821133  0.70829933  0.15895485  1.0
  Ni  Ni453  1  0.38154467  0.04163267  0.15895485  1.0
  Ni  Ni454  1  0.38154467  0.37496600  0.15895485  1.0
  Ni  Ni455  1  0.38154467  0.70829933  0.15895485  1.0
  Ni  Ni456  1  0.71487800  0.04163267  0.15895485  1.0
  Ni  Ni457  1  0.71487800  0.37496600  0.15895485  1.0
  Ni  Ni458  1  0.71487800  0.70829933  0.15895485  1.0
  Ni  Ni459  1  0.21487800  0.20829933  0.11728819  1.0
  Ni  Ni460  1  0.21487800  0.54163267  0.11728819  1.0
  Ni  Ni461  1  0.21487800  0.87496600  0.11728819  1.0
  Ni  Ni462  1  0.54821133  0.20829933  0.11728819  1.0
  Ni  Ni463  1  0.54821133  0.54163267  0.11728819  1.0
  Ni  Ni464  1  0.54821133  0.87496600  0.11728819  1.0
  Ni  Ni465  1  0.88154467  0.20829933  0.11728819  1.0
  Ni  Ni466  1  0.88154467  0.54163267  0.11728819  1.0
  Ni  Ni467  1  0.88154467  0.87496600  0.11728819  1.0
  Ni  Ni468  1  0.04527383  0.04173417  0.11620765  1.0
  Ni  Ni469  1  0.04527383  0.37506750  0.11620765  1.0
  Ni  Ni470  1  0.04527383  0.70840083  0.11620765  1.0
  Ni  Ni471  1  0.37860717  0.04173417  0.11620765  1.0
  Ni  Ni472  1  0.37860717  0.37506750  0.11620765  1.0
  Ni  Ni473  1  0.37860717  0.70840083  0.11620765  1.0
  Ni  Ni474  1  0.71194050  0.04173417  0.11620765  1.0
  Ni  Ni475  1  0.71194050  0.37506750  0.11620765  1.0
  Ni  Ni476  1  0.71194050  0.70840083  0.11620765  1.0
  Ni  Ni477  1  0.21194050  0.20840083  0.15787431  1.0
  Ni  Ni478  1  0.21194050  0.54173417  0.15787431  1.0
  Ni  Ni479  1  0.21194050  0.87506750  0.15787431  1.0
  Ni  Ni480  1  0.54527383  0.20840083  0.15787431  1.0
  Ni  Ni481  1  0.54527383  0.54173417  0.15787431  1.0
  Ni  Ni482  1  0.54527383  0.87506750  0.15787431  1.0
  Ni  Ni483  1  0.87860717  0.20840083  0.15787431  1.0
  Ni  Ni484  1  0.87860717  0.54173417  0.15787431  1.0
  Ni  Ni485  1  0.87860717  0.87506750  0.15787431  1.0
  Ni  Ni486  1  0.08695967  0.07032767  0.11644535  1.0
  Ni  Ni487  1  0.08695967  0.40366100  0.11644535  1.0
  Ni  Ni488  1  0.08695967  0.73699433  0.11644535  1.0
  Ni  Ni489  1  0.42029300  0.07032767  0.11644535  1.0
  Ni  Ni490  1  0.42029300  0.40366100  0.11644535  1.0
  Ni  Ni491  1  0.42029300  0.73699433  0.11644535  1.0
  Ni  Ni492  1  0.75362633  0.07032767  0.11644535  1.0
  Ni  Ni493  1  0.75362633  0.40366100  0.11644535  1.0
  Ni  Ni494  1  0.75362633  0.73699433  0.11644535  1.0
  Ni  Ni495  1  0.25362633  0.23699433  0.15811202  1.0
  Ni  Ni496  1  0.25362633  0.57032767  0.15811202  1.0
  Ni  Ni497  1  0.25362633  0.90366100  0.15811202  1.0
  Ni  Ni498  1  0.58695967  0.23699433  0.15811202  1.0
  Ni  Ni499  1  0.58695967  0.57032767  0.15811202  1.0
  Ni  Ni500  1  0.58695967  0.90366100  0.15811202  1.0
  Ni  Ni501  1  0.92029300  0.23699433  0.15811202  1.0
  Ni  Ni502  1  0.92029300  0.57032767  0.15811202  1.0
  Ni  Ni503  1  0.92029300  0.90366100  0.15811202  1.0
  Ni  Ni504  1  0.30927867  0.07032767  0.11644535  1.0
  Ni  Ni505  1  0.30927867  0.40366100  0.11644535  1.0
  Ni  Ni506  1  0.30927867  0.73699433  0.11644535  1.0
  Ni  Ni507  1  0.64261200  0.07032767  0.11644535  1.0
  Ni  Ni508  1  0.64261200  0.40366100  0.11644535  1.0
  Ni  Ni509  1  0.64261200  0.73699433  0.11644535  1.0
  Ni  Ni510  1  0.97594533  0.07032767  0.11644535  1.0
  Ni  Ni511  1  0.97594533  0.40366100  0.11644535  1.0
  Ni  Ni512  1  0.97594533  0.73699433  0.11644535  1.0
  Ni  Ni513  1  0.14261200  0.23699433  0.15811202  1.0
  Ni  Ni514  1  0.14261200  0.57032767  0.15811202  1.0
  Ni  Ni515  1  0.14261200  0.90366100  0.15811202  1.0
  Ni  Ni516  1  0.47594533  0.23699433  0.15811202  1.0
  Ni  Ni517  1  0.47594533  0.57032767  0.15811202  1.0
  Ni  Ni518  1  0.47594533  0.90366100  0.15811202  1.0
  Ni  Ni519  1  0.80927867  0.23699433  0.15811202  1.0
  Ni  Ni520  1  0.80927867  0.57032767  0.15811202  1.0
  Ni  Ni521  1  0.80927867  0.90366100  0.15811202  1.0
  Ni  Ni522  1  0.07970700  0.09633900  0.09149569  1.0
  Ni  Ni523  1  0.07970700  0.42967233  0.09149569  1.0
  Ni  Ni524  1  0.07970700  0.76300567  0.09149569  1.0
  Ni  Ni525  1  0.41304033  0.09633900  0.09149569  1.0
  Ni  Ni526  1  0.41304033  0.42967233  0.09149569  1.0
  Ni  Ni527  1  0.41304033  0.76300567  0.09149569  1.0
  Ni  Ni528  1  0.74637367  0.09633900  0.09149569  1.0
  Ni  Ni529  1  0.74637367  0.42967233  0.09149569  1.0
  Ni  Ni530  1  0.74637367  0.76300567  0.09149569  1.0
  Ni  Ni531  1  0.24637367  0.26300567  0.13316235  1.0
  Ni  Ni532  1  0.24637367  0.59633900  0.13316235  1.0
  Ni  Ni533  1  0.24637367  0.92967233  0.13316235  1.0
  Ni  Ni534  1  0.57970700  0.26300567  0.13316235  1.0
  Ni  Ni535  1  0.57970700  0.59633900  0.13316235  1.0
  Ni  Ni536  1  0.57970700  0.92967233  0.13316235  1.0
  Ni  Ni537  1  0.91304033  0.26300567  0.13316235  1.0
  Ni  Ni538  1  0.91304033  0.59633900  0.13316235  1.0
  Ni  Ni539  1  0.91304033  0.92967233  0.13316235  1.0
  Ni  Ni540  1  0.19072133  0.09633900  0.09149569  1.0
  Ni  Ni541  1  0.19072133  0.42967233  0.09149569  1.0
  Ni  Ni542  1  0.19072133  0.76300567  0.09149569  1.0
  Ni  Ni543  1  0.52405467  0.09633900  0.09149569  1.0
  Ni  Ni544  1  0.52405467  0.42967233  0.09149569  1.0
  Ni  Ni545  1  0.52405467  0.76300567  0.09149569  1.0
  Ni  Ni546  1  0.85738800  0.09633900  0.09149569  1.0
  Ni  Ni547  1  0.85738800  0.42967233  0.09149569  1.0
  Ni  Ni548  1  0.85738800  0.76300567  0.09149569  1.0
  Ni  Ni549  1  0.02405467  0.26300567  0.13316235  1.0
  Ni  Ni550  1  0.02405467  0.59633900  0.13316235  1.0
  Ni  Ni551  1  0.02405467  0.92967233  0.13316235  1.0
  Ni  Ni552  1  0.35738800  0.26300567  0.13316235  1.0
  Ni  Ni553  1  0.35738800  0.59633900  0.13316235  1.0
  Ni  Ni554  1  0.35738800  0.92967233  0.13316235  1.0
  Ni  Ni555  1  0.69072133  0.26300567  0.13316235  1.0
  Ni  Ni556  1  0.69072133  0.59633900  0.13316235  1.0
  Ni  Ni557  1  0.69072133  0.92967233  0.13316235  1.0
  Ni  Ni558  1  0.12139283  0.12493250  0.09173340  1.0
  Ni  Ni559  1  0.12139283  0.45826583  0.09173340  1.0
  Ni  Ni560  1  0.12139283  0.79159917  0.09173340  1.0
  Ni  Ni561  1  0.45472617  0.12493250  0.09173340  1.0
  Ni  Ni562  1  0.45472617  0.45826583  0.09173340  1.0
  Ni  Ni563  1  0.45472617  0.79159917  0.09173340  1.0
  Ni  Ni564  1  0.78805950  0.12493250  0.09173340  1.0
  Ni  Ni565  1  0.78805950  0.45826583  0.09173340  1.0
  Ni  Ni566  1  0.78805950  0.79159917  0.09173340  1.0
  Ni  Ni567  1  0.28805950  0.29159917  0.13340006  1.0
  Ni  Ni568  1  0.28805950  0.62493250  0.13340006  1.0
  Ni  Ni569  1  0.28805950  0.95826583  0.13340006  1.0
  Ni  Ni570  1  0.62139283  0.29159917  0.13340006  1.0
  Ni  Ni571  1  0.62139283  0.62493250  0.13340006  1.0
  Ni  Ni572  1  0.62139283  0.95826583  0.13340006  1.0
  Ni  Ni573  1  0.95472617  0.29159917  0.13340006  1.0
  Ni  Ni574  1  0.95472617  0.62493250  0.13340006  1.0
  Ni  Ni575  1  0.95472617  0.95826583  0.13340006  1.0
  Ni  Ni576  1  0.28657333  0.12503400  0.13231952  1.0
  Ni  Ni577  1  0.28657333  0.45836733  0.13231952  1.0
  Ni  Ni578  1  0.28657333  0.79170067  0.13231952  1.0
  Ni  Ni579  1  0.61990667  0.12503400  0.13231952  1.0
  Ni  Ni580  1  0.61990667  0.45836733  0.13231952  1.0
  Ni  Ni581  1  0.61990667  0.79170067  0.13231952  1.0
  Ni  Ni582  1  0.95324000  0.12503400  0.13231952  1.0
  Ni  Ni583  1  0.95324000  0.45836733  0.13231952  1.0
  Ni  Ni584  1  0.95324000  0.79170067  0.13231952  1.0
  Ni  Ni585  1  0.11990667  0.29170067  0.09065285  1.0
  Ni  Ni586  1  0.11990667  0.62503400  0.09065285  1.0
  Ni  Ni587  1  0.11990667  0.95836733  0.09065285  1.0
  Ni  Ni588  1  0.45324000  0.29170067  0.09065285  1.0
  Ni  Ni589  1  0.45324000  0.62503400  0.09065285  1.0
  Ni  Ni590  1  0.45324000  0.95836733  0.09065285  1.0
  Ni  Ni591  1  0.78657333  0.29170067  0.09065285  1.0
  Ni  Ni592  1  0.78657333  0.62503400  0.09065285  1.0
  Ni  Ni593  1  0.78657333  0.95836733  0.09065285  1.0
  Ni  Ni594  1  0.11845533  0.12503400  0.13231952  1.0
  Ni  Ni595  1  0.11845533  0.45836733  0.13231952  1.0
  Ni  Ni596  1  0.11845533  0.79170067  0.13231952  1.0
  Ni  Ni597  1  0.45178867  0.12503400  0.13231952  1.0
  Ni  Ni598  1  0.45178867  0.45836733  0.13231952  1.0
  Ni  Ni599  1  0.45178867  0.79170067  0.13231952  1.0
  Ni  Ni600  1  0.78512200  0.12503400  0.13231952  1.0
  Ni  Ni601  1  0.78512200  0.45836733  0.13231952  1.0
  Ni  Ni602  1  0.78512200  0.79170067  0.13231952  1.0
  Ni  Ni603  1  0.28512200  0.29170067  0.09065285  1.0
  Ni  Ni604  1  0.28512200  0.62503400  0.09065285  1.0
  Ni  Ni605  1  0.28512200  0.95836733  0.09065285  1.0
  Ni  Ni606  1  0.61845533  0.29170067  0.09065285  1.0
  Ni  Ni607  1  0.61845533  0.62503400  0.09065285  1.0
  Ni  Ni608  1  0.61845533  0.95836733  0.09065285  1.0
  Ni  Ni609  1  0.95178867  0.29170067  0.09065285  1.0
  Ni  Ni610  1  0.95178867  0.62503400  0.09065285  1.0
  Ni  Ni611  1  0.95178867  0.95836733  0.09065285  1.0
  Ni  Ni612  1  0.16223883  0.15365817  0.09188798  1.0
  Ni  Ni613  1  0.16223883  0.48699150  0.09188798  1.0
  Ni  Ni614  1  0.16223883  0.82032483  0.09188798  1.0
  Ni  Ni615  1  0.49557217  0.15365817  0.09188798  1.0
  Ni  Ni616  1  0.49557217  0.48699150  0.09188798  1.0
  Ni  Ni617  1  0.49557217  0.82032483  0.09188798  1.0
  Ni  Ni618  1  0.82890550  0.15365817  0.09188798  1.0
  Ni  Ni619  1  0.82890550  0.48699150  0.09188798  1.0
  Ni  Ni620  1  0.82890550  0.82032483  0.09188798  1.0
  Ni  Ni621  1  0.32890550  0.32032483  0.13355465  1.0
  Ni  Ni622  1  0.32890550  0.65365817  0.13355465  1.0
  Ni  Ni623  1  0.32890550  0.98699150  0.13355465  1.0
  Ni  Ni624  1  0.66223883  0.32032483  0.13355465  1.0
  Ni  Ni625  1  0.66223883  0.65365817  0.13355465  1.0
  Ni  Ni626  1  0.66223883  0.98699150  0.13355465  1.0
  Ni  Ni627  1  0.99557217  0.32032483  0.13355465  1.0
  Ni  Ni628  1  0.99557217  0.65365817  0.13355465  1.0
  Ni  Ni629  1  0.99557217  0.98699150  0.13355465  1.0
  Ni  Ni630  1  0.05243950  0.15365817  0.09188798  1.0
  Ni  Ni631  1  0.05243950  0.48699150  0.09188798  1.0
  Ni  Ni632  1  0.05243950  0.82032483  0.09188798  1.0
  Ni  Ni633  1  0.38577283  0.15365817  0.09188798  1.0
  Ni  Ni634  1  0.38577283  0.48699150  0.09188798  1.0
  Ni  Ni635  1  0.38577283  0.82032483  0.09188798  1.0
  Ni  Ni636  1  0.71910617  0.15365817  0.09188798  1.0
  Ni  Ni637  1  0.71910617  0.48699150  0.09188798  1.0
  Ni  Ni638  1  0.71910617  0.82032483  0.09188798  1.0
  Ni  Ni639  1  0.21910617  0.32032483  0.13355465  1.0
  Ni  Ni640  1  0.21910617  0.65365817  0.13355465  1.0
  Ni  Ni641  1  0.21910617  0.98699150  0.13355465  1.0
  Ni  Ni642  1  0.55243950  0.32032483  0.13355465  1.0
  Ni  Ni643  1  0.55243950  0.65365817  0.13355465  1.0
  Ni  Ni644  1  0.55243950  0.98699150  0.13355465  1.0
  Ni  Ni645  1  0.88577283  0.32032483  0.13355465  1.0
  Ni  Ni646  1  0.88577283  0.65365817  0.13355465  1.0
  Ni  Ni647  1  0.88577283  0.98699150  0.13355465  1.0
  Zr  Zr648  1  0.22535683  0.01892617  0.20054715  1.0
  Zr  Zr649  1  0.22535683  0.35225950  0.20054715  1.0
  Zr  Zr650  1  0.22535683  0.68559283  0.20054715  1.0
  Zr  Zr651  1  0.55869017  0.01892617  0.20054715  1.0
  Zr  Zr652  1  0.55869017  0.35225950  0.20054715  1.0
  Zr  Zr653  1  0.55869017  0.68559283  0.20054715  1.0
  Zr  Zr654  1  0.89202350  0.01892617  0.20054715  1.0
  Zr  Zr655  1  0.89202350  0.35225950  0.20054715  1.0
  Zr  Zr656  1  0.89202350  0.68559283  0.20054715  1.0
  Zr  Zr657  1  0.05869017  0.18559283  0.24221381  1.0
  Zr  Zr658  1  0.05869017  0.51892617  0.24221381  1.0
  Zr  Zr659  1  0.05869017  0.85225950  0.24221381  1.0
  Zr  Zr660  1  0.39202350  0.18559283  0.24221381  1.0
  Zr  Zr661  1  0.39202350  0.51892617  0.24221381  1.0
  Zr  Zr662  1  0.39202350  0.85225950  0.24221381  1.0
  Zr  Zr663  1  0.72535683  0.18559283  0.24221381  1.0
  Zr  Zr664  1  0.72535683  0.51892617  0.24221381  1.0
  Zr  Zr665  1  0.72535683  0.85225950  0.24221381  1.0
  Zr  Zr666  1  0.19938033  0.06421233  0.19888044  1.0
  Zr  Zr667  1  0.19938033  0.39754567  0.19888044  1.0
  Zr  Zr668  1  0.19938033  0.73087900  0.19888044  1.0
  Zr  Zr669  1  0.53271367  0.06421233  0.19888044  1.0
  Zr  Zr670  1  0.53271367  0.39754567  0.19888044  1.0
  Zr  Zr671  1  0.53271367  0.73087900  0.19888044  1.0
  Zr  Zr672  1  0.86604700  0.06421233  0.19888044  1.0
  Zr  Zr673  1  0.86604700  0.39754567  0.19888044  1.0
  Zr  Zr674  1  0.86604700  0.73087900  0.19888044  1.0
  Zr  Zr675  1  0.03271367  0.23087900  0.24054710  1.0
  Zr  Zr676  1  0.03271367  0.56421233  0.24054710  1.0
  Zr  Zr677  1  0.03271367  0.89754567  0.24054710  1.0
  Zr  Zr678  1  0.36604700  0.23087900  0.24054710  1.0
  Zr  Zr679  1  0.36604700  0.56421233  0.24054710  1.0
  Zr  Zr680  1  0.36604700  0.89754567  0.24054710  1.0
  Zr  Zr681  1  0.69938033  0.23087900  0.24054710  1.0
  Zr  Zr682  1  0.69938033  0.56421233  0.24054710  1.0
  Zr  Zr683  1  0.69938033  0.89754567  0.24054710  1.0
  Zr  Zr684  1  0.30061967  0.10245433  0.17572727  1.0
  Zr  Zr685  1  0.30061967  0.43578767  0.17572727  1.0
  Zr  Zr686  1  0.30061967  0.76912100  0.17572727  1.0
  Zr  Zr687  1  0.63395300  0.10245433  0.17572727  1.0
  Zr  Zr688  1  0.63395300  0.43578767  0.17572727  1.0
  Zr  Zr689  1  0.63395300  0.76912100  0.17572727  1.0
  Zr  Zr690  1  0.96728633  0.10245433  0.17572727  1.0
  Zr  Zr691  1  0.96728633  0.43578767  0.17572727  1.0
  Zr  Zr692  1  0.96728633  0.76912100  0.17572727  1.0
  Zr  Zr693  1  0.13395300  0.26912100  0.21739394  1.0
  Zr  Zr694  1  0.13395300  0.60245433  0.21739394  1.0
  Zr  Zr695  1  0.13395300  0.93578767  0.21739394  1.0
  Zr  Zr696  1  0.46728633  0.26912100  0.21739394  1.0
  Zr  Zr697  1  0.46728633  0.60245433  0.21739394  1.0
  Zr  Zr698  1  0.46728633  0.93578767  0.21739394  1.0
  Zr  Zr699  1  0.80061967  0.26912100  0.21739394  1.0
  Zr  Zr700  1  0.80061967  0.60245433  0.21739394  1.0
  Zr  Zr701  1  0.80061967  0.93578767  0.21739394  1.0
  Zr  Zr702  1  0.27464317  0.14774050  0.17406056  1.0
  Zr  Zr703  1  0.27464317  0.48107383  0.17406056  1.0
  Zr  Zr704  1  0.27464317  0.81440717  0.17406056  1.0
  Zr  Zr705  1  0.60797650  0.14774050  0.17406056  1.0
  Zr  Zr706  1  0.60797650  0.48107383  0.17406056  1.0
  Zr  Zr707  1  0.60797650  0.81440717  0.17406056  1.0
  Zr  Zr708  1  0.94130983  0.14774050  0.17406056  1.0
  Zr  Zr709  1  0.94130983  0.48107383  0.17406056  1.0
  Zr  Zr710  1  0.94130983  0.81440717  0.17406056  1.0
  Zr  Zr711  1  0.10797650  0.31440717  0.21572723  1.0
  Zr  Zr712  1  0.10797650  0.64774050  0.21572723  1.0
  Zr  Zr713  1  0.10797650  0.98107383  0.21572723  1.0
  Zr  Zr714  1  0.44130983  0.31440717  0.21572723  1.0
  Zr  Zr715  1  0.44130983  0.64774050  0.21572723  1.0
  Zr  Zr716  1  0.44130983  0.98107383  0.21572723  1.0
  Zr  Zr717  1  0.77464317  0.31440717  0.21572723  1.0
  Zr  Zr718  1  0.77464317  0.64774050  0.21572723  1.0
  Zr  Zr719  1  0.77464317  0.98107383  0.21572723  1.0
  Ni  Ni720  1  0.00442783  0.01300850  0.19938640  1.0
  Ni  Ni721  1  0.00442783  0.34634183  0.19938640  1.0
  Ni  Ni722  1  0.00442783  0.67967517  0.19938640  1.0
  Ni  Ni723  1  0.33776117  0.01300850  0.19938640  1.0
  Ni  Ni724  1  0.33776117  0.34634183  0.19938640  1.0
  Ni  Ni725  1  0.33776117  0.67967517  0.19938640  1.0
  Ni  Ni726  1  0.67109450  0.01300850  0.19938640  1.0
  Ni  Ni727  1  0.67109450  0.34634183  0.19938640  1.0
  Ni  Ni728  1  0.67109450  0.67967517  0.19938640  1.0
  Ni  Ni729  1  0.17109450  0.17967517  0.24105306  1.0
  Ni  Ni730  1  0.17109450  0.51300850  0.24105306  1.0
  Ni  Ni731  1  0.17109450  0.84634183  0.24105306  1.0
  Ni  Ni732  1  0.50442783  0.17967517  0.24105306  1.0
  Ni  Ni733  1  0.50442783  0.51300850  0.24105306  1.0
  Ni  Ni734  1  0.50442783  0.84634183  0.24105306  1.0
  Ni  Ni735  1  0.83776117  0.17967517  0.24105306  1.0
  Ni  Ni736  1  0.83776117  0.51300850  0.24105306  1.0
  Ni  Ni737  1  0.83776117  0.84634183  0.24105306  1.0
  Ni  Ni738  1  0.11422717  0.01300850  0.19938640  1.0
  Ni  Ni739  1  0.11422717  0.34634183  0.19938640  1.0
  Ni  Ni740  1  0.11422717  0.67967517  0.19938640  1.0
  Ni  Ni741  1  0.44756050  0.01300850  0.19938640  1.0
  Ni  Ni742  1  0.44756050  0.34634183  0.19938640  1.0
  Ni  Ni743  1  0.44756050  0.67967517  0.19938640  1.0
  Ni  Ni744  1  0.78089383  0.01300850  0.19938640  1.0
  Ni  Ni745  1  0.78089383  0.34634183  0.19938640  1.0
  Ni  Ni746  1  0.78089383  0.67967517  0.19938640  1.0
  Ni  Ni747  1  0.28089383  0.17967517  0.24105306  1.0
  Ni  Ni748  1  0.28089383  0.51300850  0.24105306  1.0
  Ni  Ni749  1  0.28089383  0.84634183  0.24105306  1.0
  Ni  Ni750  1  0.61422717  0.17967517  0.24105306  1.0
  Ni  Ni751  1  0.61422717  0.51300850  0.24105306  1.0
  Ni  Ni752  1  0.61422717  0.84634183  0.24105306  1.0
  Ni  Ni753  1  0.94756050  0.17967517  0.24105306  1.0
  Ni  Ni754  1  0.94756050  0.51300850  0.24105306  1.0
  Ni  Ni755  1  0.94756050  0.84634183  0.24105306  1.0
  Ni  Ni756  1  0.21342667  0.04163267  0.24228819  1.0
  Ni  Ni757  1  0.21342667  0.37496600  0.24228819  1.0
  Ni  Ni758  1  0.21342667  0.70829933  0.24228819  1.0
  Ni  Ni759  1  0.54676000  0.04163267  0.24228819  1.0
  Ni  Ni760  1  0.54676000  0.37496600  0.24228819  1.0
  Ni  Ni761  1  0.54676000  0.70829933  0.24228819  1.0
  Ni  Ni762  1  0.88009333  0.04163267  0.24228819  1.0
  Ni  Ni763  1  0.88009333  0.37496600  0.24228819  1.0
  Ni  Ni764  1  0.88009333  0.70829933  0.24228819  1.0
  Ni  Ni765  1  0.04676000  0.20829933  0.20062152  1.0
  Ni  Ni766  1  0.04676000  0.54163267  0.20062152  1.0
  Ni  Ni767  1  0.04676000  0.87496600  0.20062152  1.0
  Ni  Ni768  1  0.38009333  0.20829933  0.20062152  1.0
  Ni  Ni769  1  0.38009333  0.54163267  0.20062152  1.0
  Ni  Ni770  1  0.38009333  0.87496600  0.20062152  1.0
  Ni  Ni771  1  0.71342667  0.20829933  0.20062152  1.0
  Ni  Ni772  1  0.71342667  0.54163267  0.20062152  1.0
  Ni  Ni773  1  0.71342667  0.87496600  0.20062152  1.0
  Ni  Ni774  1  0.04821133  0.04163267  0.24228819  1.0
  Ni  Ni775  1  0.04821133  0.37496600  0.24228819  1.0
  Ni  Ni776  1  0.04821133  0.70829933  0.24228819  1.0
  Ni  Ni777  1  0.38154467  0.04163267  0.24228819  1.0
  Ni  Ni778  1  0.38154467  0.37496600  0.24228819  1.0
  Ni  Ni779  1  0.38154467  0.70829933  0.24228819  1.0
  Ni  Ni780  1  0.71487800  0.04163267  0.24228819  1.0
  Ni  Ni781  1  0.71487800  0.37496600  0.24228819  1.0
  Ni  Ni782  1  0.71487800  0.70829933  0.24228819  1.0
  Ni  Ni783  1  0.21487800  0.20829933  0.20062152  1.0
  Ni  Ni784  1  0.21487800  0.54163267  0.20062152  1.0
  Ni  Ni785  1  0.21487800  0.87496600  0.20062152  1.0
  Ni  Ni786  1  0.54821133  0.20829933  0.20062152  1.0
  Ni  Ni787  1  0.54821133  0.54163267  0.20062152  1.0
  Ni  Ni788  1  0.54821133  0.87496600  0.20062152  1.0
  Ni  Ni789  1  0.88154467  0.20829933  0.20062152  1.0
  Ni  Ni790  1  0.88154467  0.54163267  0.20062152  1.0
  Ni  Ni791  1  0.88154467  0.87496600  0.20062152  1.0
  Ni  Ni792  1  0.04527383  0.04173417  0.19954098  1.0
  Ni  Ni793  1  0.04527383  0.37506750  0.19954098  1.0
  Ni  Ni794  1  0.04527383  0.70840083  0.19954098  1.0
  Ni  Ni795  1  0.37860717  0.04173417  0.19954098  1.0
  Ni  Ni796  1  0.37860717  0.37506750  0.19954098  1.0
  Ni  Ni797  1  0.37860717  0.70840083  0.19954098  1.0
  Ni  Ni798  1  0.71194050  0.04173417  0.19954098  1.0
  Ni  Ni799  1  0.71194050  0.37506750  0.19954098  1.0
  Ni  Ni800  1  0.71194050  0.70840083  0.19954098  1.0
  Ni  Ni801  1  0.21194050  0.20840083  0.24120765  1.0
  Ni  Ni802  1  0.21194050  0.54173417  0.24120765  1.0
  Ni  Ni803  1  0.21194050  0.87506750  0.24120765  1.0
  Ni  Ni804  1  0.54527383  0.20840083  0.24120765  1.0
  Ni  Ni805  1  0.54527383  0.54173417  0.24120765  1.0
  Ni  Ni806  1  0.54527383  0.87506750  0.24120765  1.0
  Ni  Ni807  1  0.87860717  0.20840083  0.24120765  1.0
  Ni  Ni808  1  0.87860717  0.54173417  0.24120765  1.0
  Ni  Ni809  1  0.87860717  0.87506750  0.24120765  1.0
  Ni  Ni810  1  0.08695967  0.07032767  0.19977869  1.0
  Ni  Ni811  1  0.08695967  0.40366100  0.19977869  1.0
  Ni  Ni812  1  0.08695967  0.73699433  0.19977869  1.0
  Ni  Ni813  1  0.42029300  0.07032767  0.19977869  1.0
  Ni  Ni814  1  0.42029300  0.40366100  0.19977869  1.0
  Ni  Ni815  1  0.42029300  0.73699433  0.19977869  1.0
  Ni  Ni816  1  0.75362633  0.07032767  0.19977869  1.0
  Ni  Ni817  1  0.75362633  0.40366100  0.19977869  1.0
  Ni  Ni818  1  0.75362633  0.73699433  0.19977869  1.0
  Ni  Ni819  1  0.25362633  0.23699433  0.24144535  1.0
  Ni  Ni820  1  0.25362633  0.57032767  0.24144535  1.0
  Ni  Ni821  1  0.25362633  0.90366100  0.24144535  1.0
  Ni  Ni822  1  0.58695967  0.23699433  0.24144535  1.0
  Ni  Ni823  1  0.58695967  0.57032767  0.24144535  1.0
  Ni  Ni824  1  0.58695967  0.90366100  0.24144535  1.0
  Ni  Ni825  1  0.92029300  0.23699433  0.24144535  1.0
  Ni  Ni826  1  0.92029300  0.57032767  0.24144535  1.0
  Ni  Ni827  1  0.92029300  0.90366100  0.24144535  1.0
  Ni  Ni828  1  0.30927867  0.07032767  0.19977869  1.0
  Ni  Ni829  1  0.30927867  0.40366100  0.19977869  1.0
  Ni  Ni830  1  0.30927867  0.73699433  0.19977869  1.0
  Ni  Ni831  1  0.64261200  0.07032767  0.19977869  1.0
  Ni  Ni832  1  0.64261200  0.40366100  0.19977869  1.0
  Ni  Ni833  1  0.64261200  0.73699433  0.19977869  1.0
  Ni  Ni834  1  0.97594533  0.07032767  0.19977869  1.0
  Ni  Ni835  1  0.97594533  0.40366100  0.19977869  1.0
  Ni  Ni836  1  0.97594533  0.73699433  0.19977869  1.0
  Ni  Ni837  1  0.14261200  0.23699433  0.24144535  1.0
  Ni  Ni838  1  0.14261200  0.57032767  0.24144535  1.0
  Ni  Ni839  1  0.14261200  0.90366100  0.24144535  1.0
  Ni  Ni840  1  0.47594533  0.23699433  0.24144535  1.0
  Ni  Ni841  1  0.47594533  0.57032767  0.24144535  1.0
  Ni  Ni842  1  0.47594533  0.90366100  0.24144535  1.0
  Ni  Ni843  1  0.80927867  0.23699433  0.24144535  1.0
  Ni  Ni844  1  0.80927867  0.57032767  0.24144535  1.0
  Ni  Ni845  1  0.80927867  0.90366100  0.24144535  1.0
  Ni  Ni846  1  0.07970700  0.09633900  0.17482902  1.0
  Ni  Ni847  1  0.07970700  0.42967233  0.17482902  1.0
  Ni  Ni848  1  0.07970700  0.76300567  0.17482902  1.0
  Ni  Ni849  1  0.41304033  0.09633900  0.17482902  1.0
  Ni  Ni850  1  0.41304033  0.42967233  0.17482902  1.0
  Ni  Ni851  1  0.41304033  0.76300567  0.17482902  1.0
  Ni  Ni852  1  0.74637367  0.09633900  0.17482902  1.0
  Ni  Ni853  1  0.74637367  0.42967233  0.17482902  1.0
  Ni  Ni854  1  0.74637367  0.76300567  0.17482902  1.0
  Ni  Ni855  1  0.24637367  0.26300567  0.21649569  1.0
  Ni  Ni856  1  0.24637367  0.59633900  0.21649569  1.0
  Ni  Ni857  1  0.24637367  0.92967233  0.21649569  1.0
  Ni  Ni858  1  0.57970700  0.26300567  0.21649569  1.0
  Ni  Ni859  1  0.57970700  0.59633900  0.21649569  1.0
  Ni  Ni860  1  0.57970700  0.92967233  0.21649569  1.0
  Ni  Ni861  1  0.91304033  0.26300567  0.21649569  1.0
  Ni  Ni862  1  0.91304033  0.59633900  0.21649569  1.0
  Ni  Ni863  1  0.91304033  0.92967233  0.21649569  1.0
  Ni  Ni864  1  0.19072133  0.09633900  0.17482902  1.0
  Ni  Ni865  1  0.19072133  0.42967233  0.17482902  1.0
  Ni  Ni866  1  0.19072133  0.76300567  0.17482902  1.0
  Ni  Ni867  1  0.52405467  0.09633900  0.17482902  1.0
  Ni  Ni868  1  0.52405467  0.42967233  0.17482902  1.0
  Ni  Ni869  1  0.52405467  0.76300567  0.17482902  1.0
  Ni  Ni870  1  0.85738800  0.09633900  0.17482902  1.0
  Ni  Ni871  1  0.85738800  0.42967233  0.17482902  1.0
  Ni  Ni872  1  0.85738800  0.76300567  0.17482902  1.0
  Ni  Ni873  1  0.02405467  0.26300567  0.21649569  1.0
  Ni  Ni874  1  0.02405467  0.59633900  0.21649569  1.0
  Ni  Ni875  1  0.02405467  0.92967233  0.21649569  1.0
  Ni  Ni876  1  0.35738800  0.26300567  0.21649569  1.0
  Ni  Ni877  1  0.35738800  0.59633900  0.21649569  1.0
  Ni  Ni878  1  0.35738800  0.92967233  0.21649569  1.0
  Ni  Ni879  1  0.69072133  0.26300567  0.21649569  1.0
  Ni  Ni880  1  0.69072133  0.59633900  0.21649569  1.0
  Ni  Ni881  1  0.69072133  0.92967233  0.21649569  1.0
  Ni  Ni882  1  0.12139283  0.12493250  0.17506673  1.0
  Ni  Ni883  1  0.12139283  0.45826583  0.17506673  1.0
  Ni  Ni884  1  0.12139283  0.79159917  0.17506673  1.0
  Ni  Ni885  1  0.45472617  0.12493250  0.17506673  1.0
  Ni  Ni886  1  0.45472617  0.45826583  0.17506673  1.0
  Ni  Ni887  1  0.45472617  0.79159917  0.17506673  1.0
  Ni  Ni888  1  0.78805950  0.12493250  0.17506673  1.0
  Ni  Ni889  1  0.78805950  0.45826583  0.17506673  1.0
  Ni  Ni890  1  0.78805950  0.79159917  0.17506673  1.0
  Ni  Ni891  1  0.28805950  0.29159917  0.21673340  1.0
  Ni  Ni892  1  0.28805950  0.62493250  0.21673340  1.0
  Ni  Ni893  1  0.28805950  0.95826583  0.21673340  1.0
  Ni  Ni894  1  0.62139283  0.29159917  0.21673340  1.0
  Ni  Ni895  1  0.62139283  0.62493250  0.21673340  1.0
  Ni  Ni896  1  0.62139283  0.95826583  0.21673340  1.0
  Ni  Ni897  1  0.95472617  0.29159917  0.21673340  1.0
  Ni  Ni898  1  0.95472617  0.62493250  0.21673340  1.0
  Ni  Ni899  1  0.95472617  0.95826583  0.21673340  1.0
  Ni  Ni900  1  0.28657333  0.12503400  0.21565285  1.0
  Ni  Ni901  1  0.28657333  0.45836733  0.21565285  1.0
  Ni  Ni902  1  0.28657333  0.79170067  0.21565285  1.0
  Ni  Ni903  1  0.61990667  0.12503400  0.21565285  1.0
  Ni  Ni904  1  0.61990667  0.45836733  0.21565285  1.0
  Ni  Ni905  1  0.61990667  0.79170067  0.21565285  1.0
  Ni  Ni906  1  0.95324000  0.12503400  0.21565285  1.0
  Ni  Ni907  1  0.95324000  0.45836733  0.21565285  1.0
  Ni  Ni908  1  0.95324000  0.79170067  0.21565285  1.0
  Ni  Ni909  1  0.11990667  0.29170067  0.17398619  1.0
  Ni  Ni910  1  0.11990667  0.62503400  0.17398619  1.0
  Ni  Ni911  1  0.11990667  0.95836733  0.17398619  1.0
  Ni  Ni912  1  0.45324000  0.29170067  0.17398619  1.0
  Ni  Ni913  1  0.45324000  0.62503400  0.17398619  1.0
  Ni  Ni914  1  0.45324000  0.95836733  0.17398619  1.0
  Ni  Ni915  1  0.78657333  0.29170067  0.17398619  1.0
  Ni  Ni916  1  0.78657333  0.62503400  0.17398619  1.0
  Ni  Ni917  1  0.78657333  0.95836733  0.17398619  1.0
  Ni  Ni918  1  0.11845533  0.12503400  0.21565285  1.0
  Ni  Ni919  1  0.11845533  0.45836733  0.21565285  1.0
  Ni  Ni920  1  0.11845533  0.79170067  0.21565285  1.0
  Ni  Ni921  1  0.45178867  0.12503400  0.21565285  1.0
  Ni  Ni922  1  0.45178867  0.45836733  0.21565285  1.0
  Ni  Ni923  1  0.45178867  0.79170067  0.21565285  1.0
  Ni  Ni924  1  0.78512200  0.12503400  0.21565285  1.0
  Ni  Ni925  1  0.78512200  0.45836733  0.21565285  1.0
  Ni  Ni926  1  0.78512200  0.79170067  0.21565285  1.0
  Ni  Ni927  1  0.28512200  0.29170067  0.17398619  1.0
  Ni  Ni928  1  0.28512200  0.62503400  0.17398619  1.0
  Ni  Ni929  1  0.28512200  0.95836733  0.17398619  1.0
  Ni  Ni930  1  0.61845533  0.29170067  0.17398619  1.0
  Ni  Ni931  1  0.61845533  0.62503400  0.17398619  1.0
  Ni  Ni932  1  0.61845533  0.95836733  0.17398619  1.0
  Ni  Ni933  1  0.95178867  0.29170067  0.17398619  1.0
  Ni  Ni934  1  0.95178867  0.62503400  0.17398619  1.0
  Ni  Ni935  1  0.95178867  0.95836733  0.17398619  1.0
  Ni  Ni936  1  0.16223883  0.15365817  0.17522131  1.0
  Ni  Ni937  1  0.16223883  0.48699150  0.17522131  1.0
  Ni  Ni938  1  0.16223883  0.82032483  0.17522131  1.0
  Ni  Ni939  1  0.49557217  0.15365817  0.17522131  1.0
  Ni  Ni940  1  0.49557217  0.48699150  0.17522131  1.0
  Ni  Ni941  1  0.49557217  0.82032483  0.17522131  1.0
  Ni  Ni942  1  0.82890550  0.15365817  0.17522131  1.0
  Ni  Ni943  1  0.82890550  0.48699150  0.17522131  1.0
  Ni  Ni944  1  0.82890550  0.82032483  0.17522131  1.0
  Ni  Ni945  1  0.32890550  0.32032483  0.21688798  1.0
  Ni  Ni946  1  0.32890550  0.65365817  0.21688798  1.0
  Ni  Ni947  1  0.32890550  0.98699150  0.21688798  1.0
  Ni  Ni948  1  0.66223883  0.32032483  0.21688798  1.0
  Ni  Ni949  1  0.66223883  0.65365817  0.21688798  1.0
  Ni  Ni950  1  0.66223883  0.98699150  0.21688798  1.0
  Ni  Ni951  1  0.99557217  0.32032483  0.21688798  1.0
  Ni  Ni952  1  0.99557217  0.65365817  0.21688798  1.0
  Ni  Ni953  1  0.99557217  0.98699150  0.21688798  1.0
  Ni  Ni954  1  0.05243950  0.15365817  0.17522131  1.0
  Ni  Ni955  1  0.05243950  0.48699150  0.17522131  1.0
  Ni  Ni956  1  0.05243950  0.82032483  0.17522131  1.0
  Ni  Ni957  1  0.38577283  0.15365817  0.17522131  1.0
  Ni  Ni958  1  0.38577283  0.48699150  0.17522131  1.0
  Ni  Ni959  1  0.38577283  0.82032483  0.17522131  1.0
  Ni  Ni960  1  0.71910617  0.15365817  0.17522131  1.0
  Ni  Ni961  1  0.71910617  0.48699150  0.17522131  1.0
  Ni  Ni962  1  0.71910617  0.82032483  0.17522131  1.0
  Ni  Ni963  1  0.21910617  0.32032483  0.21688798  1.0
  Ni  Ni964  1  0.21910617  0.65365817  0.21688798  1.0
  Ni  Ni965  1  0.21910617  0.98699150  0.21688798  1.0
  Ni  Ni966  1  0.55243950  0.32032483  0.21688798  1.0
  Ni  Ni967  1  0.55243950  0.65365817  0.21688798  1.0
  Ni  Ni968  1  0.55243950  0.98699150  0.21688798  1.0
  Ni  Ni969  1  0.88577283  0.32032483  0.21688798  1.0
  Ni  Ni970  1  0.88577283  0.65365817  0.21688798  1.0
  Ni  Ni971  1  0.88577283  0.98699150  0.21688798  1.0
  Zr  Zr972  1  0.22535683  0.01892617  0.28388048  1.0
  Zr  Zr973  1  0.22535683  0.35225950  0.28388048  1.0
  Zr  Zr974  1  0.22535683  0.68559283  0.28388048  1.0
  Zr  Zr975  1  0.55869017  0.01892617  0.28388048  1.0
  Zr  Zr976  1  0.55869017  0.35225950  0.28388048  1.0
  Zr  Zr977  1  0.55869017  0.68559283  0.28388048  1.0
  Zr  Zr978  1  0.89202350  0.01892617  0.28388048  1.0
  Zr  Zr979  1  0.89202350  0.35225950  0.28388048  1.0
  Zr  Zr980  1  0.89202350  0.68559283  0.28388048  1.0
  Zr  Zr981  1  0.05869017  0.18559283  0.32554715  1.0
  Zr  Zr982  1  0.05869017  0.51892617  0.32554715  1.0
  Zr  Zr983  1  0.05869017  0.85225950  0.32554715  1.0
  Zr  Zr984  1  0.39202350  0.18559283  0.32554715  1.0
  Zr  Zr985  1  0.39202350  0.51892617  0.32554715  1.0
  Zr  Zr986  1  0.39202350  0.85225950  0.32554715  1.0
  Zr  Zr987  1  0.72535683  0.18559283  0.32554715  1.0
  Zr  Zr988  1  0.72535683  0.51892617  0.32554715  1.0
  Zr  Zr989  1  0.72535683  0.85225950  0.32554715  1.0
  Zr  Zr990  1  0.19938033  0.06421233  0.28221377  1.0
  Zr  Zr991  1  0.19938033  0.39754567  0.28221377  1.0
  Zr  Zr992  1  0.19938033  0.73087900  0.28221377  1.0
  Zr  Zr993  1  0.53271367  0.06421233  0.28221377  1.0
  Zr  Zr994  1  0.53271367  0.39754567  0.28221377  1.0
  Zr  Zr995  1  0.53271367  0.73087900  0.28221377  1.0
  Zr  Zr996  1  0.86604700  0.06421233  0.28221377  1.0
  Zr  Zr997  1  0.86604700  0.39754567  0.28221377  1.0
  Zr  Zr998  1  0.86604700  0.73087900  0.28221377  1.0
  Zr  Zr999  1  0.03271367  0.23087900  0.32388044  1.0
  Zr  Zr1000  1  0.03271367  0.56421233  0.32388044  1.0
  Zr  Zr1001  1  0.03271367  0.89754567  0.32388044  1.0
  Zr  Zr1002  1  0.36604700  0.23087900  0.32388044  1.0
  Zr  Zr1003  1  0.36604700  0.56421233  0.32388044  1.0
  Zr  Zr1004  1  0.36604700  0.89754567  0.32388044  1.0
  Zr  Zr1005  1  0.69938033  0.23087900  0.32388044  1.0
  Zr  Zr1006  1  0.69938033  0.56421233  0.32388044  1.0
  Zr  Zr1007  1  0.69938033  0.89754567  0.32388044  1.0
  Zr  Zr1008  1  0.30061967  0.10245433  0.25906060  1.0
  Zr  Zr1009  1  0.30061967  0.43578767  0.25906060  1.0
  Zr  Zr1010  1  0.30061967  0.76912100  0.25906060  1.0
  Zr  Zr1011  1  0.63395300  0.10245433  0.25906060  1.0
  Zr  Zr1012  1  0.63395300  0.43578767  0.25906060  1.0
  Zr  Zr1013  1  0.63395300  0.76912100  0.25906060  1.0
  Zr  Zr1014  1  0.96728633  0.10245433  0.25906060  1.0
  Zr  Zr1015  1  0.96728633  0.43578767  0.25906060  1.0
  Zr  Zr1016  1  0.96728633  0.76912100  0.25906060  1.0
  Zr  Zr1017  1  0.13395300  0.26912100  0.30072727  1.0
  Zr  Zr1018  1  0.13395300  0.60245433  0.30072727  1.0
  Zr  Zr1019  1  0.13395300  0.93578767  0.30072727  1.0
  Zr  Zr1020  1  0.46728633  0.26912100  0.30072727  1.0
  Zr  Zr1021  1  0.46728633  0.60245433  0.30072727  1.0
  Zr  Zr1022  1  0.46728633  0.93578767  0.30072727  1.0
  Zr  Zr1023  1  0.80061967  0.26912100  0.30072727  1.0
  Zr  Zr1024  1  0.80061967  0.60245433  0.30072727  1.0
  Zr  Zr1025  1  0.80061967  0.93578767  0.30072727  1.0
  Zr  Zr1026  1  0.27464317  0.14774050  0.25739390  1.0
  Zr  Zr1027  1  0.27464317  0.48107383  0.25739390  1.0
  Zr  Zr1028  1  0.27464317  0.81440717  0.25739390  1.0
  Zr  Zr1029  1  0.60797650  0.14774050  0.25739390  1.0
  Zr  Zr1030  1  0.60797650  0.48107383  0.25739390  1.0
  Zr  Zr1031  1  0.60797650  0.81440717  0.25739390  1.0
  Zr  Zr1032  1  0.94130983  0.14774050  0.25739390  1.0
  Zr  Zr1033  1  0.94130983  0.48107383  0.25739390  1.0
  Zr  Zr1034  1  0.94130983  0.81440717  0.25739390  1.0
  Zr  Zr1035  1  0.10797650  0.31440717  0.29906056  1.0
  Zr  Zr1036  1  0.10797650  0.64774050  0.29906056  1.0
  Zr  Zr1037  1  0.10797650  0.98107383  0.29906056  1.0
  Zr  Zr1038  1  0.44130983  0.31440717  0.29906056  1.0
  Zr  Zr1039  1  0.44130983  0.64774050  0.29906056  1.0
  Zr  Zr1040  1  0.44130983  0.98107383  0.29906056  1.0
  Zr  Zr1041  1  0.77464317  0.31440717  0.29906056  1.0
  Zr  Zr1042  1  0.77464317  0.64774050  0.29906056  1.0
  Zr  Zr1043  1  0.77464317  0.98107383  0.29906056  1.0
  Ni  Ni1044  1  0.00442783  0.01300850  0.28271973  1.0
  Ni  Ni1045  1  0.00442783  0.34634183  0.28271973  1.0
  Ni  Ni1046  1  0.00442783  0.67967517  0.28271973  1.0
  Ni  Ni1047  1  0.33776117  0.01300850  0.28271973  1.0
  Ni  Ni1048  1  0.33776117  0.34634183  0.28271973  1.0
  Ni  Ni1049  1  0.33776117  0.67967517  0.28271973  1.0
  Ni  Ni1050  1  0.67109450  0.01300850  0.28271973  1.0
  Ni  Ni1051  1  0.67109450  0.34634183  0.28271973  1.0
  Ni  Ni1052  1  0.67109450  0.67967517  0.28271973  1.0
  Ni  Ni1053  1  0.17109450  0.17967517  0.32438640  1.0
  Ni  Ni1054  1  0.17109450  0.51300850  0.32438640  1.0
  Ni  Ni1055  1  0.17109450  0.84634183  0.32438640  1.0
  Ni  Ni1056  1  0.50442783  0.17967517  0.32438640  1.0
  Ni  Ni1057  1  0.50442783  0.51300850  0.32438640  1.0
  Ni  Ni1058  1  0.50442783  0.84634183  0.32438640  1.0
  Ni  Ni1059  1  0.83776117  0.17967517  0.32438640  1.0
  Ni  Ni1060  1  0.83776117  0.51300850  0.32438640  1.0
  Ni  Ni1061  1  0.83776117  0.84634183  0.32438640  1.0
  Ni  Ni1062  1  0.11422717  0.01300850  0.28271973  1.0
  Ni  Ni1063  1  0.11422717  0.34634183  0.28271973  1.0
  Ni  Ni1064  1  0.11422717  0.67967517  0.28271973  1.0
  Ni  Ni1065  1  0.44756050  0.01300850  0.28271973  1.0
  Ni  Ni1066  1  0.44756050  0.34634183  0.28271973  1.0
  Ni  Ni1067  1  0.44756050  0.67967517  0.28271973  1.0
  Ni  Ni1068  1  0.78089383  0.01300850  0.28271973  1.0
  Ni  Ni1069  1  0.78089383  0.34634183  0.28271973  1.0
  Ni  Ni1070  1  0.78089383  0.67967517  0.28271973  1.0
  Ni  Ni1071  1  0.28089383  0.17967517  0.32438640  1.0
  Ni  Ni1072  1  0.28089383  0.51300850  0.32438640  1.0
  Ni  Ni1073  1  0.28089383  0.84634183  0.32438640  1.0
  Ni  Ni1074  1  0.61422717  0.17967517  0.32438640  1.0
  Ni  Ni1075  1  0.61422717  0.51300850  0.32438640  1.0
  Ni  Ni1076  1  0.61422717  0.84634183  0.32438640  1.0
  Ni  Ni1077  1  0.94756050  0.17967517  0.32438640  1.0
  Ni  Ni1078  1  0.94756050  0.51300850  0.32438640  1.0
  Ni  Ni1079  1  0.94756050  0.84634183  0.32438640  1.0
  Ni  Ni1080  1  0.21342667  0.04163267  0.32562152  1.0
  Ni  Ni1081  1  0.21342667  0.37496600  0.32562152  1.0
  Ni  Ni1082  1  0.21342667  0.70829933  0.32562152  1.0
  Ni  Ni1083  1  0.54676000  0.04163267  0.32562152  1.0
  Ni  Ni1084  1  0.54676000  0.37496600  0.32562152  1.0
  Ni  Ni1085  1  0.54676000  0.70829933  0.32562152  1.0
  Ni  Ni1086  1  0.88009333  0.04163267  0.32562152  1.0
  Ni  Ni1087  1  0.88009333  0.37496600  0.32562152  1.0
  Ni  Ni1088  1  0.88009333  0.70829933  0.32562152  1.0
  Ni  Ni1089  1  0.04676000  0.20829933  0.28395485  1.0
  Ni  Ni1090  1  0.04676000  0.54163267  0.28395485  1.0
  Ni  Ni1091  1  0.04676000  0.87496600  0.28395485  1.0
  Ni  Ni1092  1  0.38009333  0.20829933  0.28395485  1.0
  Ni  Ni1093  1  0.38009333  0.54163267  0.28395485  1.0
  Ni  Ni1094  1  0.38009333  0.87496600  0.28395485  1.0
  Ni  Ni1095  1  0.71342667  0.20829933  0.28395485  1.0
  Ni  Ni1096  1  0.71342667  0.54163267  0.28395485  1.0
  Ni  Ni1097  1  0.71342667  0.87496600  0.28395485  1.0
  Ni  Ni1098  1  0.04821133  0.04163267  0.32562152  1.0
  Ni  Ni1099  1  0.04821133  0.37496600  0.32562152  1.0
  Ni  Ni1100  1  0.04821133  0.70829933  0.32562152  1.0
  Ni  Ni1101  1  0.38154467  0.04163267  0.32562152  1.0
  Ni  Ni1102  1  0.38154467  0.37496600  0.32562152  1.0
  Ni  Ni1103  1  0.38154467  0.70829933  0.32562152  1.0
  Ni  Ni1104  1  0.71487800  0.04163267  0.32562152  1.0
  Ni  Ni1105  1  0.71487800  0.37496600  0.32562152  1.0
  Ni  Ni1106  1  0.71487800  0.70829933  0.32562152  1.0
  Ni  Ni1107  1  0.21487800  0.20829933  0.28395485  1.0
  Ni  Ni1108  1  0.21487800  0.54163267  0.28395485  1.0
  Ni  Ni1109  1  0.21487800  0.87496600  0.28395485  1.0
  Ni  Ni1110  1  0.54821133  0.20829933  0.28395485  1.0
  Ni  Ni1111  1  0.54821133  0.54163267  0.28395485  1.0
  Ni  Ni1112  1  0.54821133  0.87496600  0.28395485  1.0
  Ni  Ni1113  1  0.88154467  0.20829933  0.28395485  1.0
  Ni  Ni1114  1  0.88154467  0.54163267  0.28395485  1.0
  Ni  Ni1115  1  0.88154467  0.87496600  0.28395485  1.0
  Ni  Ni1116  1  0.04527383  0.04173417  0.28287431  1.0
  Ni  Ni1117  1  0.04527383  0.37506750  0.28287431  1.0
  Ni  Ni1118  1  0.04527383  0.70840083  0.28287431  1.0
  Ni  Ni1119  1  0.37860717  0.04173417  0.28287431  1.0
  Ni  Ni1120  1  0.37860717  0.37506750  0.28287431  1.0
  Ni  Ni1121  1  0.37860717  0.70840083  0.28287431  1.0
  Ni  Ni1122  1  0.71194050  0.04173417  0.28287431  1.0
  Ni  Ni1123  1  0.71194050  0.37506750  0.28287431  1.0
  Ni  Ni1124  1  0.71194050  0.70840083  0.28287431  1.0
  Ni  Ni1125  1  0.21194050  0.20840083  0.32454098  1.0
  Ni  Ni1126  1  0.21194050  0.54173417  0.32454098  1.0
  Ni  Ni1127  1  0.21194050  0.87506750  0.32454098  1.0
  Ni  Ni1128  1  0.54527383  0.20840083  0.32454098  1.0
  Ni  Ni1129  1  0.54527383  0.54173417  0.32454098  1.0
  Ni  Ni1130  1  0.54527383  0.87506750  0.32454098  1.0
  Ni  Ni1131  1  0.87860717  0.20840083  0.32454098  1.0
  Ni  Ni1132  1  0.87860717  0.54173417  0.32454098  1.0
  Ni  Ni1133  1  0.87860717  0.87506750  0.32454098  1.0
  Ni  Ni1134  1  0.08695967  0.07032767  0.28311202  1.0
  Ni  Ni1135  1  0.08695967  0.40366100  0.28311202  1.0
  Ni  Ni1136  1  0.08695967  0.73699433  0.28311202  1.0
  Ni  Ni1137  1  0.42029300  0.07032767  0.28311202  1.0
  Ni  Ni1138  1  0.42029300  0.40366100  0.28311202  1.0
  Ni  Ni1139  1  0.42029300  0.73699433  0.28311202  1.0
  Ni  Ni1140  1  0.75362633  0.07032767  0.28311202  1.0
  Ni  Ni1141  1  0.75362633  0.40366100  0.28311202  1.0
  Ni  Ni1142  1  0.75362633  0.73699433  0.28311202  1.0
  Ni  Ni1143  1  0.25362633  0.23699433  0.32477869  1.0
  Ni  Ni1144  1  0.25362633  0.57032767  0.32477869  1.0
  Ni  Ni1145  1  0.25362633  0.90366100  0.32477869  1.0
  Ni  Ni1146  1  0.58695967  0.23699433  0.32477869  1.0
  Ni  Ni1147  1  0.58695967  0.57032767  0.32477869  1.0
  Ni  Ni1148  1  0.58695967  0.90366100  0.32477869  1.0
  Ni  Ni1149  1  0.92029300  0.23699433  0.32477869  1.0
  Ni  Ni1150  1  0.92029300  0.57032767  0.32477869  1.0
  Ni  Ni1151  1  0.92029300  0.90366100  0.32477869  1.0
  Ni  Ni1152  1  0.30927867  0.07032767  0.28311202  1.0
  Ni  Ni1153  1  0.30927867  0.40366100  0.28311202  1.0
  Ni  Ni1154  1  0.30927867  0.73699433  0.28311202  1.0
  Ni  Ni1155  1  0.64261200  0.07032767  0.28311202  1.0
  Ni  Ni1156  1  0.64261200  0.40366100  0.28311202  1.0
  Ni  Ni1157  1  0.64261200  0.73699433  0.28311202  1.0
  Ni  Ni1158  1  0.97594533  0.07032767  0.28311202  1.0
  Ni  Ni1159  1  0.97594533  0.40366100  0.28311202  1.0
  Ni  Ni1160  1  0.97594533  0.73699433  0.28311202  1.0
  Ni  Ni1161  1  0.14261200  0.23699433  0.32477869  1.0
  Ni  Ni1162  1  0.14261200  0.57032767  0.32477869  1.0
  Ni  Ni1163  1  0.14261200  0.90366100  0.32477869  1.0
  Ni  Ni1164  1  0.47594533  0.23699433  0.32477869  1.0
  Ni  Ni1165  1  0.47594533  0.57032767  0.32477869  1.0
  Ni  Ni1166  1  0.47594533  0.90366100  0.32477869  1.0
  Ni  Ni1167  1  0.80927867  0.23699433  0.32477869  1.0
  Ni  Ni1168  1  0.80927867  0.57032767  0.32477869  1.0
  Ni  Ni1169  1  0.80927867  0.90366100  0.32477869  1.0
  Ni  Ni1170  1  0.07970700  0.09633900  0.25816235  1.0
  Ni  Ni1171  1  0.07970700  0.42967233  0.25816235  1.0
  Ni  Ni1172  1  0.07970700  0.76300567  0.25816235  1.0
  Ni  Ni1173  1  0.41304033  0.09633900  0.25816235  1.0
  Ni  Ni1174  1  0.41304033  0.42967233  0.25816235  1.0
  Ni  Ni1175  1  0.41304033  0.76300567  0.25816235  1.0
  Ni  Ni1176  1  0.74637367  0.09633900  0.25816235  1.0
  Ni  Ni1177  1  0.74637367  0.42967233  0.25816235  1.0
  Ni  Ni1178  1  0.74637367  0.76300567  0.25816235  1.0
  Ni  Ni1179  1  0.24637367  0.26300567  0.29982902  1.0
  Ni  Ni1180  1  0.24637367  0.59633900  0.29982902  1.0
  Ni  Ni1181  1  0.24637367  0.92967233  0.29982902  1.0
  Ni  Ni1182  1  0.57970700  0.26300567  0.29982902  1.0
  Ni  Ni1183  1  0.57970700  0.59633900  0.29982902  1.0
  Ni  Ni1184  1  0.57970700  0.92967233  0.29982902  1.0
  Ni  Ni1185  1  0.91304033  0.26300567  0.29982902  1.0
  Ni  Ni1186  1  0.91304033  0.59633900  0.29982902  1.0
  Ni  Ni1187  1  0.91304033  0.92967233  0.29982902  1.0
  Ni  Ni1188  1  0.19072133  0.09633900  0.25816235  1.0
  Ni  Ni1189  1  0.19072133  0.42967233  0.25816235  1.0
  Ni  Ni1190  1  0.19072133  0.76300567  0.25816235  1.0
  Ni  Ni1191  1  0.52405467  0.09633900  0.25816235  1.0
  Ni  Ni1192  1  0.52405467  0.42967233  0.25816235  1.0
  Ni  Ni1193  1  0.52405467  0.76300567  0.25816235  1.0
  Ni  Ni1194  1  0.85738800  0.09633900  0.25816235  1.0
  Ni  Ni1195  1  0.85738800  0.42967233  0.25816235  1.0
  Ni  Ni1196  1  0.85738800  0.76300567  0.25816235  1.0
  Ni  Ni1197  1  0.02405467  0.26300567  0.29982902  1.0
  Ni  Ni1198  1  0.02405467  0.59633900  0.29982902  1.0
  Ni  Ni1199  1  0.02405467  0.92967233  0.29982902  1.0
  Ni  Ni1200  1  0.35738800  0.26300567  0.29982902  1.0
  Ni  Ni1201  1  0.35738800  0.59633900  0.29982902  1.0
  Ni  Ni1202  1  0.35738800  0.92967233  0.29982902  1.0
  Ni  Ni1203  1  0.69072133  0.26300567  0.29982902  1.0
  Ni  Ni1204  1  0.69072133  0.59633900  0.29982902  1.0
  Ni  Ni1205  1  0.69072133  0.92967233  0.29982902  1.0
  Ni  Ni1206  1  0.12139283  0.12493250  0.25840006  1.0
  Ni  Ni1207  1  0.12139283  0.45826583  0.25840006  1.0
  Ni  Ni1208  1  0.12139283  0.79159917  0.25840006  1.0
  Ni  Ni1209  1  0.45472617  0.12493250  0.25840006  1.0
  Ni  Ni1210  1  0.45472617  0.45826583  0.25840006  1.0
  Ni  Ni1211  1  0.45472617  0.79159917  0.25840006  1.0
  Ni  Ni1212  1  0.78805950  0.12493250  0.25840006  1.0
  Ni  Ni1213  1  0.78805950  0.45826583  0.25840006  1.0
  Ni  Ni1214  1  0.78805950  0.79159917  0.25840006  1.0
  Ni  Ni1215  1  0.28805950  0.29159917  0.30006673  1.0
  Ni  Ni1216  1  0.28805950  0.62493250  0.30006673  1.0
  Ni  Ni1217  1  0.28805950  0.95826583  0.30006673  1.0
  Ni  Ni1218  1  0.62139283  0.29159917  0.30006673  1.0
  Ni  Ni1219  1  0.62139283  0.62493250  0.30006673  1.0
  Ni  Ni1220  1  0.62139283  0.95826583  0.30006673  1.0
  Ni  Ni1221  1  0.95472617  0.29159917  0.30006673  1.0
  Ni  Ni1222  1  0.95472617  0.62493250  0.30006673  1.0
  Ni  Ni1223  1  0.95472617  0.95826583  0.30006673  1.0
  Ni  Ni1224  1  0.28657333  0.12503400  0.29898619  1.0
  Ni  Ni1225  1  0.28657333  0.45836733  0.29898619  1.0
  Ni  Ni1226  1  0.28657333  0.79170067  0.29898619  1.0
  Ni  Ni1227  1  0.61990667  0.12503400  0.29898619  1.0
  Ni  Ni1228  1  0.61990667  0.45836733  0.29898619  1.0
  Ni  Ni1229  1  0.61990667  0.79170067  0.29898619  1.0
  Ni  Ni1230  1  0.95324000  0.12503400  0.29898619  1.0
  Ni  Ni1231  1  0.95324000  0.45836733  0.29898619  1.0
  Ni  Ni1232  1  0.95324000  0.79170067  0.29898619  1.0
  Ni  Ni1233  1  0.11990667  0.29170067  0.25731952  1.0
  Ni  Ni1234  1  0.11990667  0.62503400  0.25731952  1.0
  Ni  Ni1235  1  0.11990667  0.95836733  0.25731952  1.0
  Ni  Ni1236  1  0.45324000  0.29170067  0.25731952  1.0
  Ni  Ni1237  1  0.45324000  0.62503400  0.25731952  1.0
  Ni  Ni1238  1  0.45324000  0.95836733  0.25731952  1.0
  Ni  Ni1239  1  0.78657333  0.29170067  0.25731952  1.0
  Ni  Ni1240  1  0.78657333  0.62503400  0.25731952  1.0
  Ni  Ni1241  1  0.78657333  0.95836733  0.25731952  1.0
  Ni  Ni1242  1  0.11845533  0.12503400  0.29898619  1.0
  Ni  Ni1243  1  0.11845533  0.45836733  0.29898619  1.0
  Ni  Ni1244  1  0.11845533  0.79170067  0.29898619  1.0
  Ni  Ni1245  1  0.45178867  0.12503400  0.29898619  1.0
  Ni  Ni1246  1  0.45178867  0.45836733  0.29898619  1.0
  Ni  Ni1247  1  0.45178867  0.79170067  0.29898619  1.0
  Ni  Ni1248  1  0.78512200  0.12503400  0.29898619  1.0
  Ni  Ni1249  1  0.78512200  0.45836733  0.29898619  1.0
  Ni  Ni1250  1  0.78512200  0.79170067  0.29898619  1.0
  Ni  Ni1251  1  0.28512200  0.29170067  0.25731952  1.0
  Ni  Ni1252  1  0.28512200  0.62503400  0.25731952  1.0
  Ni  Ni1253  1  0.28512200  0.95836733  0.25731952  1.0
  Ni  Ni1254  1  0.61845533  0.29170067  0.25731952  1.0
  Ni  Ni1255  1  0.61845533  0.62503400  0.25731952  1.0
  Ni  Ni1256  1  0.61845533  0.95836733  0.25731952  1.0
  Ni  Ni1257  1  0.95178867  0.29170067  0.25731952  1.0
  Ni  Ni1258  1  0.95178867  0.62503400  0.25731952  1.0
  Ni  Ni1259  1  0.95178867  0.95836733  0.25731952  1.0
  Ni  Ni1260  1  0.16223883  0.15365817  0.25855465  1.0
  Ni  Ni1261  1  0.16223883  0.48699150  0.25855465  1.0
  Ni  Ni1262  1  0.16223883  0.82032483  0.25855465  1.0
  Ni  Ni1263  1  0.49557217  0.15365817  0.25855465  1.0
  Ni  Ni1264  1  0.49557217  0.48699150  0.25855465  1.0
  Ni  Ni1265  1  0.49557217  0.82032483  0.25855465  1.0
  Ni  Ni1266  1  0.82890550  0.15365817  0.25855465  1.0
  Ni  Ni1267  1  0.82890550  0.48699150  0.25855465  1.0
  Ni  Ni1268  1  0.82890550  0.82032483  0.25855465  1.0
  Ni  Ni1269  1  0.32890550  0.32032483  0.30022131  1.0
  Ni  Ni1270  1  0.32890550  0.65365817  0.30022131  1.0
  Ni  Ni1271  1  0.32890550  0.98699150  0.30022131  1.0
  Ni  Ni1272  1  0.66223883  0.32032483  0.30022131  1.0
  Ni  Ni1273  1  0.66223883  0.65365817  0.30022131  1.0
  Ni  Ni1274  1  0.66223883  0.98699150  0.30022131  1.0
  Ni  Ni1275  1  0.99557217  0.32032483  0.30022131  1.0
  Ni  Ni1276  1  0.99557217  0.65365817  0.30022131  1.0
  Ni  Ni1277  1  0.99557217  0.98699150  0.30022131  1.0
  Ni  Ni1278  1  0.05243950  0.15365817  0.25855465  1.0
  Ni  Ni1279  1  0.05243950  0.48699150  0.25855465  1.0
  Ni  Ni1280  1  0.05243950  0.82032483  0.25855465  1.0
  Ni  Ni1281  1  0.38577283  0.15365817  0.25855465  1.0
  Ni  Ni1282  1  0.38577283  0.48699150  0.25855465  1.0
  Ni  Ni1283  1  0.38577283  0.82032483  0.25855465  1.0
  Ni  Ni1284  1  0.71910617  0.15365817  0.25855465  1.0
  Ni  Ni1285  1  0.71910617  0.48699150  0.25855465  1.0
  Ni  Ni1286  1  0.71910617  0.82032483  0.25855465  1.0
  Ni  Ni1287  1  0.21910617  0.32032483  0.30022131  1.0
  Ni  Ni1288  1  0.21910617  0.65365817  0.30022131  1.0
  Ni  Ni1289  1  0.21910617  0.98699150  0.30022131  1.0
  Ni  Ni1290  1  0.55243950  0.32032483  0.30022131  1.0
  Ni  Ni1291  1  0.55243950  0.65365817  0.30022131  1.0
  Ni  Ni1292  1  0.55243950  0.98699150  0.30022131  1.0
  Ni  Ni1293  1  0.88577283  0.32032483  0.30022131  1.0
  Ni  Ni1294  1  0.88577283  0.65365817  0.30022131  1.0
  Ni  Ni1295  1  0.88577283  0.98699150  0.30022131  1.0
  Zr  Zr1296  1  0.22535683  0.01892617  0.36721381  1.0
  Zr  Zr1297  1  0.22535683  0.35225950  0.36721381  1.0
  Zr  Zr1298  1  0.22535683  0.68559283  0.36721381  1.0
  Zr  Zr1299  1  0.55869017  0.01892617  0.36721381  1.0
  Zr  Zr1300  1  0.55869017  0.35225950  0.36721381  1.0
  Zr  Zr1301  1  0.55869017  0.68559283  0.36721381  1.0
  Zr  Zr1302  1  0.89202350  0.01892617  0.36721381  1.0
  Zr  Zr1303  1  0.89202350  0.35225950  0.36721381  1.0
  Zr  Zr1304  1  0.89202350  0.68559283  0.36721381  1.0
  Zr  Zr1305  1  0.05869017  0.18559283  0.40888048  1.0
  Zr  Zr1306  1  0.05869017  0.51892617  0.40888048  1.0
  Zr  Zr1307  1  0.05869017  0.85225950  0.40888048  1.0
  Zr  Zr1308  1  0.39202350  0.18559283  0.40888048  1.0
  Zr  Zr1309  1  0.39202350  0.51892617  0.40888048  1.0
  Zr  Zr1310  1  0.39202350  0.85225950  0.40888048  1.0
  Zr  Zr1311  1  0.72535683  0.18559283  0.40888048  1.0
  Zr  Zr1312  1  0.72535683  0.51892617  0.40888048  1.0
  Zr  Zr1313  1  0.72535683  0.85225950  0.40888048  1.0
  Zr  Zr1314  1  0.19938033  0.06421233  0.36554710  1.0
  Zr  Zr1315  1  0.19938033  0.39754567  0.36554710  1.0
  Zr  Zr1316  1  0.19938033  0.73087900  0.36554710  1.0
  Zr  Zr1317  1  0.53271367  0.06421233  0.36554710  1.0
  Zr  Zr1318  1  0.53271367  0.39754567  0.36554710  1.0
  Zr  Zr1319  1  0.53271367  0.73087900  0.36554710  1.0
  Zr  Zr1320  1  0.86604700  0.06421233  0.36554710  1.0
  Zr  Zr1321  1  0.86604700  0.39754567  0.36554710  1.0
  Zr  Zr1322  1  0.86604700  0.73087900  0.36554710  1.0
  Zr  Zr1323  1  0.03271367  0.23087900  0.40721377  1.0
  Zr  Zr1324  1  0.03271367  0.56421233  0.40721377  1.0
  Zr  Zr1325  1  0.03271367  0.89754567  0.40721377  1.0
  Zr  Zr1326  1  0.36604700  0.23087900  0.40721377  1.0
  Zr  Zr1327  1  0.36604700  0.56421233  0.40721377  1.0
  Zr  Zr1328  1  0.36604700  0.89754567  0.40721377  1.0
  Zr  Zr1329  1  0.69938033  0.23087900  0.40721377  1.0
  Zr  Zr1330  1  0.69938033  0.56421233  0.40721377  1.0
  Zr  Zr1331  1  0.69938033  0.89754567  0.40721377  1.0
  Zr  Zr1332  1  0.30061967  0.10245433  0.34239394  1.0
  Zr  Zr1333  1  0.30061967  0.43578767  0.34239394  1.0
  Zr  Zr1334  1  0.30061967  0.76912100  0.34239394  1.0
  Zr  Zr1335  1  0.63395300  0.10245433  0.34239394  1.0
  Zr  Zr1336  1  0.63395300  0.43578767  0.34239394  1.0
  Zr  Zr1337  1  0.63395300  0.76912100  0.34239394  1.0
  Zr  Zr1338  1  0.96728633  0.10245433  0.34239394  1.0
  Zr  Zr1339  1  0.96728633  0.43578767  0.34239394  1.0
  Zr  Zr1340  1  0.96728633  0.76912100  0.34239394  1.0
  Zr  Zr1341  1  0.13395300  0.26912100  0.38406060  1.0
  Zr  Zr1342  1  0.13395300  0.60245433  0.38406060  1.0
  Zr  Zr1343  1  0.13395300  0.93578767  0.38406060  1.0
  Zr  Zr1344  1  0.46728633  0.26912100  0.38406060  1.0
  Zr  Zr1345  1  0.46728633  0.60245433  0.38406060  1.0
  Zr  Zr1346  1  0.46728633  0.93578767  0.38406060  1.0
  Zr  Zr1347  1  0.80061967  0.26912100  0.38406060  1.0
  Zr  Zr1348  1  0.80061967  0.60245433  0.38406060  1.0
  Zr  Zr1349  1  0.80061967  0.93578767  0.38406060  1.0
  Zr  Zr1350  1  0.27464317  0.14774050  0.34072723  1.0
  Zr  Zr1351  1  0.27464317  0.48107383  0.34072723  1.0
  Zr  Zr1352  1  0.27464317  0.81440717  0.34072723  1.0
  Zr  Zr1353  1  0.60797650  0.14774050  0.34072723  1.0
  Zr  Zr1354  1  0.60797650  0.48107383  0.34072723  1.0
  Zr  Zr1355  1  0.60797650  0.81440717  0.34072723  1.0
  Zr  Zr1356  1  0.94130983  0.14774050  0.34072723  1.0
  Zr  Zr1357  1  0.94130983  0.48107383  0.34072723  1.0
  Zr  Zr1358  1  0.94130983  0.81440717  0.34072723  1.0
  Zr  Zr1359  1  0.10797650  0.31440717  0.38239390  1.0
  Zr  Zr1360  1  0.10797650  0.64774050  0.38239390  1.0
  Zr  Zr1361  1  0.10797650  0.98107383  0.38239390  1.0
  Zr  Zr1362  1  0.44130983  0.31440717  0.38239390  1.0
  Zr  Zr1363  1  0.44130983  0.64774050  0.38239390  1.0
  Zr  Zr1364  1  0.44130983  0.98107383  0.38239390  1.0
  Zr  Zr1365  1  0.77464317  0.31440717  0.38239390  1.0
  Zr  Zr1366  1  0.77464317  0.64774050  0.38239390  1.0
  Zr  Zr1367  1  0.77464317  0.98107383  0.38239390  1.0
  Ni  Ni1368  1  0.00442783  0.01300850  0.36605306  1.0
  Ni  Ni1369  1  0.00442783  0.34634183  0.36605306  1.0
  Ni  Ni1370  1  0.00442783  0.67967517  0.36605306  1.0
  Ni  Ni1371  1  0.33776117  0.01300850  0.36605306  1.0
  Ni  Ni1372  1  0.33776117  0.34634183  0.36605306  1.0
  Ni  Ni1373  1  0.33776117  0.67967517  0.36605306  1.0
  Ni  Ni1374  1  0.67109450  0.01300850  0.36605306  1.0
  Ni  Ni1375  1  0.67109450  0.34634183  0.36605306  1.0
  Ni  Ni1376  1  0.67109450  0.67967517  0.36605306  1.0
  Ni  Ni1377  1  0.17109450  0.17967517  0.40771973  1.0
  Ni  Ni1378  1  0.17109450  0.51300850  0.40771973  1.0
  Ni  Ni1379  1  0.17109450  0.84634183  0.40771973  1.0
  Ni  Ni1380  1  0.50442783  0.17967517  0.40771973  1.0
  Ni  Ni1381  1  0.50442783  0.51300850  0.40771973  1.0
  Ni  Ni1382  1  0.50442783  0.84634183  0.40771973  1.0
  Ni  Ni1383  1  0.83776117  0.17967517  0.40771973  1.0
  Ni  Ni1384  1  0.83776117  0.51300850  0.40771973  1.0
  Ni  Ni1385  1  0.83776117  0.84634183  0.40771973  1.0
  Ni  Ni1386  1  0.11422717  0.01300850  0.36605306  1.0
  Ni  Ni1387  1  0.11422717  0.34634183  0.36605306  1.0
  Ni  Ni1388  1  0.11422717  0.67967517  0.36605306  1.0
  Ni  Ni1389  1  0.44756050  0.01300850  0.36605306  1.0
  Ni  Ni1390  1  0.44756050  0.34634183  0.36605306  1.0
  Ni  Ni1391  1  0.44756050  0.67967517  0.36605306  1.0
  Ni  Ni1392  1  0.78089383  0.01300850  0.36605306  1.0
  Ni  Ni1393  1  0.78089383  0.34634183  0.36605306  1.0
  Ni  Ni1394  1  0.78089383  0.67967517  0.36605306  1.0
  Ni  Ni1395  1  0.28089383  0.17967517  0.40771973  1.0
  Ni  Ni1396  1  0.28089383  0.51300850  0.40771973  1.0
  Ni  Ni1397  1  0.28089383  0.84634183  0.40771973  1.0
  Ni  Ni1398  1  0.61422717  0.17967517  0.40771973  1.0
  Ni  Ni1399  1  0.61422717  0.51300850  0.40771973  1.0
  Ni  Ni1400  1  0.61422717  0.84634183  0.40771973  1.0
  Ni  Ni1401  1  0.94756050  0.17967517  0.40771973  1.0
  Ni  Ni1402  1  0.94756050  0.51300850  0.40771973  1.0
  Ni  Ni1403  1  0.94756050  0.84634183  0.40771973  1.0
  Ni  Ni1404  1  0.21342667  0.04163267  0.40895485  1.0
  Ni  Ni1405  1  0.21342667  0.37496600  0.40895485  1.0
  Ni  Ni1406  1  0.21342667  0.70829933  0.40895485  1.0
  Ni  Ni1407  1  0.54676000  0.04163267  0.40895485  1.0
  Ni  Ni1408  1  0.54676000  0.37496600  0.40895485  1.0
  Ni  Ni1409  1  0.54676000  0.70829933  0.40895485  1.0
  Ni  Ni1410  1  0.88009333  0.04163267  0.40895485  1.0
  Ni  Ni1411  1  0.88009333  0.37496600  0.40895485  1.0
  Ni  Ni1412  1  0.88009333  0.70829933  0.40895485  1.0
  Ni  Ni1413  1  0.04676000  0.20829933  0.36728819  1.0
  Ni  Ni1414  1  0.04676000  0.54163267  0.36728819  1.0
  Ni  Ni1415  1  0.04676000  0.87496600  0.36728819  1.0
  Ni  Ni1416  1  0.38009333  0.20829933  0.36728819  1.0
  Ni  Ni1417  1  0.38009333  0.54163267  0.36728819  1.0
  Ni  Ni1418  1  0.38009333  0.87496600  0.36728819  1.0
  Ni  Ni1419  1  0.71342667  0.20829933  0.36728819  1.0
  Ni  Ni1420  1  0.71342667  0.54163267  0.36728819  1.0
  Ni  Ni1421  1  0.71342667  0.87496600  0.36728819  1.0
  Ni  Ni1422  1  0.04821133  0.04163267  0.40895485  1.0
  Ni  Ni1423  1  0.04821133  0.37496600  0.40895485  1.0
  Ni  Ni1424  1  0.04821133  0.70829933  0.40895485  1.0
  Ni  Ni1425  1  0.38154467  0.04163267  0.40895485  1.0
  Ni  Ni1426  1  0.38154467  0.37496600  0.40895485  1.0
  Ni  Ni1427  1  0.38154467  0.70829933  0.40895485  1.0
  Ni  Ni1428  1  0.71487800  0.04163267  0.40895485  1.0
  Ni  Ni1429  1  0.71487800  0.37496600  0.40895485  1.0
  Ni  Ni1430  1  0.71487800  0.70829933  0.40895485  1.0
  Ni  Ni1431  1  0.21487800  0.20829933  0.36728819  1.0
  Ni  Ni1432  1  0.21487800  0.54163267  0.36728819  1.0
  Ni  Ni1433  1  0.21487800  0.87496600  0.36728819  1.0
  Ni  Ni1434  1  0.54821133  0.20829933  0.36728819  1.0
  Ni  Ni1435  1  0.54821133  0.54163267  0.36728819  1.0
  Ni  Ni1436  1  0.54821133  0.87496600  0.36728819  1.0
  Ni  Ni1437  1  0.88154467  0.20829933  0.36728819  1.0
  Ni  Ni1438  1  0.88154467  0.54163267  0.36728819  1.0
  Ni  Ni1439  1  0.88154467  0.87496600  0.36728819  1.0
  Ni  Ni1440  1  0.04527383  0.04173417  0.36620765  1.0
  Ni  Ni1441  1  0.04527383  0.37506750  0.36620765  1.0
  Ni  Ni1442  1  0.04527383  0.70840083  0.36620765  1.0
  Ni  Ni1443  1  0.37860717  0.04173417  0.36620765  1.0
  Ni  Ni1444  1  0.37860717  0.37506750  0.36620765  1.0
  Ni  Ni1445  1  0.37860717  0.70840083  0.36620765  1.0
  Ni  Ni1446  1  0.71194050  0.04173417  0.36620765  1.0
  Ni  Ni1447  1  0.71194050  0.37506750  0.36620765  1.0
  Ni  Ni1448  1  0.71194050  0.70840083  0.36620765  1.0
  Ni  Ni1449  1  0.21194050  0.20840083  0.40787431  1.0
  Ni  Ni1450  1  0.21194050  0.54173417  0.40787431  1.0
  Ni  Ni1451  1  0.21194050  0.87506750  0.40787431  1.0
  Ni  Ni1452  1  0.54527383  0.20840083  0.40787431  1.0
  Ni  Ni1453  1  0.54527383  0.54173417  0.40787431  1.0
  Ni  Ni1454  1  0.54527383  0.87506750  0.40787431  1.0
  Ni  Ni1455  1  0.87860717  0.20840083  0.40787431  1.0
  Ni  Ni1456  1  0.87860717  0.54173417  0.40787431  1.0
  Ni  Ni1457  1  0.87860717  0.87506750  0.40787431  1.0
  Ni  Ni1458  1  0.08695967  0.07032767  0.36644535  1.0
  Ni  Ni1459  1  0.08695967  0.40366100  0.36644535  1.0
  Ni  Ni1460  1  0.08695967  0.73699433  0.36644535  1.0
  Ni  Ni1461  1  0.42029300  0.07032767  0.36644535  1.0
  Ni  Ni1462  1  0.42029300  0.40366100  0.36644535  1.0
  Ni  Ni1463  1  0.42029300  0.73699433  0.36644535  1.0
  Ni  Ni1464  1  0.75362633  0.07032767  0.36644535  1.0
  Ni  Ni1465  1  0.75362633  0.40366100  0.36644535  1.0
  Ni  Ni1466  1  0.75362633  0.73699433  0.36644535  1.0
  Ni  Ni1467  1  0.25362633  0.23699433  0.40811202  1.0
  Ni  Ni1468  1  0.25362633  0.57032767  0.40811202  1.0
  Ni  Ni1469  1  0.25362633  0.90366100  0.40811202  1.0
  Ni  Ni1470  1  0.58695967  0.23699433  0.40811202  1.0
  Ni  Ni1471  1  0.58695967  0.57032767  0.40811202  1.0
  Ni  Ni1472  1  0.58695967  0.90366100  0.40811202  1.0
  Ni  Ni1473  1  0.92029300  0.23699433  0.40811202  1.0
  Ni  Ni1474  1  0.92029300  0.57032767  0.40811202  1.0
  Ni  Ni1475  1  0.92029300  0.90366100  0.40811202  1.0
  Ni  Ni1476  1  0.30927867  0.07032767  0.36644535  1.0
  Ni  Ni1477  1  0.30927867  0.40366100  0.36644535  1.0
  Ni  Ni1478  1  0.30927867  0.73699433  0.36644535  1.0
  Ni  Ni1479  1  0.64261200  0.07032767  0.36644535  1.0
  Ni  Ni1480  1  0.64261200  0.40366100  0.36644535  1.0
  Ni  Ni1481  1  0.64261200  0.73699433  0.36644535  1.0
  Ni  Ni1482  1  0.97594533  0.07032767  0.36644535  1.0
  Ni  Ni1483  1  0.97594533  0.40366100  0.36644535  1.0
  Ni  Ni1484  1  0.97594533  0.73699433  0.36644535  1.0
  Ni  Ni1485  1  0.14261200  0.23699433  0.40811202  1.0
  Ni  Ni1486  1  0.14261200  0.57032767  0.40811202  1.0
  Ni  Ni1487  1  0.14261200  0.90366100  0.40811202  1.0
  Ni  Ni1488  1  0.47594533  0.23699433  0.40811202  1.0
  Ni  Ni1489  1  0.47594533  0.57032767  0.40811202  1.0
  Ni  Ni1490  1  0.47594533  0.90366100  0.40811202  1.0
  Ni  Ni1491  1  0.80927867  0.23699433  0.40811202  1.0
  Ni  Ni1492  1  0.80927867  0.57032767  0.40811202  1.0
  Ni  Ni1493  1  0.80927867  0.90366100  0.40811202  1.0
  Ni  Ni1494  1  0.07970700  0.09633900  0.34149569  1.0
  Ni  Ni1495  1  0.07970700  0.42967233  0.34149569  1.0
  Ni  Ni1496  1  0.07970700  0.76300567  0.34149569  1.0
  Ni  Ni1497  1  0.41304033  0.09633900  0.34149569  1.0
  Ni  Ni1498  1  0.41304033  0.42967233  0.34149569  1.0
  Ni  Ni1499  1  0.41304033  0.76300567  0.34149569  1.0
  Ni  Ni1500  1  0.74637367  0.09633900  0.34149569  1.0
  Ni  Ni1501  1  0.74637367  0.42967233  0.34149569  1.0
  Ni  Ni1502  1  0.74637367  0.76300567  0.34149569  1.0
  Ni  Ni1503  1  0.24637367  0.26300567  0.38316235  1.0
  Ni  Ni1504  1  0.24637367  0.59633900  0.38316235  1.0
  Ni  Ni1505  1  0.24637367  0.92967233  0.38316235  1.0
  Ni  Ni1506  1  0.57970700  0.26300567  0.38316235  1.0
  Ni  Ni1507  1  0.57970700  0.59633900  0.38316235  1.0
  Ni  Ni1508  1  0.57970700  0.92967233  0.38316235  1.0
  Ni  Ni1509  1  0.91304033  0.26300567  0.38316235  1.0
  Ni  Ni1510  1  0.91304033  0.59633900  0.38316235  1.0
  Ni  Ni1511  1  0.91304033  0.92967233  0.38316235  1.0
  Ni  Ni1512  1  0.19072133  0.09633900  0.34149569  1.0
  Ni  Ni1513  1  0.19072133  0.42967233  0.34149569  1.0
  Ni  Ni1514  1  0.19072133  0.76300567  0.34149569  1.0
  Ni  Ni1515  1  0.52405467  0.09633900  0.34149569  1.0
  Ni  Ni1516  1  0.52405467  0.42967233  0.34149569  1.0
  Ni  Ni1517  1  0.52405467  0.76300567  0.34149569  1.0
  Ni  Ni1518  1  0.85738800  0.09633900  0.34149569  1.0
  Ni  Ni1519  1  0.85738800  0.42967233  0.34149569  1.0
  Ni  Ni1520  1  0.85738800  0.76300567  0.34149569  1.0
  Ni  Ni1521  1  0.02405467  0.26300567  0.38316235  1.0
  Ni  Ni1522  1  0.02405467  0.59633900  0.38316235  1.0
  Ni  Ni1523  1  0.02405467  0.92967233  0.38316235  1.0
  Ni  Ni1524  1  0.35738800  0.26300567  0.38316235  1.0
  Ni  Ni1525  1  0.35738800  0.59633900  0.38316235  1.0
  Ni  Ni1526  1  0.35738800  0.92967233  0.38316235  1.0
  Ni  Ni1527  1  0.69072133  0.26300567  0.38316235  1.0
  Ni  Ni1528  1  0.69072133  0.59633900  0.38316235  1.0
  Ni  Ni1529  1  0.69072133  0.92967233  0.38316235  1.0
  Ni  Ni1530  1  0.12139283  0.12493250  0.34173340  1.0
  Ni  Ni1531  1  0.12139283  0.45826583  0.34173340  1.0
  Ni  Ni1532  1  0.12139283  0.79159917  0.34173340  1.0
  Ni  Ni1533  1  0.45472617  0.12493250  0.34173340  1.0
  Ni  Ni1534  1  0.45472617  0.45826583  0.34173340  1.0
  Ni  Ni1535  1  0.45472617  0.79159917  0.34173340  1.0
  Ni  Ni1536  1  0.78805950  0.12493250  0.34173340  1.0
  Ni  Ni1537  1  0.78805950  0.45826583  0.34173340  1.0
  Ni  Ni1538  1  0.78805950  0.79159917  0.34173340  1.0
  Ni  Ni1539  1  0.28805950  0.29159917  0.38340006  1.0
  Ni  Ni1540  1  0.28805950  0.62493250  0.38340006  1.0
  Ni  Ni1541  1  0.28805950  0.95826583  0.38340006  1.0
  Ni  Ni1542  1  0.62139283  0.29159917  0.38340006  1.0
  Ni  Ni1543  1  0.62139283  0.62493250  0.38340006  1.0
  Ni  Ni1544  1  0.62139283  0.95826583  0.38340006  1.0
  Ni  Ni1545  1  0.95472617  0.29159917  0.38340006  1.0
  Ni  Ni1546  1  0.95472617  0.62493250  0.38340006  1.0
  Ni  Ni1547  1  0.95472617  0.95826583  0.38340006  1.0
  Ni  Ni1548  1  0.28657333  0.12503400  0.38231952  1.0
  Ni  Ni1549  1  0.28657333  0.45836733  0.38231952  1.0
  Ni  Ni1550  1  0.28657333  0.79170067  0.38231952  1.0
  Ni  Ni1551  1  0.61990667  0.12503400  0.38231952  1.0
  Ni  Ni1552  1  0.61990667  0.45836733  0.38231952  1.0
  Ni  Ni1553  1  0.61990667  0.79170067  0.38231952  1.0
  Ni  Ni1554  1  0.95324000  0.12503400  0.38231952  1.0
  Ni  Ni1555  1  0.95324000  0.45836733  0.38231952  1.0
  Ni  Ni1556  1  0.95324000  0.79170067  0.38231952  1.0
  Ni  Ni1557  1  0.11990667  0.29170067  0.34065285  1.0
  Ni  Ni1558  1  0.11990667  0.62503400  0.34065285  1.0
  Ni  Ni1559  1  0.11990667  0.95836733  0.34065285  1.0
  Ni  Ni1560  1  0.45324000  0.29170067  0.34065285  1.0
  Ni  Ni1561  1  0.45324000  0.62503400  0.34065285  1.0
  Ni  Ni1562  1  0.45324000  0.95836733  0.34065285  1.0
  Ni  Ni1563  1  0.78657333  0.29170067  0.34065285  1.0
  Ni  Ni1564  1  0.78657333  0.62503400  0.34065285  1.0
  Ni  Ni1565  1  0.78657333  0.95836733  0.34065285  1.0
  Ni  Ni1566  1  0.11845533  0.12503400  0.38231952  1.0
  Ni  Ni1567  1  0.11845533  0.45836733  0.38231952  1.0
  Ni  Ni1568  1  0.11845533  0.79170067  0.38231952  1.0
  Ni  Ni1569  1  0.45178867  0.12503400  0.38231952  1.0
  Ni  Ni1570  1  0.45178867  0.45836733  0.38231952  1.0
  Ni  Ni1571  1  0.45178867  0.79170067  0.38231952  1.0
  Ni  Ni1572  1  0.78512200  0.12503400  0.38231952  1.0
  Ni  Ni1573  1  0.78512200  0.45836733  0.38231952  1.0
  Ni  Ni1574  1  0.78512200  0.79170067  0.38231952  1.0
  Ni  Ni1575  1  0.28512200  0.29170067  0.34065285  1.0
  Ni  Ni1576  1  0.28512200  0.62503400  0.34065285  1.0
  Ni  Ni1577  1  0.28512200  0.95836733  0.34065285  1.0
  Ni  Ni1578  1  0.61845533  0.29170067  0.34065285  1.0
  Ni  Ni1579  1  0.61845533  0.62503400  0.34065285  1.0
  Ni  Ni1580  1  0.61845533  0.95836733  0.34065285  1.0
  Ni  Ni1581  1  0.95178867  0.29170067  0.34065285  1.0
  Ni  Ni1582  1  0.95178867  0.62503400  0.34065285  1.0
  Ni  Ni1583  1  0.95178867  0.95836733  0.34065285  1.0
  Ni  Ni1584  1  0.16223883  0.15365817  0.34188798  1.0
  Ni  Ni1585  1  0.16223883  0.48699150  0.34188798  1.0
  Ni  Ni1586  1  0.16223883  0.82032483  0.34188798  1.0
  Ni  Ni1587  1  0.49557217  0.15365817  0.34188798  1.0
  Ni  Ni1588  1  0.49557217  0.48699150  0.34188798  1.0
  Ni  Ni1589  1  0.49557217  0.82032483  0.34188798  1.0
  Ni  Ni1590  1  0.82890550  0.15365817  0.34188798  1.0
  Ni  Ni1591  1  0.82890550  0.48699150  0.34188798  1.0
  Ni  Ni1592  1  0.82890550  0.82032483  0.34188798  1.0
  Ni  Ni1593  1  0.32890550  0.32032483  0.38355465  1.0
  Ni  Ni1594  1  0.32890550  0.65365817  0.38355465  1.0
  Ni  Ni1595  1  0.32890550  0.98699150  0.38355465  1.0
  Ni  Ni1596  1  0.66223883  0.32032483  0.38355465  1.0
  Ni  Ni1597  1  0.66223883  0.65365817  0.38355465  1.0
  Ni  Ni1598  1  0.66223883  0.98699150  0.38355465  1.0
  Ni  Ni1599  1  0.99557217  0.32032483  0.38355465  1.0
  Ni  Ni1600  1  0.99557217  0.65365817  0.38355465  1.0
  Ni  Ni1601  1  0.99557217  0.98699150  0.38355465  1.0
  Ni  Ni1602  1  0.05243950  0.15365817  0.34188798  1.0
  Ni  Ni1603  1  0.05243950  0.48699150  0.34188798  1.0
  Ni  Ni1604  1  0.05243950  0.82032483  0.34188798  1.0
  Ni  Ni1605  1  0.38577283  0.15365817  0.34188798  1.0
  Ni  Ni1606  1  0.38577283  0.48699150  0.34188798  1.0
  Ni  Ni1607  1  0.38577283  0.82032483  0.34188798  1.0
  Ni  Ni1608  1  0.71910617  0.15365817  0.34188798  1.0
  Ni  Ni1609  1  0.71910617  0.48699150  0.34188798  1.0
  Ni  Ni1610  1  0.71910617  0.82032483  0.34188798  1.0
  Ni  Ni1611  1  0.21910617  0.32032483  0.38355465  1.0
  Ni  Ni1612  1  0.21910617  0.65365817  0.38355465  1.0
  Ni  Ni1613  1  0.21910617  0.98699150  0.38355465  1.0
  Ni  Ni1614  1  0.55243950  0.32032483  0.38355465  1.0
  Ni  Ni1615  1  0.55243950  0.65365817  0.38355465  1.0
  Ni  Ni1616  1  0.55243950  0.98699150  0.38355465  1.0
  Ni  Ni1617  1  0.88577283  0.32032483  0.38355465  1.0
  Ni  Ni1618  1  0.88577283  0.65365817  0.38355465  1.0
  Ni  Ni1619  1  0.88577283  0.98699150  0.38355465  1.0
