# generated using pymatgen
data_Zr2Ni7
_symmetry_space_group_name_H-M   'P 1'
_cell_length_a   37.54683728
_cell_length_b   39.64668261
_cell_length_c   30.56801880
_cell_angle_alpha   77.98689989
_cell_angle_beta   84.30618522
_cell_angle_gamma   69.23155223
_symmetry_Int_Tables_number   1
_chemical_formula_structural   Zr2Ni7
_chemical_formula_sum   'Zr288 Ni1008'
_cell_volume   41599.15448128
_cell_formula_units_Z   144
loop_
 _symmetry_equiv_pos_site_id
 _symmetry_equiv_pos_as_xyz
  1  'x, y, z'
loop_
 _atom_site_type_symbol
 _atom_site_label
 _atom_site_symmetry_multiplicity
 _atom_site_fract_x
 _atom_site_fract_y
 _atom_site_fract_z
 _atom_site_occupancy
  Ni  Ni0  1  0.19222770  0.04751010  0.93552070  1.0
  Ni  Ni1  1  0.19222770  0.38084343  0.93552070  1.0
  Ni  Ni2  1  0.19222770  0.71417677  0.93552070  1.0
  Ni  Ni3  1  0.52556103  0.04751010  0.93552070  1.0
  Ni  Ni4  1  0.52556103  0.38084343  0.93552070  1.0
  Ni  Ni5  1  0.52556103  0.71417677  0.93552070  1.0
  Ni  Ni6  1  0.85889437  0.04751010  0.93552070  1.0
  Ni  Ni7  1  0.85889437  0.38084343  0.93552070  1.0
  Ni  Ni8  1  0.85889437  0.71417677  0.93552070  1.0
  Ni  Ni9  1  0.07556103  0.03084343  0.98552070  1.0
  Ni  Ni10  1  0.07556103  0.36417677  0.98552070  1.0
  Ni  Ni11  1  0.07556103  0.69751010  0.98552070  1.0
  Ni  Ni12  1  0.40889437  0.03084343  0.98552070  1.0
  Ni  Ni13  1  0.40889437  0.36417677  0.98552070  1.0
  Ni  Ni14  1  0.40889437  0.69751010  0.98552070  1.0
  Ni  Ni15  1  0.74222770  0.03084343  0.98552070  1.0
  Ni  Ni16  1  0.74222770  0.36417677  0.98552070  1.0
  Ni  Ni17  1  0.74222770  0.69751010  0.98552070  1.0
  Ni  Ni18  1  0.26359727  0.04202013  0.95199060  1.0
  Ni  Ni19  1  0.26359727  0.37535347  0.95199060  1.0
  Ni  Ni20  1  0.26359727  0.70868680  0.95199060  1.0
  Ni  Ni21  1  0.59693060  0.04202013  0.95199060  1.0
  Ni  Ni22  1  0.59693060  0.37535347  0.95199060  1.0
  Ni  Ni23  1  0.59693060  0.70868680  0.95199060  1.0
  Ni  Ni24  1  0.93026393  0.04202013  0.95199060  1.0
  Ni  Ni25  1  0.93026393  0.37535347  0.95199060  1.0
  Ni  Ni26  1  0.93026393  0.70868680  0.95199060  1.0
  Ni  Ni27  1  0.04693060  0.05868680  0.90199060  1.0
  Ni  Ni28  1  0.04693060  0.39202013  0.90199060  1.0
  Ni  Ni29  1  0.04693060  0.72535347  0.90199060  1.0
  Ni  Ni30  1  0.38026393  0.05868680  0.90199060  1.0
  Ni  Ni31  1  0.38026393  0.39202013  0.90199060  1.0
  Ni  Ni32  1  0.38026393  0.72535347  0.90199060  1.0
  Ni  Ni33  1  0.71359727  0.05868680  0.90199060  1.0
  Ni  Ni34  1  0.71359727  0.39202013  0.90199060  1.0
  Ni  Ni35  1  0.71359727  0.72535347  0.90199060  1.0
  Ni  Ni36  1  0.15656477  0.11333663  0.90978610  1.0
  Ni  Ni37  1  0.15656477  0.44666997  0.90978610  1.0
  Ni  Ni38  1  0.15656477  0.78000330  0.90978610  1.0
  Ni  Ni39  1  0.48989810  0.11333663  0.90978610  1.0
  Ni  Ni40  1  0.48989810  0.44666997  0.90978610  1.0
  Ni  Ni41  1  0.48989810  0.78000330  0.90978610  1.0
  Ni  Ni42  1  0.82323143  0.11333663  0.90978610  1.0
  Ni  Ni43  1  0.82323143  0.44666997  0.90978610  1.0
  Ni  Ni44  1  0.82323143  0.78000330  0.90978610  1.0
  Ni  Ni45  1  0.03989810  0.09666997  0.95978610  1.0
  Ni  Ni46  1  0.03989810  0.43000330  0.95978610  1.0
  Ni  Ni47  1  0.03989810  0.76333663  0.95978610  1.0
  Ni  Ni48  1  0.37323143  0.09666997  0.95978610  1.0
  Ni  Ni49  1  0.37323143  0.43000330  0.95978610  1.0
  Ni  Ni50  1  0.37323143  0.76333663  0.95978610  1.0
  Ni  Ni51  1  0.70656477  0.09666997  0.95978610  1.0
  Ni  Ni52  1  0.70656477  0.43000330  0.95978610  1.0
  Ni  Ni53  1  0.70656477  0.76333663  0.95978610  1.0
  Ni  Ni54  1  0.14917480  0.08826407  0.98500380  1.0
  Ni  Ni55  1  0.14917480  0.42159740  0.98500380  1.0
  Ni  Ni56  1  0.14917480  0.75493073  0.98500380  1.0
  Ni  Ni57  1  0.48250813  0.08826407  0.98500380  1.0
  Ni  Ni58  1  0.48250813  0.42159740  0.98500380  1.0
  Ni  Ni59  1  0.48250813  0.75493073  0.98500380  1.0
  Ni  Ni60  1  0.81584147  0.08826407  0.98500380  1.0
  Ni  Ni61  1  0.81584147  0.42159740  0.98500380  1.0
  Ni  Ni62  1  0.81584147  0.75493073  0.98500380  1.0
  Ni  Ni63  1  0.26584147  0.10493073  0.93500380  1.0
  Ni  Ni64  1  0.26584147  0.43826407  0.93500380  1.0
  Ni  Ni65  1  0.26584147  0.77159740  0.93500380  1.0
  Ni  Ni66  1  0.59917480  0.10493073  0.93500380  1.0
  Ni  Ni67  1  0.59917480  0.43826407  0.93500380  1.0
  Ni  Ni68  1  0.59917480  0.77159740  0.93500380  1.0
  Ni  Ni69  1  0.93250813  0.10493073  0.93500380  1.0
  Ni  Ni70  1  0.93250813  0.43826407  0.93500380  1.0
  Ni  Ni71  1  0.93250813  0.77159740  0.93500380  1.0
  Ni  Ni72  1  0.20707092  0.09714308  0.95897575  1.0
  Ni  Ni73  1  0.20707092  0.43047642  0.95897575  1.0
  Ni  Ni74  1  0.20707092  0.76380975  0.95897575  1.0
  Ni  Ni75  1  0.54040425  0.09714308  0.95897575  1.0
  Ni  Ni76  1  0.54040425  0.43047642  0.95897575  1.0
  Ni  Ni77  1  0.54040425  0.76380975  0.95897575  1.0
  Ni  Ni78  1  0.87373758  0.09714308  0.95897575  1.0
  Ni  Ni79  1  0.87373758  0.43047642  0.95897575  1.0
  Ni  Ni80  1  0.87373758  0.76380975  0.95897575  1.0
  Ni  Ni81  1  0.32373758  0.11380975  0.90897575  1.0
  Ni  Ni82  1  0.32373758  0.44714308  0.90897575  1.0
  Ni  Ni83  1  0.32373758  0.78047642  0.90897575  1.0
  Ni  Ni84  1  0.65707092  0.11380975  0.90897575  1.0
  Ni  Ni85  1  0.65707092  0.44714308  0.90897575  1.0
  Ni  Ni86  1  0.65707092  0.78047642  0.90897575  1.0
  Ni  Ni87  1  0.99040425  0.11380975  0.90897575  1.0
  Ni  Ni88  1  0.99040425  0.44714308  0.90897575  1.0
  Ni  Ni89  1  0.99040425  0.78047642  0.90897575  1.0
  Ni  Ni90  1  0.22239652  0.14647955  0.98252735  1.0
  Ni  Ni91  1  0.22239652  0.47981288  0.98252735  1.0
  Ni  Ni92  1  0.22239652  0.81314622  0.98252735  1.0
  Ni  Ni93  1  0.55572985  0.14647955  0.98252735  1.0
  Ni  Ni94  1  0.55572985  0.47981288  0.98252735  1.0
  Ni  Ni95  1  0.55572985  0.81314622  0.98252735  1.0
  Ni  Ni96  1  0.88906318  0.14647955  0.98252735  1.0
  Ni  Ni97  1  0.88906318  0.47981288  0.98252735  1.0
  Ni  Ni98  1  0.88906318  0.81314622  0.98252735  1.0
  Ni  Ni99  1  0.00572985  0.16314622  0.93252735  1.0
  Ni  Ni100  1  0.00572985  0.49647955  0.93252735  1.0
  Ni  Ni101  1  0.00572985  0.82981288  0.93252735  1.0
  Ni  Ni102  1  0.33906318  0.16314622  0.93252735  1.0
  Ni  Ni103  1  0.33906318  0.49647955  0.93252735  1.0
  Ni  Ni104  1  0.33906318  0.82981288  0.93252735  1.0
  Ni  Ni105  1  0.67239652  0.16314622  0.93252735  1.0
  Ni  Ni106  1  0.67239652  0.49647955  0.93252735  1.0
  Ni  Ni107  1  0.67239652  0.82981288  0.93252735  1.0
  Ni  Ni108  1  0.15023720  0.15203027  0.96587520  1.0
  Ni  Ni109  1  0.15023720  0.48536360  0.96587520  1.0
  Ni  Ni110  1  0.15023720  0.81869693  0.96587520  1.0
  Ni  Ni111  1  0.48357053  0.15203027  0.96587520  1.0
  Ni  Ni112  1  0.48357053  0.48536360  0.96587520  1.0
  Ni  Ni113  1  0.48357053  0.81869693  0.96587520  1.0
  Ni  Ni114  1  0.81690387  0.15203027  0.96587520  1.0
  Ni  Ni115  1  0.81690387  0.48536360  0.96587520  1.0
  Ni  Ni116  1  0.81690387  0.81869693  0.96587520  1.0
  Ni  Ni117  1  0.26690387  0.16869693  0.91587520  1.0
  Ni  Ni118  1  0.26690387  0.50203027  0.91587520  1.0
  Ni  Ni119  1  0.26690387  0.83536360  0.91587520  1.0
  Ni  Ni120  1  0.60023720  0.16869693  0.91587520  1.0
  Ni  Ni121  1  0.60023720  0.50203027  0.91587520  1.0
  Ni  Ni122  1  0.60023720  0.83536360  0.91587520  1.0
  Ni  Ni123  1  0.93357053  0.16869693  0.91587520  1.0
  Ni  Ni124  1  0.93357053  0.50203027  0.91587520  1.0
  Ni  Ni125  1  0.93357053  0.83536360  0.91587520  1.0
  Ni  Ni126  1  0.02554062  0.21531918  0.93207645  1.0
  Ni  Ni127  1  0.02554062  0.54865252  0.93207645  1.0
  Ni  Ni128  1  0.02554062  0.88198585  0.93207645  1.0
  Ni  Ni129  1  0.35887395  0.21531918  0.93207645  1.0
  Ni  Ni130  1  0.35887395  0.54865252  0.93207645  1.0
  Ni  Ni131  1  0.35887395  0.88198585  0.93207645  1.0
  Ni  Ni132  1  0.69220728  0.21531918  0.93207645  1.0
  Ni  Ni133  1  0.69220728  0.54865252  0.93207645  1.0
  Ni  Ni134  1  0.69220728  0.88198585  0.93207645  1.0
  Ni  Ni135  1  0.24220728  0.19865252  0.98207645  1.0
  Ni  Ni136  1  0.24220728  0.53198585  0.98207645  1.0
  Ni  Ni137  1  0.24220728  0.86531918  0.98207645  1.0
  Ni  Ni138  1  0.57554062  0.19865252  0.98207645  1.0
  Ni  Ni139  1  0.57554062  0.53198585  0.98207645  1.0
  Ni  Ni140  1  0.57554062  0.86531918  0.98207645  1.0
  Ni  Ni141  1  0.90887395  0.19865252  0.98207645  1.0
  Ni  Ni142  1  0.90887395  0.53198585  0.98207645  1.0
  Ni  Ni143  1  0.90887395  0.86531918  0.98207645  1.0
  Ni  Ni144  1  0.09769993  0.20976847  0.94872860  1.0
  Ni  Ni145  1  0.09769993  0.54310180  0.94872860  1.0
  Ni  Ni146  1  0.09769993  0.87643513  0.94872860  1.0
  Ni  Ni147  1  0.43103327  0.20976847  0.94872860  1.0
  Ni  Ni148  1  0.43103327  0.54310180  0.94872860  1.0
  Ni  Ni149  1  0.43103327  0.87643513  0.94872860  1.0
  Ni  Ni150  1  0.76436660  0.20976847  0.94872860  1.0
  Ni  Ni151  1  0.76436660  0.54310180  0.94872860  1.0
  Ni  Ni152  1  0.76436660  0.87643513  0.94872860  1.0
  Ni  Ni153  1  0.31436660  0.19310180  0.99872860  1.0
  Ni  Ni154  1  0.31436660  0.52643513  0.99872860  1.0
  Ni  Ni155  1  0.31436660  0.85976847  0.99872860  1.0
  Ni  Ni156  1  0.64769993  0.19310180  0.99872860  1.0
  Ni  Ni157  1  0.64769993  0.52643513  0.99872860  1.0
  Ni  Ni158  1  0.64769993  0.85976847  0.99872860  1.0
  Ni  Ni159  1  0.98103327  0.19310180  0.99872860  1.0
  Ni  Ni160  1  0.98103327  0.52643513  0.99872860  1.0
  Ni  Ni161  1  0.98103327  0.85976847  0.99872860  1.0
  Ni  Ni162  1  0.04086622  0.26465565  0.95562805  1.0
  Ni  Ni163  1  0.04086622  0.59798898  0.95562805  1.0
  Ni  Ni164  1  0.04086622  0.93132232  0.95562805  1.0
  Ni  Ni165  1  0.37419955  0.26465565  0.95562805  1.0
  Ni  Ni166  1  0.37419955  0.59798898  0.95562805  1.0
  Ni  Ni167  1  0.37419955  0.93132232  0.95562805  1.0
  Ni  Ni168  1  0.70753288  0.26465565  0.95562805  1.0
  Ni  Ni169  1  0.70753288  0.59798898  0.95562805  1.0
  Ni  Ni170  1  0.70753288  0.93132232  0.95562805  1.0
  Ni  Ni171  1  0.15753288  0.28132232  0.90562805  1.0
  Ni  Ni172  1  0.15753288  0.61465565  0.90562805  1.0
  Ni  Ni173  1  0.15753288  0.94798898  0.90562805  1.0
  Ni  Ni174  1  0.49086622  0.28132232  0.90562805  1.0
  Ni  Ni175  1  0.49086622  0.61465565  0.90562805  1.0
  Ni  Ni176  1  0.49086622  0.94798898  0.90562805  1.0
  Ni  Ni177  1  0.82419955  0.28132232  0.90562805  1.0
  Ni  Ni178  1  0.82419955  0.61465565  0.90562805  1.0
  Ni  Ni179  1  0.82419955  0.94798898  0.90562805  1.0
  Ni  Ni180  1  0.32470570  0.28179543  0.90481770  1.0
  Ni  Ni181  1  0.32470570  0.61512877  0.90481770  1.0
  Ni  Ni182  1  0.32470570  0.94846210  0.90481770  1.0
  Ni  Ni183  1  0.65803903  0.28179543  0.90481770  1.0
  Ni  Ni184  1  0.65803903  0.61512877  0.90481770  1.0
  Ni  Ni185  1  0.65803903  0.94846210  0.90481770  1.0
  Ni  Ni186  1  0.99137237  0.28179543  0.90481770  1.0
  Ni  Ni187  1  0.99137237  0.61512877  0.90481770  1.0
  Ni  Ni188  1  0.99137237  0.94846210  0.90481770  1.0
  Ni  Ni189  1  0.20803903  0.26512877  0.95481770  1.0
  Ni  Ni190  1  0.20803903  0.59846210  0.95481770  1.0
  Ni  Ni191  1  0.20803903  0.93179543  0.95481770  1.0
  Ni  Ni192  1  0.54137237  0.26512877  0.95481770  1.0
  Ni  Ni193  1  0.54137237  0.59846210  0.95481770  1.0
  Ni  Ni194  1  0.54137237  0.93179543  0.95481770  1.0
  Ni  Ni195  1  0.87470570  0.26512877  0.95481770  1.0
  Ni  Ni196  1  0.87470570  0.59846210  0.95481770  1.0
  Ni  Ni197  1  0.87470570  0.93179543  0.95481770  1.0
  Ni  Ni198  1  0.09876233  0.27353467  0.92960000  1.0
  Ni  Ni199  1  0.09876233  0.60686800  0.92960000  1.0
  Ni  Ni200  1  0.09876233  0.94020133  0.92960000  1.0
  Ni  Ni201  1  0.43209567  0.27353467  0.92960000  1.0
  Ni  Ni202  1  0.43209567  0.60686800  0.92960000  1.0
  Ni  Ni203  1  0.43209567  0.94020133  0.92960000  1.0
  Ni  Ni204  1  0.76542900  0.27353467  0.92960000  1.0
  Ni  Ni205  1  0.76542900  0.60686800  0.92960000  1.0
  Ni  Ni206  1  0.76542900  0.94020133  0.92960000  1.0
  Ni  Ni207  1  0.31542900  0.25686800  0.97960000  1.0
  Ni  Ni208  1  0.31542900  0.59020133  0.97960000  1.0
  Ni  Ni209  1  0.31542900  0.92353467  0.97960000  1.0
  Ni  Ni210  1  0.64876233  0.25686800  0.97960000  1.0
  Ni  Ni211  1  0.64876233  0.59020133  0.97960000  1.0
  Ni  Ni212  1  0.64876233  0.92353467  0.97960000  1.0
  Ni  Ni213  1  0.98209567  0.25686800  0.97960000  1.0
  Ni  Ni214  1  0.98209567  0.59020133  0.97960000  1.0
  Ni  Ni215  1  0.98209567  0.92353467  0.97960000  1.0
  Ni  Ni216  1  0.05570943  0.31428863  0.97908310  1.0
  Ni  Ni217  1  0.05570943  0.64762197  0.97908310  1.0
  Ni  Ni218  1  0.05570943  0.98095530  0.97908310  1.0
  Ni  Ni219  1  0.38904277  0.31428863  0.97908310  1.0
  Ni  Ni220  1  0.38904277  0.64762197  0.97908310  1.0
  Ni  Ni221  1  0.38904277  0.98095530  0.97908310  1.0
  Ni  Ni222  1  0.72237610  0.31428863  0.97908310  1.0
  Ni  Ni223  1  0.72237610  0.64762197  0.97908310  1.0
  Ni  Ni224  1  0.72237610  0.98095530  0.97908310  1.0
  Ni  Ni225  1  0.17237610  0.33095530  0.92908310  1.0
  Ni  Ni226  1  0.17237610  0.66428863  0.92908310  1.0
  Ni  Ni227  1  0.17237610  0.99762197  0.92908310  1.0
  Ni  Ni228  1  0.50570943  0.33095530  0.92908310  1.0
  Ni  Ni229  1  0.50570943  0.66428863  0.92908310  1.0
  Ni  Ni230  1  0.50570943  0.99762197  0.92908310  1.0
  Ni  Ni231  1  0.83904277  0.33095530  0.92908310  1.0
  Ni  Ni232  1  0.83904277  0.66428863  0.92908310  1.0
  Ni  Ni233  1  0.83904277  0.99762197  0.92908310  1.0
  Ni  Ni234  1  0.31767320  0.31977860  0.96261320  1.0
  Ni  Ni235  1  0.31767320  0.65311193  0.96261320  1.0
  Ni  Ni236  1  0.31767320  0.98644527  0.96261320  1.0
  Ni  Ni237  1  0.65100653  0.31977860  0.96261320  1.0
  Ni  Ni238  1  0.65100653  0.65311193  0.96261320  1.0
  Ni  Ni239  1  0.65100653  0.98644527  0.96261320  1.0
  Ni  Ni240  1  0.98433987  0.31977860  0.96261320  1.0
  Ni  Ni241  1  0.98433987  0.65311193  0.96261320  1.0
  Ni  Ni242  1  0.98433987  0.98644527  0.96261320  1.0
  Ni  Ni243  1  0.10100653  0.00311193  0.91261320  1.0
  Ni  Ni244  1  0.10100653  0.33644527  0.91261320  1.0
  Ni  Ni245  1  0.10100653  0.66977860  0.91261320  1.0
  Ni  Ni246  1  0.43433987  0.00311193  0.91261320  1.0
  Ni  Ni247  1  0.43433987  0.33644527  0.91261320  1.0
  Ni  Ni248  1  0.43433987  0.66977860  0.91261320  1.0
  Ni  Ni249  1  0.76767320  0.00311193  0.91261320  1.0
  Ni  Ni250  1  0.76767320  0.33644527  0.91261320  1.0
  Ni  Ni251  1  0.76767320  0.66977860  0.91261320  1.0
  Ni  Ni252  1  0.09222770  0.08084343  0.83552070  1.0
  Ni  Ni253  1  0.09222770  0.41417677  0.83552070  1.0
  Ni  Ni254  1  0.09222770  0.74751010  0.83552070  1.0
  Ni  Ni255  1  0.42556103  0.08084343  0.83552070  1.0
  Ni  Ni256  1  0.42556103  0.41417677  0.83552070  1.0
  Ni  Ni257  1  0.42556103  0.74751010  0.83552070  1.0
  Ni  Ni258  1  0.75889437  0.08084343  0.83552070  1.0
  Ni  Ni259  1  0.75889437  0.41417677  0.83552070  1.0
  Ni  Ni260  1  0.75889437  0.74751010  0.83552070  1.0
  Ni  Ni261  1  0.30889437  0.06417677  0.88552070  1.0
  Ni  Ni262  1  0.30889437  0.39751010  0.88552070  1.0
  Ni  Ni263  1  0.30889437  0.73084343  0.88552070  1.0
  Ni  Ni264  1  0.64222770  0.06417677  0.88552070  1.0
  Ni  Ni265  1  0.64222770  0.39751010  0.88552070  1.0
  Ni  Ni266  1  0.64222770  0.73084343  0.88552070  1.0
  Ni  Ni267  1  0.97556103  0.06417677  0.88552070  1.0
  Ni  Ni268  1  0.97556103  0.39751010  0.88552070  1.0
  Ni  Ni269  1  0.97556103  0.73084343  0.88552070  1.0
  Ni  Ni270  1  0.16359727  0.07535347  0.85199060  1.0
  Ni  Ni271  1  0.16359727  0.40868680  0.85199060  1.0
  Ni  Ni272  1  0.16359727  0.74202013  0.85199060  1.0
  Ni  Ni273  1  0.49693060  0.07535347  0.85199060  1.0
  Ni  Ni274  1  0.49693060  0.40868680  0.85199060  1.0
  Ni  Ni275  1  0.49693060  0.74202013  0.85199060  1.0
  Ni  Ni276  1  0.83026393  0.07535347  0.85199060  1.0
  Ni  Ni277  1  0.83026393  0.40868680  0.85199060  1.0
  Ni  Ni278  1  0.83026393  0.74202013  0.85199060  1.0
  Ni  Ni279  1  0.28026393  0.09202013  0.80199060  1.0
  Ni  Ni280  1  0.28026393  0.42535347  0.80199060  1.0
  Ni  Ni281  1  0.28026393  0.75868680  0.80199060  1.0
  Ni  Ni282  1  0.61359727  0.09202013  0.80199060  1.0
  Ni  Ni283  1  0.61359727  0.42535347  0.80199060  1.0
  Ni  Ni284  1  0.61359727  0.75868680  0.80199060  1.0
  Ni  Ni285  1  0.94693060  0.09202013  0.80199060  1.0
  Ni  Ni286  1  0.94693060  0.42535347  0.80199060  1.0
  Ni  Ni287  1  0.94693060  0.75868680  0.80199060  1.0
  Ni  Ni288  1  0.05656477  0.14666997  0.80978610  1.0
  Ni  Ni289  1  0.05656477  0.48000330  0.80978610  1.0
  Ni  Ni290  1  0.05656477  0.81333663  0.80978610  1.0
  Ni  Ni291  1  0.38989810  0.14666997  0.80978610  1.0
  Ni  Ni292  1  0.38989810  0.48000330  0.80978610  1.0
  Ni  Ni293  1  0.38989810  0.81333663  0.80978610  1.0
  Ni  Ni294  1  0.72323143  0.14666997  0.80978610  1.0
  Ni  Ni295  1  0.72323143  0.48000330  0.80978610  1.0
  Ni  Ni296  1  0.72323143  0.81333663  0.80978610  1.0
  Ni  Ni297  1  0.27323143  0.13000330  0.85978610  1.0
  Ni  Ni298  1  0.27323143  0.46333663  0.85978610  1.0
  Ni  Ni299  1  0.27323143  0.79666997  0.85978610  1.0
  Ni  Ni300  1  0.60656477  0.13000330  0.85978610  1.0
  Ni  Ni301  1  0.60656477  0.46333663  0.85978610  1.0
  Ni  Ni302  1  0.60656477  0.79666997  0.85978610  1.0
  Ni  Ni303  1  0.93989810  0.13000330  0.85978610  1.0
  Ni  Ni304  1  0.93989810  0.46333663  0.85978610  1.0
  Ni  Ni305  1  0.93989810  0.79666997  0.85978610  1.0
  Ni  Ni306  1  0.04917480  0.12159740  0.88500380  1.0
  Ni  Ni307  1  0.04917480  0.45493073  0.88500380  1.0
  Ni  Ni308  1  0.04917480  0.78826407  0.88500380  1.0
  Ni  Ni309  1  0.38250813  0.12159740  0.88500380  1.0
  Ni  Ni310  1  0.38250813  0.45493073  0.88500380  1.0
  Ni  Ni311  1  0.38250813  0.78826407  0.88500380  1.0
  Ni  Ni312  1  0.71584147  0.12159740  0.88500380  1.0
  Ni  Ni313  1  0.71584147  0.45493073  0.88500380  1.0
  Ni  Ni314  1  0.71584147  0.78826407  0.88500380  1.0
  Ni  Ni315  1  0.16584147  0.13826407  0.83500380  1.0
  Ni  Ni316  1  0.16584147  0.47159740  0.83500380  1.0
  Ni  Ni317  1  0.16584147  0.80493073  0.83500380  1.0
  Ni  Ni318  1  0.49917480  0.13826407  0.83500380  1.0
  Ni  Ni319  1  0.49917480  0.47159740  0.83500380  1.0
  Ni  Ni320  1  0.49917480  0.80493073  0.83500380  1.0
  Ni  Ni321  1  0.83250813  0.13826407  0.83500380  1.0
  Ni  Ni322  1  0.83250813  0.47159740  0.83500380  1.0
  Ni  Ni323  1  0.83250813  0.80493073  0.83500380  1.0
  Ni  Ni324  1  0.10707092  0.13047642  0.85897575  1.0
  Ni  Ni325  1  0.10707092  0.46380975  0.85897575  1.0
  Ni  Ni326  1  0.10707092  0.79714308  0.85897575  1.0
  Ni  Ni327  1  0.44040425  0.13047642  0.85897575  1.0
  Ni  Ni328  1  0.44040425  0.46380975  0.85897575  1.0
  Ni  Ni329  1  0.44040425  0.79714308  0.85897575  1.0
  Ni  Ni330  1  0.77373758  0.13047642  0.85897575  1.0
  Ni  Ni331  1  0.77373758  0.46380975  0.85897575  1.0
  Ni  Ni332  1  0.77373758  0.79714308  0.85897575  1.0
  Ni  Ni333  1  0.22373758  0.14714308  0.80897575  1.0
  Ni  Ni334  1  0.22373758  0.48047642  0.80897575  1.0
  Ni  Ni335  1  0.22373758  0.81380975  0.80897575  1.0
  Ni  Ni336  1  0.55707092  0.14714308  0.80897575  1.0
  Ni  Ni337  1  0.55707092  0.48047642  0.80897575  1.0
  Ni  Ni338  1  0.55707092  0.81380975  0.80897575  1.0
  Ni  Ni339  1  0.89040425  0.14714308  0.80897575  1.0
  Ni  Ni340  1  0.89040425  0.48047642  0.80897575  1.0
  Ni  Ni341  1  0.89040425  0.81380975  0.80897575  1.0
  Ni  Ni342  1  0.12239652  0.17981288  0.88252735  1.0
  Ni  Ni343  1  0.12239652  0.51314622  0.88252735  1.0
  Ni  Ni344  1  0.12239652  0.84647955  0.88252735  1.0
  Ni  Ni345  1  0.45572985  0.17981288  0.88252735  1.0
  Ni  Ni346  1  0.45572985  0.51314622  0.88252735  1.0
  Ni  Ni347  1  0.45572985  0.84647955  0.88252735  1.0
  Ni  Ni348  1  0.78906318  0.17981288  0.88252735  1.0
  Ni  Ni349  1  0.78906318  0.51314622  0.88252735  1.0
  Ni  Ni350  1  0.78906318  0.84647955  0.88252735  1.0
  Ni  Ni351  1  0.23906318  0.19647955  0.83252735  1.0
  Ni  Ni352  1  0.23906318  0.52981288  0.83252735  1.0
  Ni  Ni353  1  0.23906318  0.86314622  0.83252735  1.0
  Ni  Ni354  1  0.57239652  0.19647955  0.83252735  1.0
  Ni  Ni355  1  0.57239652  0.52981288  0.83252735  1.0
  Ni  Ni356  1  0.57239652  0.86314622  0.83252735  1.0
  Ni  Ni357  1  0.90572985  0.19647955  0.83252735  1.0
  Ni  Ni358  1  0.90572985  0.52981288  0.83252735  1.0
  Ni  Ni359  1  0.90572985  0.86314622  0.83252735  1.0
  Ni  Ni360  1  0.05023720  0.18536360  0.86587520  1.0
  Ni  Ni361  1  0.05023720  0.51869693  0.86587520  1.0
  Ni  Ni362  1  0.05023720  0.85203027  0.86587520  1.0
  Ni  Ni363  1  0.38357053  0.18536360  0.86587520  1.0
  Ni  Ni364  1  0.38357053  0.51869693  0.86587520  1.0
  Ni  Ni365  1  0.38357053  0.85203027  0.86587520  1.0
  Ni  Ni366  1  0.71690387  0.18536360  0.86587520  1.0
  Ni  Ni367  1  0.71690387  0.51869693  0.86587520  1.0
  Ni  Ni368  1  0.71690387  0.85203027  0.86587520  1.0
  Ni  Ni369  1  0.16690387  0.20203027  0.81587520  1.0
  Ni  Ni370  1  0.16690387  0.53536360  0.81587520  1.0
  Ni  Ni371  1  0.16690387  0.86869693  0.81587520  1.0
  Ni  Ni372  1  0.50023720  0.20203027  0.81587520  1.0
  Ni  Ni373  1  0.50023720  0.53536360  0.81587520  1.0
  Ni  Ni374  1  0.50023720  0.86869693  0.81587520  1.0
  Ni  Ni375  1  0.83357053  0.20203027  0.81587520  1.0
  Ni  Ni376  1  0.83357053  0.53536360  0.81587520  1.0
  Ni  Ni377  1  0.83357053  0.86869693  0.81587520  1.0
  Ni  Ni378  1  0.25887395  0.24865252  0.83207645  1.0
  Ni  Ni379  1  0.25887395  0.58198585  0.83207645  1.0
  Ni  Ni380  1  0.25887395  0.91531918  0.83207645  1.0
  Ni  Ni381  1  0.59220728  0.24865252  0.83207645  1.0
  Ni  Ni382  1  0.59220728  0.58198585  0.83207645  1.0
  Ni  Ni383  1  0.59220728  0.91531918  0.83207645  1.0
  Ni  Ni384  1  0.92554062  0.24865252  0.83207645  1.0
  Ni  Ni385  1  0.92554062  0.58198585  0.83207645  1.0
  Ni  Ni386  1  0.92554062  0.91531918  0.83207645  1.0
  Ni  Ni387  1  0.14220728  0.23198585  0.88207645  1.0
  Ni  Ni388  1  0.14220728  0.56531918  0.88207645  1.0
  Ni  Ni389  1  0.14220728  0.89865252  0.88207645  1.0
  Ni  Ni390  1  0.47554062  0.23198585  0.88207645  1.0
  Ni  Ni391  1  0.47554062  0.56531918  0.88207645  1.0
  Ni  Ni392  1  0.47554062  0.89865252  0.88207645  1.0
  Ni  Ni393  1  0.80887395  0.23198585  0.88207645  1.0
  Ni  Ni394  1  0.80887395  0.56531918  0.88207645  1.0
  Ni  Ni395  1  0.80887395  0.89865252  0.88207645  1.0
  Ni  Ni396  1  0.33103327  0.24310180  0.84872860  1.0
  Ni  Ni397  1  0.33103327  0.57643513  0.84872860  1.0
  Ni  Ni398  1  0.33103327  0.90976847  0.84872860  1.0
  Ni  Ni399  1  0.66436660  0.24310180  0.84872860  1.0
  Ni  Ni400  1  0.66436660  0.57643513  0.84872860  1.0
  Ni  Ni401  1  0.66436660  0.90976847  0.84872860  1.0
  Ni  Ni402  1  0.99769993  0.24310180  0.84872860  1.0
  Ni  Ni403  1  0.99769993  0.57643513  0.84872860  1.0
  Ni  Ni404  1  0.99769993  0.90976847  0.84872860  1.0
  Ni  Ni405  1  0.21436660  0.22643513  0.89872860  1.0
  Ni  Ni406  1  0.21436660  0.55976847  0.89872860  1.0
  Ni  Ni407  1  0.21436660  0.89310180  0.89872860  1.0
  Ni  Ni408  1  0.54769993  0.22643513  0.89872860  1.0
  Ni  Ni409  1  0.54769993  0.55976847  0.89872860  1.0
  Ni  Ni410  1  0.54769993  0.89310180  0.89872860  1.0
  Ni  Ni411  1  0.88103327  0.22643513  0.89872860  1.0
  Ni  Ni412  1  0.88103327  0.55976847  0.89872860  1.0
  Ni  Ni413  1  0.88103327  0.89310180  0.89872860  1.0
  Ni  Ni414  1  0.27419955  0.29798898  0.85562805  1.0
  Ni  Ni415  1  0.27419955  0.63132232  0.85562805  1.0
  Ni  Ni416  1  0.27419955  0.96465565  0.85562805  1.0
  Ni  Ni417  1  0.60753288  0.29798898  0.85562805  1.0
  Ni  Ni418  1  0.60753288  0.63132232  0.85562805  1.0
  Ni  Ni419  1  0.60753288  0.96465565  0.85562805  1.0
  Ni  Ni420  1  0.94086622  0.29798898  0.85562805  1.0
  Ni  Ni421  1  0.94086622  0.63132232  0.85562805  1.0
  Ni  Ni422  1  0.94086622  0.96465565  0.85562805  1.0
  Ni  Ni423  1  0.05753288  0.31465565  0.80562805  1.0
  Ni  Ni424  1  0.05753288  0.64798898  0.80562805  1.0
  Ni  Ni425  1  0.05753288  0.98132232  0.80562805  1.0
  Ni  Ni426  1  0.39086622  0.31465565  0.80562805  1.0
  Ni  Ni427  1  0.39086622  0.64798898  0.80562805  1.0
  Ni  Ni428  1  0.39086622  0.98132232  0.80562805  1.0
  Ni  Ni429  1  0.72419955  0.31465565  0.80562805  1.0
  Ni  Ni430  1  0.72419955  0.64798898  0.80562805  1.0
  Ni  Ni431  1  0.72419955  0.98132232  0.80562805  1.0
  Ni  Ni432  1  0.22470570  0.31512877  0.80481770  1.0
  Ni  Ni433  1  0.22470570  0.64846210  0.80481770  1.0
  Ni  Ni434  1  0.22470570  0.98179543  0.80481770  1.0
  Ni  Ni435  1  0.55803903  0.31512877  0.80481770  1.0
  Ni  Ni436  1  0.55803903  0.64846210  0.80481770  1.0
  Ni  Ni437  1  0.55803903  0.98179543  0.80481770  1.0
  Ni  Ni438  1  0.89137237  0.31512877  0.80481770  1.0
  Ni  Ni439  1  0.89137237  0.64846210  0.80481770  1.0
  Ni  Ni440  1  0.89137237  0.98179543  0.80481770  1.0
  Ni  Ni441  1  0.10803903  0.29846210  0.85481770  1.0
  Ni  Ni442  1  0.10803903  0.63179543  0.85481770  1.0
  Ni  Ni443  1  0.10803903  0.96512877  0.85481770  1.0
  Ni  Ni444  1  0.44137237  0.29846210  0.85481770  1.0
  Ni  Ni445  1  0.44137237  0.63179543  0.85481770  1.0
  Ni  Ni446  1  0.44137237  0.96512877  0.85481770  1.0
  Ni  Ni447  1  0.77470570  0.29846210  0.85481770  1.0
  Ni  Ni448  1  0.77470570  0.63179543  0.85481770  1.0
  Ni  Ni449  1  0.77470570  0.96512877  0.85481770  1.0
  Ni  Ni450  1  0.33209567  0.30686800  0.82960000  1.0
  Ni  Ni451  1  0.33209567  0.64020133  0.82960000  1.0
  Ni  Ni452  1  0.33209567  0.97353467  0.82960000  1.0
  Ni  Ni453  1  0.66542900  0.30686800  0.82960000  1.0
  Ni  Ni454  1  0.66542900  0.64020133  0.82960000  1.0
  Ni  Ni455  1  0.66542900  0.97353467  0.82960000  1.0
  Ni  Ni456  1  0.99876233  0.30686800  0.82960000  1.0
  Ni  Ni457  1  0.99876233  0.64020133  0.82960000  1.0
  Ni  Ni458  1  0.99876233  0.97353467  0.82960000  1.0
  Ni  Ni459  1  0.21542900  0.29020133  0.87960000  1.0
  Ni  Ni460  1  0.21542900  0.62353467  0.87960000  1.0
  Ni  Ni461  1  0.21542900  0.95686800  0.87960000  1.0
  Ni  Ni462  1  0.54876233  0.29020133  0.87960000  1.0
  Ni  Ni463  1  0.54876233  0.62353467  0.87960000  1.0
  Ni  Ni464  1  0.54876233  0.95686800  0.87960000  1.0
  Ni  Ni465  1  0.88209567  0.29020133  0.87960000  1.0
  Ni  Ni466  1  0.88209567  0.62353467  0.87960000  1.0
  Ni  Ni467  1  0.88209567  0.95686800  0.87960000  1.0
  Ni  Ni468  1  0.28904277  0.01428863  0.87908310  1.0
  Ni  Ni469  1  0.28904277  0.34762197  0.87908310  1.0
  Ni  Ni470  1  0.28904277  0.68095530  0.87908310  1.0
  Ni  Ni471  1  0.62237610  0.01428863  0.87908310  1.0
  Ni  Ni472  1  0.62237610  0.34762197  0.87908310  1.0
  Ni  Ni473  1  0.62237610  0.68095530  0.87908310  1.0
  Ni  Ni474  1  0.95570943  0.01428863  0.87908310  1.0
  Ni  Ni475  1  0.95570943  0.34762197  0.87908310  1.0
  Ni  Ni476  1  0.95570943  0.68095530  0.87908310  1.0
  Ni  Ni477  1  0.07237610  0.03095530  0.82908310  1.0
  Ni  Ni478  1  0.07237610  0.36428863  0.82908310  1.0
  Ni  Ni479  1  0.07237610  0.69762197  0.82908310  1.0
  Ni  Ni480  1  0.40570943  0.03095530  0.82908310  1.0
  Ni  Ni481  1  0.40570943  0.36428863  0.82908310  1.0
  Ni  Ni482  1  0.40570943  0.69762197  0.82908310  1.0
  Ni  Ni483  1  0.73904277  0.03095530  0.82908310  1.0
  Ni  Ni484  1  0.73904277  0.36428863  0.82908310  1.0
  Ni  Ni485  1  0.73904277  0.69762197  0.82908310  1.0
  Ni  Ni486  1  0.21767320  0.01977860  0.86261320  1.0
  Ni  Ni487  1  0.21767320  0.35311193  0.86261320  1.0
  Ni  Ni488  1  0.21767320  0.68644527  0.86261320  1.0
  Ni  Ni489  1  0.55100653  0.01977860  0.86261320  1.0
  Ni  Ni490  1  0.55100653  0.35311193  0.86261320  1.0
  Ni  Ni491  1  0.55100653  0.68644527  0.86261320  1.0
  Ni  Ni492  1  0.88433987  0.01977860  0.86261320  1.0
  Ni  Ni493  1  0.88433987  0.35311193  0.86261320  1.0
  Ni  Ni494  1  0.88433987  0.68644527  0.86261320  1.0
  Ni  Ni495  1  0.00100653  0.03644527  0.81261320  1.0
  Ni  Ni496  1  0.00100653  0.36977860  0.81261320  1.0
  Ni  Ni497  1  0.00100653  0.70311193  0.81261320  1.0
  Ni  Ni498  1  0.33433987  0.03644527  0.81261320  1.0
  Ni  Ni499  1  0.33433987  0.36977860  0.81261320  1.0
  Ni  Ni500  1  0.33433987  0.70311193  0.81261320  1.0
  Ni  Ni501  1  0.66767320  0.03644527  0.81261320  1.0
  Ni  Ni502  1  0.66767320  0.36977860  0.81261320  1.0
  Ni  Ni503  1  0.66767320  0.70311193  0.81261320  1.0
  Ni  Ni504  1  0.32556103  0.11417677  0.73552070  1.0
  Ni  Ni505  1  0.32556103  0.44751010  0.73552070  1.0
  Ni  Ni506  1  0.32556103  0.78084343  0.73552070  1.0
  Ni  Ni507  1  0.65889437  0.11417677  0.73552070  1.0
  Ni  Ni508  1  0.65889437  0.44751010  0.73552070  1.0
  Ni  Ni509  1  0.65889437  0.78084343  0.73552070  1.0
  Ni  Ni510  1  0.99222770  0.11417677  0.73552070  1.0
  Ni  Ni511  1  0.99222770  0.44751010  0.73552070  1.0
  Ni  Ni512  1  0.99222770  0.78084343  0.73552070  1.0
  Ni  Ni513  1  0.20889437  0.09751010  0.78552070  1.0
  Ni  Ni514  1  0.20889437  0.43084343  0.78552070  1.0
  Ni  Ni515  1  0.20889437  0.76417677  0.78552070  1.0
  Ni  Ni516  1  0.54222770  0.09751010  0.78552070  1.0
  Ni  Ni517  1  0.54222770  0.43084343  0.78552070  1.0
  Ni  Ni518  1  0.54222770  0.76417677  0.78552070  1.0
  Ni  Ni519  1  0.87556103  0.09751010  0.78552070  1.0
  Ni  Ni520  1  0.87556103  0.43084343  0.78552070  1.0
  Ni  Ni521  1  0.87556103  0.76417677  0.78552070  1.0
  Ni  Ni522  1  0.06359727  0.10868680  0.75199060  1.0
  Ni  Ni523  1  0.06359727  0.44202013  0.75199060  1.0
  Ni  Ni524  1  0.06359727  0.77535347  0.75199060  1.0
  Ni  Ni525  1  0.39693060  0.10868680  0.75199060  1.0
  Ni  Ni526  1  0.39693060  0.44202013  0.75199060  1.0
  Ni  Ni527  1  0.39693060  0.77535347  0.75199060  1.0
  Ni  Ni528  1  0.73026393  0.10868680  0.75199060  1.0
  Ni  Ni529  1  0.73026393  0.44202013  0.75199060  1.0
  Ni  Ni530  1  0.73026393  0.77535347  0.75199060  1.0
  Ni  Ni531  1  0.18026393  0.12535347  0.70199060  1.0
  Ni  Ni532  1  0.18026393  0.45868680  0.70199060  1.0
  Ni  Ni533  1  0.18026393  0.79202013  0.70199060  1.0
  Ni  Ni534  1  0.51359727  0.12535347  0.70199060  1.0
  Ni  Ni535  1  0.51359727  0.45868680  0.70199060  1.0
  Ni  Ni536  1  0.51359727  0.79202013  0.70199060  1.0
  Ni  Ni537  1  0.84693060  0.12535347  0.70199060  1.0
  Ni  Ni538  1  0.84693060  0.45868680  0.70199060  1.0
  Ni  Ni539  1  0.84693060  0.79202013  0.70199060  1.0
  Ni  Ni540  1  0.28989810  0.18000330  0.70978610  1.0
  Ni  Ni541  1  0.28989810  0.51333663  0.70978610  1.0
  Ni  Ni542  1  0.28989810  0.84666997  0.70978610  1.0
  Ni  Ni543  1  0.62323143  0.18000330  0.70978610  1.0
  Ni  Ni544  1  0.62323143  0.51333663  0.70978610  1.0
  Ni  Ni545  1  0.62323143  0.84666997  0.70978610  1.0
  Ni  Ni546  1  0.95656477  0.18000330  0.70978610  1.0
  Ni  Ni547  1  0.95656477  0.51333663  0.70978610  1.0
  Ni  Ni548  1  0.95656477  0.84666997  0.70978610  1.0
  Ni  Ni549  1  0.17323143  0.16333663  0.75978610  1.0
  Ni  Ni550  1  0.17323143  0.49666997  0.75978610  1.0
  Ni  Ni551  1  0.17323143  0.83000330  0.75978610  1.0
  Ni  Ni552  1  0.50656477  0.16333663  0.75978610  1.0
  Ni  Ni553  1  0.50656477  0.49666997  0.75978610  1.0
  Ni  Ni554  1  0.50656477  0.83000330  0.75978610  1.0
  Ni  Ni555  1  0.83989810  0.16333663  0.75978610  1.0
  Ni  Ni556  1  0.83989810  0.49666997  0.75978610  1.0
  Ni  Ni557  1  0.83989810  0.83000330  0.75978610  1.0
  Ni  Ni558  1  0.28250813  0.15493073  0.78500380  1.0
  Ni  Ni559  1  0.28250813  0.48826407  0.78500380  1.0
  Ni  Ni560  1  0.28250813  0.82159740  0.78500380  1.0
  Ni  Ni561  1  0.61584147  0.15493073  0.78500380  1.0
  Ni  Ni562  1  0.61584147  0.48826407  0.78500380  1.0
  Ni  Ni563  1  0.61584147  0.82159740  0.78500380  1.0
  Ni  Ni564  1  0.94917480  0.15493073  0.78500380  1.0
  Ni  Ni565  1  0.94917480  0.48826407  0.78500380  1.0
  Ni  Ni566  1  0.94917480  0.82159740  0.78500380  1.0
  Ni  Ni567  1  0.06584147  0.17159740  0.73500380  1.0
  Ni  Ni568  1  0.06584147  0.50493073  0.73500380  1.0
  Ni  Ni569  1  0.06584147  0.83826407  0.73500380  1.0
  Ni  Ni570  1  0.39917480  0.17159740  0.73500380  1.0
  Ni  Ni571  1  0.39917480  0.50493073  0.73500380  1.0
  Ni  Ni572  1  0.39917480  0.83826407  0.73500380  1.0
  Ni  Ni573  1  0.73250813  0.17159740  0.73500380  1.0
  Ni  Ni574  1  0.73250813  0.50493073  0.73500380  1.0
  Ni  Ni575  1  0.73250813  0.83826407  0.73500380  1.0
  Ni  Ni576  1  0.00707092  0.16380975  0.75897575  1.0
  Ni  Ni577  1  0.00707092  0.49714308  0.75897575  1.0
  Ni  Ni578  1  0.00707092  0.83047642  0.75897575  1.0
  Ni  Ni579  1  0.34040425  0.16380975  0.75897575  1.0
  Ni  Ni580  1  0.34040425  0.49714308  0.75897575  1.0
  Ni  Ni581  1  0.34040425  0.83047642  0.75897575  1.0
  Ni  Ni582  1  0.67373758  0.16380975  0.75897575  1.0
  Ni  Ni583  1  0.67373758  0.49714308  0.75897575  1.0
  Ni  Ni584  1  0.67373758  0.83047642  0.75897575  1.0
  Ni  Ni585  1  0.12373758  0.18047642  0.70897575  1.0
  Ni  Ni586  1  0.12373758  0.51380975  0.70897575  1.0
  Ni  Ni587  1  0.12373758  0.84714308  0.70897575  1.0
  Ni  Ni588  1  0.45707092  0.18047642  0.70897575  1.0
  Ni  Ni589  1  0.45707092  0.51380975  0.70897575  1.0
  Ni  Ni590  1  0.45707092  0.84714308  0.70897575  1.0
  Ni  Ni591  1  0.79040425  0.18047642  0.70897575  1.0
  Ni  Ni592  1  0.79040425  0.51380975  0.70897575  1.0
  Ni  Ni593  1  0.79040425  0.84714308  0.70897575  1.0
  Ni  Ni594  1  0.02239652  0.21314622  0.78252735  1.0
  Ni  Ni595  1  0.02239652  0.54647955  0.78252735  1.0
  Ni  Ni596  1  0.02239652  0.87981288  0.78252735  1.0
  Ni  Ni597  1  0.35572985  0.21314622  0.78252735  1.0
  Ni  Ni598  1  0.35572985  0.54647955  0.78252735  1.0
  Ni  Ni599  1  0.35572985  0.87981288  0.78252735  1.0
  Ni  Ni600  1  0.68906318  0.21314622  0.78252735  1.0
  Ni  Ni601  1  0.68906318  0.54647955  0.78252735  1.0
  Ni  Ni602  1  0.68906318  0.87981288  0.78252735  1.0
  Ni  Ni603  1  0.13906318  0.22981288  0.73252735  1.0
  Ni  Ni604  1  0.13906318  0.56314622  0.73252735  1.0
  Ni  Ni605  1  0.13906318  0.89647955  0.73252735  1.0
  Ni  Ni606  1  0.47239652  0.22981288  0.73252735  1.0
  Ni  Ni607  1  0.47239652  0.56314622  0.73252735  1.0
  Ni  Ni608  1  0.47239652  0.89647955  0.73252735  1.0
  Ni  Ni609  1  0.80572985  0.22981288  0.73252735  1.0
  Ni  Ni610  1  0.80572985  0.56314622  0.73252735  1.0
  Ni  Ni611  1  0.80572985  0.89647955  0.73252735  1.0
  Ni  Ni612  1  0.28357053  0.21869693  0.76587520  1.0
  Ni  Ni613  1  0.28357053  0.55203027  0.76587520  1.0
  Ni  Ni614  1  0.28357053  0.88536360  0.76587520  1.0
  Ni  Ni615  1  0.61690387  0.21869693  0.76587520  1.0
  Ni  Ni616  1  0.61690387  0.55203027  0.76587520  1.0
  Ni  Ni617  1  0.61690387  0.88536360  0.76587520  1.0
  Ni  Ni618  1  0.95023720  0.21869693  0.76587520  1.0
  Ni  Ni619  1  0.95023720  0.55203027  0.76587520  1.0
  Ni  Ni620  1  0.95023720  0.88536360  0.76587520  1.0
  Ni  Ni621  1  0.06690387  0.23536360  0.71587520  1.0
  Ni  Ni622  1  0.06690387  0.56869693  0.71587520  1.0
  Ni  Ni623  1  0.06690387  0.90203027  0.71587520  1.0
  Ni  Ni624  1  0.40023720  0.23536360  0.71587520  1.0
  Ni  Ni625  1  0.40023720  0.56869693  0.71587520  1.0
  Ni  Ni626  1  0.40023720  0.90203027  0.71587520  1.0
  Ni  Ni627  1  0.73357053  0.23536360  0.71587520  1.0
  Ni  Ni628  1  0.73357053  0.56869693  0.71587520  1.0
  Ni  Ni629  1  0.73357053  0.90203027  0.71587520  1.0
  Ni  Ni630  1  0.15887395  0.28198585  0.73207645  1.0
  Ni  Ni631  1  0.15887395  0.61531918  0.73207645  1.0
  Ni  Ni632  1  0.15887395  0.94865252  0.73207645  1.0
  Ni  Ni633  1  0.49220728  0.28198585  0.73207645  1.0
  Ni  Ni634  1  0.49220728  0.61531918  0.73207645  1.0
  Ni  Ni635  1  0.49220728  0.94865252  0.73207645  1.0
  Ni  Ni636  1  0.82554062  0.28198585  0.73207645  1.0
  Ni  Ni637  1  0.82554062  0.61531918  0.73207645  1.0
  Ni  Ni638  1  0.82554062  0.94865252  0.73207645  1.0
  Ni  Ni639  1  0.04220728  0.26531918  0.78207645  1.0
  Ni  Ni640  1  0.04220728  0.59865252  0.78207645  1.0
  Ni  Ni641  1  0.04220728  0.93198585  0.78207645  1.0
  Ni  Ni642  1  0.37554062  0.26531918  0.78207645  1.0
  Ni  Ni643  1  0.37554062  0.59865252  0.78207645  1.0
  Ni  Ni644  1  0.37554062  0.93198585  0.78207645  1.0
  Ni  Ni645  1  0.70887395  0.26531918  0.78207645  1.0
  Ni  Ni646  1  0.70887395  0.59865252  0.78207645  1.0
  Ni  Ni647  1  0.70887395  0.93198585  0.78207645  1.0
  Ni  Ni648  1  0.23103327  0.27643513  0.74872860  1.0
  Ni  Ni649  1  0.23103327  0.60976847  0.74872860  1.0
  Ni  Ni650  1  0.23103327  0.94310180  0.74872860  1.0
  Ni  Ni651  1  0.56436660  0.27643513  0.74872860  1.0
  Ni  Ni652  1  0.56436660  0.60976847  0.74872860  1.0
  Ni  Ni653  1  0.56436660  0.94310180  0.74872860  1.0
  Ni  Ni654  1  0.89769993  0.27643513  0.74872860  1.0
  Ni  Ni655  1  0.89769993  0.60976847  0.74872860  1.0
  Ni  Ni656  1  0.89769993  0.94310180  0.74872860  1.0
  Ni  Ni657  1  0.11436660  0.25976847  0.79872860  1.0
  Ni  Ni658  1  0.11436660  0.59310180  0.79872860  1.0
  Ni  Ni659  1  0.11436660  0.92643513  0.79872860  1.0
  Ni  Ni660  1  0.44769993  0.25976847  0.79872860  1.0
  Ni  Ni661  1  0.44769993  0.59310180  0.79872860  1.0
  Ni  Ni662  1  0.44769993  0.92643513  0.79872860  1.0
  Ni  Ni663  1  0.78103327  0.25976847  0.79872860  1.0
  Ni  Ni664  1  0.78103327  0.59310180  0.79872860  1.0
  Ni  Ni665  1  0.78103327  0.92643513  0.79872860  1.0
  Ni  Ni666  1  0.17419955  0.33132232  0.75562805  1.0
  Ni  Ni667  1  0.17419955  0.66465565  0.75562805  1.0
  Ni  Ni668  1  0.17419955  0.99798898  0.75562805  1.0
  Ni  Ni669  1  0.50753288  0.33132232  0.75562805  1.0
  Ni  Ni670  1  0.50753288  0.66465565  0.75562805  1.0
  Ni  Ni671  1  0.50753288  0.99798898  0.75562805  1.0
  Ni  Ni672  1  0.84086622  0.33132232  0.75562805  1.0
  Ni  Ni673  1  0.84086622  0.66465565  0.75562805  1.0
  Ni  Ni674  1  0.84086622  0.99798898  0.75562805  1.0
  Ni  Ni675  1  0.29086622  0.01465565  0.70562805  1.0
  Ni  Ni676  1  0.29086622  0.34798898  0.70562805  1.0
  Ni  Ni677  1  0.29086622  0.68132232  0.70562805  1.0
  Ni  Ni678  1  0.62419955  0.01465565  0.70562805  1.0
  Ni  Ni679  1  0.62419955  0.34798898  0.70562805  1.0
  Ni  Ni680  1  0.62419955  0.68132232  0.70562805  1.0
  Ni  Ni681  1  0.95753288  0.01465565  0.70562805  1.0
  Ni  Ni682  1  0.95753288  0.34798898  0.70562805  1.0
  Ni  Ni683  1  0.95753288  0.68132232  0.70562805  1.0
  Ni  Ni684  1  0.12470570  0.01512877  0.70481770  1.0
  Ni  Ni685  1  0.12470570  0.34846210  0.70481770  1.0
  Ni  Ni686  1  0.12470570  0.68179543  0.70481770  1.0
  Ni  Ni687  1  0.45803903  0.01512877  0.70481770  1.0
  Ni  Ni688  1  0.45803903  0.34846210  0.70481770  1.0
  Ni  Ni689  1  0.45803903  0.68179543  0.70481770  1.0
  Ni  Ni690  1  0.79137237  0.01512877  0.70481770  1.0
  Ni  Ni691  1  0.79137237  0.34846210  0.70481770  1.0
  Ni  Ni692  1  0.79137237  0.68179543  0.70481770  1.0
  Ni  Ni693  1  0.00803903  0.33179543  0.75481770  1.0
  Ni  Ni694  1  0.00803903  0.66512877  0.75481770  1.0
  Ni  Ni695  1  0.00803903  0.99846210  0.75481770  1.0
  Ni  Ni696  1  0.34137237  0.33179543  0.75481770  1.0
  Ni  Ni697  1  0.34137237  0.66512877  0.75481770  1.0
  Ni  Ni698  1  0.34137237  0.99846210  0.75481770  1.0
  Ni  Ni699  1  0.67470570  0.33179543  0.75481770  1.0
  Ni  Ni700  1  0.67470570  0.66512877  0.75481770  1.0
  Ni  Ni701  1  0.67470570  0.99846210  0.75481770  1.0
  Ni  Ni702  1  0.23209567  0.00686800  0.72960000  1.0
  Ni  Ni703  1  0.23209567  0.34020133  0.72960000  1.0
  Ni  Ni704  1  0.23209567  0.67353467  0.72960000  1.0
  Ni  Ni705  1  0.56542900  0.00686800  0.72960000  1.0
  Ni  Ni706  1  0.56542900  0.34020133  0.72960000  1.0
  Ni  Ni707  1  0.56542900  0.67353467  0.72960000  1.0
  Ni  Ni708  1  0.89876233  0.00686800  0.72960000  1.0
  Ni  Ni709  1  0.89876233  0.34020133  0.72960000  1.0
  Ni  Ni710  1  0.89876233  0.67353467  0.72960000  1.0
  Ni  Ni711  1  0.11542900  0.32353467  0.77960000  1.0
  Ni  Ni712  1  0.11542900  0.65686800  0.77960000  1.0
  Ni  Ni713  1  0.11542900  0.99020133  0.77960000  1.0
  Ni  Ni714  1  0.44876233  0.32353467  0.77960000  1.0
  Ni  Ni715  1  0.44876233  0.65686800  0.77960000  1.0
  Ni  Ni716  1  0.44876233  0.99020133  0.77960000  1.0
  Ni  Ni717  1  0.78209567  0.32353467  0.77960000  1.0
  Ni  Ni718  1  0.78209567  0.65686800  0.77960000  1.0
  Ni  Ni719  1  0.78209567  0.99020133  0.77960000  1.0
  Ni  Ni720  1  0.18904277  0.04762197  0.77908310  1.0
  Ni  Ni721  1  0.18904277  0.38095530  0.77908310  1.0
  Ni  Ni722  1  0.18904277  0.71428863  0.77908310  1.0
  Ni  Ni723  1  0.52237610  0.04762197  0.77908310  1.0
  Ni  Ni724  1  0.52237610  0.38095530  0.77908310  1.0
  Ni  Ni725  1  0.52237610  0.71428863  0.77908310  1.0
  Ni  Ni726  1  0.85570943  0.04762197  0.77908310  1.0
  Ni  Ni727  1  0.85570943  0.38095530  0.77908310  1.0
  Ni  Ni728  1  0.85570943  0.71428863  0.77908310  1.0
  Ni  Ni729  1  0.30570943  0.06428863  0.72908310  1.0
  Ni  Ni730  1  0.30570943  0.39762197  0.72908310  1.0
  Ni  Ni731  1  0.30570943  0.73095530  0.72908310  1.0
  Ni  Ni732  1  0.63904277  0.06428863  0.72908310  1.0
  Ni  Ni733  1  0.63904277  0.39762197  0.72908310  1.0
  Ni  Ni734  1  0.63904277  0.73095530  0.72908310  1.0
  Ni  Ni735  1  0.97237610  0.06428863  0.72908310  1.0
  Ni  Ni736  1  0.97237610  0.39762197  0.72908310  1.0
  Ni  Ni737  1  0.97237610  0.73095530  0.72908310  1.0
  Ni  Ni738  1  0.11767320  0.05311193  0.76261320  1.0
  Ni  Ni739  1  0.11767320  0.38644527  0.76261320  1.0
  Ni  Ni740  1  0.11767320  0.71977860  0.76261320  1.0
  Ni  Ni741  1  0.45100653  0.05311193  0.76261320  1.0
  Ni  Ni742  1  0.45100653  0.38644527  0.76261320  1.0
  Ni  Ni743  1  0.45100653  0.71977860  0.76261320  1.0
  Ni  Ni744  1  0.78433987  0.05311193  0.76261320  1.0
  Ni  Ni745  1  0.78433987  0.38644527  0.76261320  1.0
  Ni  Ni746  1  0.78433987  0.71977860  0.76261320  1.0
  Ni  Ni747  1  0.23433987  0.06977860  0.71261320  1.0
  Ni  Ni748  1  0.23433987  0.40311193  0.71261320  1.0
  Ni  Ni749  1  0.23433987  0.73644527  0.71261320  1.0
  Ni  Ni750  1  0.56767320  0.06977860  0.71261320  1.0
  Ni  Ni751  1  0.56767320  0.40311193  0.71261320  1.0
  Ni  Ni752  1  0.56767320  0.73644527  0.71261320  1.0
  Ni  Ni753  1  0.90100653  0.06977860  0.71261320  1.0
  Ni  Ni754  1  0.90100653  0.40311193  0.71261320  1.0
  Ni  Ni755  1  0.90100653  0.73644527  0.71261320  1.0
  Ni  Ni756  1  0.22556103  0.14751010  0.63552070  1.0
  Ni  Ni757  1  0.22556103  0.48084343  0.63552070  1.0
  Ni  Ni758  1  0.22556103  0.81417677  0.63552070  1.0
  Ni  Ni759  1  0.55889437  0.14751010  0.63552070  1.0
  Ni  Ni760  1  0.55889437  0.48084343  0.63552070  1.0
  Ni  Ni761  1  0.55889437  0.81417677  0.63552070  1.0
  Ni  Ni762  1  0.89222770  0.14751010  0.63552070  1.0
  Ni  Ni763  1  0.89222770  0.48084343  0.63552070  1.0
  Ni  Ni764  1  0.89222770  0.81417677  0.63552070  1.0
  Ni  Ni765  1  0.10889437  0.13084343  0.68552070  1.0
  Ni  Ni766  1  0.10889437  0.46417677  0.68552070  1.0
  Ni  Ni767  1  0.10889437  0.79751010  0.68552070  1.0
  Ni  Ni768  1  0.44222770  0.13084343  0.68552070  1.0
  Ni  Ni769  1  0.44222770  0.46417677  0.68552070  1.0
  Ni  Ni770  1  0.44222770  0.79751010  0.68552070  1.0
  Ni  Ni771  1  0.77556103  0.13084343  0.68552070  1.0
  Ni  Ni772  1  0.77556103  0.46417677  0.68552070  1.0
  Ni  Ni773  1  0.77556103  0.79751010  0.68552070  1.0
  Ni  Ni774  1  0.29693060  0.14202013  0.65199060  1.0
  Ni  Ni775  1  0.29693060  0.47535347  0.65199060  1.0
  Ni  Ni776  1  0.29693060  0.80868680  0.65199060  1.0
  Ni  Ni777  1  0.63026393  0.14202013  0.65199060  1.0
  Ni  Ni778  1  0.63026393  0.47535347  0.65199060  1.0
  Ni  Ni779  1  0.63026393  0.80868680  0.65199060  1.0
  Ni  Ni780  1  0.96359727  0.14202013  0.65199060  1.0
  Ni  Ni781  1  0.96359727  0.47535347  0.65199060  1.0
  Ni  Ni782  1  0.96359727  0.80868680  0.65199060  1.0
  Ni  Ni783  1  0.08026393  0.15868680  0.60199060  1.0
  Ni  Ni784  1  0.08026393  0.49202013  0.60199060  1.0
  Ni  Ni785  1  0.08026393  0.82535347  0.60199060  1.0
  Ni  Ni786  1  0.41359727  0.15868680  0.60199060  1.0
  Ni  Ni787  1  0.41359727  0.49202013  0.60199060  1.0
  Ni  Ni788  1  0.41359727  0.82535347  0.60199060  1.0
  Ni  Ni789  1  0.74693060  0.15868680  0.60199060  1.0
  Ni  Ni790  1  0.74693060  0.49202013  0.60199060  1.0
  Ni  Ni791  1  0.74693060  0.82535347  0.60199060  1.0
  Ni  Ni792  1  0.18989810  0.21333663  0.60978610  1.0
  Ni  Ni793  1  0.18989810  0.54666997  0.60978610  1.0
  Ni  Ni794  1  0.18989810  0.88000330  0.60978610  1.0
  Ni  Ni795  1  0.52323143  0.21333663  0.60978610  1.0
  Ni  Ni796  1  0.52323143  0.54666997  0.60978610  1.0
  Ni  Ni797  1  0.52323143  0.88000330  0.60978610  1.0
  Ni  Ni798  1  0.85656477  0.21333663  0.60978610  1.0
  Ni  Ni799  1  0.85656477  0.54666997  0.60978610  1.0
  Ni  Ni800  1  0.85656477  0.88000330  0.60978610  1.0
  Ni  Ni801  1  0.07323143  0.19666997  0.65978610  1.0
  Ni  Ni802  1  0.07323143  0.53000330  0.65978610  1.0
  Ni  Ni803  1  0.07323143  0.86333663  0.65978610  1.0
  Ni  Ni804  1  0.40656477  0.19666997  0.65978610  1.0
  Ni  Ni805  1  0.40656477  0.53000330  0.65978610  1.0
  Ni  Ni806  1  0.40656477  0.86333663  0.65978610  1.0
  Ni  Ni807  1  0.73989810  0.19666997  0.65978610  1.0
  Ni  Ni808  1  0.73989810  0.53000330  0.65978610  1.0
  Ni  Ni809  1  0.73989810  0.86333663  0.65978610  1.0
  Ni  Ni810  1  0.18250813  0.18826407  0.68500380  1.0
  Ni  Ni811  1  0.18250813  0.52159740  0.68500380  1.0
  Ni  Ni812  1  0.18250813  0.85493073  0.68500380  1.0
  Ni  Ni813  1  0.51584147  0.18826407  0.68500380  1.0
  Ni  Ni814  1  0.51584147  0.52159740  0.68500380  1.0
  Ni  Ni815  1  0.51584147  0.85493073  0.68500380  1.0
  Ni  Ni816  1  0.84917480  0.18826407  0.68500380  1.0
  Ni  Ni817  1  0.84917480  0.52159740  0.68500380  1.0
  Ni  Ni818  1  0.84917480  0.85493073  0.68500380  1.0
  Ni  Ni819  1  0.29917480  0.20493073  0.63500380  1.0
  Ni  Ni820  1  0.29917480  0.53826407  0.63500380  1.0
  Ni  Ni821  1  0.29917480  0.87159740  0.63500380  1.0
  Ni  Ni822  1  0.63250813  0.20493073  0.63500380  1.0
  Ni  Ni823  1  0.63250813  0.53826407  0.63500380  1.0
  Ni  Ni824  1  0.63250813  0.87159740  0.63500380  1.0
  Ni  Ni825  1  0.96584147  0.20493073  0.63500380  1.0
  Ni  Ni826  1  0.96584147  0.53826407  0.63500380  1.0
  Ni  Ni827  1  0.96584147  0.87159740  0.63500380  1.0
  Ni  Ni828  1  0.24040425  0.19714308  0.65897575  1.0
  Ni  Ni829  1  0.24040425  0.53047642  0.65897575  1.0
  Ni  Ni830  1  0.24040425  0.86380975  0.65897575  1.0
  Ni  Ni831  1  0.57373758  0.19714308  0.65897575  1.0
  Ni  Ni832  1  0.57373758  0.53047642  0.65897575  1.0
  Ni  Ni833  1  0.57373758  0.86380975  0.65897575  1.0
  Ni  Ni834  1  0.90707092  0.19714308  0.65897575  1.0
  Ni  Ni835  1  0.90707092  0.53047642  0.65897575  1.0
  Ni  Ni836  1  0.90707092  0.86380975  0.65897575  1.0
  Ni  Ni837  1  0.02373758  0.21380975  0.60897575  1.0
  Ni  Ni838  1  0.02373758  0.54714308  0.60897575  1.0
  Ni  Ni839  1  0.02373758  0.88047642  0.60897575  1.0
  Ni  Ni840  1  0.35707092  0.21380975  0.60897575  1.0
  Ni  Ni841  1  0.35707092  0.54714308  0.60897575  1.0
  Ni  Ni842  1  0.35707092  0.88047642  0.60897575  1.0
  Ni  Ni843  1  0.69040425  0.21380975  0.60897575  1.0
  Ni  Ni844  1  0.69040425  0.54714308  0.60897575  1.0
  Ni  Ni845  1  0.69040425  0.88047642  0.60897575  1.0
  Ni  Ni846  1  0.25572985  0.24647955  0.68252735  1.0
  Ni  Ni847  1  0.25572985  0.57981288  0.68252735  1.0
  Ni  Ni848  1  0.25572985  0.91314622  0.68252735  1.0
  Ni  Ni849  1  0.58906318  0.24647955  0.68252735  1.0
  Ni  Ni850  1  0.58906318  0.57981288  0.68252735  1.0
  Ni  Ni851  1  0.58906318  0.91314622  0.68252735  1.0
  Ni  Ni852  1  0.92239652  0.24647955  0.68252735  1.0
  Ni  Ni853  1  0.92239652  0.57981288  0.68252735  1.0
  Ni  Ni854  1  0.92239652  0.91314622  0.68252735  1.0
  Ni  Ni855  1  0.03906318  0.26314622  0.63252735  1.0
  Ni  Ni856  1  0.03906318  0.59647955  0.63252735  1.0
  Ni  Ni857  1  0.03906318  0.92981288  0.63252735  1.0
  Ni  Ni858  1  0.37239652  0.26314622  0.63252735  1.0
  Ni  Ni859  1  0.37239652  0.59647955  0.63252735  1.0
  Ni  Ni860  1  0.37239652  0.92981288  0.63252735  1.0
  Ni  Ni861  1  0.70572985  0.26314622  0.63252735  1.0
  Ni  Ni862  1  0.70572985  0.59647955  0.63252735  1.0
  Ni  Ni863  1  0.70572985  0.92981288  0.63252735  1.0
  Ni  Ni864  1  0.18357053  0.25203027  0.66587520  1.0
  Ni  Ni865  1  0.18357053  0.58536360  0.66587520  1.0
  Ni  Ni866  1  0.18357053  0.91869693  0.66587520  1.0
  Ni  Ni867  1  0.51690387  0.25203027  0.66587520  1.0
  Ni  Ni868  1  0.51690387  0.58536360  0.66587520  1.0
  Ni  Ni869  1  0.51690387  0.91869693  0.66587520  1.0
  Ni  Ni870  1  0.85023720  0.25203027  0.66587520  1.0
  Ni  Ni871  1  0.85023720  0.58536360  0.66587520  1.0
  Ni  Ni872  1  0.85023720  0.91869693  0.66587520  1.0
  Ni  Ni873  1  0.30023720  0.26869693  0.61587520  1.0
  Ni  Ni874  1  0.30023720  0.60203027  0.61587520  1.0
  Ni  Ni875  1  0.30023720  0.93536360  0.61587520  1.0
  Ni  Ni876  1  0.63357053  0.26869693  0.61587520  1.0
  Ni  Ni877  1  0.63357053  0.60203027  0.61587520  1.0
  Ni  Ni878  1  0.63357053  0.93536360  0.61587520  1.0
  Ni  Ni879  1  0.96690387  0.26869693  0.61587520  1.0
  Ni  Ni880  1  0.96690387  0.60203027  0.61587520  1.0
  Ni  Ni881  1  0.96690387  0.93536360  0.61587520  1.0
  Ni  Ni882  1  0.05887395  0.31531918  0.63207645  1.0
  Ni  Ni883  1  0.05887395  0.64865252  0.63207645  1.0
  Ni  Ni884  1  0.05887395  0.98198585  0.63207645  1.0
  Ni  Ni885  1  0.39220728  0.31531918  0.63207645  1.0
  Ni  Ni886  1  0.39220728  0.64865252  0.63207645  1.0
  Ni  Ni887  1  0.39220728  0.98198585  0.63207645  1.0
  Ni  Ni888  1  0.72554062  0.31531918  0.63207645  1.0
  Ni  Ni889  1  0.72554062  0.64865252  0.63207645  1.0
  Ni  Ni890  1  0.72554062  0.98198585  0.63207645  1.0
  Ni  Ni891  1  0.27554062  0.29865252  0.68207645  1.0
  Ni  Ni892  1  0.27554062  0.63198585  0.68207645  1.0
  Ni  Ni893  1  0.27554062  0.96531918  0.68207645  1.0
  Ni  Ni894  1  0.60887395  0.29865252  0.68207645  1.0
  Ni  Ni895  1  0.60887395  0.63198585  0.68207645  1.0
  Ni  Ni896  1  0.60887395  0.96531918  0.68207645  1.0
  Ni  Ni897  1  0.94220728  0.29865252  0.68207645  1.0
  Ni  Ni898  1  0.94220728  0.63198585  0.68207645  1.0
  Ni  Ni899  1  0.94220728  0.96531918  0.68207645  1.0
  Ni  Ni900  1  0.13103327  0.30976847  0.64872860  1.0
  Ni  Ni901  1  0.13103327  0.64310180  0.64872860  1.0
  Ni  Ni902  1  0.13103327  0.97643513  0.64872860  1.0
  Ni  Ni903  1  0.46436660  0.30976847  0.64872860  1.0
  Ni  Ni904  1  0.46436660  0.64310180  0.64872860  1.0
  Ni  Ni905  1  0.46436660  0.97643513  0.64872860  1.0
  Ni  Ni906  1  0.79769993  0.30976847  0.64872860  1.0
  Ni  Ni907  1  0.79769993  0.64310180  0.64872860  1.0
  Ni  Ni908  1  0.79769993  0.97643513  0.64872860  1.0
  Ni  Ni909  1  0.01436660  0.29310180  0.69872860  1.0
  Ni  Ni910  1  0.01436660  0.62643513  0.69872860  1.0
  Ni  Ni911  1  0.01436660  0.95976847  0.69872860  1.0
  Ni  Ni912  1  0.34769993  0.29310180  0.69872860  1.0
  Ni  Ni913  1  0.34769993  0.62643513  0.69872860  1.0
  Ni  Ni914  1  0.34769993  0.95976847  0.69872860  1.0
  Ni  Ni915  1  0.68103327  0.29310180  0.69872860  1.0
  Ni  Ni916  1  0.68103327  0.62643513  0.69872860  1.0
  Ni  Ni917  1  0.68103327  0.95976847  0.69872860  1.0
  Ni  Ni918  1  0.07419955  0.03132232  0.65562805  1.0
  Ni  Ni919  1  0.07419955  0.36465565  0.65562805  1.0
  Ni  Ni920  1  0.07419955  0.69798898  0.65562805  1.0
  Ni  Ni921  1  0.40753288  0.03132232  0.65562805  1.0
  Ni  Ni922  1  0.40753288  0.36465565  0.65562805  1.0
  Ni  Ni923  1  0.40753288  0.69798898  0.65562805  1.0
  Ni  Ni924  1  0.74086622  0.03132232  0.65562805  1.0
  Ni  Ni925  1  0.74086622  0.36465565  0.65562805  1.0
  Ni  Ni926  1  0.74086622  0.69798898  0.65562805  1.0
  Ni  Ni927  1  0.19086622  0.04798898  0.60562805  1.0
  Ni  Ni928  1  0.19086622  0.38132232  0.60562805  1.0
  Ni  Ni929  1  0.19086622  0.71465565  0.60562805  1.0
  Ni  Ni930  1  0.52419955  0.04798898  0.60562805  1.0
  Ni  Ni931  1  0.52419955  0.38132232  0.60562805  1.0
  Ni  Ni932  1  0.52419955  0.71465565  0.60562805  1.0
  Ni  Ni933  1  0.85753288  0.04798898  0.60562805  1.0
  Ni  Ni934  1  0.85753288  0.38132232  0.60562805  1.0
  Ni  Ni935  1  0.85753288  0.71465565  0.60562805  1.0
  Ni  Ni936  1  0.02470570  0.04846210  0.60481770  1.0
  Ni  Ni937  1  0.02470570  0.38179543  0.60481770  1.0
  Ni  Ni938  1  0.02470570  0.71512877  0.60481770  1.0
  Ni  Ni939  1  0.35803903  0.04846210  0.60481770  1.0
  Ni  Ni940  1  0.35803903  0.38179543  0.60481770  1.0
  Ni  Ni941  1  0.35803903  0.71512877  0.60481770  1.0
  Ni  Ni942  1  0.69137237  0.04846210  0.60481770  1.0
  Ni  Ni943  1  0.69137237  0.38179543  0.60481770  1.0
  Ni  Ni944  1  0.69137237  0.71512877  0.60481770  1.0
  Ni  Ni945  1  0.24137237  0.03179543  0.65481770  1.0
  Ni  Ni946  1  0.24137237  0.36512877  0.65481770  1.0
  Ni  Ni947  1  0.24137237  0.69846210  0.65481770  1.0
  Ni  Ni948  1  0.57470570  0.03179543  0.65481770  1.0
  Ni  Ni949  1  0.57470570  0.36512877  0.65481770  1.0
  Ni  Ni950  1  0.57470570  0.69846210  0.65481770  1.0
  Ni  Ni951  1  0.90803903  0.03179543  0.65481770  1.0
  Ni  Ni952  1  0.90803903  0.36512877  0.65481770  1.0
  Ni  Ni953  1  0.90803903  0.69846210  0.65481770  1.0
  Ni  Ni954  1  0.13209567  0.04020133  0.62960000  1.0
  Ni  Ni955  1  0.13209567  0.37353467  0.62960000  1.0
  Ni  Ni956  1  0.13209567  0.70686800  0.62960000  1.0
  Ni  Ni957  1  0.46542900  0.04020133  0.62960000  1.0
  Ni  Ni958  1  0.46542900  0.37353467  0.62960000  1.0
  Ni  Ni959  1  0.46542900  0.70686800  0.62960000  1.0
  Ni  Ni960  1  0.79876233  0.04020133  0.62960000  1.0
  Ni  Ni961  1  0.79876233  0.37353467  0.62960000  1.0
  Ni  Ni962  1  0.79876233  0.70686800  0.62960000  1.0
  Ni  Ni963  1  0.01542900  0.02353467  0.67960000  1.0
  Ni  Ni964  1  0.01542900  0.35686800  0.67960000  1.0
  Ni  Ni965  1  0.01542900  0.69020133  0.67960000  1.0
  Ni  Ni966  1  0.34876233  0.02353467  0.67960000  1.0
  Ni  Ni967  1  0.34876233  0.35686800  0.67960000  1.0
  Ni  Ni968  1  0.34876233  0.69020133  0.67960000  1.0
  Ni  Ni969  1  0.68209567  0.02353467  0.67960000  1.0
  Ni  Ni970  1  0.68209567  0.35686800  0.67960000  1.0
  Ni  Ni971  1  0.68209567  0.69020133  0.67960000  1.0
  Ni  Ni972  1  0.08904277  0.08095530  0.67908310  1.0
  Ni  Ni973  1  0.08904277  0.41428863  0.67908310  1.0
  Ni  Ni974  1  0.08904277  0.74762197  0.67908310  1.0
  Ni  Ni975  1  0.42237610  0.08095530  0.67908310  1.0
  Ni  Ni976  1  0.42237610  0.41428863  0.67908310  1.0
  Ni  Ni977  1  0.42237610  0.74762197  0.67908310  1.0
  Ni  Ni978  1  0.75570943  0.08095530  0.67908310  1.0
  Ni  Ni979  1  0.75570943  0.41428863  0.67908310  1.0
  Ni  Ni980  1  0.75570943  0.74762197  0.67908310  1.0
  Ni  Ni981  1  0.20570943  0.09762197  0.62908310  1.0
  Ni  Ni982  1  0.20570943  0.43095530  0.62908310  1.0
  Ni  Ni983  1  0.20570943  0.76428863  0.62908310  1.0
  Ni  Ni984  1  0.53904277  0.09762197  0.62908310  1.0
  Ni  Ni985  1  0.53904277  0.43095530  0.62908310  1.0
  Ni  Ni986  1  0.53904277  0.76428863  0.62908310  1.0
  Ni  Ni987  1  0.87237610  0.09762197  0.62908310  1.0
  Ni  Ni988  1  0.87237610  0.43095530  0.62908310  1.0
  Ni  Ni989  1  0.87237610  0.76428863  0.62908310  1.0
  Ni  Ni990  1  0.01767320  0.08644527  0.66261320  1.0
  Ni  Ni991  1  0.01767320  0.41977860  0.66261320  1.0
  Ni  Ni992  1  0.01767320  0.75311193  0.66261320  1.0
  Ni  Ni993  1  0.35100653  0.08644527  0.66261320  1.0
  Ni  Ni994  1  0.35100653  0.41977860  0.66261320  1.0
  Ni  Ni995  1  0.35100653  0.75311193  0.66261320  1.0
  Ni  Ni996  1  0.68433987  0.08644527  0.66261320  1.0
  Ni  Ni997  1  0.68433987  0.41977860  0.66261320  1.0
  Ni  Ni998  1  0.68433987  0.75311193  0.66261320  1.0
  Ni  Ni999  1  0.13433987  0.10311193  0.61261320  1.0
  Ni  Ni1000  1  0.13433987  0.43644527  0.61261320  1.0
  Ni  Ni1001  1  0.13433987  0.76977860  0.61261320  1.0
  Ni  Ni1002  1  0.46767320  0.10311193  0.61261320  1.0
  Ni  Ni1003  1  0.46767320  0.43644527  0.61261320  1.0
  Ni  Ni1004  1  0.46767320  0.76977860  0.61261320  1.0
  Ni  Ni1005  1  0.80100653  0.10311193  0.61261320  1.0
  Ni  Ni1006  1  0.80100653  0.43644527  0.61261320  1.0
  Ni  Ni1007  1  0.80100653  0.76977860  0.61261320  1.0
  Zr  Zr1008  1  0.11517277  0.06354997  0.92290710  1.0
  Zr  Zr1009  1  0.11517277  0.39688330  0.92290710  1.0
  Zr  Zr1010  1  0.11517277  0.73021663  0.92290710  1.0
  Zr  Zr1011  1  0.44850610  0.06354997  0.92290710  1.0
  Zr  Zr1012  1  0.44850610  0.39688330  0.92290710  1.0
  Zr  Zr1013  1  0.44850610  0.73021663  0.92290710  1.0
  Zr  Zr1014  1  0.78183943  0.06354997  0.92290710  1.0
  Zr  Zr1015  1  0.78183943  0.39688330  0.92290710  1.0
  Zr  Zr1016  1  0.78183943  0.73021663  0.92290710  1.0
  Zr  Zr1017  1  0.33183943  0.04688330  0.97290710  1.0
  Zr  Zr1018  1  0.33183943  0.38021663  0.97290710  1.0
  Zr  Zr1019  1  0.33183943  0.71354997  0.97290710  1.0
  Zr  Zr1020  1  0.66517277  0.04688330  0.97290710  1.0
  Zr  Zr1021  1  0.66517277  0.38021663  0.97290710  1.0
  Zr  Zr1022  1  0.66517277  0.71354997  0.97290710  1.0
  Zr  Zr1023  1  0.99850610  0.04688330  0.97290710  1.0
  Zr  Zr1024  1  0.99850610  0.38021663  0.97290710  1.0
  Zr  Zr1025  1  0.99850610  0.71354997  0.97290710  1.0
  Zr  Zr1026  1  0.08250697  0.14669723  0.94518230  1.0
  Zr  Zr1027  1  0.08250697  0.48003057  0.94518230  1.0
  Zr  Zr1028  1  0.08250697  0.81336390  0.94518230  1.0
  Zr  Zr1029  1  0.41584030  0.14669723  0.94518230  1.0
  Zr  Zr1030  1  0.41584030  0.48003057  0.94518230  1.0
  Zr  Zr1031  1  0.41584030  0.81336390  0.94518230  1.0
  Zr  Zr1032  1  0.74917363  0.14669723  0.94518230  1.0
  Zr  Zr1033  1  0.74917363  0.48003057  0.94518230  1.0
  Zr  Zr1034  1  0.74917363  0.81336390  0.94518230  1.0
  Zr  Zr1035  1  0.29917363  0.13003057  0.99518230  1.0
  Zr  Zr1036  1  0.29917363  0.46336390  0.99518230  1.0
  Zr  Zr1037  1  0.29917363  0.79669723  0.99518230  1.0
  Zr  Zr1038  1  0.63250697  0.13003057  0.99518230  1.0
  Zr  Zr1039  1  0.63250697  0.46336390  0.99518230  1.0
  Zr  Zr1040  1  0.63250697  0.79669723  0.99518230  1.0
  Zr  Zr1041  1  0.96584030  0.13003057  0.99518230  1.0
  Zr  Zr1042  1  0.96584030  0.46336390  0.99518230  1.0
  Zr  Zr1043  1  0.96584030  0.79669723  0.99518230  1.0
  Zr  Zr1044  1  0.16543017  0.21510150  0.96942150  1.0
  Zr  Zr1045  1  0.16543017  0.54843483  0.96942150  1.0
  Zr  Zr1046  1  0.16543017  0.88176817  0.96942150  1.0
  Zr  Zr1047  1  0.49876350  0.21510150  0.96942150  1.0
  Zr  Zr1048  1  0.49876350  0.54843483  0.96942150  1.0
  Zr  Zr1049  1  0.49876350  0.88176817  0.96942150  1.0
  Zr  Zr1050  1  0.83209683  0.21510150  0.96942150  1.0
  Zr  Zr1051  1  0.83209683  0.54843483  0.96942150  1.0
  Zr  Zr1052  1  0.83209683  0.88176817  0.96942150  1.0
  Zr  Zr1053  1  0.28209683  0.23176817  0.91942150  1.0
  Zr  Zr1054  1  0.28209683  0.56510150  0.91942150  1.0
  Zr  Zr1055  1  0.28209683  0.89843483  0.91942150  1.0
  Zr  Zr1056  1  0.61543017  0.23176817  0.91942150  1.0
  Zr  Zr1057  1  0.61543017  0.56510150  0.91942150  1.0
  Zr  Zr1058  1  0.61543017  0.89843483  0.91942150  1.0
  Zr  Zr1059  1  0.94876350  0.23176817  0.91942150  1.0
  Zr  Zr1060  1  0.94876350  0.56510150  0.91942150  1.0
  Zr  Zr1061  1  0.94876350  0.89843483  0.91942150  1.0
  Zr  Zr1062  1  0.13276437  0.29824877  0.99169670  1.0
  Zr  Zr1063  1  0.13276437  0.63158210  0.99169670  1.0
  Zr  Zr1064  1  0.13276437  0.96491543  0.99169670  1.0
  Zr  Zr1065  1  0.46609770  0.29824877  0.99169670  1.0
  Zr  Zr1066  1  0.46609770  0.63158210  0.99169670  1.0
  Zr  Zr1067  1  0.46609770  0.96491543  0.99169670  1.0
  Zr  Zr1068  1  0.79943103  0.29824877  0.99169670  1.0
  Zr  Zr1069  1  0.79943103  0.63158210  0.99169670  1.0
  Zr  Zr1070  1  0.79943103  0.96491543  0.99169670  1.0
  Zr  Zr1071  1  0.24943103  0.31491543  0.94169670  1.0
  Zr  Zr1072  1  0.24943103  0.64824877  0.94169670  1.0
  Zr  Zr1073  1  0.24943103  0.98158210  0.94169670  1.0
  Zr  Zr1074  1  0.58276437  0.31491543  0.94169670  1.0
  Zr  Zr1075  1  0.58276437  0.64824877  0.94169670  1.0
  Zr  Zr1076  1  0.58276437  0.98158210  0.94169670  1.0
  Zr  Zr1077  1  0.91609770  0.31491543  0.94169670  1.0
  Zr  Zr1078  1  0.91609770  0.64824877  0.94169670  1.0
  Zr  Zr1079  1  0.91609770  0.98158210  0.94169670  1.0
  Zr  Zr1080  1  0.01517277  0.09688330  0.82290710  1.0
  Zr  Zr1081  1  0.01517277  0.43021663  0.82290710  1.0
  Zr  Zr1082  1  0.01517277  0.76354997  0.82290710  1.0
  Zr  Zr1083  1  0.34850610  0.09688330  0.82290710  1.0
  Zr  Zr1084  1  0.34850610  0.43021663  0.82290710  1.0
  Zr  Zr1085  1  0.34850610  0.76354997  0.82290710  1.0
  Zr  Zr1086  1  0.68183943  0.09688330  0.82290710  1.0
  Zr  Zr1087  1  0.68183943  0.43021663  0.82290710  1.0
  Zr  Zr1088  1  0.68183943  0.76354997  0.82290710  1.0
  Zr  Zr1089  1  0.23183943  0.08021663  0.87290710  1.0
  Zr  Zr1090  1  0.23183943  0.41354997  0.87290710  1.0
  Zr  Zr1091  1  0.23183943  0.74688330  0.87290710  1.0
  Zr  Zr1092  1  0.56517277  0.08021663  0.87290710  1.0
  Zr  Zr1093  1  0.56517277  0.41354997  0.87290710  1.0
  Zr  Zr1094  1  0.56517277  0.74688330  0.87290710  1.0
  Zr  Zr1095  1  0.89850610  0.08021663  0.87290710  1.0
  Zr  Zr1096  1  0.89850610  0.41354997  0.87290710  1.0
  Zr  Zr1097  1  0.89850610  0.74688330  0.87290710  1.0
  Zr  Zr1098  1  0.31584030  0.18003057  0.84518230  1.0
  Zr  Zr1099  1  0.31584030  0.51336390  0.84518230  1.0
  Zr  Zr1100  1  0.31584030  0.84669723  0.84518230  1.0
  Zr  Zr1101  1  0.64917363  0.18003057  0.84518230  1.0
  Zr  Zr1102  1  0.64917363  0.51336390  0.84518230  1.0
  Zr  Zr1103  1  0.64917363  0.84669723  0.84518230  1.0
  Zr  Zr1104  1  0.98250697  0.18003057  0.84518230  1.0
  Zr  Zr1105  1  0.98250697  0.51336390  0.84518230  1.0
  Zr  Zr1106  1  0.98250697  0.84669723  0.84518230  1.0
  Zr  Zr1107  1  0.19917363  0.16336390  0.89518230  1.0
  Zr  Zr1108  1  0.19917363  0.49669723  0.89518230  1.0
  Zr  Zr1109  1  0.19917363  0.83003057  0.89518230  1.0
  Zr  Zr1110  1  0.53250697  0.16336390  0.89518230  1.0
  Zr  Zr1111  1  0.53250697  0.49669723  0.89518230  1.0
  Zr  Zr1112  1  0.53250697  0.83003057  0.89518230  1.0
  Zr  Zr1113  1  0.86584030  0.16336390  0.89518230  1.0
  Zr  Zr1114  1  0.86584030  0.49669723  0.89518230  1.0
  Zr  Zr1115  1  0.86584030  0.83003057  0.89518230  1.0
  Zr  Zr1116  1  0.06543017  0.24843483  0.86942150  1.0
  Zr  Zr1117  1  0.06543017  0.58176817  0.86942150  1.0
  Zr  Zr1118  1  0.06543017  0.91510150  0.86942150  1.0
  Zr  Zr1119  1  0.39876350  0.24843483  0.86942150  1.0
  Zr  Zr1120  1  0.39876350  0.58176817  0.86942150  1.0
  Zr  Zr1121  1  0.39876350  0.91510150  0.86942150  1.0
  Zr  Zr1122  1  0.73209683  0.24843483  0.86942150  1.0
  Zr  Zr1123  1  0.73209683  0.58176817  0.86942150  1.0
  Zr  Zr1124  1  0.73209683  0.91510150  0.86942150  1.0
  Zr  Zr1125  1  0.18209683  0.26510150  0.81942150  1.0
  Zr  Zr1126  1  0.18209683  0.59843483  0.81942150  1.0
  Zr  Zr1127  1  0.18209683  0.93176817  0.81942150  1.0
  Zr  Zr1128  1  0.51543017  0.26510150  0.81942150  1.0
  Zr  Zr1129  1  0.51543017  0.59843483  0.81942150  1.0
  Zr  Zr1130  1  0.51543017  0.93176817  0.81942150  1.0
  Zr  Zr1131  1  0.84876350  0.26510150  0.81942150  1.0
  Zr  Zr1132  1  0.84876350  0.59843483  0.81942150  1.0
  Zr  Zr1133  1  0.84876350  0.93176817  0.81942150  1.0
  Zr  Zr1134  1  0.03276437  0.33158210  0.89169670  1.0
  Zr  Zr1135  1  0.03276437  0.66491543  0.89169670  1.0
  Zr  Zr1136  1  0.03276437  0.99824877  0.89169670  1.0
  Zr  Zr1137  1  0.36609770  0.33158210  0.89169670  1.0
  Zr  Zr1138  1  0.36609770  0.66491543  0.89169670  1.0
  Zr  Zr1139  1  0.36609770  0.99824877  0.89169670  1.0
  Zr  Zr1140  1  0.69943103  0.33158210  0.89169670  1.0
  Zr  Zr1141  1  0.69943103  0.66491543  0.89169670  1.0
  Zr  Zr1142  1  0.69943103  0.99824877  0.89169670  1.0
  Zr  Zr1143  1  0.14943103  0.01491543  0.84169670  1.0
  Zr  Zr1144  1  0.14943103  0.34824877  0.84169670  1.0
  Zr  Zr1145  1  0.14943103  0.68158210  0.84169670  1.0
  Zr  Zr1146  1  0.48276437  0.01491543  0.84169670  1.0
  Zr  Zr1147  1  0.48276437  0.34824877  0.84169670  1.0
  Zr  Zr1148  1  0.48276437  0.68158210  0.84169670  1.0
  Zr  Zr1149  1  0.81609770  0.01491543  0.84169670  1.0
  Zr  Zr1150  1  0.81609770  0.34824877  0.84169670  1.0
  Zr  Zr1151  1  0.81609770  0.68158210  0.84169670  1.0
  Zr  Zr1152  1  0.24850610  0.13021663  0.72290710  1.0
  Zr  Zr1153  1  0.24850610  0.46354997  0.72290710  1.0
  Zr  Zr1154  1  0.24850610  0.79688330  0.72290710  1.0
  Zr  Zr1155  1  0.58183943  0.13021663  0.72290710  1.0
  Zr  Zr1156  1  0.58183943  0.46354997  0.72290710  1.0
  Zr  Zr1157  1  0.58183943  0.79688330  0.72290710  1.0
  Zr  Zr1158  1  0.91517277  0.13021663  0.72290710  1.0
  Zr  Zr1159  1  0.91517277  0.46354997  0.72290710  1.0
  Zr  Zr1160  1  0.91517277  0.79688330  0.72290710  1.0
  Zr  Zr1161  1  0.13183943  0.11354997  0.77290710  1.0
  Zr  Zr1162  1  0.13183943  0.44688330  0.77290710  1.0
  Zr  Zr1163  1  0.13183943  0.78021663  0.77290710  1.0
  Zr  Zr1164  1  0.46517277  0.11354997  0.77290710  1.0
  Zr  Zr1165  1  0.46517277  0.44688330  0.77290710  1.0
  Zr  Zr1166  1  0.46517277  0.78021663  0.77290710  1.0
  Zr  Zr1167  1  0.79850610  0.11354997  0.77290710  1.0
  Zr  Zr1168  1  0.79850610  0.44688330  0.77290710  1.0
  Zr  Zr1169  1  0.79850610  0.78021663  0.77290710  1.0
  Zr  Zr1170  1  0.21584030  0.21336390  0.74518230  1.0
  Zr  Zr1171  1  0.21584030  0.54669723  0.74518230  1.0
  Zr  Zr1172  1  0.21584030  0.88003057  0.74518230  1.0
  Zr  Zr1173  1  0.54917363  0.21336390  0.74518230  1.0
  Zr  Zr1174  1  0.54917363  0.54669723  0.74518230  1.0
  Zr  Zr1175  1  0.54917363  0.88003057  0.74518230  1.0
  Zr  Zr1176  1  0.88250697  0.21336390  0.74518230  1.0
  Zr  Zr1177  1  0.88250697  0.54669723  0.74518230  1.0
  Zr  Zr1178  1  0.88250697  0.88003057  0.74518230  1.0
  Zr  Zr1179  1  0.09917363  0.19669723  0.79518230  1.0
  Zr  Zr1180  1  0.09917363  0.53003057  0.79518230  1.0
  Zr  Zr1181  1  0.09917363  0.86336390  0.79518230  1.0
  Zr  Zr1182  1  0.43250697  0.19669723  0.79518230  1.0
  Zr  Zr1183  1  0.43250697  0.53003057  0.79518230  1.0
  Zr  Zr1184  1  0.43250697  0.86336390  0.79518230  1.0
  Zr  Zr1185  1  0.76584030  0.19669723  0.79518230  1.0
  Zr  Zr1186  1  0.76584030  0.53003057  0.79518230  1.0
  Zr  Zr1187  1  0.76584030  0.86336390  0.79518230  1.0
  Zr  Zr1188  1  0.29876350  0.28176817  0.76942150  1.0
  Zr  Zr1189  1  0.29876350  0.61510150  0.76942150  1.0
  Zr  Zr1190  1  0.29876350  0.94843483  0.76942150  1.0
  Zr  Zr1191  1  0.63209683  0.28176817  0.76942150  1.0
  Zr  Zr1192  1  0.63209683  0.61510150  0.76942150  1.0
  Zr  Zr1193  1  0.63209683  0.94843483  0.76942150  1.0
  Zr  Zr1194  1  0.96543017  0.28176817  0.76942150  1.0
  Zr  Zr1195  1  0.96543017  0.61510150  0.76942150  1.0
  Zr  Zr1196  1  0.96543017  0.94843483  0.76942150  1.0
  Zr  Zr1197  1  0.08209683  0.29843483  0.71942150  1.0
  Zr  Zr1198  1  0.08209683  0.63176817  0.71942150  1.0
  Zr  Zr1199  1  0.08209683  0.96510150  0.71942150  1.0
  Zr  Zr1200  1  0.41543017  0.29843483  0.71942150  1.0
  Zr  Zr1201  1  0.41543017  0.63176817  0.71942150  1.0
  Zr  Zr1202  1  0.41543017  0.96510150  0.71942150  1.0
  Zr  Zr1203  1  0.74876350  0.29843483  0.71942150  1.0
  Zr  Zr1204  1  0.74876350  0.63176817  0.71942150  1.0
  Zr  Zr1205  1  0.74876350  0.96510150  0.71942150  1.0
  Zr  Zr1206  1  0.26609770  0.03158210  0.79169670  1.0
  Zr  Zr1207  1  0.26609770  0.36491543  0.79169670  1.0
  Zr  Zr1208  1  0.26609770  0.69824877  0.79169670  1.0
  Zr  Zr1209  1  0.59943103  0.03158210  0.79169670  1.0
  Zr  Zr1210  1  0.59943103  0.36491543  0.79169670  1.0
  Zr  Zr1211  1  0.59943103  0.69824877  0.79169670  1.0
  Zr  Zr1212  1  0.93276437  0.03158210  0.79169670  1.0
  Zr  Zr1213  1  0.93276437  0.36491543  0.79169670  1.0
  Zr  Zr1214  1  0.93276437  0.69824877  0.79169670  1.0
  Zr  Zr1215  1  0.04943103  0.04824877  0.74169670  1.0
  Zr  Zr1216  1  0.04943103  0.38158210  0.74169670  1.0
  Zr  Zr1217  1  0.04943103  0.71491543  0.74169670  1.0
  Zr  Zr1218  1  0.38276437  0.04824877  0.74169670  1.0
  Zr  Zr1219  1  0.38276437  0.38158210  0.74169670  1.0
  Zr  Zr1220  1  0.38276437  0.71491543  0.74169670  1.0
  Zr  Zr1221  1  0.71609770  0.04824877  0.74169670  1.0
  Zr  Zr1222  1  0.71609770  0.38158210  0.74169670  1.0
  Zr  Zr1223  1  0.71609770  0.71491543  0.74169670  1.0
  Zr  Zr1224  1  0.14850610  0.16354997  0.62290710  1.0
  Zr  Zr1225  1  0.14850610  0.49688330  0.62290710  1.0
  Zr  Zr1226  1  0.14850610  0.83021663  0.62290710  1.0
  Zr  Zr1227  1  0.48183943  0.16354997  0.62290710  1.0
  Zr  Zr1228  1  0.48183943  0.49688330  0.62290710  1.0
  Zr  Zr1229  1  0.48183943  0.83021663  0.62290710  1.0
  Zr  Zr1230  1  0.81517277  0.16354997  0.62290710  1.0
  Zr  Zr1231  1  0.81517277  0.49688330  0.62290710  1.0
  Zr  Zr1232  1  0.81517277  0.83021663  0.62290710  1.0
  Zr  Zr1233  1  0.03183943  0.14688330  0.67290710  1.0
  Zr  Zr1234  1  0.03183943  0.48021663  0.67290710  1.0
  Zr  Zr1235  1  0.03183943  0.81354997  0.67290710  1.0
  Zr  Zr1236  1  0.36517277  0.14688330  0.67290710  1.0
  Zr  Zr1237  1  0.36517277  0.48021663  0.67290710  1.0
  Zr  Zr1238  1  0.36517277  0.81354997  0.67290710  1.0
  Zr  Zr1239  1  0.69850610  0.14688330  0.67290710  1.0
  Zr  Zr1240  1  0.69850610  0.48021663  0.67290710  1.0
  Zr  Zr1241  1  0.69850610  0.81354997  0.67290710  1.0
  Zr  Zr1242  1  0.11584030  0.24669723  0.64518230  1.0
  Zr  Zr1243  1  0.11584030  0.58003057  0.64518230  1.0
  Zr  Zr1244  1  0.11584030  0.91336390  0.64518230  1.0
  Zr  Zr1245  1  0.44917363  0.24669723  0.64518230  1.0
  Zr  Zr1246  1  0.44917363  0.58003057  0.64518230  1.0
  Zr  Zr1247  1  0.44917363  0.91336390  0.64518230  1.0
  Zr  Zr1248  1  0.78250697  0.24669723  0.64518230  1.0
  Zr  Zr1249  1  0.78250697  0.58003057  0.64518230  1.0
  Zr  Zr1250  1  0.78250697  0.91336390  0.64518230  1.0
  Zr  Zr1251  1  0.33250697  0.23003057  0.69518230  1.0
  Zr  Zr1252  1  0.33250697  0.56336390  0.69518230  1.0
  Zr  Zr1253  1  0.33250697  0.89669723  0.69518230  1.0
  Zr  Zr1254  1  0.66584030  0.23003057  0.69518230  1.0
  Zr  Zr1255  1  0.66584030  0.56336390  0.69518230  1.0
  Zr  Zr1256  1  0.66584030  0.89669723  0.69518230  1.0
  Zr  Zr1257  1  0.99917363  0.23003057  0.69518230  1.0
  Zr  Zr1258  1  0.99917363  0.56336390  0.69518230  1.0
  Zr  Zr1259  1  0.99917363  0.89669723  0.69518230  1.0
  Zr  Zr1260  1  0.19876350  0.31510150  0.66942150  1.0
  Zr  Zr1261  1  0.19876350  0.64843483  0.66942150  1.0
  Zr  Zr1262  1  0.19876350  0.98176817  0.66942150  1.0
  Zr  Zr1263  1  0.53209683  0.31510150  0.66942150  1.0
  Zr  Zr1264  1  0.53209683  0.64843483  0.66942150  1.0
  Zr  Zr1265  1  0.53209683  0.98176817  0.66942150  1.0
  Zr  Zr1266  1  0.86543017  0.31510150  0.66942150  1.0
  Zr  Zr1267  1  0.86543017  0.64843483  0.66942150  1.0
  Zr  Zr1268  1  0.86543017  0.98176817  0.66942150  1.0
  Zr  Zr1269  1  0.31543017  0.33176817  0.61942150  1.0
  Zr  Zr1270  1  0.31543017  0.66510150  0.61942150  1.0
  Zr  Zr1271  1  0.31543017  0.99843483  0.61942150  1.0
  Zr  Zr1272  1  0.64876350  0.33176817  0.61942150  1.0
  Zr  Zr1273  1  0.64876350  0.66510150  0.61942150  1.0
  Zr  Zr1274  1  0.64876350  0.99843483  0.61942150  1.0
  Zr  Zr1275  1  0.98209683  0.33176817  0.61942150  1.0
  Zr  Zr1276  1  0.98209683  0.66510150  0.61942150  1.0
  Zr  Zr1277  1  0.98209683  0.99843483  0.61942150  1.0
  Zr  Zr1278  1  0.16609770  0.06491543  0.69169670  1.0
  Zr  Zr1279  1  0.16609770  0.39824877  0.69169670  1.0
  Zr  Zr1280  1  0.16609770  0.73158210  0.69169670  1.0
  Zr  Zr1281  1  0.49943103  0.06491543  0.69169670  1.0
  Zr  Zr1282  1  0.49943103  0.39824877  0.69169670  1.0
  Zr  Zr1283  1  0.49943103  0.73158210  0.69169670  1.0
  Zr  Zr1284  1  0.83276437  0.06491543  0.69169670  1.0
  Zr  Zr1285  1  0.83276437  0.39824877  0.69169670  1.0
  Zr  Zr1286  1  0.83276437  0.73158210  0.69169670  1.0
  Zr  Zr1287  1  0.28276437  0.08158210  0.64169670  1.0
  Zr  Zr1288  1  0.28276437  0.41491543  0.64169670  1.0
  Zr  Zr1289  1  0.28276437  0.74824877  0.64169670  1.0
  Zr  Zr1290  1  0.61609770  0.08158210  0.64169670  1.0
  Zr  Zr1291  1  0.61609770  0.41491543  0.64169670  1.0
  Zr  Zr1292  1  0.61609770  0.74824877  0.64169670  1.0
  Zr  Zr1293  1  0.94943103  0.08158210  0.64169670  1.0
  Zr  Zr1294  1  0.94943103  0.41491543  0.64169670  1.0
  Zr  Zr1295  1  0.94943103  0.74824877  0.64169670  1.0
