# generated using pymatgen
data_Zr2Ni7
_symmetry_space_group_name_H-M   'P 1'
_cell_length_a   37.54683728
_cell_length_b   38.35863201
_cell_length_c   28.06056002
_cell_angle_alpha   84.86305514
_cell_angle_beta   79.23174519
_cell_angle_gamma   70.63299660
_symmetry_Int_Tables_number   1
_chemical_formula_structural   Zr2Ni7
_chemical_formula_sum   'Zr288 Ni1008'
_cell_volume   37439.23903315
_cell_formula_units_Z   144
loop_
 _symmetry_equiv_pos_site_id
 _symmetry_equiv_pos_as_xyz
  1  'x, y, z'
loop_
 _atom_site_type_symbol
 _atom_site_label
 _atom_site_symmetry_multiplicity
 _atom_site_fract_x
 _atom_site_fract_y
 _atom_site_fract_z
 _atom_site_occupancy
  Ni  Ni0  1  0.18852028  0.30731633  0.92753706  1.0
  Ni  Ni1  1  0.18852028  0.64064967  0.92753706  1.0
  Ni  Ni2  1  0.18852028  0.97398300  0.92753706  1.0
  Ni  Ni3  1  0.52185361  0.30731633  0.92753706  1.0
  Ni  Ni4  1  0.52185361  0.64064967  0.92753706  1.0
  Ni  Ni5  1  0.52185361  0.97398300  0.92753706  1.0
  Ni  Ni6  1  0.85518694  0.30731633  0.92753706  1.0
  Ni  Ni7  1  0.85518694  0.64064967  0.92753706  1.0
  Ni  Ni8  1  0.85518694  0.97398300  0.92753706  1.0
  Ni  Ni9  1  0.29963139  0.30731633  0.98309261  1.0
  Ni  Ni10  1  0.29963139  0.64064967  0.98309261  1.0
  Ni  Ni11  1  0.29963139  0.97398300  0.98309261  1.0
  Ni  Ni12  1  0.63296472  0.30731633  0.98309261  1.0
  Ni  Ni13  1  0.63296472  0.64064967  0.98309261  1.0
  Ni  Ni14  1  0.63296472  0.97398300  0.98309261  1.0
  Ni  Ni15  1  0.96629806  0.30731633  0.98309261  1.0
  Ni  Ni16  1  0.96629806  0.64064967  0.98309261  1.0
  Ni  Ni17  1  0.96629806  0.97398300  0.98309261  1.0
  Ni  Ni18  1  0.26171983  0.30731633  0.90923717  1.0
  Ni  Ni19  1  0.26171983  0.64064967  0.90923717  1.0
  Ni  Ni20  1  0.26171983  0.97398300  0.90923717  1.0
  Ni  Ni21  1  0.59505317  0.30731633  0.90923717  1.0
  Ni  Ni22  1  0.59505317  0.64064967  0.90923717  1.0
  Ni  Ni23  1  0.59505317  0.97398300  0.90923717  1.0
  Ni  Ni24  1  0.92838650  0.30731633  0.90923717  1.0
  Ni  Ni25  1  0.92838650  0.64064967  0.90923717  1.0
  Ni  Ni26  1  0.92838650  0.97398300  0.90923717  1.0
  Ni  Ni27  1  0.03949761  0.30731633  0.96479272  1.0
  Ni  Ni28  1  0.03949761  0.64064967  0.96479272  1.0
  Ni  Ni29  1  0.03949761  0.97398300  0.96479272  1.0
  Ni  Ni30  1  0.37283094  0.30731633  0.96479272  1.0
  Ni  Ni31  1  0.37283094  0.64064967  0.96479272  1.0
  Ni  Ni32  1  0.37283094  0.97398300  0.96479272  1.0
  Ni  Ni33  1  0.70616428  0.30731633  0.96479272  1.0
  Ni  Ni34  1  0.70616428  0.64064967  0.96479272  1.0
  Ni  Ni35  1  0.70616428  0.97398300  0.96479272  1.0
  Ni  Ni36  1  0.18816350  0.25006800  0.97521383  1.0
  Ni  Ni37  1  0.18816350  0.58340133  0.97521383  1.0
  Ni  Ni38  1  0.18816350  0.91673467  0.97521383  1.0
  Ni  Ni39  1  0.52149683  0.25006800  0.97521383  1.0
  Ni  Ni40  1  0.52149683  0.58340133  0.97521383  1.0
  Ni  Ni41  1  0.52149683  0.91673467  0.97521383  1.0
  Ni  Ni42  1  0.85483017  0.25006800  0.97521383  1.0
  Ni  Ni43  1  0.85483017  0.58340133  0.97521383  1.0
  Ni  Ni44  1  0.85483017  0.91673467  0.97521383  1.0
  Ni  Ni45  1  0.07705239  0.25006800  0.91965828  1.0
  Ni  Ni46  1  0.07705239  0.58340133  0.91965828  1.0
  Ni  Ni47  1  0.07705239  0.91673467  0.91965828  1.0
  Ni  Ni48  1  0.41038572  0.25006800  0.91965828  1.0
  Ni  Ni49  1  0.41038572  0.58340133  0.91965828  1.0
  Ni  Ni50  1  0.41038572  0.91673467  0.91965828  1.0
  Ni  Ni51  1  0.74371906  0.25006800  0.91965828  1.0
  Ni  Ni52  1  0.74371906  0.58340133  0.91965828  1.0
  Ni  Ni53  1  0.74371906  0.91673467  0.91965828  1.0
  Ni  Ni54  1  0.18913106  0.25006800  0.89163861  1.0
  Ni  Ni55  1  0.18913106  0.58340133  0.89163861  1.0
  Ni  Ni56  1  0.18913106  0.91673467  0.89163861  1.0
  Ni  Ni57  1  0.52246439  0.25006800  0.89163861  1.0
  Ni  Ni58  1  0.52246439  0.58340133  0.89163861  1.0
  Ni  Ni59  1  0.52246439  0.91673467  0.89163861  1.0
  Ni  Ni60  1  0.85579772  0.25006800  0.89163861  1.0
  Ni  Ni61  1  0.85579772  0.58340133  0.89163861  1.0
  Ni  Ni62  1  0.85579772  0.91673467  0.89163861  1.0
  Ni  Ni63  1  0.30024217  0.25006800  0.94719417  1.0
  Ni  Ni64  1  0.30024217  0.58340133  0.94719417  1.0
  Ni  Ni65  1  0.30024217  0.91673467  0.94719417  1.0
  Ni  Ni66  1  0.63357550  0.25006800  0.94719417  1.0
  Ni  Ni67  1  0.63357550  0.58340133  0.94719417  1.0
  Ni  Ni68  1  0.63357550  0.91673467  0.94719417  1.0
  Ni  Ni69  1  0.96690883  0.25006800  0.94719417  1.0
  Ni  Ni70  1  0.96690883  0.58340133  0.94719417  1.0
  Ni  Ni71  1  0.96690883  0.91673467  0.94719417  1.0
  Ni  Ni72  1  0.24427050  0.24986500  0.92062633  1.0
  Ni  Ni73  1  0.24427050  0.58319833  0.92062633  1.0
  Ni  Ni74  1  0.24427050  0.91653167  0.92062633  1.0
  Ni  Ni75  1  0.57760383  0.24986500  0.92062633  1.0
  Ni  Ni76  1  0.57760383  0.58319833  0.92062633  1.0
  Ni  Ni77  1  0.57760383  0.91653167  0.92062633  1.0
  Ni  Ni78  1  0.91093717  0.24986500  0.92062633  1.0
  Ni  Ni79  1  0.91093717  0.58319833  0.92062633  1.0
  Ni  Ni80  1  0.91093717  0.91653167  0.92062633  1.0
  Ni  Ni81  1  0.02204828  0.24986500  0.97618189  1.0
  Ni  Ni82  1  0.02204828  0.58319833  0.97618189  1.0
  Ni  Ni83  1  0.02204828  0.91653167  0.97618189  1.0
  Ni  Ni84  1  0.35538161  0.24986500  0.97618189  1.0
  Ni  Ni85  1  0.35538161  0.58319833  0.97618189  1.0
  Ni  Ni86  1  0.35538161  0.91653167  0.97618189  1.0
  Ni  Ni87  1  0.68871494  0.24986500  0.97618189  1.0
  Ni  Ni88  1  0.68871494  0.58319833  0.97618189  1.0
  Ni  Ni89  1  0.68871494  0.91653167  0.97618189  1.0
  Ni  Ni90  1  0.30033761  0.19267800  0.91352022  1.0
  Ni  Ni91  1  0.30033761  0.52601133  0.91352022  1.0
  Ni  Ni92  1  0.30033761  0.85934467  0.91352022  1.0
  Ni  Ni93  1  0.63367094  0.19267800  0.91352022  1.0
  Ni  Ni94  1  0.63367094  0.52601133  0.91352022  1.0
  Ni  Ni95  1  0.63367094  0.85934467  0.91352022  1.0
  Ni  Ni96  1  0.96700428  0.19267800  0.91352022  1.0
  Ni  Ni97  1  0.96700428  0.52601133  0.91352022  1.0
  Ni  Ni98  1  0.96700428  0.85934467  0.91352022  1.0
  Ni  Ni99  1  0.07811539  0.19267800  0.96907578  1.0
  Ni  Ni100  1  0.07811539  0.52601133  0.96907578  1.0
  Ni  Ni101  1  0.07811539  0.85934467  0.96907578  1.0
  Ni  Ni102  1  0.41144872  0.19267800  0.96907578  1.0
  Ni  Ni103  1  0.41144872  0.52601133  0.96907578  1.0
  Ni  Ni104  1  0.41144872  0.85934467  0.96907578  1.0
  Ni  Ni105  1  0.74478206  0.19267800  0.96907578  1.0
  Ni  Ni106  1  0.74478206  0.52601133  0.96907578  1.0
  Ni  Ni107  1  0.74478206  0.85934467  0.96907578  1.0
  Ni  Ni108  1  0.22632806  0.19267800  0.93202261  1.0
  Ni  Ni109  1  0.22632806  0.52601133  0.93202261  1.0
  Ni  Ni110  1  0.22632806  0.85934467  0.93202261  1.0
  Ni  Ni111  1  0.55966139  0.19267800  0.93202261  1.0
  Ni  Ni112  1  0.55966139  0.52601133  0.93202261  1.0
  Ni  Ni113  1  0.55966139  0.85934467  0.93202261  1.0
  Ni  Ni114  1  0.89299472  0.19267800  0.93202261  1.0
  Ni  Ni115  1  0.89299472  0.52601133  0.93202261  1.0
  Ni  Ni116  1  0.89299472  0.85934467  0.93202261  1.0
  Ni  Ni117  1  0.00410583  0.19267800  0.98757817  1.0
  Ni  Ni118  1  0.00410583  0.52601133  0.98757817  1.0
  Ni  Ni119  1  0.00410583  0.85934467  0.98757817  1.0
  Ni  Ni120  1  0.33743917  0.19267800  0.98757817  1.0
  Ni  Ni121  1  0.33743917  0.52601133  0.98757817  1.0
  Ni  Ni122  1  0.33743917  0.85934467  0.98757817  1.0
  Ni  Ni123  1  0.67077250  0.19267800  0.98757817  1.0
  Ni  Ni124  1  0.67077250  0.52601133  0.98757817  1.0
  Ni  Ni125  1  0.67077250  0.85934467  0.98757817  1.0
  Ni  Ni126  1  0.13255783  0.14065533  0.98691767  1.0
  Ni  Ni127  1  0.13255783  0.47398867  0.98691767  1.0
  Ni  Ni128  1  0.13255783  0.80732200  0.98691767  1.0
  Ni  Ni129  1  0.46589117  0.14065533  0.98691767  1.0
  Ni  Ni130  1  0.46589117  0.47398867  0.98691767  1.0
  Ni  Ni131  1  0.46589117  0.80732200  0.98691767  1.0
  Ni  Ni132  1  0.79922450  0.14065533  0.98691767  1.0
  Ni  Ni133  1  0.79922450  0.47398867  0.98691767  1.0
  Ni  Ni134  1  0.79922450  0.80732200  0.98691767  1.0
  Ni  Ni135  1  0.02144672  0.14065533  0.93136211  1.0
  Ni  Ni136  1  0.02144672  0.47398867  0.93136211  1.0
  Ni  Ni137  1  0.02144672  0.80732200  0.93136211  1.0
  Ni  Ni138  1  0.35478006  0.14065533  0.93136211  1.0
  Ni  Ni139  1  0.35478006  0.47398867  0.93136211  1.0
  Ni  Ni140  1  0.35478006  0.80732200  0.93136211  1.0
  Ni  Ni141  1  0.68811339  0.14065533  0.93136211  1.0
  Ni  Ni142  1  0.68811339  0.47398867  0.93136211  1.0
  Ni  Ni143  1  0.68811339  0.80732200  0.93136211  1.0
  Ni  Ni144  1  0.20656739  0.14065533  0.96841528  1.0
  Ni  Ni145  1  0.20656739  0.47398867  0.96841528  1.0
  Ni  Ni146  1  0.20656739  0.80732200  0.96841528  1.0
  Ni  Ni147  1  0.53990072  0.14065533  0.96841528  1.0
  Ni  Ni148  1  0.53990072  0.47398867  0.96841528  1.0
  Ni  Ni149  1  0.53990072  0.80732200  0.96841528  1.0
  Ni  Ni150  1  0.87323406  0.14065533  0.96841528  1.0
  Ni  Ni151  1  0.87323406  0.47398867  0.96841528  1.0
  Ni  Ni152  1  0.87323406  0.80732200  0.96841528  1.0
  Ni  Ni153  1  0.09545628  0.14065533  0.91285972  1.0
  Ni  Ni154  1  0.09545628  0.47398867  0.91285972  1.0
  Ni  Ni155  1  0.09545628  0.80732200  0.91285972  1.0
  Ni  Ni156  1  0.42878961  0.14065533  0.91285972  1.0
  Ni  Ni157  1  0.42878961  0.47398867  0.91285972  1.0
  Ni  Ni158  1  0.42878961  0.80732200  0.91285972  1.0
  Ni  Ni159  1  0.76212294  0.14065533  0.91285972  1.0
  Ni  Ni160  1  0.76212294  0.47398867  0.91285972  1.0
  Ni  Ni161  1  0.76212294  0.80732200  0.91285972  1.0
  Ni  Ni162  1  0.18862494  0.08346833  0.97981156  1.0
  Ni  Ni163  1  0.18862494  0.41680167  0.97981156  1.0
  Ni  Ni164  1  0.18862494  0.75013500  0.97981156  1.0
  Ni  Ni165  1  0.52195828  0.08346833  0.97981156  1.0
  Ni  Ni166  1  0.52195828  0.41680167  0.97981156  1.0
  Ni  Ni167  1  0.52195828  0.75013500  0.97981156  1.0
  Ni  Ni168  1  0.85529161  0.08346833  0.97981156  1.0
  Ni  Ni169  1  0.85529161  0.41680167  0.97981156  1.0
  Ni  Ni170  1  0.85529161  0.75013500  0.97981156  1.0
  Ni  Ni171  1  0.07751383  0.08346833  0.92425600  1.0
  Ni  Ni172  1  0.07751383  0.41680167  0.92425600  1.0
  Ni  Ni173  1  0.07751383  0.75013500  0.92425600  1.0
  Ni  Ni174  1  0.41084717  0.08346833  0.92425600  1.0
  Ni  Ni175  1  0.41084717  0.41680167  0.92425600  1.0
  Ni  Ni176  1  0.41084717  0.75013500  0.92425600  1.0
  Ni  Ni177  1  0.74418050  0.08346833  0.92425600  1.0
  Ni  Ni178  1  0.74418050  0.41680167  0.92425600  1.0
  Ni  Ni179  1  0.74418050  0.75013500  0.92425600  1.0
  Ni  Ni180  1  0.24473194  0.08326533  0.92522406  1.0
  Ni  Ni181  1  0.24473194  0.41659867  0.92522406  1.0
  Ni  Ni182  1  0.24473194  0.74993200  0.92522406  1.0
  Ni  Ni183  1  0.57806528  0.08326533  0.92522406  1.0
  Ni  Ni184  1  0.57806528  0.41659867  0.92522406  1.0
  Ni  Ni185  1  0.57806528  0.74993200  0.92522406  1.0
  Ni  Ni186  1  0.91139861  0.08326533  0.92522406  1.0
  Ni  Ni187  1  0.91139861  0.41659867  0.92522406  1.0
  Ni  Ni188  1  0.91139861  0.74993200  0.92522406  1.0
  Ni  Ni189  1  0.02250972  0.08326533  0.98077961  1.0
  Ni  Ni190  1  0.02250972  0.41659867  0.98077961  1.0
  Ni  Ni191  1  0.02250972  0.74993200  0.98077961  1.0
  Ni  Ni192  1  0.35584306  0.08326533  0.98077961  1.0
  Ni  Ni193  1  0.35584306  0.41659867  0.98077961  1.0
  Ni  Ni194  1  0.35584306  0.74993200  0.98077961  1.0
  Ni  Ni195  1  0.68917639  0.08326533  0.98077961  1.0
  Ni  Ni196  1  0.68917639  0.41659867  0.98077961  1.0
  Ni  Ni197  1  0.68917639  0.74993200  0.98077961  1.0
  Ni  Ni198  1  0.02154217  0.08326533  0.89768817  1.0
  Ni  Ni199  1  0.02154217  0.41659867  0.89768817  1.0
  Ni  Ni200  1  0.02154217  0.74993200  0.89768817  1.0
  Ni  Ni201  1  0.35487550  0.08326533  0.89768817  1.0
  Ni  Ni202  1  0.35487550  0.41659867  0.89768817  1.0
  Ni  Ni203  1  0.35487550  0.74993200  0.89768817  1.0
  Ni  Ni204  1  0.68820883  0.08326533  0.89768817  1.0
  Ni  Ni205  1  0.68820883  0.41659867  0.89768817  1.0
  Ni  Ni206  1  0.68820883  0.74993200  0.89768817  1.0
  Ni  Ni207  1  0.13265328  0.08326533  0.95324372  1.0
  Ni  Ni208  1  0.13265328  0.41659867  0.95324372  1.0
  Ni  Ni209  1  0.13265328  0.74993200  0.95324372  1.0
  Ni  Ni210  1  0.46598661  0.08326533  0.95324372  1.0
  Ni  Ni211  1  0.46598661  0.41659867  0.95324372  1.0
  Ni  Ni212  1  0.46598661  0.74993200  0.95324372  1.0
  Ni  Ni213  1  0.79931994  0.08326533  0.95324372  1.0
  Ni  Ni214  1  0.79931994  0.41659867  0.95324372  1.0
  Ni  Ni215  1  0.79931994  0.74993200  0.95324372  1.0
  Ni  Ni216  1  0.24437517  0.02601700  0.97290083  1.0
  Ni  Ni217  1  0.24437517  0.35935033  0.97290083  1.0
  Ni  Ni218  1  0.24437517  0.69268367  0.97290083  1.0
  Ni  Ni219  1  0.57770850  0.02601700  0.97290083  1.0
  Ni  Ni220  1  0.57770850  0.35935033  0.97290083  1.0
  Ni  Ni221  1  0.57770850  0.69268367  0.97290083  1.0
  Ni  Ni222  1  0.91104183  0.02601700  0.97290083  1.0
  Ni  Ni223  1  0.91104183  0.35935033  0.97290083  1.0
  Ni  Ni224  1  0.91104183  0.69268367  0.97290083  1.0
  Ni  Ni225  1  0.13326406  0.02601700  0.91734528  1.0
  Ni  Ni226  1  0.13326406  0.35935033  0.91734528  1.0
  Ni  Ni227  1  0.13326406  0.69268367  0.91734528  1.0
  Ni  Ni228  1  0.46659739  0.02601700  0.91734528  1.0
  Ni  Ni229  1  0.46659739  0.35935033  0.91734528  1.0
  Ni  Ni230  1  0.46659739  0.69268367  0.91734528  1.0
  Ni  Ni231  1  0.79993072  0.02601700  0.91734528  1.0
  Ni  Ni232  1  0.79993072  0.35935033  0.91734528  1.0
  Ni  Ni233  1  0.79993072  0.69268367  0.91734528  1.0
  Ni  Ni234  1  0.17117561  0.02601700  0.99120072  1.0
  Ni  Ni235  1  0.17117561  0.35935033  0.99120072  1.0
  Ni  Ni236  1  0.17117561  0.69268367  0.99120072  1.0
  Ni  Ni237  1  0.50450894  0.02601700  0.99120072  1.0
  Ni  Ni238  1  0.50450894  0.35935033  0.99120072  1.0
  Ni  Ni239  1  0.50450894  0.69268367  0.99120072  1.0
  Ni  Ni240  1  0.83784228  0.02601700  0.99120072  1.0
  Ni  Ni241  1  0.83784228  0.35935033  0.99120072  1.0
  Ni  Ni242  1  0.83784228  0.69268367  0.99120072  1.0
  Ni  Ni243  1  0.06006450  0.02601700  0.93564517  1.0
  Ni  Ni244  1  0.06006450  0.35935033  0.93564517  1.0
  Ni  Ni245  1  0.06006450  0.69268367  0.93564517  1.0
  Ni  Ni246  1  0.39339783  0.02601700  0.93564517  1.0
  Ni  Ni247  1  0.39339783  0.35935033  0.93564517  1.0
  Ni  Ni248  1  0.39339783  0.69268367  0.93564517  1.0
  Ni  Ni249  1  0.72673117  0.02601700  0.93564517  1.0
  Ni  Ni250  1  0.72673117  0.35935033  0.93564517  1.0
  Ni  Ni251  1  0.72673117  0.69268367  0.93564517  1.0
  Ni  Ni252  1  0.29963139  0.30731633  0.81642594  1.0
  Ni  Ni253  1  0.29963139  0.64064967  0.81642594  1.0
  Ni  Ni254  1  0.29963139  0.97398300  0.81642594  1.0
  Ni  Ni255  1  0.63296472  0.30731633  0.81642594  1.0
  Ni  Ni256  1  0.63296472  0.64064967  0.81642594  1.0
  Ni  Ni257  1  0.63296472  0.97398300  0.81642594  1.0
  Ni  Ni258  1  0.96629806  0.30731633  0.81642594  1.0
  Ni  Ni259  1  0.96629806  0.64064967  0.81642594  1.0
  Ni  Ni260  1  0.96629806  0.97398300  0.81642594  1.0
  Ni  Ni261  1  0.07740917  0.30731633  0.87198150  1.0
  Ni  Ni262  1  0.07740917  0.64064967  0.87198150  1.0
  Ni  Ni263  1  0.07740917  0.97398300  0.87198150  1.0
  Ni  Ni264  1  0.41074250  0.30731633  0.87198150  1.0
  Ni  Ni265  1  0.41074250  0.64064967  0.87198150  1.0
  Ni  Ni266  1  0.41074250  0.97398300  0.87198150  1.0
  Ni  Ni267  1  0.74407583  0.30731633  0.87198150  1.0
  Ni  Ni268  1  0.74407583  0.64064967  0.87198150  1.0
  Ni  Ni269  1  0.74407583  0.97398300  0.87198150  1.0
  Ni  Ni270  1  0.03949761  0.30731633  0.79812606  1.0
  Ni  Ni271  1  0.03949761  0.64064967  0.79812606  1.0
  Ni  Ni272  1  0.03949761  0.97398300  0.79812606  1.0
  Ni  Ni273  1  0.37283094  0.30731633  0.79812606  1.0
  Ni  Ni274  1  0.37283094  0.64064967  0.79812606  1.0
  Ni  Ni275  1  0.37283094  0.97398300  0.79812606  1.0
  Ni  Ni276  1  0.70616428  0.30731633  0.79812606  1.0
  Ni  Ni277  1  0.70616428  0.64064967  0.79812606  1.0
  Ni  Ni278  1  0.70616428  0.97398300  0.79812606  1.0
  Ni  Ni279  1  0.15060872  0.30731633  0.85368161  1.0
  Ni  Ni280  1  0.15060872  0.64064967  0.85368161  1.0
  Ni  Ni281  1  0.15060872  0.97398300  0.85368161  1.0
  Ni  Ni282  1  0.48394206  0.30731633  0.85368161  1.0
  Ni  Ni283  1  0.48394206  0.64064967  0.85368161  1.0
  Ni  Ni284  1  0.48394206  0.97398300  0.85368161  1.0
  Ni  Ni285  1  0.81727539  0.30731633  0.85368161  1.0
  Ni  Ni286  1  0.81727539  0.64064967  0.85368161  1.0
  Ni  Ni287  1  0.81727539  0.97398300  0.85368161  1.0
  Ni  Ni288  1  0.29927461  0.25006800  0.86410272  1.0
  Ni  Ni289  1  0.29927461  0.58340133  0.86410272  1.0
  Ni  Ni290  1  0.29927461  0.91673467  0.86410272  1.0
  Ni  Ni291  1  0.63260794  0.25006800  0.86410272  1.0
  Ni  Ni292  1  0.63260794  0.58340133  0.86410272  1.0
  Ni  Ni293  1  0.63260794  0.91673467  0.86410272  1.0
  Ni  Ni294  1  0.96594128  0.25006800  0.86410272  1.0
  Ni  Ni295  1  0.96594128  0.58340133  0.86410272  1.0
  Ni  Ni296  1  0.96594128  0.91673467  0.86410272  1.0
  Ni  Ni297  1  0.18816350  0.25006800  0.80854717  1.0
  Ni  Ni298  1  0.18816350  0.58340133  0.80854717  1.0
  Ni  Ni299  1  0.18816350  0.91673467  0.80854717  1.0
  Ni  Ni300  1  0.52149683  0.25006800  0.80854717  1.0
  Ni  Ni301  1  0.52149683  0.58340133  0.80854717  1.0
  Ni  Ni302  1  0.52149683  0.91673467  0.80854717  1.0
  Ni  Ni303  1  0.85483017  0.25006800  0.80854717  1.0
  Ni  Ni304  1  0.85483017  0.58340133  0.80854717  1.0
  Ni  Ni305  1  0.85483017  0.91673467  0.80854717  1.0
  Ni  Ni306  1  0.30024217  0.25006800  0.78052750  1.0
  Ni  Ni307  1  0.30024217  0.58340133  0.78052750  1.0
  Ni  Ni308  1  0.30024217  0.91673467  0.78052750  1.0
  Ni  Ni309  1  0.63357550  0.25006800  0.78052750  1.0
  Ni  Ni310  1  0.63357550  0.58340133  0.78052750  1.0
  Ni  Ni311  1  0.63357550  0.91673467  0.78052750  1.0
  Ni  Ni312  1  0.96690883  0.25006800  0.78052750  1.0
  Ni  Ni313  1  0.96690883  0.58340133  0.78052750  1.0
  Ni  Ni314  1  0.96690883  0.91673467  0.78052750  1.0
  Ni  Ni315  1  0.07801994  0.25006800  0.83608306  1.0
  Ni  Ni316  1  0.07801994  0.58340133  0.83608306  1.0
  Ni  Ni317  1  0.07801994  0.91673467  0.83608306  1.0
  Ni  Ni318  1  0.41135328  0.25006800  0.83608306  1.0
  Ni  Ni319  1  0.41135328  0.58340133  0.83608306  1.0
  Ni  Ni320  1  0.41135328  0.91673467  0.83608306  1.0
  Ni  Ni321  1  0.74468661  0.25006800  0.83608306  1.0
  Ni  Ni322  1  0.74468661  0.58340133  0.83608306  1.0
  Ni  Ni323  1  0.74468661  0.91673467  0.83608306  1.0
  Ni  Ni324  1  0.02204828  0.24986500  0.80951522  1.0
  Ni  Ni325  1  0.02204828  0.58319833  0.80951522  1.0
  Ni  Ni326  1  0.02204828  0.91653167  0.80951522  1.0
  Ni  Ni327  1  0.35538161  0.24986500  0.80951522  1.0
  Ni  Ni328  1  0.35538161  0.58319833  0.80951522  1.0
  Ni  Ni329  1  0.35538161  0.91653167  0.80951522  1.0
  Ni  Ni330  1  0.68871494  0.24986500  0.80951522  1.0
  Ni  Ni331  1  0.68871494  0.58319833  0.80951522  1.0
  Ni  Ni332  1  0.68871494  0.91653167  0.80951522  1.0
  Ni  Ni333  1  0.13315939  0.24986500  0.86507078  1.0
  Ni  Ni334  1  0.13315939  0.58319833  0.86507078  1.0
  Ni  Ni335  1  0.13315939  0.91653167  0.86507078  1.0
  Ni  Ni336  1  0.46649272  0.24986500  0.86507078  1.0
  Ni  Ni337  1  0.46649272  0.58319833  0.86507078  1.0
  Ni  Ni338  1  0.46649272  0.91653167  0.86507078  1.0
  Ni  Ni339  1  0.79982606  0.24986500  0.86507078  1.0
  Ni  Ni340  1  0.79982606  0.58319833  0.86507078  1.0
  Ni  Ni341  1  0.79982606  0.91653167  0.86507078  1.0
  Ni  Ni342  1  0.07811539  0.19267800  0.80240911  1.0
  Ni  Ni343  1  0.07811539  0.52601133  0.80240911  1.0
  Ni  Ni344  1  0.07811539  0.85934467  0.80240911  1.0
  Ni  Ni345  1  0.41144872  0.19267800  0.80240911  1.0
  Ni  Ni346  1  0.41144872  0.52601133  0.80240911  1.0
  Ni  Ni347  1  0.41144872  0.85934467  0.80240911  1.0
  Ni  Ni348  1  0.74478206  0.19267800  0.80240911  1.0
  Ni  Ni349  1  0.74478206  0.52601133  0.80240911  1.0
  Ni  Ni350  1  0.74478206  0.85934467  0.80240911  1.0
  Ni  Ni351  1  0.18922650  0.19267800  0.85796467  1.0
  Ni  Ni352  1  0.18922650  0.52601133  0.85796467  1.0
  Ni  Ni353  1  0.18922650  0.85934467  0.85796467  1.0
  Ni  Ni354  1  0.52255983  0.19267800  0.85796467  1.0
  Ni  Ni355  1  0.52255983  0.52601133  0.85796467  1.0
  Ni  Ni356  1  0.52255983  0.85934467  0.85796467  1.0
  Ni  Ni357  1  0.85589317  0.19267800  0.85796467  1.0
  Ni  Ni358  1  0.85589317  0.52601133  0.85796467  1.0
  Ni  Ni359  1  0.85589317  0.85934467  0.85796467  1.0
  Ni  Ni360  1  0.00410583  0.19267800  0.82091150  1.0
  Ni  Ni361  1  0.00410583  0.52601133  0.82091150  1.0
  Ni  Ni362  1  0.00410583  0.85934467  0.82091150  1.0
  Ni  Ni363  1  0.33743917  0.19267800  0.82091150  1.0
  Ni  Ni364  1  0.33743917  0.52601133  0.82091150  1.0
  Ni  Ni365  1  0.33743917  0.85934467  0.82091150  1.0
  Ni  Ni366  1  0.67077250  0.19267800  0.82091150  1.0
  Ni  Ni367  1  0.67077250  0.52601133  0.82091150  1.0
  Ni  Ni368  1  0.67077250  0.85934467  0.82091150  1.0
  Ni  Ni369  1  0.11521694  0.19267800  0.87646706  1.0
  Ni  Ni370  1  0.11521694  0.52601133  0.87646706  1.0
  Ni  Ni371  1  0.11521694  0.85934467  0.87646706  1.0
  Ni  Ni372  1  0.44855028  0.19267800  0.87646706  1.0
  Ni  Ni373  1  0.44855028  0.52601133  0.87646706  1.0
  Ni  Ni374  1  0.44855028  0.85934467  0.87646706  1.0
  Ni  Ni375  1  0.78188361  0.19267800  0.87646706  1.0
  Ni  Ni376  1  0.78188361  0.52601133  0.87646706  1.0
  Ni  Ni377  1  0.78188361  0.85934467  0.87646706  1.0
  Ni  Ni378  1  0.24366894  0.14065533  0.87580656  1.0
  Ni  Ni379  1  0.24366894  0.47398867  0.87580656  1.0
  Ni  Ni380  1  0.24366894  0.80732200  0.87580656  1.0
  Ni  Ni381  1  0.57700228  0.14065533  0.87580656  1.0
  Ni  Ni382  1  0.57700228  0.47398867  0.87580656  1.0
  Ni  Ni383  1  0.57700228  0.80732200  0.87580656  1.0
  Ni  Ni384  1  0.91033561  0.14065533  0.87580656  1.0
  Ni  Ni385  1  0.91033561  0.47398867  0.87580656  1.0
  Ni  Ni386  1  0.91033561  0.80732200  0.87580656  1.0
  Ni  Ni387  1  0.13255783  0.14065533  0.82025100  1.0
  Ni  Ni388  1  0.13255783  0.47398867  0.82025100  1.0
  Ni  Ni389  1  0.13255783  0.80732200  0.82025100  1.0
  Ni  Ni390  1  0.46589117  0.14065533  0.82025100  1.0
  Ni  Ni391  1  0.46589117  0.47398867  0.82025100  1.0
  Ni  Ni392  1  0.46589117  0.80732200  0.82025100  1.0
  Ni  Ni393  1  0.79922450  0.14065533  0.82025100  1.0
  Ni  Ni394  1  0.79922450  0.47398867  0.82025100  1.0
  Ni  Ni395  1  0.79922450  0.80732200  0.82025100  1.0
  Ni  Ni396  1  0.31767850  0.14065533  0.85730417  1.0
  Ni  Ni397  1  0.31767850  0.47398867  0.85730417  1.0
  Ni  Ni398  1  0.31767850  0.80732200  0.85730417  1.0
  Ni  Ni399  1  0.65101183  0.14065533  0.85730417  1.0
  Ni  Ni400  1  0.65101183  0.47398867  0.85730417  1.0
  Ni  Ni401  1  0.65101183  0.80732200  0.85730417  1.0
  Ni  Ni402  1  0.98434517  0.14065533  0.85730417  1.0
  Ni  Ni403  1  0.98434517  0.47398867  0.85730417  1.0
  Ni  Ni404  1  0.98434517  0.80732200  0.85730417  1.0
  Ni  Ni405  1  0.20656739  0.14065533  0.80174861  1.0
  Ni  Ni406  1  0.20656739  0.47398867  0.80174861  1.0
  Ni  Ni407  1  0.20656739  0.80732200  0.80174861  1.0
  Ni  Ni408  1  0.53990072  0.14065533  0.80174861  1.0
  Ni  Ni409  1  0.53990072  0.47398867  0.80174861  1.0
  Ni  Ni410  1  0.53990072  0.80732200  0.80174861  1.0
  Ni  Ni411  1  0.87323406  0.14065533  0.80174861  1.0
  Ni  Ni412  1  0.87323406  0.47398867  0.80174861  1.0
  Ni  Ni413  1  0.87323406  0.80732200  0.80174861  1.0
  Ni  Ni414  1  0.29973606  0.08346833  0.86870044  1.0
  Ni  Ni415  1  0.29973606  0.41680167  0.86870044  1.0
  Ni  Ni416  1  0.29973606  0.75013500  0.86870044  1.0
  Ni  Ni417  1  0.63306939  0.08346833  0.86870044  1.0
  Ni  Ni418  1  0.63306939  0.41680167  0.86870044  1.0
  Ni  Ni419  1  0.63306939  0.75013500  0.86870044  1.0
  Ni  Ni420  1  0.96640272  0.08346833  0.86870044  1.0
  Ni  Ni421  1  0.96640272  0.41680167  0.86870044  1.0
  Ni  Ni422  1  0.96640272  0.75013500  0.86870044  1.0
  Ni  Ni423  1  0.18862494  0.08346833  0.81314489  1.0
  Ni  Ni424  1  0.18862494  0.41680167  0.81314489  1.0
  Ni  Ni425  1  0.18862494  0.75013500  0.81314489  1.0
  Ni  Ni426  1  0.52195828  0.08346833  0.81314489  1.0
  Ni  Ni427  1  0.52195828  0.41680167  0.81314489  1.0
  Ni  Ni428  1  0.52195828  0.75013500  0.81314489  1.0
  Ni  Ni429  1  0.85529161  0.08346833  0.81314489  1.0
  Ni  Ni430  1  0.85529161  0.41680167  0.81314489  1.0
  Ni  Ni431  1  0.85529161  0.75013500  0.81314489  1.0
  Ni  Ni432  1  0.02250972  0.08326533  0.81411294  1.0
  Ni  Ni433  1  0.02250972  0.41659867  0.81411294  1.0
  Ni  Ni434  1  0.02250972  0.74993200  0.81411294  1.0
  Ni  Ni435  1  0.35584306  0.08326533  0.81411294  1.0
  Ni  Ni436  1  0.35584306  0.41659867  0.81411294  1.0
  Ni  Ni437  1  0.35584306  0.74993200  0.81411294  1.0
  Ni  Ni438  1  0.68917639  0.08326533  0.81411294  1.0
  Ni  Ni439  1  0.68917639  0.41659867  0.81411294  1.0
  Ni  Ni440  1  0.68917639  0.74993200  0.81411294  1.0
  Ni  Ni441  1  0.13362083  0.08326533  0.86966850  1.0
  Ni  Ni442  1  0.13362083  0.41659867  0.86966850  1.0
  Ni  Ni443  1  0.13362083  0.74993200  0.86966850  1.0
  Ni  Ni444  1  0.46695417  0.08326533  0.86966850  1.0
  Ni  Ni445  1  0.46695417  0.41659867  0.86966850  1.0
  Ni  Ni446  1  0.46695417  0.74993200  0.86966850  1.0
  Ni  Ni447  1  0.80028750  0.08326533  0.86966850  1.0
  Ni  Ni448  1  0.80028750  0.41659867  0.86966850  1.0
  Ni  Ni449  1  0.80028750  0.74993200  0.86966850  1.0
  Ni  Ni450  1  0.13265328  0.08326533  0.78657706  1.0
  Ni  Ni451  1  0.13265328  0.41659867  0.78657706  1.0
  Ni  Ni452  1  0.13265328  0.74993200  0.78657706  1.0
  Ni  Ni453  1  0.46598661  0.08326533  0.78657706  1.0
  Ni  Ni454  1  0.46598661  0.41659867  0.78657706  1.0
  Ni  Ni455  1  0.46598661  0.74993200  0.78657706  1.0
  Ni  Ni456  1  0.79931994  0.08326533  0.78657706  1.0
  Ni  Ni457  1  0.79931994  0.41659867  0.78657706  1.0
  Ni  Ni458  1  0.79931994  0.74993200  0.78657706  1.0
  Ni  Ni459  1  0.24376439  0.08326533  0.84213261  1.0
  Ni  Ni460  1  0.24376439  0.41659867  0.84213261  1.0
  Ni  Ni461  1  0.24376439  0.74993200  0.84213261  1.0
  Ni  Ni462  1  0.57709772  0.08326533  0.84213261  1.0
  Ni  Ni463  1  0.57709772  0.41659867  0.84213261  1.0
  Ni  Ni464  1  0.57709772  0.74993200  0.84213261  1.0
  Ni  Ni465  1  0.91043106  0.08326533  0.84213261  1.0
  Ni  Ni466  1  0.91043106  0.41659867  0.84213261  1.0
  Ni  Ni467  1  0.91043106  0.74993200  0.84213261  1.0
  Ni  Ni468  1  0.02215294  0.02601700  0.86178972  1.0
  Ni  Ni469  1  0.02215294  0.35935033  0.86178972  1.0
  Ni  Ni470  1  0.02215294  0.69268367  0.86178972  1.0
  Ni  Ni471  1  0.35548628  0.02601700  0.86178972  1.0
  Ni  Ni472  1  0.35548628  0.35935033  0.86178972  1.0
  Ni  Ni473  1  0.35548628  0.69268367  0.86178972  1.0
  Ni  Ni474  1  0.68881961  0.02601700  0.86178972  1.0
  Ni  Ni475  1  0.68881961  0.35935033  0.86178972  1.0
  Ni  Ni476  1  0.68881961  0.69268367  0.86178972  1.0
  Ni  Ni477  1  0.24437517  0.02601700  0.80623417  1.0
  Ni  Ni478  1  0.24437517  0.35935033  0.80623417  1.0
  Ni  Ni479  1  0.24437517  0.69268367  0.80623417  1.0
  Ni  Ni480  1  0.57770850  0.02601700  0.80623417  1.0
  Ni  Ni481  1  0.57770850  0.35935033  0.80623417  1.0
  Ni  Ni482  1  0.57770850  0.69268367  0.80623417  1.0
  Ni  Ni483  1  0.91104183  0.02601700  0.80623417  1.0
  Ni  Ni484  1  0.91104183  0.35935033  0.80623417  1.0
  Ni  Ni485  1  0.91104183  0.69268367  0.80623417  1.0
  Ni  Ni486  1  0.28228672  0.02601700  0.88008961  1.0
  Ni  Ni487  1  0.28228672  0.35935033  0.88008961  1.0
  Ni  Ni488  1  0.28228672  0.69268367  0.88008961  1.0
  Ni  Ni489  1  0.61562006  0.02601700  0.88008961  1.0
  Ni  Ni490  1  0.61562006  0.35935033  0.88008961  1.0
  Ni  Ni491  1  0.61562006  0.69268367  0.88008961  1.0
  Ni  Ni492  1  0.94895339  0.02601700  0.88008961  1.0
  Ni  Ni493  1  0.94895339  0.35935033  0.88008961  1.0
  Ni  Ni494  1  0.94895339  0.69268367  0.88008961  1.0
  Ni  Ni495  1  0.17117561  0.02601700  0.82453406  1.0
  Ni  Ni496  1  0.17117561  0.35935033  0.82453406  1.0
  Ni  Ni497  1  0.17117561  0.69268367  0.82453406  1.0
  Ni  Ni498  1  0.50450894  0.02601700  0.82453406  1.0
  Ni  Ni499  1  0.50450894  0.35935033  0.82453406  1.0
  Ni  Ni500  1  0.50450894  0.69268367  0.82453406  1.0
  Ni  Ni501  1  0.83784228  0.02601700  0.82453406  1.0
  Ni  Ni502  1  0.83784228  0.35935033  0.82453406  1.0
  Ni  Ni503  1  0.83784228  0.69268367  0.82453406  1.0
  Ni  Ni504  1  0.07740917  0.30731633  0.70531483  1.0
  Ni  Ni505  1  0.07740917  0.64064967  0.70531483  1.0
  Ni  Ni506  1  0.07740917  0.97398300  0.70531483  1.0
  Ni  Ni507  1  0.41074250  0.30731633  0.70531483  1.0
  Ni  Ni508  1  0.41074250  0.64064967  0.70531483  1.0
  Ni  Ni509  1  0.41074250  0.97398300  0.70531483  1.0
  Ni  Ni510  1  0.74407583  0.30731633  0.70531483  1.0
  Ni  Ni511  1  0.74407583  0.64064967  0.70531483  1.0
  Ni  Ni512  1  0.74407583  0.97398300  0.70531483  1.0
  Ni  Ni513  1  0.18852028  0.30731633  0.76087039  1.0
  Ni  Ni514  1  0.18852028  0.64064967  0.76087039  1.0
  Ni  Ni515  1  0.18852028  0.97398300  0.76087039  1.0
  Ni  Ni516  1  0.52185361  0.30731633  0.76087039  1.0
  Ni  Ni517  1  0.52185361  0.64064967  0.76087039  1.0
  Ni  Ni518  1  0.52185361  0.97398300  0.76087039  1.0
  Ni  Ni519  1  0.85518694  0.30731633  0.76087039  1.0
  Ni  Ni520  1  0.85518694  0.64064967  0.76087039  1.0
  Ni  Ni521  1  0.85518694  0.97398300  0.76087039  1.0
  Ni  Ni522  1  0.15060872  0.30731633  0.68701494  1.0
  Ni  Ni523  1  0.15060872  0.64064967  0.68701494  1.0
  Ni  Ni524  1  0.15060872  0.97398300  0.68701494  1.0
  Ni  Ni525  1  0.48394206  0.30731633  0.68701494  1.0
  Ni  Ni526  1  0.48394206  0.64064967  0.68701494  1.0
  Ni  Ni527  1  0.48394206  0.97398300  0.68701494  1.0
  Ni  Ni528  1  0.81727539  0.30731633  0.68701494  1.0
  Ni  Ni529  1  0.81727539  0.64064967  0.68701494  1.0
  Ni  Ni530  1  0.81727539  0.97398300  0.68701494  1.0
  Ni  Ni531  1  0.26171983  0.30731633  0.74257050  1.0
  Ni  Ni532  1  0.26171983  0.64064967  0.74257050  1.0
  Ni  Ni533  1  0.26171983  0.97398300  0.74257050  1.0
  Ni  Ni534  1  0.59505317  0.30731633  0.74257050  1.0
  Ni  Ni535  1  0.59505317  0.64064967  0.74257050  1.0
  Ni  Ni536  1  0.59505317  0.97398300  0.74257050  1.0
  Ni  Ni537  1  0.92838650  0.30731633  0.74257050  1.0
  Ni  Ni538  1  0.92838650  0.64064967  0.74257050  1.0
  Ni  Ni539  1  0.92838650  0.97398300  0.74257050  1.0
  Ni  Ni540  1  0.07705239  0.25006800  0.75299161  1.0
  Ni  Ni541  1  0.07705239  0.58340133  0.75299161  1.0
  Ni  Ni542  1  0.07705239  0.91673467  0.75299161  1.0
  Ni  Ni543  1  0.41038572  0.25006800  0.75299161  1.0
  Ni  Ni544  1  0.41038572  0.58340133  0.75299161  1.0
  Ni  Ni545  1  0.41038572  0.91673467  0.75299161  1.0
  Ni  Ni546  1  0.74371906  0.25006800  0.75299161  1.0
  Ni  Ni547  1  0.74371906  0.58340133  0.75299161  1.0
  Ni  Ni548  1  0.74371906  0.91673467  0.75299161  1.0
  Ni  Ni549  1  0.29927461  0.25006800  0.69743606  1.0
  Ni  Ni550  1  0.29927461  0.58340133  0.69743606  1.0
  Ni  Ni551  1  0.29927461  0.91673467  0.69743606  1.0
  Ni  Ni552  1  0.63260794  0.25006800  0.69743606  1.0
  Ni  Ni553  1  0.63260794  0.58340133  0.69743606  1.0
  Ni  Ni554  1  0.63260794  0.91673467  0.69743606  1.0
  Ni  Ni555  1  0.96594128  0.25006800  0.69743606  1.0
  Ni  Ni556  1  0.96594128  0.58340133  0.69743606  1.0
  Ni  Ni557  1  0.96594128  0.91673467  0.69743606  1.0
  Ni  Ni558  1  0.07801994  0.25006800  0.66941639  1.0
  Ni  Ni559  1  0.07801994  0.58340133  0.66941639  1.0
  Ni  Ni560  1  0.07801994  0.91673467  0.66941639  1.0
  Ni  Ni561  1  0.41135328  0.25006800  0.66941639  1.0
  Ni  Ni562  1  0.41135328  0.58340133  0.66941639  1.0
  Ni  Ni563  1  0.41135328  0.91673467  0.66941639  1.0
  Ni  Ni564  1  0.74468661  0.25006800  0.66941639  1.0
  Ni  Ni565  1  0.74468661  0.58340133  0.66941639  1.0
  Ni  Ni566  1  0.74468661  0.91673467  0.66941639  1.0
  Ni  Ni567  1  0.18913106  0.25006800  0.72497194  1.0
  Ni  Ni568  1  0.18913106  0.58340133  0.72497194  1.0
  Ni  Ni569  1  0.18913106  0.91673467  0.72497194  1.0
  Ni  Ni570  1  0.52246439  0.25006800  0.72497194  1.0
  Ni  Ni571  1  0.52246439  0.58340133  0.72497194  1.0
  Ni  Ni572  1  0.52246439  0.91673467  0.72497194  1.0
  Ni  Ni573  1  0.85579772  0.25006800  0.72497194  1.0
  Ni  Ni574  1  0.85579772  0.58340133  0.72497194  1.0
  Ni  Ni575  1  0.85579772  0.91673467  0.72497194  1.0
  Ni  Ni576  1  0.13315939  0.24986500  0.69840411  1.0
  Ni  Ni577  1  0.13315939  0.58319833  0.69840411  1.0
  Ni  Ni578  1  0.13315939  0.91653167  0.69840411  1.0
  Ni  Ni579  1  0.46649272  0.24986500  0.69840411  1.0
  Ni  Ni580  1  0.46649272  0.58319833  0.69840411  1.0
  Ni  Ni581  1  0.46649272  0.91653167  0.69840411  1.0
  Ni  Ni582  1  0.79982606  0.24986500  0.69840411  1.0
  Ni  Ni583  1  0.79982606  0.58319833  0.69840411  1.0
  Ni  Ni584  1  0.79982606  0.91653167  0.69840411  1.0
  Ni  Ni585  1  0.24427050  0.24986500  0.75395967  1.0
  Ni  Ni586  1  0.24427050  0.58319833  0.75395967  1.0
  Ni  Ni587  1  0.24427050  0.91653167  0.75395967  1.0
  Ni  Ni588  1  0.57760383  0.24986500  0.75395967  1.0
  Ni  Ni589  1  0.57760383  0.58319833  0.75395967  1.0
  Ni  Ni590  1  0.57760383  0.91653167  0.75395967  1.0
  Ni  Ni591  1  0.91093717  0.24986500  0.75395967  1.0
  Ni  Ni592  1  0.91093717  0.58319833  0.75395967  1.0
  Ni  Ni593  1  0.91093717  0.91653167  0.75395967  1.0
  Ni  Ni594  1  0.18922650  0.19267800  0.69129800  1.0
  Ni  Ni595  1  0.18922650  0.52601133  0.69129800  1.0
  Ni  Ni596  1  0.18922650  0.85934467  0.69129800  1.0
  Ni  Ni597  1  0.52255983  0.19267800  0.69129800  1.0
  Ni  Ni598  1  0.52255983  0.52601133  0.69129800  1.0
  Ni  Ni599  1  0.52255983  0.85934467  0.69129800  1.0
  Ni  Ni600  1  0.85589317  0.19267800  0.69129800  1.0
  Ni  Ni601  1  0.85589317  0.52601133  0.69129800  1.0
  Ni  Ni602  1  0.85589317  0.85934467  0.69129800  1.0
  Ni  Ni603  1  0.30033761  0.19267800  0.74685356  1.0
  Ni  Ni604  1  0.30033761  0.52601133  0.74685356  1.0
  Ni  Ni605  1  0.30033761  0.85934467  0.74685356  1.0
  Ni  Ni606  1  0.63367094  0.19267800  0.74685356  1.0
  Ni  Ni607  1  0.63367094  0.52601133  0.74685356  1.0
  Ni  Ni608  1  0.63367094  0.85934467  0.74685356  1.0
  Ni  Ni609  1  0.96700428  0.19267800  0.74685356  1.0
  Ni  Ni610  1  0.96700428  0.52601133  0.74685356  1.0
  Ni  Ni611  1  0.96700428  0.85934467  0.74685356  1.0
  Ni  Ni612  1  0.11521694  0.19267800  0.70980039  1.0
  Ni  Ni613  1  0.11521694  0.52601133  0.70980039  1.0
  Ni  Ni614  1  0.11521694  0.85934467  0.70980039  1.0
  Ni  Ni615  1  0.44855028  0.19267800  0.70980039  1.0
  Ni  Ni616  1  0.44855028  0.52601133  0.70980039  1.0
  Ni  Ni617  1  0.44855028  0.85934467  0.70980039  1.0
  Ni  Ni618  1  0.78188361  0.19267800  0.70980039  1.0
  Ni  Ni619  1  0.78188361  0.52601133  0.70980039  1.0
  Ni  Ni620  1  0.78188361  0.85934467  0.70980039  1.0
  Ni  Ni621  1  0.22632806  0.19267800  0.76535594  1.0
  Ni  Ni622  1  0.22632806  0.52601133  0.76535594  1.0
  Ni  Ni623  1  0.22632806  0.85934467  0.76535594  1.0
  Ni  Ni624  1  0.55966139  0.19267800  0.76535594  1.0
  Ni  Ni625  1  0.55966139  0.52601133  0.76535594  1.0
  Ni  Ni626  1  0.55966139  0.85934467  0.76535594  1.0
  Ni  Ni627  1  0.89299472  0.19267800  0.76535594  1.0
  Ni  Ni628  1  0.89299472  0.52601133  0.76535594  1.0
  Ni  Ni629  1  0.89299472  0.85934467  0.76535594  1.0
  Ni  Ni630  1  0.02144672  0.14065533  0.76469544  1.0
  Ni  Ni631  1  0.02144672  0.47398867  0.76469544  1.0
  Ni  Ni632  1  0.02144672  0.80732200  0.76469544  1.0
  Ni  Ni633  1  0.35478006  0.14065533  0.76469544  1.0
  Ni  Ni634  1  0.35478006  0.47398867  0.76469544  1.0
  Ni  Ni635  1  0.35478006  0.80732200  0.76469544  1.0
  Ni  Ni636  1  0.68811339  0.14065533  0.76469544  1.0
  Ni  Ni637  1  0.68811339  0.47398867  0.76469544  1.0
  Ni  Ni638  1  0.68811339  0.80732200  0.76469544  1.0
  Ni  Ni639  1  0.24366894  0.14065533  0.70913989  1.0
  Ni  Ni640  1  0.24366894  0.47398867  0.70913989  1.0
  Ni  Ni641  1  0.24366894  0.80732200  0.70913989  1.0
  Ni  Ni642  1  0.57700228  0.14065533  0.70913989  1.0
  Ni  Ni643  1  0.57700228  0.47398867  0.70913989  1.0
  Ni  Ni644  1  0.57700228  0.80732200  0.70913989  1.0
  Ni  Ni645  1  0.91033561  0.14065533  0.70913989  1.0
  Ni  Ni646  1  0.91033561  0.47398867  0.70913989  1.0
  Ni  Ni647  1  0.91033561  0.80732200  0.70913989  1.0
  Ni  Ni648  1  0.09545628  0.14065533  0.74619306  1.0
  Ni  Ni649  1  0.09545628  0.47398867  0.74619306  1.0
  Ni  Ni650  1  0.09545628  0.80732200  0.74619306  1.0
  Ni  Ni651  1  0.42878961  0.14065533  0.74619306  1.0
  Ni  Ni652  1  0.42878961  0.47398867  0.74619306  1.0
  Ni  Ni653  1  0.42878961  0.80732200  0.74619306  1.0
  Ni  Ni654  1  0.76212294  0.14065533  0.74619306  1.0
  Ni  Ni655  1  0.76212294  0.47398867  0.74619306  1.0
  Ni  Ni656  1  0.76212294  0.80732200  0.74619306  1.0
  Ni  Ni657  1  0.31767850  0.14065533  0.69063750  1.0
  Ni  Ni658  1  0.31767850  0.47398867  0.69063750  1.0
  Ni  Ni659  1  0.31767850  0.80732200  0.69063750  1.0
  Ni  Ni660  1  0.65101183  0.14065533  0.69063750  1.0
  Ni  Ni661  1  0.65101183  0.47398867  0.69063750  1.0
  Ni  Ni662  1  0.65101183  0.80732200  0.69063750  1.0
  Ni  Ni663  1  0.98434517  0.14065533  0.69063750  1.0
  Ni  Ni664  1  0.98434517  0.47398867  0.69063750  1.0
  Ni  Ni665  1  0.98434517  0.80732200  0.69063750  1.0
  Ni  Ni666  1  0.07751383  0.08346833  0.75758933  1.0
  Ni  Ni667  1  0.07751383  0.41680167  0.75758933  1.0
  Ni  Ni668  1  0.07751383  0.75013500  0.75758933  1.0
  Ni  Ni669  1  0.41084717  0.08346833  0.75758933  1.0
  Ni  Ni670  1  0.41084717  0.41680167  0.75758933  1.0
  Ni  Ni671  1  0.41084717  0.75013500  0.75758933  1.0
  Ni  Ni672  1  0.74418050  0.08346833  0.75758933  1.0
  Ni  Ni673  1  0.74418050  0.41680167  0.75758933  1.0
  Ni  Ni674  1  0.74418050  0.75013500  0.75758933  1.0
  Ni  Ni675  1  0.29973606  0.08346833  0.70203378  1.0
  Ni  Ni676  1  0.29973606  0.41680167  0.70203378  1.0
  Ni  Ni677  1  0.29973606  0.75013500  0.70203378  1.0
  Ni  Ni678  1  0.63306939  0.08346833  0.70203378  1.0
  Ni  Ni679  1  0.63306939  0.41680167  0.70203378  1.0
  Ni  Ni680  1  0.63306939  0.75013500  0.70203378  1.0
  Ni  Ni681  1  0.96640272  0.08346833  0.70203378  1.0
  Ni  Ni682  1  0.96640272  0.41680167  0.70203378  1.0
  Ni  Ni683  1  0.96640272  0.75013500  0.70203378  1.0
  Ni  Ni684  1  0.13362083  0.08326533  0.70300183  1.0
  Ni  Ni685  1  0.13362083  0.41659867  0.70300183  1.0
  Ni  Ni686  1  0.13362083  0.74993200  0.70300183  1.0
  Ni  Ni687  1  0.46695417  0.08326533  0.70300183  1.0
  Ni  Ni688  1  0.46695417  0.41659867  0.70300183  1.0
  Ni  Ni689  1  0.46695417  0.74993200  0.70300183  1.0
  Ni  Ni690  1  0.80028750  0.08326533  0.70300183  1.0
  Ni  Ni691  1  0.80028750  0.41659867  0.70300183  1.0
  Ni  Ni692  1  0.80028750  0.74993200  0.70300183  1.0
  Ni  Ni693  1  0.24473194  0.08326533  0.75855739  1.0
  Ni  Ni694  1  0.24473194  0.41659867  0.75855739  1.0
  Ni  Ni695  1  0.24473194  0.74993200  0.75855739  1.0
  Ni  Ni696  1  0.57806528  0.08326533  0.75855739  1.0
  Ni  Ni697  1  0.57806528  0.41659867  0.75855739  1.0
  Ni  Ni698  1  0.57806528  0.74993200  0.75855739  1.0
  Ni  Ni699  1  0.91139861  0.08326533  0.75855739  1.0
  Ni  Ni700  1  0.91139861  0.41659867  0.75855739  1.0
  Ni  Ni701  1  0.91139861  0.74993200  0.75855739  1.0
  Ni  Ni702  1  0.24376439  0.08326533  0.67546594  1.0
  Ni  Ni703  1  0.24376439  0.41659867  0.67546594  1.0
  Ni  Ni704  1  0.24376439  0.74993200  0.67546594  1.0
  Ni  Ni705  1  0.57709772  0.08326533  0.67546594  1.0
  Ni  Ni706  1  0.57709772  0.41659867  0.67546594  1.0
  Ni  Ni707  1  0.57709772  0.74993200  0.67546594  1.0
  Ni  Ni708  1  0.91043106  0.08326533  0.67546594  1.0
  Ni  Ni709  1  0.91043106  0.41659867  0.67546594  1.0
  Ni  Ni710  1  0.91043106  0.74993200  0.67546594  1.0
  Ni  Ni711  1  0.02154217  0.08326533  0.73102150  1.0
  Ni  Ni712  1  0.02154217  0.41659867  0.73102150  1.0
  Ni  Ni713  1  0.02154217  0.74993200  0.73102150  1.0
  Ni  Ni714  1  0.35487550  0.08326533  0.73102150  1.0
  Ni  Ni715  1  0.35487550  0.41659867  0.73102150  1.0
  Ni  Ni716  1  0.35487550  0.74993200  0.73102150  1.0
  Ni  Ni717  1  0.68820883  0.08326533  0.73102150  1.0
  Ni  Ni718  1  0.68820883  0.41659867  0.73102150  1.0
  Ni  Ni719  1  0.68820883  0.74993200  0.73102150  1.0
  Ni  Ni720  1  0.13326406  0.02601700  0.75067861  1.0
  Ni  Ni721  1  0.13326406  0.35935033  0.75067861  1.0
  Ni  Ni722  1  0.13326406  0.69268367  0.75067861  1.0
  Ni  Ni723  1  0.46659739  0.02601700  0.75067861  1.0
  Ni  Ni724  1  0.46659739  0.35935033  0.75067861  1.0
  Ni  Ni725  1  0.46659739  0.69268367  0.75067861  1.0
  Ni  Ni726  1  0.79993072  0.02601700  0.75067861  1.0
  Ni  Ni727  1  0.79993072  0.35935033  0.75067861  1.0
  Ni  Ni728  1  0.79993072  0.69268367  0.75067861  1.0
  Ni  Ni729  1  0.02215294  0.02601700  0.69512306  1.0
  Ni  Ni730  1  0.02215294  0.35935033  0.69512306  1.0
  Ni  Ni731  1  0.02215294  0.69268367  0.69512306  1.0
  Ni  Ni732  1  0.35548628  0.02601700  0.69512306  1.0
  Ni  Ni733  1  0.35548628  0.35935033  0.69512306  1.0
  Ni  Ni734  1  0.35548628  0.69268367  0.69512306  1.0
  Ni  Ni735  1  0.68881961  0.02601700  0.69512306  1.0
  Ni  Ni736  1  0.68881961  0.35935033  0.69512306  1.0
  Ni  Ni737  1  0.68881961  0.69268367  0.69512306  1.0
  Ni  Ni738  1  0.06006450  0.02601700  0.76897850  1.0
  Ni  Ni739  1  0.06006450  0.35935033  0.76897850  1.0
  Ni  Ni740  1  0.06006450  0.69268367  0.76897850  1.0
  Ni  Ni741  1  0.39339783  0.02601700  0.76897850  1.0
  Ni  Ni742  1  0.39339783  0.35935033  0.76897850  1.0
  Ni  Ni743  1  0.39339783  0.69268367  0.76897850  1.0
  Ni  Ni744  1  0.72673117  0.02601700  0.76897850  1.0
  Ni  Ni745  1  0.72673117  0.35935033  0.76897850  1.0
  Ni  Ni746  1  0.72673117  0.69268367  0.76897850  1.0
  Ni  Ni747  1  0.28228672  0.02601700  0.71342294  1.0
  Ni  Ni748  1  0.28228672  0.35935033  0.71342294  1.0
  Ni  Ni749  1  0.28228672  0.69268367  0.71342294  1.0
  Ni  Ni750  1  0.61562006  0.02601700  0.71342294  1.0
  Ni  Ni751  1  0.61562006  0.35935033  0.71342294  1.0
  Ni  Ni752  1  0.61562006  0.69268367  0.71342294  1.0
  Ni  Ni753  1  0.94895339  0.02601700  0.71342294  1.0
  Ni  Ni754  1  0.94895339  0.35935033  0.71342294  1.0
  Ni  Ni755  1  0.94895339  0.69268367  0.71342294  1.0
  Ni  Ni756  1  0.18852028  0.30731633  0.59420372  1.0
  Ni  Ni757  1  0.18852028  0.64064967  0.59420372  1.0
  Ni  Ni758  1  0.18852028  0.97398300  0.59420372  1.0
  Ni  Ni759  1  0.52185361  0.30731633  0.59420372  1.0
  Ni  Ni760  1  0.52185361  0.64064967  0.59420372  1.0
  Ni  Ni761  1  0.52185361  0.97398300  0.59420372  1.0
  Ni  Ni762  1  0.85518694  0.30731633  0.59420372  1.0
  Ni  Ni763  1  0.85518694  0.64064967  0.59420372  1.0
  Ni  Ni764  1  0.85518694  0.97398300  0.59420372  1.0
  Ni  Ni765  1  0.29963139  0.30731633  0.64975928  1.0
  Ni  Ni766  1  0.29963139  0.64064967  0.64975928  1.0
  Ni  Ni767  1  0.29963139  0.97398300  0.64975928  1.0
  Ni  Ni768  1  0.63296472  0.30731633  0.64975928  1.0
  Ni  Ni769  1  0.63296472  0.64064967  0.64975928  1.0
  Ni  Ni770  1  0.63296472  0.97398300  0.64975928  1.0
  Ni  Ni771  1  0.96629806  0.30731633  0.64975928  1.0
  Ni  Ni772  1  0.96629806  0.64064967  0.64975928  1.0
  Ni  Ni773  1  0.96629806  0.97398300  0.64975928  1.0
  Ni  Ni774  1  0.26171983  0.30731633  0.57590383  1.0
  Ni  Ni775  1  0.26171983  0.64064967  0.57590383  1.0
  Ni  Ni776  1  0.26171983  0.97398300  0.57590383  1.0
  Ni  Ni777  1  0.59505317  0.30731633  0.57590383  1.0
  Ni  Ni778  1  0.59505317  0.64064967  0.57590383  1.0
  Ni  Ni779  1  0.59505317  0.97398300  0.57590383  1.0
  Ni  Ni780  1  0.92838650  0.30731633  0.57590383  1.0
  Ni  Ni781  1  0.92838650  0.64064967  0.57590383  1.0
  Ni  Ni782  1  0.92838650  0.97398300  0.57590383  1.0
  Ni  Ni783  1  0.03949761  0.30731633  0.63145939  1.0
  Ni  Ni784  1  0.03949761  0.64064967  0.63145939  1.0
  Ni  Ni785  1  0.03949761  0.97398300  0.63145939  1.0
  Ni  Ni786  1  0.37283094  0.30731633  0.63145939  1.0
  Ni  Ni787  1  0.37283094  0.64064967  0.63145939  1.0
  Ni  Ni788  1  0.37283094  0.97398300  0.63145939  1.0
  Ni  Ni789  1  0.70616428  0.30731633  0.63145939  1.0
  Ni  Ni790  1  0.70616428  0.64064967  0.63145939  1.0
  Ni  Ni791  1  0.70616428  0.97398300  0.63145939  1.0
  Ni  Ni792  1  0.18816350  0.25006800  0.64188050  1.0
  Ni  Ni793  1  0.18816350  0.58340133  0.64188050  1.0
  Ni  Ni794  1  0.18816350  0.91673467  0.64188050  1.0
  Ni  Ni795  1  0.52149683  0.25006800  0.64188050  1.0
  Ni  Ni796  1  0.52149683  0.58340133  0.64188050  1.0
  Ni  Ni797  1  0.52149683  0.91673467  0.64188050  1.0
  Ni  Ni798  1  0.85483017  0.25006800  0.64188050  1.0
  Ni  Ni799  1  0.85483017  0.58340133  0.64188050  1.0
  Ni  Ni800  1  0.85483017  0.91673467  0.64188050  1.0
  Ni  Ni801  1  0.07705239  0.25006800  0.58632494  1.0
  Ni  Ni802  1  0.07705239  0.58340133  0.58632494  1.0
  Ni  Ni803  1  0.07705239  0.91673467  0.58632494  1.0
  Ni  Ni804  1  0.41038572  0.25006800  0.58632494  1.0
  Ni  Ni805  1  0.41038572  0.58340133  0.58632494  1.0
  Ni  Ni806  1  0.41038572  0.91673467  0.58632494  1.0
  Ni  Ni807  1  0.74371906  0.25006800  0.58632494  1.0
  Ni  Ni808  1  0.74371906  0.58340133  0.58632494  1.0
  Ni  Ni809  1  0.74371906  0.91673467  0.58632494  1.0
  Ni  Ni810  1  0.18913106  0.25006800  0.55830528  1.0
  Ni  Ni811  1  0.18913106  0.58340133  0.55830528  1.0
  Ni  Ni812  1  0.18913106  0.91673467  0.55830528  1.0
  Ni  Ni813  1  0.52246439  0.25006800  0.55830528  1.0
  Ni  Ni814  1  0.52246439  0.58340133  0.55830528  1.0
  Ni  Ni815  1  0.52246439  0.91673467  0.55830528  1.0
  Ni  Ni816  1  0.85579772  0.25006800  0.55830528  1.0
  Ni  Ni817  1  0.85579772  0.58340133  0.55830528  1.0
  Ni  Ni818  1  0.85579772  0.91673467  0.55830528  1.0
  Ni  Ni819  1  0.30024217  0.25006800  0.61386083  1.0
  Ni  Ni820  1  0.30024217  0.58340133  0.61386083  1.0
  Ni  Ni821  1  0.30024217  0.91673467  0.61386083  1.0
  Ni  Ni822  1  0.63357550  0.25006800  0.61386083  1.0
  Ni  Ni823  1  0.63357550  0.58340133  0.61386083  1.0
  Ni  Ni824  1  0.63357550  0.91673467  0.61386083  1.0
  Ni  Ni825  1  0.96690883  0.25006800  0.61386083  1.0
  Ni  Ni826  1  0.96690883  0.58340133  0.61386083  1.0
  Ni  Ni827  1  0.96690883  0.91673467  0.61386083  1.0
  Ni  Ni828  1  0.24427050  0.24986500  0.58729300  1.0
  Ni  Ni829  1  0.24427050  0.58319833  0.58729300  1.0
  Ni  Ni830  1  0.24427050  0.91653167  0.58729300  1.0
  Ni  Ni831  1  0.57760383  0.24986500  0.58729300  1.0
  Ni  Ni832  1  0.57760383  0.58319833  0.58729300  1.0
  Ni  Ni833  1  0.57760383  0.91653167  0.58729300  1.0
  Ni  Ni834  1  0.91093717  0.24986500  0.58729300  1.0
  Ni  Ni835  1  0.91093717  0.58319833  0.58729300  1.0
  Ni  Ni836  1  0.91093717  0.91653167  0.58729300  1.0
  Ni  Ni837  1  0.02204828  0.24986500  0.64284856  1.0
  Ni  Ni838  1  0.02204828  0.58319833  0.64284856  1.0
  Ni  Ni839  1  0.02204828  0.91653167  0.64284856  1.0
  Ni  Ni840  1  0.35538161  0.24986500  0.64284856  1.0
  Ni  Ni841  1  0.35538161  0.58319833  0.64284856  1.0
  Ni  Ni842  1  0.35538161  0.91653167  0.64284856  1.0
  Ni  Ni843  1  0.68871494  0.24986500  0.64284856  1.0
  Ni  Ni844  1  0.68871494  0.58319833  0.64284856  1.0
  Ni  Ni845  1  0.68871494  0.91653167  0.64284856  1.0
  Ni  Ni846  1  0.30033761  0.19267800  0.58018689  1.0
  Ni  Ni847  1  0.30033761  0.52601133  0.58018689  1.0
  Ni  Ni848  1  0.30033761  0.85934467  0.58018689  1.0
  Ni  Ni849  1  0.63367094  0.19267800  0.58018689  1.0
  Ni  Ni850  1  0.63367094  0.52601133  0.58018689  1.0
  Ni  Ni851  1  0.63367094  0.85934467  0.58018689  1.0
  Ni  Ni852  1  0.96700428  0.19267800  0.58018689  1.0
  Ni  Ni853  1  0.96700428  0.52601133  0.58018689  1.0
  Ni  Ni854  1  0.96700428  0.85934467  0.58018689  1.0
  Ni  Ni855  1  0.07811539  0.19267800  0.63574244  1.0
  Ni  Ni856  1  0.07811539  0.52601133  0.63574244  1.0
  Ni  Ni857  1  0.07811539  0.85934467  0.63574244  1.0
  Ni  Ni858  1  0.41144872  0.19267800  0.63574244  1.0
  Ni  Ni859  1  0.41144872  0.52601133  0.63574244  1.0
  Ni  Ni860  1  0.41144872  0.85934467  0.63574244  1.0
  Ni  Ni861  1  0.74478206  0.19267800  0.63574244  1.0
  Ni  Ni862  1  0.74478206  0.52601133  0.63574244  1.0
  Ni  Ni863  1  0.74478206  0.85934467  0.63574244  1.0
  Ni  Ni864  1  0.22632806  0.19267800  0.59868928  1.0
  Ni  Ni865  1  0.22632806  0.52601133  0.59868928  1.0
  Ni  Ni866  1  0.22632806  0.85934467  0.59868928  1.0
  Ni  Ni867  1  0.55966139  0.19267800  0.59868928  1.0
  Ni  Ni868  1  0.55966139  0.52601133  0.59868928  1.0
  Ni  Ni869  1  0.55966139  0.85934467  0.59868928  1.0
  Ni  Ni870  1  0.89299472  0.19267800  0.59868928  1.0
  Ni  Ni871  1  0.89299472  0.52601133  0.59868928  1.0
  Ni  Ni872  1  0.89299472  0.85934467  0.59868928  1.0
  Ni  Ni873  1  0.00410583  0.19267800  0.65424483  1.0
  Ni  Ni874  1  0.00410583  0.52601133  0.65424483  1.0
  Ni  Ni875  1  0.00410583  0.85934467  0.65424483  1.0
  Ni  Ni876  1  0.33743917  0.19267800  0.65424483  1.0
  Ni  Ni877  1  0.33743917  0.52601133  0.65424483  1.0
  Ni  Ni878  1  0.33743917  0.85934467  0.65424483  1.0
  Ni  Ni879  1  0.67077250  0.19267800  0.65424483  1.0
  Ni  Ni880  1  0.67077250  0.52601133  0.65424483  1.0
  Ni  Ni881  1  0.67077250  0.85934467  0.65424483  1.0
  Ni  Ni882  1  0.13255783  0.14065533  0.65358433  1.0
  Ni  Ni883  1  0.13255783  0.47398867  0.65358433  1.0
  Ni  Ni884  1  0.13255783  0.80732200  0.65358433  1.0
  Ni  Ni885  1  0.46589117  0.14065533  0.65358433  1.0
  Ni  Ni886  1  0.46589117  0.47398867  0.65358433  1.0
  Ni  Ni887  1  0.46589117  0.80732200  0.65358433  1.0
  Ni  Ni888  1  0.79922450  0.14065533  0.65358433  1.0
  Ni  Ni889  1  0.79922450  0.47398867  0.65358433  1.0
  Ni  Ni890  1  0.79922450  0.80732200  0.65358433  1.0
  Ni  Ni891  1  0.02144672  0.14065533  0.59802878  1.0
  Ni  Ni892  1  0.02144672  0.47398867  0.59802878  1.0
  Ni  Ni893  1  0.02144672  0.80732200  0.59802878  1.0
  Ni  Ni894  1  0.35478006  0.14065533  0.59802878  1.0
  Ni  Ni895  1  0.35478006  0.47398867  0.59802878  1.0
  Ni  Ni896  1  0.35478006  0.80732200  0.59802878  1.0
  Ni  Ni897  1  0.68811339  0.14065533  0.59802878  1.0
  Ni  Ni898  1  0.68811339  0.47398867  0.59802878  1.0
  Ni  Ni899  1  0.68811339  0.80732200  0.59802878  1.0
  Ni  Ni900  1  0.20656739  0.14065533  0.63508194  1.0
  Ni  Ni901  1  0.20656739  0.47398867  0.63508194  1.0
  Ni  Ni902  1  0.20656739  0.80732200  0.63508194  1.0
  Ni  Ni903  1  0.53990072  0.14065533  0.63508194  1.0
  Ni  Ni904  1  0.53990072  0.47398867  0.63508194  1.0
  Ni  Ni905  1  0.53990072  0.80732200  0.63508194  1.0
  Ni  Ni906  1  0.87323406  0.14065533  0.63508194  1.0
  Ni  Ni907  1  0.87323406  0.47398867  0.63508194  1.0
  Ni  Ni908  1  0.87323406  0.80732200  0.63508194  1.0
  Ni  Ni909  1  0.09545628  0.14065533  0.57952639  1.0
  Ni  Ni910  1  0.09545628  0.47398867  0.57952639  1.0
  Ni  Ni911  1  0.09545628  0.80732200  0.57952639  1.0
  Ni  Ni912  1  0.42878961  0.14065533  0.57952639  1.0
  Ni  Ni913  1  0.42878961  0.47398867  0.57952639  1.0
  Ni  Ni914  1  0.42878961  0.80732200  0.57952639  1.0
  Ni  Ni915  1  0.76212294  0.14065533  0.57952639  1.0
  Ni  Ni916  1  0.76212294  0.47398867  0.57952639  1.0
  Ni  Ni917  1  0.76212294  0.80732200  0.57952639  1.0
  Ni  Ni918  1  0.18862494  0.08346833  0.64647822  1.0
  Ni  Ni919  1  0.18862494  0.41680167  0.64647822  1.0
  Ni  Ni920  1  0.18862494  0.75013500  0.64647822  1.0
  Ni  Ni921  1  0.52195828  0.08346833  0.64647822  1.0
  Ni  Ni922  1  0.52195828  0.41680167  0.64647822  1.0
  Ni  Ni923  1  0.52195828  0.75013500  0.64647822  1.0
  Ni  Ni924  1  0.85529161  0.08346833  0.64647822  1.0
  Ni  Ni925  1  0.85529161  0.41680167  0.64647822  1.0
  Ni  Ni926  1  0.85529161  0.75013500  0.64647822  1.0
  Ni  Ni927  1  0.07751383  0.08346833  0.59092267  1.0
  Ni  Ni928  1  0.07751383  0.41680167  0.59092267  1.0
  Ni  Ni929  1  0.07751383  0.75013500  0.59092267  1.0
  Ni  Ni930  1  0.41084717  0.08346833  0.59092267  1.0
  Ni  Ni931  1  0.41084717  0.41680167  0.59092267  1.0
  Ni  Ni932  1  0.41084717  0.75013500  0.59092267  1.0
  Ni  Ni933  1  0.74418050  0.08346833  0.59092267  1.0
  Ni  Ni934  1  0.74418050  0.41680167  0.59092267  1.0
  Ni  Ni935  1  0.74418050  0.75013500  0.59092267  1.0
  Ni  Ni936  1  0.24473194  0.08326533  0.59189072  1.0
  Ni  Ni937  1  0.24473194  0.41659867  0.59189072  1.0
  Ni  Ni938  1  0.24473194  0.74993200  0.59189072  1.0
  Ni  Ni939  1  0.57806528  0.08326533  0.59189072  1.0
  Ni  Ni940  1  0.57806528  0.41659867  0.59189072  1.0
  Ni  Ni941  1  0.57806528  0.74993200  0.59189072  1.0
  Ni  Ni942  1  0.91139861  0.08326533  0.59189072  1.0
  Ni  Ni943  1  0.91139861  0.41659867  0.59189072  1.0
  Ni  Ni944  1  0.91139861  0.74993200  0.59189072  1.0
  Ni  Ni945  1  0.02250972  0.08326533  0.64744628  1.0
  Ni  Ni946  1  0.02250972  0.41659867  0.64744628  1.0
  Ni  Ni947  1  0.02250972  0.74993200  0.64744628  1.0
  Ni  Ni948  1  0.35584306  0.08326533  0.64744628  1.0
  Ni  Ni949  1  0.35584306  0.41659867  0.64744628  1.0
  Ni  Ni950  1  0.35584306  0.74993200  0.64744628  1.0
  Ni  Ni951  1  0.68917639  0.08326533  0.64744628  1.0
  Ni  Ni952  1  0.68917639  0.41659867  0.64744628  1.0
  Ni  Ni953  1  0.68917639  0.74993200  0.64744628  1.0
  Ni  Ni954  1  0.02154217  0.08326533  0.56435483  1.0
  Ni  Ni955  1  0.02154217  0.41659867  0.56435483  1.0
  Ni  Ni956  1  0.02154217  0.74993200  0.56435483  1.0
  Ni  Ni957  1  0.35487550  0.08326533  0.56435483  1.0
  Ni  Ni958  1  0.35487550  0.41659867  0.56435483  1.0
  Ni  Ni959  1  0.35487550  0.74993200  0.56435483  1.0
  Ni  Ni960  1  0.68820883  0.08326533  0.56435483  1.0
  Ni  Ni961  1  0.68820883  0.41659867  0.56435483  1.0
  Ni  Ni962  1  0.68820883  0.74993200  0.56435483  1.0
  Ni  Ni963  1  0.13265328  0.08326533  0.61991039  1.0
  Ni  Ni964  1  0.13265328  0.41659867  0.61991039  1.0
  Ni  Ni965  1  0.13265328  0.74993200  0.61991039  1.0
  Ni  Ni966  1  0.46598661  0.08326533  0.61991039  1.0
  Ni  Ni967  1  0.46598661  0.41659867  0.61991039  1.0
  Ni  Ni968  1  0.46598661  0.74993200  0.61991039  1.0
  Ni  Ni969  1  0.79931994  0.08326533  0.61991039  1.0
  Ni  Ni970  1  0.79931994  0.41659867  0.61991039  1.0
  Ni  Ni971  1  0.79931994  0.74993200  0.61991039  1.0
  Ni  Ni972  1  0.24437517  0.02601700  0.63956750  1.0
  Ni  Ni973  1  0.24437517  0.35935033  0.63956750  1.0
  Ni  Ni974  1  0.24437517  0.69268367  0.63956750  1.0
  Ni  Ni975  1  0.57770850  0.02601700  0.63956750  1.0
  Ni  Ni976  1  0.57770850  0.35935033  0.63956750  1.0
  Ni  Ni977  1  0.57770850  0.69268367  0.63956750  1.0
  Ni  Ni978  1  0.91104183  0.02601700  0.63956750  1.0
  Ni  Ni979  1  0.91104183  0.35935033  0.63956750  1.0
  Ni  Ni980  1  0.91104183  0.69268367  0.63956750  1.0
  Ni  Ni981  1  0.13326406  0.02601700  0.58401194  1.0
  Ni  Ni982  1  0.13326406  0.35935033  0.58401194  1.0
  Ni  Ni983  1  0.13326406  0.69268367  0.58401194  1.0
  Ni  Ni984  1  0.46659739  0.02601700  0.58401194  1.0
  Ni  Ni985  1  0.46659739  0.35935033  0.58401194  1.0
  Ni  Ni986  1  0.46659739  0.69268367  0.58401194  1.0
  Ni  Ni987  1  0.79993072  0.02601700  0.58401194  1.0
  Ni  Ni988  1  0.79993072  0.35935033  0.58401194  1.0
  Ni  Ni989  1  0.79993072  0.69268367  0.58401194  1.0
  Ni  Ni990  1  0.17117561  0.02601700  0.65786739  1.0
  Ni  Ni991  1  0.17117561  0.35935033  0.65786739  1.0
  Ni  Ni992  1  0.17117561  0.69268367  0.65786739  1.0
  Ni  Ni993  1  0.50450894  0.02601700  0.65786739  1.0
  Ni  Ni994  1  0.50450894  0.35935033  0.65786739  1.0
  Ni  Ni995  1  0.50450894  0.69268367  0.65786739  1.0
  Ni  Ni996  1  0.83784228  0.02601700  0.65786739  1.0
  Ni  Ni997  1  0.83784228  0.35935033  0.65786739  1.0
  Ni  Ni998  1  0.83784228  0.69268367  0.65786739  1.0
  Ni  Ni999  1  0.06006450  0.02601700  0.60231183  1.0
  Ni  Ni1000  1  0.06006450  0.35935033  0.60231183  1.0
  Ni  Ni1001  1  0.06006450  0.69268367  0.60231183  1.0
  Ni  Ni1002  1  0.39339783  0.02601700  0.60231183  1.0
  Ni  Ni1003  1  0.39339783  0.35935033  0.60231183  1.0
  Ni  Ni1004  1  0.39339783  0.69268367  0.60231183  1.0
  Ni  Ni1005  1  0.72673117  0.02601700  0.60231183  1.0
  Ni  Ni1006  1  0.72673117  0.35935033  0.60231183  1.0
  Ni  Ni1007  1  0.72673117  0.69268367  0.60231183  1.0
  Zr  Zr1008  1  0.11795406  0.29548100  0.94549728  1.0
  Zr  Zr1009  1  0.11795406  0.62881433  0.94549728  1.0
  Zr  Zr1010  1  0.11795406  0.96214767  0.94549728  1.0
  Zr  Zr1011  1  0.45128739  0.29548100  0.94549728  1.0
  Zr  Zr1012  1  0.45128739  0.62881433  0.94549728  1.0
  Zr  Zr1013  1  0.45128739  0.96214767  0.94549728  1.0
  Zr  Zr1014  1  0.78462072  0.29548100  0.94549728  1.0
  Zr  Zr1015  1  0.78462072  0.62881433  0.94549728  1.0
  Zr  Zr1016  1  0.78462072  0.96214767  0.94549728  1.0
  Zr  Zr1017  1  0.00684294  0.29548100  0.88994172  1.0
  Zr  Zr1018  1  0.00684294  0.62881433  0.88994172  1.0
  Zr  Zr1019  1  0.00684294  0.96214767  0.88994172  1.0
  Zr  Zr1020  1  0.34017628  0.29548100  0.88994172  1.0
  Zr  Zr1021  1  0.34017628  0.62881433  0.88994172  1.0
  Zr  Zr1022  1  0.34017628  0.96214767  0.88994172  1.0
  Zr  Zr1023  1  0.67350961  0.29548100  0.88994172  1.0
  Zr  Zr1024  1  0.67350961  0.62881433  0.88994172  1.0
  Zr  Zr1025  1  0.67350961  0.96214767  0.88994172  1.0
  Zr  Zr1026  1  0.14814483  0.20490867  0.95093783  1.0
  Zr  Zr1027  1  0.14814483  0.53824200  0.95093783  1.0
  Zr  Zr1028  1  0.14814483  0.87157533  0.95093783  1.0
  Zr  Zr1029  1  0.48147817  0.20490867  0.95093783  1.0
  Zr  Zr1030  1  0.48147817  0.53824200  0.95093783  1.0
  Zr  Zr1031  1  0.48147817  0.87157533  0.95093783  1.0
  Zr  Zr1032  1  0.81481150  0.20490867  0.95093783  1.0
  Zr  Zr1033  1  0.81481150  0.53824200  0.95093783  1.0
  Zr  Zr1034  1  0.81481150  0.87157533  0.95093783  1.0
  Zr  Zr1035  1  0.03703372  0.20490867  0.89538228  1.0
  Zr  Zr1036  1  0.03703372  0.53824200  0.89538228  1.0
  Zr  Zr1037  1  0.03703372  0.87157533  0.89538228  1.0
  Zr  Zr1038  1  0.37036706  0.20490867  0.89538228  1.0
  Zr  Zr1039  1  0.37036706  0.53824200  0.89538228  1.0
  Zr  Zr1040  1  0.37036706  0.87157533  0.89538228  1.0
  Zr  Zr1041  1  0.70370039  0.20490867  0.89538228  1.0
  Zr  Zr1042  1  0.70370039  0.53824200  0.89538228  1.0
  Zr  Zr1043  1  0.70370039  0.87157533  0.89538228  1.0
  Zr  Zr1044  1  0.28475061  0.12842467  0.94950006  1.0
  Zr  Zr1045  1  0.28475061  0.46175800  0.94950006  1.0
  Zr  Zr1046  1  0.28475061  0.79509133  0.94950006  1.0
  Zr  Zr1047  1  0.61808394  0.12842467  0.94950006  1.0
  Zr  Zr1048  1  0.61808394  0.46175800  0.94950006  1.0
  Zr  Zr1049  1  0.61808394  0.79509133  0.94950006  1.0
  Zr  Zr1050  1  0.95141728  0.12842467  0.94950006  1.0
  Zr  Zr1051  1  0.95141728  0.46175800  0.94950006  1.0
  Zr  Zr1052  1  0.95141728  0.79509133  0.94950006  1.0
  Zr  Zr1053  1  0.17363950  0.12842467  0.89394450  1.0
  Zr  Zr1054  1  0.17363950  0.46175800  0.89394450  1.0
  Zr  Zr1055  1  0.17363950  0.79509133  0.89394450  1.0
  Zr  Zr1056  1  0.50697283  0.12842467  0.89394450  1.0
  Zr  Zr1057  1  0.50697283  0.46175800  0.89394450  1.0
  Zr  Zr1058  1  0.50697283  0.79509133  0.89394450  1.0
  Zr  Zr1059  1  0.84030617  0.12842467  0.89394450  1.0
  Zr  Zr1060  1  0.84030617  0.46175800  0.89394450  1.0
  Zr  Zr1061  1  0.84030617  0.79509133  0.89394450  1.0
  Zr  Zr1062  1  0.31494139  0.03785233  0.95494061  1.0
  Zr  Zr1063  1  0.31494139  0.37118567  0.95494061  1.0
  Zr  Zr1064  1  0.31494139  0.70451900  0.95494061  1.0
  Zr  Zr1065  1  0.64827472  0.03785233  0.95494061  1.0
  Zr  Zr1066  1  0.64827472  0.37118567  0.95494061  1.0
  Zr  Zr1067  1  0.64827472  0.70451900  0.95494061  1.0
  Zr  Zr1068  1  0.98160806  0.03785233  0.95494061  1.0
  Zr  Zr1069  1  0.98160806  0.37118567  0.95494061  1.0
  Zr  Zr1070  1  0.98160806  0.70451900  0.95494061  1.0
  Zr  Zr1071  1  0.20383028  0.03785233  0.89938506  1.0
  Zr  Zr1072  1  0.20383028  0.37118567  0.89938506  1.0
  Zr  Zr1073  1  0.20383028  0.70451900  0.89938506  1.0
  Zr  Zr1074  1  0.53716361  0.03785233  0.89938506  1.0
  Zr  Zr1075  1  0.53716361  0.37118567  0.89938506  1.0
  Zr  Zr1076  1  0.53716361  0.70451900  0.89938506  1.0
  Zr  Zr1077  1  0.87049694  0.03785233  0.89938506  1.0
  Zr  Zr1078  1  0.87049694  0.37118567  0.89938506  1.0
  Zr  Zr1079  1  0.87049694  0.70451900  0.89938506  1.0
  Zr  Zr1080  1  0.22906517  0.29548100  0.83438617  1.0
  Zr  Zr1081  1  0.22906517  0.62881433  0.83438617  1.0
  Zr  Zr1082  1  0.22906517  0.96214767  0.83438617  1.0
  Zr  Zr1083  1  0.56239850  0.29548100  0.83438617  1.0
  Zr  Zr1084  1  0.56239850  0.62881433  0.83438617  1.0
  Zr  Zr1085  1  0.56239850  0.96214767  0.83438617  1.0
  Zr  Zr1086  1  0.89573183  0.29548100  0.83438617  1.0
  Zr  Zr1087  1  0.89573183  0.62881433  0.83438617  1.0
  Zr  Zr1088  1  0.89573183  0.96214767  0.83438617  1.0
  Zr  Zr1089  1  0.11795406  0.29548100  0.77883061  1.0
  Zr  Zr1090  1  0.11795406  0.62881433  0.77883061  1.0
  Zr  Zr1091  1  0.11795406  0.96214767  0.77883061  1.0
  Zr  Zr1092  1  0.45128739  0.29548100  0.77883061  1.0
  Zr  Zr1093  1  0.45128739  0.62881433  0.77883061  1.0
  Zr  Zr1094  1  0.45128739  0.96214767  0.77883061  1.0
  Zr  Zr1095  1  0.78462072  0.29548100  0.77883061  1.0
  Zr  Zr1096  1  0.78462072  0.62881433  0.77883061  1.0
  Zr  Zr1097  1  0.78462072  0.96214767  0.77883061  1.0
  Zr  Zr1098  1  0.25925594  0.20490867  0.83982672  1.0
  Zr  Zr1099  1  0.25925594  0.53824200  0.83982672  1.0
  Zr  Zr1100  1  0.25925594  0.87157533  0.83982672  1.0
  Zr  Zr1101  1  0.59258928  0.20490867  0.83982672  1.0
  Zr  Zr1102  1  0.59258928  0.53824200  0.83982672  1.0
  Zr  Zr1103  1  0.59258928  0.87157533  0.83982672  1.0
  Zr  Zr1104  1  0.92592261  0.20490867  0.83982672  1.0
  Zr  Zr1105  1  0.92592261  0.53824200  0.83982672  1.0
  Zr  Zr1106  1  0.92592261  0.87157533  0.83982672  1.0
  Zr  Zr1107  1  0.14814483  0.20490867  0.78427117  1.0
  Zr  Zr1108  1  0.14814483  0.53824200  0.78427117  1.0
  Zr  Zr1109  1  0.14814483  0.87157533  0.78427117  1.0
  Zr  Zr1110  1  0.48147817  0.20490867  0.78427117  1.0
  Zr  Zr1111  1  0.48147817  0.53824200  0.78427117  1.0
  Zr  Zr1112  1  0.48147817  0.87157533  0.78427117  1.0
  Zr  Zr1113  1  0.81481150  0.20490867  0.78427117  1.0
  Zr  Zr1114  1  0.81481150  0.53824200  0.78427117  1.0
  Zr  Zr1115  1  0.81481150  0.87157533  0.78427117  1.0
  Zr  Zr1116  1  0.06252839  0.12842467  0.83838894  1.0
  Zr  Zr1117  1  0.06252839  0.46175800  0.83838894  1.0
  Zr  Zr1118  1  0.06252839  0.79509133  0.83838894  1.0
  Zr  Zr1119  1  0.39586172  0.12842467  0.83838894  1.0
  Zr  Zr1120  1  0.39586172  0.46175800  0.83838894  1.0
  Zr  Zr1121  1  0.39586172  0.79509133  0.83838894  1.0
  Zr  Zr1122  1  0.72919506  0.12842467  0.83838894  1.0
  Zr  Zr1123  1  0.72919506  0.46175800  0.83838894  1.0
  Zr  Zr1124  1  0.72919506  0.79509133  0.83838894  1.0
  Zr  Zr1125  1  0.28475061  0.12842467  0.78283339  1.0
  Zr  Zr1126  1  0.28475061  0.46175800  0.78283339  1.0
  Zr  Zr1127  1  0.28475061  0.79509133  0.78283339  1.0
  Zr  Zr1128  1  0.61808394  0.12842467  0.78283339  1.0
  Zr  Zr1129  1  0.61808394  0.46175800  0.78283339  1.0
  Zr  Zr1130  1  0.61808394  0.79509133  0.78283339  1.0
  Zr  Zr1131  1  0.95141728  0.12842467  0.78283339  1.0
  Zr  Zr1132  1  0.95141728  0.46175800  0.78283339  1.0
  Zr  Zr1133  1  0.95141728  0.79509133  0.78283339  1.0
  Zr  Zr1134  1  0.09271917  0.03785233  0.84382950  1.0
  Zr  Zr1135  1  0.09271917  0.37118567  0.84382950  1.0
  Zr  Zr1136  1  0.09271917  0.70451900  0.84382950  1.0
  Zr  Zr1137  1  0.42605250  0.03785233  0.84382950  1.0
  Zr  Zr1138  1  0.42605250  0.37118567  0.84382950  1.0
  Zr  Zr1139  1  0.42605250  0.70451900  0.84382950  1.0
  Zr  Zr1140  1  0.75938583  0.03785233  0.84382950  1.0
  Zr  Zr1141  1  0.75938583  0.37118567  0.84382950  1.0
  Zr  Zr1142  1  0.75938583  0.70451900  0.84382950  1.0
  Zr  Zr1143  1  0.31494139  0.03785233  0.78827394  1.0
  Zr  Zr1144  1  0.31494139  0.37118567  0.78827394  1.0
  Zr  Zr1145  1  0.31494139  0.70451900  0.78827394  1.0
  Zr  Zr1146  1  0.64827472  0.03785233  0.78827394  1.0
  Zr  Zr1147  1  0.64827472  0.37118567  0.78827394  1.0
  Zr  Zr1148  1  0.64827472  0.70451900  0.78827394  1.0
  Zr  Zr1149  1  0.98160806  0.03785233  0.78827394  1.0
  Zr  Zr1150  1  0.98160806  0.37118567  0.78827394  1.0
  Zr  Zr1151  1  0.98160806  0.70451900  0.78827394  1.0
  Zr  Zr1152  1  0.00684294  0.29548100  0.72327506  1.0
  Zr  Zr1153  1  0.00684294  0.62881433  0.72327506  1.0
  Zr  Zr1154  1  0.00684294  0.96214767  0.72327506  1.0
  Zr  Zr1155  1  0.34017628  0.29548100  0.72327506  1.0
  Zr  Zr1156  1  0.34017628  0.62881433  0.72327506  1.0
  Zr  Zr1157  1  0.34017628  0.96214767  0.72327506  1.0
  Zr  Zr1158  1  0.67350961  0.29548100  0.72327506  1.0
  Zr  Zr1159  1  0.67350961  0.62881433  0.72327506  1.0
  Zr  Zr1160  1  0.67350961  0.96214767  0.72327506  1.0
  Zr  Zr1161  1  0.22906517  0.29548100  0.66771950  1.0
  Zr  Zr1162  1  0.22906517  0.62881433  0.66771950  1.0
  Zr  Zr1163  1  0.22906517  0.96214767  0.66771950  1.0
  Zr  Zr1164  1  0.56239850  0.29548100  0.66771950  1.0
  Zr  Zr1165  1  0.56239850  0.62881433  0.66771950  1.0
  Zr  Zr1166  1  0.56239850  0.96214767  0.66771950  1.0
  Zr  Zr1167  1  0.89573183  0.29548100  0.66771950  1.0
  Zr  Zr1168  1  0.89573183  0.62881433  0.66771950  1.0
  Zr  Zr1169  1  0.89573183  0.96214767  0.66771950  1.0
  Zr  Zr1170  1  0.03703372  0.20490867  0.72871561  1.0
  Zr  Zr1171  1  0.03703372  0.53824200  0.72871561  1.0
  Zr  Zr1172  1  0.03703372  0.87157533  0.72871561  1.0
  Zr  Zr1173  1  0.37036706  0.20490867  0.72871561  1.0
  Zr  Zr1174  1  0.37036706  0.53824200  0.72871561  1.0
  Zr  Zr1175  1  0.37036706  0.87157533  0.72871561  1.0
  Zr  Zr1176  1  0.70370039  0.20490867  0.72871561  1.0
  Zr  Zr1177  1  0.70370039  0.53824200  0.72871561  1.0
  Zr  Zr1178  1  0.70370039  0.87157533  0.72871561  1.0
  Zr  Zr1179  1  0.25925594  0.20490867  0.67316006  1.0
  Zr  Zr1180  1  0.25925594  0.53824200  0.67316006  1.0
  Zr  Zr1181  1  0.25925594  0.87157533  0.67316006  1.0
  Zr  Zr1182  1  0.59258928  0.20490867  0.67316006  1.0
  Zr  Zr1183  1  0.59258928  0.53824200  0.67316006  1.0
  Zr  Zr1184  1  0.59258928  0.87157533  0.67316006  1.0
  Zr  Zr1185  1  0.92592261  0.20490867  0.67316006  1.0
  Zr  Zr1186  1  0.92592261  0.53824200  0.67316006  1.0
  Zr  Zr1187  1  0.92592261  0.87157533  0.67316006  1.0
  Zr  Zr1188  1  0.17363950  0.12842467  0.72727783  1.0
  Zr  Zr1189  1  0.17363950  0.46175800  0.72727783  1.0
  Zr  Zr1190  1  0.17363950  0.79509133  0.72727783  1.0
  Zr  Zr1191  1  0.50697283  0.12842467  0.72727783  1.0
  Zr  Zr1192  1  0.50697283  0.46175800  0.72727783  1.0
  Zr  Zr1193  1  0.50697283  0.79509133  0.72727783  1.0
  Zr  Zr1194  1  0.84030617  0.12842467  0.72727783  1.0
  Zr  Zr1195  1  0.84030617  0.46175800  0.72727783  1.0
  Zr  Zr1196  1  0.84030617  0.79509133  0.72727783  1.0
  Zr  Zr1197  1  0.06252839  0.12842467  0.67172228  1.0
  Zr  Zr1198  1  0.06252839  0.46175800  0.67172228  1.0
  Zr  Zr1199  1  0.06252839  0.79509133  0.67172228  1.0
  Zr  Zr1200  1  0.39586172  0.12842467  0.67172228  1.0
  Zr  Zr1201  1  0.39586172  0.46175800  0.67172228  1.0
  Zr  Zr1202  1  0.39586172  0.79509133  0.67172228  1.0
  Zr  Zr1203  1  0.72919506  0.12842467  0.67172228  1.0
  Zr  Zr1204  1  0.72919506  0.46175800  0.67172228  1.0
  Zr  Zr1205  1  0.72919506  0.79509133  0.67172228  1.0
  Zr  Zr1206  1  0.20383028  0.03785233  0.73271839  1.0
  Zr  Zr1207  1  0.20383028  0.37118567  0.73271839  1.0
  Zr  Zr1208  1  0.20383028  0.70451900  0.73271839  1.0
  Zr  Zr1209  1  0.53716361  0.03785233  0.73271839  1.0
  Zr  Zr1210  1  0.53716361  0.37118567  0.73271839  1.0
  Zr  Zr1211  1  0.53716361  0.70451900  0.73271839  1.0
  Zr  Zr1212  1  0.87049694  0.03785233  0.73271839  1.0
  Zr  Zr1213  1  0.87049694  0.37118567  0.73271839  1.0
  Zr  Zr1214  1  0.87049694  0.70451900  0.73271839  1.0
  Zr  Zr1215  1  0.09271917  0.03785233  0.67716283  1.0
  Zr  Zr1216  1  0.09271917  0.37118567  0.67716283  1.0
  Zr  Zr1217  1  0.09271917  0.70451900  0.67716283  1.0
  Zr  Zr1218  1  0.42605250  0.03785233  0.67716283  1.0
  Zr  Zr1219  1  0.42605250  0.37118567  0.67716283  1.0
  Zr  Zr1220  1  0.42605250  0.70451900  0.67716283  1.0
  Zr  Zr1221  1  0.75938583  0.03785233  0.67716283  1.0
  Zr  Zr1222  1  0.75938583  0.37118567  0.67716283  1.0
  Zr  Zr1223  1  0.75938583  0.70451900  0.67716283  1.0
  Zr  Zr1224  1  0.11795406  0.29548100  0.61216394  1.0
  Zr  Zr1225  1  0.11795406  0.62881433  0.61216394  1.0
  Zr  Zr1226  1  0.11795406  0.96214767  0.61216394  1.0
  Zr  Zr1227  1  0.45128739  0.29548100  0.61216394  1.0
  Zr  Zr1228  1  0.45128739  0.62881433  0.61216394  1.0
  Zr  Zr1229  1  0.45128739  0.96214767  0.61216394  1.0
  Zr  Zr1230  1  0.78462072  0.29548100  0.61216394  1.0
  Zr  Zr1231  1  0.78462072  0.62881433  0.61216394  1.0
  Zr  Zr1232  1  0.78462072  0.96214767  0.61216394  1.0
  Zr  Zr1233  1  0.00684294  0.29548100  0.55660839  1.0
  Zr  Zr1234  1  0.00684294  0.62881433  0.55660839  1.0
  Zr  Zr1235  1  0.00684294  0.96214767  0.55660839  1.0
  Zr  Zr1236  1  0.34017628  0.29548100  0.55660839  1.0
  Zr  Zr1237  1  0.34017628  0.62881433  0.55660839  1.0
  Zr  Zr1238  1  0.34017628  0.96214767  0.55660839  1.0
  Zr  Zr1239  1  0.67350961  0.29548100  0.55660839  1.0
  Zr  Zr1240  1  0.67350961  0.62881433  0.55660839  1.0
  Zr  Zr1241  1  0.67350961  0.96214767  0.55660839  1.0
  Zr  Zr1242  1  0.14814483  0.20490867  0.61760450  1.0
  Zr  Zr1243  1  0.14814483  0.53824200  0.61760450  1.0
  Zr  Zr1244  1  0.14814483  0.87157533  0.61760450  1.0
  Zr  Zr1245  1  0.48147817  0.20490867  0.61760450  1.0
  Zr  Zr1246  1  0.48147817  0.53824200  0.61760450  1.0
  Zr  Zr1247  1  0.48147817  0.87157533  0.61760450  1.0
  Zr  Zr1248  1  0.81481150  0.20490867  0.61760450  1.0
  Zr  Zr1249  1  0.81481150  0.53824200  0.61760450  1.0
  Zr  Zr1250  1  0.81481150  0.87157533  0.61760450  1.0
  Zr  Zr1251  1  0.03703372  0.20490867  0.56204894  1.0
  Zr  Zr1252  1  0.03703372  0.53824200  0.56204894  1.0
  Zr  Zr1253  1  0.03703372  0.87157533  0.56204894  1.0
  Zr  Zr1254  1  0.37036706  0.20490867  0.56204894  1.0
  Zr  Zr1255  1  0.37036706  0.53824200  0.56204894  1.0
  Zr  Zr1256  1  0.37036706  0.87157533  0.56204894  1.0
  Zr  Zr1257  1  0.70370039  0.20490867  0.56204894  1.0
  Zr  Zr1258  1  0.70370039  0.53824200  0.56204894  1.0
  Zr  Zr1259  1  0.70370039  0.87157533  0.56204894  1.0
  Zr  Zr1260  1  0.28475061  0.12842467  0.61616672  1.0
  Zr  Zr1261  1  0.28475061  0.46175800  0.61616672  1.0
  Zr  Zr1262  1  0.28475061  0.79509133  0.61616672  1.0
  Zr  Zr1263  1  0.61808394  0.12842467  0.61616672  1.0
  Zr  Zr1264  1  0.61808394  0.46175800  0.61616672  1.0
  Zr  Zr1265  1  0.61808394  0.79509133  0.61616672  1.0
  Zr  Zr1266  1  0.95141728  0.12842467  0.61616672  1.0
  Zr  Zr1267  1  0.95141728  0.46175800  0.61616672  1.0
  Zr  Zr1268  1  0.95141728  0.79509133  0.61616672  1.0
  Zr  Zr1269  1  0.17363950  0.12842467  0.56061117  1.0
  Zr  Zr1270  1  0.17363950  0.46175800  0.56061117  1.0
  Zr  Zr1271  1  0.17363950  0.79509133  0.56061117  1.0
  Zr  Zr1272  1  0.50697283  0.12842467  0.56061117  1.0
  Zr  Zr1273  1  0.50697283  0.46175800  0.56061117  1.0
  Zr  Zr1274  1  0.50697283  0.79509133  0.56061117  1.0
  Zr  Zr1275  1  0.84030617  0.12842467  0.56061117  1.0
  Zr  Zr1276  1  0.84030617  0.46175800  0.56061117  1.0
  Zr  Zr1277  1  0.84030617  0.79509133  0.56061117  1.0
  Zr  Zr1278  1  0.31494139  0.03785233  0.62160728  1.0
  Zr  Zr1279  1  0.31494139  0.37118567  0.62160728  1.0
  Zr  Zr1280  1  0.31494139  0.70451900  0.62160728  1.0
  Zr  Zr1281  1  0.64827472  0.03785233  0.62160728  1.0
  Zr  Zr1282  1  0.64827472  0.37118567  0.62160728  1.0
  Zr  Zr1283  1  0.64827472  0.70451900  0.62160728  1.0
  Zr  Zr1284  1  0.98160806  0.03785233  0.62160728  1.0
  Zr  Zr1285  1  0.98160806  0.37118567  0.62160728  1.0
  Zr  Zr1286  1  0.98160806  0.70451900  0.62160728  1.0
  Zr  Zr1287  1  0.20383028  0.03785233  0.56605172  1.0
  Zr  Zr1288  1  0.20383028  0.37118567  0.56605172  1.0
  Zr  Zr1289  1  0.20383028  0.70451900  0.56605172  1.0
  Zr  Zr1290  1  0.53716361  0.03785233  0.56605172  1.0
  Zr  Zr1291  1  0.53716361  0.37118567  0.56605172  1.0
  Zr  Zr1292  1  0.53716361  0.70451900  0.56605172  1.0
  Zr  Zr1293  1  0.87049694  0.03785233  0.56605172  1.0
  Zr  Zr1294  1  0.87049694  0.37118567  0.56605172  1.0
  Zr  Zr1295  1  0.87049694  0.70451900  0.56605172  1.0
