# generated using pymatgen
data_Zr2Ni7
_symmetry_space_group_name_H-M   'P 1'
_cell_length_a   14.15573109
_cell_length_b   73.38160003
_cell_length_c   33.03003921
_cell_angle_alpha   81.68916335
_cell_angle_beta   59.41454174
_cell_angle_gamma   81.57485104
_symmetry_Int_Tables_number   1
_chemical_formula_structural   Zr2Ni7
_chemical_formula_sum   'Zr216 Ni756'
_cell_volume   29119.40813689
_cell_formula_units_Z   108
loop_
 _symmetry_equiv_pos_site_id
 _symmetry_equiv_pos_as_xyz
  1  'x, y, z'
loop_
 _atom_site_type_symbol
 _atom_site_label
 _atom_site_symmetry_multiplicity
 _atom_site_fract_x
 _atom_site_fract_y
 _atom_site_fract_z
 _atom_site_occupancy
  Zr  Zr0  1  0.08905033  0.01892617  0.09658150  1.0
  Zr  Zr1  1  0.08905033  0.35225950  0.09658150  1.0
  Zr  Zr2  1  0.08905033  0.68559283  0.09658150  1.0
  Zr  Zr3  1  0.42238367  0.01892617  0.09658150  1.0
  Zr  Zr4  1  0.42238367  0.35225950  0.09658150  1.0
  Zr  Zr5  1  0.42238367  0.68559283  0.09658150  1.0
  Zr  Zr6  1  0.75571700  0.01892617  0.09658150  1.0
  Zr  Zr7  1  0.75571700  0.35225950  0.09658150  1.0
  Zr  Zr8  1  0.75571700  0.68559283  0.09658150  1.0
  Zr  Zr9  1  0.08905033  0.18559283  0.02515293  1.0
  Zr  Zr10  1  0.08905033  0.51892617  0.02515293  1.0
  Zr  Zr11  1  0.08905033  0.85225950  0.02515293  1.0
  Zr  Zr12  1  0.42238367  0.18559283  0.02515293  1.0
  Zr  Zr13  1  0.42238367  0.51892617  0.02515293  1.0
  Zr  Zr14  1  0.42238367  0.85225950  0.02515293  1.0
  Zr  Zr15  1  0.75571700  0.18559283  0.02515293  1.0
  Zr  Zr16  1  0.75571700  0.51892617  0.02515293  1.0
  Zr  Zr17  1  0.75571700  0.85225950  0.02515293  1.0
  Zr  Zr18  1  0.06974067  0.06421233  0.08544871  1.0
  Zr  Zr19  1  0.06974067  0.39754567  0.08544871  1.0
  Zr  Zr20  1  0.06974067  0.73087900  0.08544871  1.0
  Zr  Zr21  1  0.40307400  0.06421233  0.08544871  1.0
  Zr  Zr22  1  0.40307400  0.39754567  0.08544871  1.0
  Zr  Zr23  1  0.40307400  0.73087900  0.08544871  1.0
  Zr  Zr24  1  0.73640733  0.06421233  0.08544871  1.0
  Zr  Zr25  1  0.73640733  0.39754567  0.08544871  1.0
  Zr  Zr26  1  0.73640733  0.73087900  0.08544871  1.0
  Zr  Zr27  1  0.06974067  0.23087900  0.01402014  1.0
  Zr  Zr28  1  0.06974067  0.56421233  0.01402014  1.0
  Zr  Zr29  1  0.06974067  0.89754567  0.01402014  1.0
  Zr  Zr30  1  0.40307400  0.23087900  0.01402014  1.0
  Zr  Zr31  1  0.40307400  0.56421233  0.01402014  1.0
  Zr  Zr32  1  0.40307400  0.89754567  0.01402014  1.0
  Zr  Zr33  1  0.73640733  0.23087900  0.01402014  1.0
  Zr  Zr34  1  0.73640733  0.56421233  0.01402014  1.0
  Zr  Zr35  1  0.73640733  0.89754567  0.01402014  1.0
  Zr  Zr36  1  0.26359267  0.10245433  0.12883700  1.0
  Zr  Zr37  1  0.26359267  0.43578767  0.12883700  1.0
  Zr  Zr38  1  0.26359267  0.76912100  0.12883700  1.0
  Zr  Zr39  1  0.59692600  0.10245433  0.12883700  1.0
  Zr  Zr40  1  0.59692600  0.43578767  0.12883700  1.0
  Zr  Zr41  1  0.59692600  0.76912100  0.12883700  1.0
  Zr  Zr42  1  0.93025933  0.10245433  0.12883700  1.0
  Zr  Zr43  1  0.93025933  0.43578767  0.12883700  1.0
  Zr  Zr44  1  0.93025933  0.76912100  0.12883700  1.0
  Zr  Zr45  1  0.26359267  0.26912100  0.05740843  1.0
  Zr  Zr46  1  0.26359267  0.60245433  0.05740843  1.0
  Zr  Zr47  1  0.26359267  0.93578767  0.05740843  1.0
  Zr  Zr48  1  0.59692600  0.26912100  0.05740843  1.0
  Zr  Zr49  1  0.59692600  0.60245433  0.05740843  1.0
  Zr  Zr50  1  0.59692600  0.93578767  0.05740843  1.0
  Zr  Zr51  1  0.93025933  0.26912100  0.05740843  1.0
  Zr  Zr52  1  0.93025933  0.60245433  0.05740843  1.0
  Zr  Zr53  1  0.93025933  0.93578767  0.05740843  1.0
  Zr  Zr54  1  0.24428300  0.14774050  0.11770421  1.0
  Zr  Zr55  1  0.24428300  0.48107383  0.11770421  1.0
  Zr  Zr56  1  0.24428300  0.81440717  0.11770421  1.0
  Zr  Zr57  1  0.57761633  0.14774050  0.11770421  1.0
  Zr  Zr58  1  0.57761633  0.48107383  0.11770421  1.0
  Zr  Zr59  1  0.57761633  0.81440717  0.11770421  1.0
  Zr  Zr60  1  0.91094967  0.14774050  0.11770421  1.0
  Zr  Zr61  1  0.91094967  0.48107383  0.11770421  1.0
  Zr  Zr62  1  0.91094967  0.81440717  0.11770421  1.0
  Zr  Zr63  1  0.24428300  0.31440717  0.04627564  1.0
  Zr  Zr64  1  0.24428300  0.64774050  0.04627564  1.0
  Zr  Zr65  1  0.24428300  0.98107383  0.04627564  1.0
  Zr  Zr66  1  0.57761633  0.31440717  0.04627564  1.0
  Zr  Zr67  1  0.57761633  0.64774050  0.04627564  1.0
  Zr  Zr68  1  0.57761633  0.98107383  0.04627564  1.0
  Zr  Zr69  1  0.91094967  0.31440717  0.04627564  1.0
  Zr  Zr70  1  0.91094967  0.64774050  0.04627564  1.0
  Zr  Zr71  1  0.91094967  0.98107383  0.04627564  1.0
  Ni  Ni72  1  0.20609767  0.01300850  0.00189764  1.0
  Ni  Ni73  1  0.20609767  0.34634183  0.00189764  1.0
  Ni  Ni74  1  0.20609767  0.67967517  0.00189764  1.0
  Ni  Ni75  1  0.53943100  0.01300850  0.00189764  1.0
  Ni  Ni76  1  0.53943100  0.34634183  0.00189764  1.0
  Ni  Ni77  1  0.53943100  0.67967517  0.00189764  1.0
  Ni  Ni78  1  0.87276433  0.01300850  0.00189764  1.0
  Ni  Ni79  1  0.87276433  0.34634183  0.00189764  1.0
  Ni  Ni80  1  0.87276433  0.67967517  0.00189764  1.0
  Ni  Ni81  1  0.20609767  0.17967517  0.07332621  1.0
  Ni  Ni82  1  0.20609767  0.51300850  0.07332621  1.0
  Ni  Ni83  1  0.20609767  0.84634183  0.07332621  1.0
  Ni  Ni84  1  0.53943100  0.17967517  0.07332621  1.0
  Ni  Ni85  1  0.53943100  0.51300850  0.07332621  1.0
  Ni  Ni86  1  0.53943100  0.84634183  0.07332621  1.0
  Ni  Ni87  1  0.87276433  0.17967517  0.07332621  1.0
  Ni  Ni88  1  0.87276433  0.51300850  0.07332621  1.0
  Ni  Ni89  1  0.87276433  0.84634183  0.07332621  1.0
  Ni  Ni90  1  0.31589700  0.01300850  0.04895450  1.0
  Ni  Ni91  1  0.31589700  0.34634183  0.04895450  1.0
  Ni  Ni92  1  0.31589700  0.67967517  0.04895450  1.0
  Ni  Ni93  1  0.64923033  0.01300850  0.04895450  1.0
  Ni  Ni94  1  0.64923033  0.34634183  0.04895450  1.0
  Ni  Ni95  1  0.64923033  0.67967517  0.04895450  1.0
  Ni  Ni96  1  0.98256367  0.01300850  0.04895450  1.0
  Ni  Ni97  1  0.98256367  0.34634183  0.04895450  1.0
  Ni  Ni98  1  0.98256367  0.67967517  0.04895450  1.0
  Ni  Ni99  1  0.31589700  0.17967517  0.12038307  1.0
  Ni  Ni100  1  0.31589700  0.51300850  0.12038307  1.0
  Ni  Ni101  1  0.31589700  0.84634183  0.12038307  1.0
  Ni  Ni102  1  0.64923033  0.17967517  0.12038307  1.0
  Ni  Ni103  1  0.64923033  0.51300850  0.12038307  1.0
  Ni  Ni104  1  0.64923033  0.84634183  0.12038307  1.0
  Ni  Ni105  1  0.98256367  0.17967517  0.12038307  1.0
  Ni  Ni106  1  0.98256367  0.51300850  0.12038307  1.0
  Ni  Ni107  1  0.98256367  0.84634183  0.12038307  1.0
  Ni  Ni108  1  0.24348933  0.04163267  0.09146857  1.0
  Ni  Ni109  1  0.24348933  0.37496600  0.09146857  1.0
  Ni  Ni110  1  0.24348933  0.70829933  0.09146857  1.0
  Ni  Ni111  1  0.57682267  0.04163267  0.09146857  1.0
  Ni  Ni112  1  0.57682267  0.37496600  0.09146857  1.0
  Ni  Ni113  1  0.57682267  0.70829933  0.09146857  1.0
  Ni  Ni114  1  0.91015600  0.04163267  0.09146857  1.0
  Ni  Ni115  1  0.91015600  0.37496600  0.09146857  1.0
  Ni  Ni116  1  0.91015600  0.70829933  0.09146857  1.0
  Ni  Ni117  1  0.24348933  0.20829933  0.02004000  1.0
  Ni  Ni118  1  0.24348933  0.54163267  0.02004000  1.0
  Ni  Ni119  1  0.24348933  0.87496600  0.02004000  1.0
  Ni  Ni120  1  0.57682267  0.20829933  0.02004000  1.0
  Ni  Ni121  1  0.57682267  0.54163267  0.02004000  1.0
  Ni  Ni122  1  0.57682267  0.87496600  0.02004000  1.0
  Ni  Ni123  1  0.91015600  0.20829933  0.02004000  1.0
  Ni  Ni124  1  0.91015600  0.54163267  0.02004000  1.0
  Ni  Ni125  1  0.91015600  0.87496600  0.02004000  1.0
  Ni  Ni126  1  0.07827400  0.04163267  0.02066200  1.0
  Ni  Ni127  1  0.07827400  0.37496600  0.02066200  1.0
  Ni  Ni128  1  0.07827400  0.70829933  0.02066200  1.0
  Ni  Ni129  1  0.41160733  0.04163267  0.02066200  1.0
  Ni  Ni130  1  0.41160733  0.37496600  0.02066200  1.0
  Ni  Ni131  1  0.41160733  0.70829933  0.02066200  1.0
  Ni  Ni132  1  0.74494067  0.04163267  0.02066200  1.0
  Ni  Ni133  1  0.74494067  0.37496600  0.02066200  1.0
  Ni  Ni134  1  0.74494067  0.70829933  0.02066200  1.0
  Ni  Ni135  1  0.07827400  0.20829933  0.09209057  1.0
  Ni  Ni136  1  0.07827400  0.54163267  0.09209057  1.0
  Ni  Ni137  1  0.07827400  0.87496600  0.09209057  1.0
  Ni  Ni138  1  0.41160733  0.20829933  0.09209057  1.0
  Ni  Ni139  1  0.41160733  0.54163267  0.09209057  1.0
  Ni  Ni140  1  0.41160733  0.87496600  0.09209057  1.0
  Ni  Ni141  1  0.74494067  0.20829933  0.09209057  1.0
  Ni  Ni142  1  0.74494067  0.54163267  0.09209057  1.0
  Ni  Ni143  1  0.74494067  0.87496600  0.09209057  1.0
  Ni  Ni144  1  0.24632533  0.04173417  0.01940307  1.0
  Ni  Ni145  1  0.24632533  0.37506750  0.01940307  1.0
  Ni  Ni146  1  0.24632533  0.70840083  0.01940307  1.0
  Ni  Ni147  1  0.57965867  0.04173417  0.01940307  1.0
  Ni  Ni148  1  0.57965867  0.37506750  0.01940307  1.0
  Ni  Ni149  1  0.57965867  0.70840083  0.01940307  1.0
  Ni  Ni150  1  0.91299200  0.04173417  0.01940307  1.0
  Ni  Ni151  1  0.91299200  0.37506750  0.01940307  1.0
  Ni  Ni152  1  0.91299200  0.70840083  0.01940307  1.0
  Ni  Ni153  1  0.24632533  0.20840083  0.09083164  1.0
  Ni  Ni154  1  0.24632533  0.54173417  0.09083164  1.0
  Ni  Ni155  1  0.24632533  0.87506750  0.09083164  1.0
  Ni  Ni156  1  0.57965867  0.20840083  0.09083164  1.0
  Ni  Ni157  1  0.57965867  0.54173417  0.09083164  1.0
  Ni  Ni158  1  0.57965867  0.87506750  0.09083164  1.0
  Ni  Ni159  1  0.91299200  0.20840083  0.09083164  1.0
  Ni  Ni160  1  0.91299200  0.54173417  0.09083164  1.0
  Ni  Ni161  1  0.91299200  0.87506750  0.09083164  1.0
  Ni  Ni162  1  0.28706033  0.07032767  0.03726843  1.0
  Ni  Ni163  1  0.28706033  0.40366100  0.03726843  1.0
  Ni  Ni164  1  0.28706033  0.73699433  0.03726843  1.0
  Ni  Ni165  1  0.62039367  0.07032767  0.03726843  1.0
  Ni  Ni166  1  0.62039367  0.40366100  0.03726843  1.0
  Ni  Ni167  1  0.62039367  0.73699433  0.03726843  1.0
  Ni  Ni168  1  0.95372700  0.07032767  0.03726843  1.0
  Ni  Ni169  1  0.95372700  0.40366100  0.03726843  1.0
  Ni  Ni170  1  0.95372700  0.73699433  0.03726843  1.0
  Ni  Ni171  1  0.28706033  0.23699433  0.10869700  1.0
  Ni  Ni172  1  0.28706033  0.57032767  0.10869700  1.0
  Ni  Ni173  1  0.28706033  0.90366100  0.10869700  1.0
  Ni  Ni174  1  0.62039367  0.23699433  0.10869700  1.0
  Ni  Ni175  1  0.62039367  0.57032767  0.10869700  1.0
  Ni  Ni176  1  0.62039367  0.90366100  0.10869700  1.0
  Ni  Ni177  1  0.95372700  0.23699433  0.10869700  1.0
  Ni  Ni178  1  0.95372700  0.57032767  0.10869700  1.0
  Ni  Ni179  1  0.95372700  0.90366100  0.10869700  1.0
  Ni  Ni180  1  0.17604600  0.07032767  0.13254800  1.0
  Ni  Ni181  1  0.17604600  0.40366100  0.13254800  1.0
  Ni  Ni182  1  0.17604600  0.73699433  0.13254800  1.0
  Ni  Ni183  1  0.50937933  0.07032767  0.13254800  1.0
  Ni  Ni184  1  0.50937933  0.40366100  0.13254800  1.0
  Ni  Ni185  1  0.50937933  0.73699433  0.13254800  1.0
  Ni  Ni186  1  0.84271267  0.07032767  0.13254800  1.0
  Ni  Ni187  1  0.84271267  0.40366100  0.13254800  1.0
  Ni  Ni188  1  0.84271267  0.73699433  0.13254800  1.0
  Ni  Ni189  1  0.17604600  0.23699433  0.06111943  1.0
  Ni  Ni190  1  0.17604600  0.57032767  0.06111943  1.0
  Ni  Ni191  1  0.17604600  0.90366100  0.06111943  1.0
  Ni  Ni192  1  0.50937933  0.23699433  0.06111943  1.0
  Ni  Ni193  1  0.50937933  0.57032767  0.06111943  1.0
  Ni  Ni194  1  0.50937933  0.90366100  0.06111943  1.0
  Ni  Ni195  1  0.84271267  0.23699433  0.06111943  1.0
  Ni  Ni196  1  0.84271267  0.57032767  0.06111943  1.0
  Ni  Ni197  1  0.84271267  0.90366100  0.06111943  1.0
  Ni  Ni198  1  0.04627300  0.09633900  0.03416014  1.0
  Ni  Ni199  1  0.04627300  0.42967233  0.03416014  1.0
  Ni  Ni200  1  0.04627300  0.76300567  0.03416014  1.0
  Ni  Ni201  1  0.37960633  0.09633900  0.03416014  1.0
  Ni  Ni202  1  0.37960633  0.42967233  0.03416014  1.0
  Ni  Ni203  1  0.37960633  0.76300567  0.03416014  1.0
  Ni  Ni204  1  0.71293967  0.09633900  0.03416014  1.0
  Ni  Ni205  1  0.71293967  0.42967233  0.03416014  1.0
  Ni  Ni206  1  0.71293967  0.76300567  0.03416014  1.0
  Ni  Ni207  1  0.04627300  0.26300567  0.10558871  1.0
  Ni  Ni208  1  0.04627300  0.59633900  0.10558871  1.0
  Ni  Ni209  1  0.04627300  0.92967233  0.10558871  1.0
  Ni  Ni210  1  0.37960633  0.26300567  0.10558871  1.0
  Ni  Ni211  1  0.37960633  0.59633900  0.10558871  1.0
  Ni  Ni212  1  0.37960633  0.92967233  0.10558871  1.0
  Ni  Ni213  1  0.71293967  0.26300567  0.10558871  1.0
  Ni  Ni214  1  0.71293967  0.59633900  0.10558871  1.0
  Ni  Ni215  1  0.71293967  0.92967233  0.10558871  1.0
  Ni  Ni216  1  0.15728733  0.09633900  0.08173771  1.0
  Ni  Ni217  1  0.15728733  0.42967233  0.08173771  1.0
  Ni  Ni218  1  0.15728733  0.76300567  0.08173771  1.0
  Ni  Ni219  1  0.49062067  0.09633900  0.08173771  1.0
  Ni  Ni220  1  0.49062067  0.42967233  0.08173771  1.0
  Ni  Ni221  1  0.49062067  0.76300567  0.08173771  1.0
  Ni  Ni222  1  0.82395400  0.09633900  0.08173771  1.0
  Ni  Ni223  1  0.82395400  0.42967233  0.08173771  1.0
  Ni  Ni224  1  0.82395400  0.76300567  0.08173771  1.0
  Ni  Ni225  1  0.15728733  0.26300567  0.01030914  1.0
  Ni  Ni226  1  0.15728733  0.59633900  0.01030914  1.0
  Ni  Ni227  1  0.15728733  0.92967233  0.01030914  1.0
  Ni  Ni228  1  0.49062067  0.26300567  0.01030914  1.0
  Ni  Ni229  1  0.49062067  0.59633900  0.01030914  1.0
  Ni  Ni230  1  0.49062067  0.92967233  0.01030914  1.0
  Ni  Ni231  1  0.82395400  0.26300567  0.01030914  1.0
  Ni  Ni232  1  0.82395400  0.59633900  0.01030914  1.0
  Ni  Ni233  1  0.82395400  0.92967233  0.01030914  1.0
  Ni  Ni234  1  0.08700800  0.12493250  0.05202550  1.0
  Ni  Ni235  1  0.08700800  0.45826583  0.05202550  1.0
  Ni  Ni236  1  0.08700800  0.79159917  0.05202550  1.0
  Ni  Ni237  1  0.42034133  0.12493250  0.05202550  1.0
  Ni  Ni238  1  0.42034133  0.45826583  0.05202550  1.0
  Ni  Ni239  1  0.42034133  0.79159917  0.05202550  1.0
  Ni  Ni240  1  0.75367467  0.12493250  0.05202550  1.0
  Ni  Ni241  1  0.75367467  0.45826583  0.05202550  1.0
  Ni  Ni242  1  0.75367467  0.79159917  0.05202550  1.0
  Ni  Ni243  1  0.08700800  0.29159917  0.12345407  1.0
  Ni  Ni244  1  0.08700800  0.62493250  0.12345407  1.0
  Ni  Ni245  1  0.08700800  0.95826583  0.12345407  1.0
  Ni  Ni246  1  0.42034133  0.29159917  0.12345407  1.0
  Ni  Ni247  1  0.42034133  0.62493250  0.12345407  1.0
  Ni  Ni248  1  0.42034133  0.95826583  0.12345407  1.0
  Ni  Ni249  1  0.75367467  0.29159917  0.12345407  1.0
  Ni  Ni250  1  0.75367467  0.62493250  0.12345407  1.0
  Ni  Ni251  1  0.75367467  0.95826583  0.12345407  1.0
  Ni  Ni252  1  0.08984400  0.12503400  0.12281714  1.0
  Ni  Ni253  1  0.08984400  0.45836733  0.12281714  1.0
  Ni  Ni254  1  0.08984400  0.79170067  0.12281714  1.0
  Ni  Ni255  1  0.42317733  0.12503400  0.12281714  1.0
  Ni  Ni256  1  0.42317733  0.45836733  0.12281714  1.0
  Ni  Ni257  1  0.42317733  0.79170067  0.12281714  1.0
  Ni  Ni258  1  0.75651067  0.12503400  0.12281714  1.0
  Ni  Ni259  1  0.75651067  0.45836733  0.12281714  1.0
  Ni  Ni260  1  0.75651067  0.79170067  0.12281714  1.0
  Ni  Ni261  1  0.08984400  0.29170067  0.05138857  1.0
  Ni  Ni262  1  0.08984400  0.62503400  0.05138857  1.0
  Ni  Ni263  1  0.08984400  0.95836733  0.05138857  1.0
  Ni  Ni264  1  0.42317733  0.29170067  0.05138857  1.0
  Ni  Ni265  1  0.42317733  0.62503400  0.05138857  1.0
  Ni  Ni266  1  0.42317733  0.95836733  0.05138857  1.0
  Ni  Ni267  1  0.75651067  0.29170067  0.05138857  1.0
  Ni  Ni268  1  0.75651067  0.62503400  0.05138857  1.0
  Ni  Ni269  1  0.75651067  0.95836733  0.05138857  1.0
  Ni  Ni270  1  0.25505933  0.12503400  0.05076657  1.0
  Ni  Ni271  1  0.25505933  0.45836733  0.05076657  1.0
  Ni  Ni272  1  0.25505933  0.79170067  0.05076657  1.0
  Ni  Ni273  1  0.58839267  0.12503400  0.05076657  1.0
  Ni  Ni274  1  0.58839267  0.45836733  0.05076657  1.0
  Ni  Ni275  1  0.58839267  0.79170067  0.05076657  1.0
  Ni  Ni276  1  0.92172600  0.12503400  0.05076657  1.0
  Ni  Ni277  1  0.92172600  0.45836733  0.05076657  1.0
  Ni  Ni278  1  0.92172600  0.79170067  0.05076657  1.0
  Ni  Ni279  1  0.25505933  0.29170067  0.12219514  1.0
  Ni  Ni280  1  0.25505933  0.62503400  0.12219514  1.0
  Ni  Ni281  1  0.25505933  0.95836733  0.12219514  1.0
  Ni  Ni282  1  0.58839267  0.29170067  0.12219514  1.0
  Ni  Ni283  1  0.58839267  0.62503400  0.12219514  1.0
  Ni  Ni284  1  0.58839267  0.95836733  0.12219514  1.0
  Ni  Ni285  1  0.92172600  0.29170067  0.12219514  1.0
  Ni  Ni286  1  0.92172600  0.62503400  0.12219514  1.0
  Ni  Ni287  1  0.92172600  0.95836733  0.12219514  1.0
  Ni  Ni288  1  0.12723567  0.15365817  0.06953093  1.0
  Ni  Ni289  1  0.12723567  0.48699150  0.06953093  1.0
  Ni  Ni290  1  0.12723567  0.82032483  0.06953093  1.0
  Ni  Ni291  1  0.46056900  0.15365817  0.06953093  1.0
  Ni  Ni292  1  0.46056900  0.48699150  0.06953093  1.0
  Ni  Ni293  1  0.46056900  0.82032483  0.06953093  1.0
  Ni  Ni294  1  0.79390233  0.15365817  0.06953093  1.0
  Ni  Ni295  1  0.79390233  0.48699150  0.06953093  1.0
  Ni  Ni296  1  0.79390233  0.82032483  0.06953093  1.0
  Ni  Ni297  1  0.12723567  0.32032483  0.14095950  1.0
  Ni  Ni298  1  0.12723567  0.65365817  0.14095950  1.0
  Ni  Ni299  1  0.12723567  0.98699150  0.14095950  1.0
  Ni  Ni300  1  0.46056900  0.32032483  0.14095950  1.0
  Ni  Ni301  1  0.46056900  0.65365817  0.14095950  1.0
  Ni  Ni302  1  0.46056900  0.98699150  0.14095950  1.0
  Ni  Ni303  1  0.79390233  0.32032483  0.14095950  1.0
  Ni  Ni304  1  0.79390233  0.65365817  0.14095950  1.0
  Ni  Ni305  1  0.79390233  0.98699150  0.14095950  1.0
  Ni  Ni306  1  0.01743633  0.15365817  0.02247407  1.0
  Ni  Ni307  1  0.01743633  0.48699150  0.02247407  1.0
  Ni  Ni308  1  0.01743633  0.82032483  0.02247407  1.0
  Ni  Ni309  1  0.35076967  0.15365817  0.02247407  1.0
  Ni  Ni310  1  0.35076967  0.48699150  0.02247407  1.0
  Ni  Ni311  1  0.35076967  0.82032483  0.02247407  1.0
  Ni  Ni312  1  0.68410300  0.15365817  0.02247407  1.0
  Ni  Ni313  1  0.68410300  0.48699150  0.02247407  1.0
  Ni  Ni314  1  0.68410300  0.82032483  0.02247407  1.0
  Ni  Ni315  1  0.01743633  0.32032483  0.09390264  1.0
  Ni  Ni316  1  0.01743633  0.65365817  0.09390264  1.0
  Ni  Ni317  1  0.01743633  0.98699150  0.09390264  1.0
  Ni  Ni318  1  0.35076967  0.32032483  0.09390264  1.0
  Ni  Ni319  1  0.35076967  0.65365817  0.09390264  1.0
  Ni  Ni320  1  0.35076967  0.98699150  0.09390264  1.0
  Ni  Ni321  1  0.68410300  0.32032483  0.09390264  1.0
  Ni  Ni322  1  0.68410300  0.65365817  0.09390264  1.0
  Ni  Ni323  1  0.68410300  0.98699150  0.09390264  1.0
  Zr  Zr324  1  0.08905033  0.01892617  0.23943864  1.0
  Zr  Zr325  1  0.08905033  0.35225950  0.23943864  1.0
  Zr  Zr326  1  0.08905033  0.68559283  0.23943864  1.0
  Zr  Zr327  1  0.42238367  0.01892617  0.23943864  1.0
  Zr  Zr328  1  0.42238367  0.35225950  0.23943864  1.0
  Zr  Zr329  1  0.42238367  0.68559283  0.23943864  1.0
  Zr  Zr330  1  0.75571700  0.01892617  0.23943864  1.0
  Zr  Zr331  1  0.75571700  0.35225950  0.23943864  1.0
  Zr  Zr332  1  0.75571700  0.68559283  0.23943864  1.0
  Zr  Zr333  1  0.08905033  0.18559283  0.16801007  1.0
  Zr  Zr334  1  0.08905033  0.51892617  0.16801007  1.0
  Zr  Zr335  1  0.08905033  0.85225950  0.16801007  1.0
  Zr  Zr336  1  0.42238367  0.18559283  0.16801007  1.0
  Zr  Zr337  1  0.42238367  0.51892617  0.16801007  1.0
  Zr  Zr338  1  0.42238367  0.85225950  0.16801007  1.0
  Zr  Zr339  1  0.75571700  0.18559283  0.16801007  1.0
  Zr  Zr340  1  0.75571700  0.51892617  0.16801007  1.0
  Zr  Zr341  1  0.75571700  0.85225950  0.16801007  1.0
  Zr  Zr342  1  0.06974067  0.06421233  0.22830586  1.0
  Zr  Zr343  1  0.06974067  0.39754567  0.22830586  1.0
  Zr  Zr344  1  0.06974067  0.73087900  0.22830586  1.0
  Zr  Zr345  1  0.40307400  0.06421233  0.22830586  1.0
  Zr  Zr346  1  0.40307400  0.39754567  0.22830586  1.0
  Zr  Zr347  1  0.40307400  0.73087900  0.22830586  1.0
  Zr  Zr348  1  0.73640733  0.06421233  0.22830586  1.0
  Zr  Zr349  1  0.73640733  0.39754567  0.22830586  1.0
  Zr  Zr350  1  0.73640733  0.73087900  0.22830586  1.0
  Zr  Zr351  1  0.06974067  0.23087900  0.15687729  1.0
  Zr  Zr352  1  0.06974067  0.56421233  0.15687729  1.0
  Zr  Zr353  1  0.06974067  0.89754567  0.15687729  1.0
  Zr  Zr354  1  0.40307400  0.23087900  0.15687729  1.0
  Zr  Zr355  1  0.40307400  0.56421233  0.15687729  1.0
  Zr  Zr356  1  0.40307400  0.89754567  0.15687729  1.0
  Zr  Zr357  1  0.73640733  0.23087900  0.15687729  1.0
  Zr  Zr358  1  0.73640733  0.56421233  0.15687729  1.0
  Zr  Zr359  1  0.73640733  0.89754567  0.15687729  1.0
  Zr  Zr360  1  0.26359267  0.10245433  0.27169414  1.0
  Zr  Zr361  1  0.26359267  0.43578767  0.27169414  1.0
  Zr  Zr362  1  0.26359267  0.76912100  0.27169414  1.0
  Zr  Zr363  1  0.59692600  0.10245433  0.27169414  1.0
  Zr  Zr364  1  0.59692600  0.43578767  0.27169414  1.0
  Zr  Zr365  1  0.59692600  0.76912100  0.27169414  1.0
  Zr  Zr366  1  0.93025933  0.10245433  0.27169414  1.0
  Zr  Zr367  1  0.93025933  0.43578767  0.27169414  1.0
  Zr  Zr368  1  0.93025933  0.76912100  0.27169414  1.0
  Zr  Zr369  1  0.26359267  0.26912100  0.20026557  1.0
  Zr  Zr370  1  0.26359267  0.60245433  0.20026557  1.0
  Zr  Zr371  1  0.26359267  0.93578767  0.20026557  1.0
  Zr  Zr372  1  0.59692600  0.26912100  0.20026557  1.0
  Zr  Zr373  1  0.59692600  0.60245433  0.20026557  1.0
  Zr  Zr374  1  0.59692600  0.93578767  0.20026557  1.0
  Zr  Zr375  1  0.93025933  0.26912100  0.20026557  1.0
  Zr  Zr376  1  0.93025933  0.60245433  0.20026557  1.0
  Zr  Zr377  1  0.93025933  0.93578767  0.20026557  1.0
  Zr  Zr378  1  0.24428300  0.14774050  0.26056136  1.0
  Zr  Zr379  1  0.24428300  0.48107383  0.26056136  1.0
  Zr  Zr380  1  0.24428300  0.81440717  0.26056136  1.0
  Zr  Zr381  1  0.57761633  0.14774050  0.26056136  1.0
  Zr  Zr382  1  0.57761633  0.48107383  0.26056136  1.0
  Zr  Zr383  1  0.57761633  0.81440717  0.26056136  1.0
  Zr  Zr384  1  0.91094967  0.14774050  0.26056136  1.0
  Zr  Zr385  1  0.91094967  0.48107383  0.26056136  1.0
  Zr  Zr386  1  0.91094967  0.81440717  0.26056136  1.0
  Zr  Zr387  1  0.24428300  0.31440717  0.18913279  1.0
  Zr  Zr388  1  0.24428300  0.64774050  0.18913279  1.0
  Zr  Zr389  1  0.24428300  0.98107383  0.18913279  1.0
  Zr  Zr390  1  0.57761633  0.31440717  0.18913279  1.0
  Zr  Zr391  1  0.57761633  0.64774050  0.18913279  1.0
  Zr  Zr392  1  0.57761633  0.98107383  0.18913279  1.0
  Zr  Zr393  1  0.91094967  0.31440717  0.18913279  1.0
  Zr  Zr394  1  0.91094967  0.64774050  0.18913279  1.0
  Zr  Zr395  1  0.91094967  0.98107383  0.18913279  1.0
  Ni  Ni396  1  0.20609767  0.01300850  0.14475479  1.0
  Ni  Ni397  1  0.20609767  0.34634183  0.14475479  1.0
  Ni  Ni398  1  0.20609767  0.67967517  0.14475479  1.0
  Ni  Ni399  1  0.53943100  0.01300850  0.14475479  1.0
  Ni  Ni400  1  0.53943100  0.34634183  0.14475479  1.0
  Ni  Ni401  1  0.53943100  0.67967517  0.14475479  1.0
  Ni  Ni402  1  0.87276433  0.01300850  0.14475479  1.0
  Ni  Ni403  1  0.87276433  0.34634183  0.14475479  1.0
  Ni  Ni404  1  0.87276433  0.67967517  0.14475479  1.0
  Ni  Ni405  1  0.20609767  0.17967517  0.21618336  1.0
  Ni  Ni406  1  0.20609767  0.51300850  0.21618336  1.0
  Ni  Ni407  1  0.20609767  0.84634183  0.21618336  1.0
  Ni  Ni408  1  0.53943100  0.17967517  0.21618336  1.0
  Ni  Ni409  1  0.53943100  0.51300850  0.21618336  1.0
  Ni  Ni410  1  0.53943100  0.84634183  0.21618336  1.0
  Ni  Ni411  1  0.87276433  0.17967517  0.21618336  1.0
  Ni  Ni412  1  0.87276433  0.51300850  0.21618336  1.0
  Ni  Ni413  1  0.87276433  0.84634183  0.21618336  1.0
  Ni  Ni414  1  0.31589700  0.01300850  0.19181164  1.0
  Ni  Ni415  1  0.31589700  0.34634183  0.19181164  1.0
  Ni  Ni416  1  0.31589700  0.67967517  0.19181164  1.0
  Ni  Ni417  1  0.64923033  0.01300850  0.19181164  1.0
  Ni  Ni418  1  0.64923033  0.34634183  0.19181164  1.0
  Ni  Ni419  1  0.64923033  0.67967517  0.19181164  1.0
  Ni  Ni420  1  0.98256367  0.01300850  0.19181164  1.0
  Ni  Ni421  1  0.98256367  0.34634183  0.19181164  1.0
  Ni  Ni422  1  0.98256367  0.67967517  0.19181164  1.0
  Ni  Ni423  1  0.31589700  0.17967517  0.26324021  1.0
  Ni  Ni424  1  0.31589700  0.51300850  0.26324021  1.0
  Ni  Ni425  1  0.31589700  0.84634183  0.26324021  1.0
  Ni  Ni426  1  0.64923033  0.17967517  0.26324021  1.0
  Ni  Ni427  1  0.64923033  0.51300850  0.26324021  1.0
  Ni  Ni428  1  0.64923033  0.84634183  0.26324021  1.0
  Ni  Ni429  1  0.98256367  0.17967517  0.26324021  1.0
  Ni  Ni430  1  0.98256367  0.51300850  0.26324021  1.0
  Ni  Ni431  1  0.98256367  0.84634183  0.26324021  1.0
  Ni  Ni432  1  0.24348933  0.04163267  0.23432571  1.0
  Ni  Ni433  1  0.24348933  0.37496600  0.23432571  1.0
  Ni  Ni434  1  0.24348933  0.70829933  0.23432571  1.0
  Ni  Ni435  1  0.57682267  0.04163267  0.23432571  1.0
  Ni  Ni436  1  0.57682267  0.37496600  0.23432571  1.0
  Ni  Ni437  1  0.57682267  0.70829933  0.23432571  1.0
  Ni  Ni438  1  0.91015600  0.04163267  0.23432571  1.0
  Ni  Ni439  1  0.91015600  0.37496600  0.23432571  1.0
  Ni  Ni440  1  0.91015600  0.70829933  0.23432571  1.0
  Ni  Ni441  1  0.24348933  0.20829933  0.16289714  1.0
  Ni  Ni442  1  0.24348933  0.54163267  0.16289714  1.0
  Ni  Ni443  1  0.24348933  0.87496600  0.16289714  1.0
  Ni  Ni444  1  0.57682267  0.20829933  0.16289714  1.0
  Ni  Ni445  1  0.57682267  0.54163267  0.16289714  1.0
  Ni  Ni446  1  0.57682267  0.87496600  0.16289714  1.0
  Ni  Ni447  1  0.91015600  0.20829933  0.16289714  1.0
  Ni  Ni448  1  0.91015600  0.54163267  0.16289714  1.0
  Ni  Ni449  1  0.91015600  0.87496600  0.16289714  1.0
  Ni  Ni450  1  0.07827400  0.04163267  0.16351914  1.0
  Ni  Ni451  1  0.07827400  0.37496600  0.16351914  1.0
  Ni  Ni452  1  0.07827400  0.70829933  0.16351914  1.0
  Ni  Ni453  1  0.41160733  0.04163267  0.16351914  1.0
  Ni  Ni454  1  0.41160733  0.37496600  0.16351914  1.0
  Ni  Ni455  1  0.41160733  0.70829933  0.16351914  1.0
  Ni  Ni456  1  0.74494067  0.04163267  0.16351914  1.0
  Ni  Ni457  1  0.74494067  0.37496600  0.16351914  1.0
  Ni  Ni458  1  0.74494067  0.70829933  0.16351914  1.0
  Ni  Ni459  1  0.07827400  0.20829933  0.23494771  1.0
  Ni  Ni460  1  0.07827400  0.54163267  0.23494771  1.0
  Ni  Ni461  1  0.07827400  0.87496600  0.23494771  1.0
  Ni  Ni462  1  0.41160733  0.20829933  0.23494771  1.0
  Ni  Ni463  1  0.41160733  0.54163267  0.23494771  1.0
  Ni  Ni464  1  0.41160733  0.87496600  0.23494771  1.0
  Ni  Ni465  1  0.74494067  0.20829933  0.23494771  1.0
  Ni  Ni466  1  0.74494067  0.54163267  0.23494771  1.0
  Ni  Ni467  1  0.74494067  0.87496600  0.23494771  1.0
  Ni  Ni468  1  0.24632533  0.04173417  0.16226021  1.0
  Ni  Ni469  1  0.24632533  0.37506750  0.16226021  1.0
  Ni  Ni470  1  0.24632533  0.70840083  0.16226021  1.0
  Ni  Ni471  1  0.57965867  0.04173417  0.16226021  1.0
  Ni  Ni472  1  0.57965867  0.37506750  0.16226021  1.0
  Ni  Ni473  1  0.57965867  0.70840083  0.16226021  1.0
  Ni  Ni474  1  0.91299200  0.04173417  0.16226021  1.0
  Ni  Ni475  1  0.91299200  0.37506750  0.16226021  1.0
  Ni  Ni476  1  0.91299200  0.70840083  0.16226021  1.0
  Ni  Ni477  1  0.24632533  0.20840083  0.23368879  1.0
  Ni  Ni478  1  0.24632533  0.54173417  0.23368879  1.0
  Ni  Ni479  1  0.24632533  0.87506750  0.23368879  1.0
  Ni  Ni480  1  0.57965867  0.20840083  0.23368879  1.0
  Ni  Ni481  1  0.57965867  0.54173417  0.23368879  1.0
  Ni  Ni482  1  0.57965867  0.87506750  0.23368879  1.0
  Ni  Ni483  1  0.91299200  0.20840083  0.23368879  1.0
  Ni  Ni484  1  0.91299200  0.54173417  0.23368879  1.0
  Ni  Ni485  1  0.91299200  0.87506750  0.23368879  1.0
  Ni  Ni486  1  0.28706033  0.07032767  0.18012557  1.0
  Ni  Ni487  1  0.28706033  0.40366100  0.18012557  1.0
  Ni  Ni488  1  0.28706033  0.73699433  0.18012557  1.0
  Ni  Ni489  1  0.62039367  0.07032767  0.18012557  1.0
  Ni  Ni490  1  0.62039367  0.40366100  0.18012557  1.0
  Ni  Ni491  1  0.62039367  0.73699433  0.18012557  1.0
  Ni  Ni492  1  0.95372700  0.07032767  0.18012557  1.0
  Ni  Ni493  1  0.95372700  0.40366100  0.18012557  1.0
  Ni  Ni494  1  0.95372700  0.73699433  0.18012557  1.0
  Ni  Ni495  1  0.28706033  0.23699433  0.25155414  1.0
  Ni  Ni496  1  0.28706033  0.57032767  0.25155414  1.0
  Ni  Ni497  1  0.28706033  0.90366100  0.25155414  1.0
  Ni  Ni498  1  0.62039367  0.23699433  0.25155414  1.0
  Ni  Ni499  1  0.62039367  0.57032767  0.25155414  1.0
  Ni  Ni500  1  0.62039367  0.90366100  0.25155414  1.0
  Ni  Ni501  1  0.95372700  0.23699433  0.25155414  1.0
  Ni  Ni502  1  0.95372700  0.57032767  0.25155414  1.0
  Ni  Ni503  1  0.95372700  0.90366100  0.25155414  1.0
  Ni  Ni504  1  0.17604600  0.07032767  0.27540514  1.0
  Ni  Ni505  1  0.17604600  0.40366100  0.27540514  1.0
  Ni  Ni506  1  0.17604600  0.73699433  0.27540514  1.0
  Ni  Ni507  1  0.50937933  0.07032767  0.27540514  1.0
  Ni  Ni508  1  0.50937933  0.40366100  0.27540514  1.0
  Ni  Ni509  1  0.50937933  0.73699433  0.27540514  1.0
  Ni  Ni510  1  0.84271267  0.07032767  0.27540514  1.0
  Ni  Ni511  1  0.84271267  0.40366100  0.27540514  1.0
  Ni  Ni512  1  0.84271267  0.73699433  0.27540514  1.0
  Ni  Ni513  1  0.17604600  0.23699433  0.20397657  1.0
  Ni  Ni514  1  0.17604600  0.57032767  0.20397657  1.0
  Ni  Ni515  1  0.17604600  0.90366100  0.20397657  1.0
  Ni  Ni516  1  0.50937933  0.23699433  0.20397657  1.0
  Ni  Ni517  1  0.50937933  0.57032767  0.20397657  1.0
  Ni  Ni518  1  0.50937933  0.90366100  0.20397657  1.0
  Ni  Ni519  1  0.84271267  0.23699433  0.20397657  1.0
  Ni  Ni520  1  0.84271267  0.57032767  0.20397657  1.0
  Ni  Ni521  1  0.84271267  0.90366100  0.20397657  1.0
  Ni  Ni522  1  0.04627300  0.09633900  0.17701729  1.0
  Ni  Ni523  1  0.04627300  0.42967233  0.17701729  1.0
  Ni  Ni524  1  0.04627300  0.76300567  0.17701729  1.0
  Ni  Ni525  1  0.37960633  0.09633900  0.17701729  1.0
  Ni  Ni526  1  0.37960633  0.42967233  0.17701729  1.0
  Ni  Ni527  1  0.37960633  0.76300567  0.17701729  1.0
  Ni  Ni528  1  0.71293967  0.09633900  0.17701729  1.0
  Ni  Ni529  1  0.71293967  0.42967233  0.17701729  1.0
  Ni  Ni530  1  0.71293967  0.76300567  0.17701729  1.0
  Ni  Ni531  1  0.04627300  0.26300567  0.24844586  1.0
  Ni  Ni532  1  0.04627300  0.59633900  0.24844586  1.0
  Ni  Ni533  1  0.04627300  0.92967233  0.24844586  1.0
  Ni  Ni534  1  0.37960633  0.26300567  0.24844586  1.0
  Ni  Ni535  1  0.37960633  0.59633900  0.24844586  1.0
  Ni  Ni536  1  0.37960633  0.92967233  0.24844586  1.0
  Ni  Ni537  1  0.71293967  0.26300567  0.24844586  1.0
  Ni  Ni538  1  0.71293967  0.59633900  0.24844586  1.0
  Ni  Ni539  1  0.71293967  0.92967233  0.24844586  1.0
  Ni  Ni540  1  0.15728733  0.09633900  0.22459486  1.0
  Ni  Ni541  1  0.15728733  0.42967233  0.22459486  1.0
  Ni  Ni542  1  0.15728733  0.76300567  0.22459486  1.0
  Ni  Ni543  1  0.49062067  0.09633900  0.22459486  1.0
  Ni  Ni544  1  0.49062067  0.42967233  0.22459486  1.0
  Ni  Ni545  1  0.49062067  0.76300567  0.22459486  1.0
  Ni  Ni546  1  0.82395400  0.09633900  0.22459486  1.0
  Ni  Ni547  1  0.82395400  0.42967233  0.22459486  1.0
  Ni  Ni548  1  0.82395400  0.76300567  0.22459486  1.0
  Ni  Ni549  1  0.15728733  0.26300567  0.15316629  1.0
  Ni  Ni550  1  0.15728733  0.59633900  0.15316629  1.0
  Ni  Ni551  1  0.15728733  0.92967233  0.15316629  1.0
  Ni  Ni552  1  0.49062067  0.26300567  0.15316629  1.0
  Ni  Ni553  1  0.49062067  0.59633900  0.15316629  1.0
  Ni  Ni554  1  0.49062067  0.92967233  0.15316629  1.0
  Ni  Ni555  1  0.82395400  0.26300567  0.15316629  1.0
  Ni  Ni556  1  0.82395400  0.59633900  0.15316629  1.0
  Ni  Ni557  1  0.82395400  0.92967233  0.15316629  1.0
  Ni  Ni558  1  0.08700800  0.12493250  0.19488264  1.0
  Ni  Ni559  1  0.08700800  0.45826583  0.19488264  1.0
  Ni  Ni560  1  0.08700800  0.79159917  0.19488264  1.0
  Ni  Ni561  1  0.42034133  0.12493250  0.19488264  1.0
  Ni  Ni562  1  0.42034133  0.45826583  0.19488264  1.0
  Ni  Ni563  1  0.42034133  0.79159917  0.19488264  1.0
  Ni  Ni564  1  0.75367467  0.12493250  0.19488264  1.0
  Ni  Ni565  1  0.75367467  0.45826583  0.19488264  1.0
  Ni  Ni566  1  0.75367467  0.79159917  0.19488264  1.0
  Ni  Ni567  1  0.08700800  0.29159917  0.26631121  1.0
  Ni  Ni568  1  0.08700800  0.62493250  0.26631121  1.0
  Ni  Ni569  1  0.08700800  0.95826583  0.26631121  1.0
  Ni  Ni570  1  0.42034133  0.29159917  0.26631121  1.0
  Ni  Ni571  1  0.42034133  0.62493250  0.26631121  1.0
  Ni  Ni572  1  0.42034133  0.95826583  0.26631121  1.0
  Ni  Ni573  1  0.75367467  0.29159917  0.26631121  1.0
  Ni  Ni574  1  0.75367467  0.62493250  0.26631121  1.0
  Ni  Ni575  1  0.75367467  0.95826583  0.26631121  1.0
  Ni  Ni576  1  0.08984400  0.12503400  0.26567429  1.0
  Ni  Ni577  1  0.08984400  0.45836733  0.26567429  1.0
  Ni  Ni578  1  0.08984400  0.79170067  0.26567429  1.0
  Ni  Ni579  1  0.42317733  0.12503400  0.26567429  1.0
  Ni  Ni580  1  0.42317733  0.45836733  0.26567429  1.0
  Ni  Ni581  1  0.42317733  0.79170067  0.26567429  1.0
  Ni  Ni582  1  0.75651067  0.12503400  0.26567429  1.0
  Ni  Ni583  1  0.75651067  0.45836733  0.26567429  1.0
  Ni  Ni584  1  0.75651067  0.79170067  0.26567429  1.0
  Ni  Ni585  1  0.08984400  0.29170067  0.19424571  1.0
  Ni  Ni586  1  0.08984400  0.62503400  0.19424571  1.0
  Ni  Ni587  1  0.08984400  0.95836733  0.19424571  1.0
  Ni  Ni588  1  0.42317733  0.29170067  0.19424571  1.0
  Ni  Ni589  1  0.42317733  0.62503400  0.19424571  1.0
  Ni  Ni590  1  0.42317733  0.95836733  0.19424571  1.0
  Ni  Ni591  1  0.75651067  0.29170067  0.19424571  1.0
  Ni  Ni592  1  0.75651067  0.62503400  0.19424571  1.0
  Ni  Ni593  1  0.75651067  0.95836733  0.19424571  1.0
  Ni  Ni594  1  0.25505933  0.12503400  0.19362371  1.0
  Ni  Ni595  1  0.25505933  0.45836733  0.19362371  1.0
  Ni  Ni596  1  0.25505933  0.79170067  0.19362371  1.0
  Ni  Ni597  1  0.58839267  0.12503400  0.19362371  1.0
  Ni  Ni598  1  0.58839267  0.45836733  0.19362371  1.0
  Ni  Ni599  1  0.58839267  0.79170067  0.19362371  1.0
  Ni  Ni600  1  0.92172600  0.12503400  0.19362371  1.0
  Ni  Ni601  1  0.92172600  0.45836733  0.19362371  1.0
  Ni  Ni602  1  0.92172600  0.79170067  0.19362371  1.0
  Ni  Ni603  1  0.25505933  0.29170067  0.26505229  1.0
  Ni  Ni604  1  0.25505933  0.62503400  0.26505229  1.0
  Ni  Ni605  1  0.25505933  0.95836733  0.26505229  1.0
  Ni  Ni606  1  0.58839267  0.29170067  0.26505229  1.0
  Ni  Ni607  1  0.58839267  0.62503400  0.26505229  1.0
  Ni  Ni608  1  0.58839267  0.95836733  0.26505229  1.0
  Ni  Ni609  1  0.92172600  0.29170067  0.26505229  1.0
  Ni  Ni610  1  0.92172600  0.62503400  0.26505229  1.0
  Ni  Ni611  1  0.92172600  0.95836733  0.26505229  1.0
  Ni  Ni612  1  0.12723567  0.15365817  0.21238807  1.0
  Ni  Ni613  1  0.12723567  0.48699150  0.21238807  1.0
  Ni  Ni614  1  0.12723567  0.82032483  0.21238807  1.0
  Ni  Ni615  1  0.46056900  0.15365817  0.21238807  1.0
  Ni  Ni616  1  0.46056900  0.48699150  0.21238807  1.0
  Ni  Ni617  1  0.46056900  0.82032483  0.21238807  1.0
  Ni  Ni618  1  0.79390233  0.15365817  0.21238807  1.0
  Ni  Ni619  1  0.79390233  0.48699150  0.21238807  1.0
  Ni  Ni620  1  0.79390233  0.82032483  0.21238807  1.0
  Ni  Ni621  1  0.12723567  0.32032483  0.28381664  1.0
  Ni  Ni622  1  0.12723567  0.65365817  0.28381664  1.0
  Ni  Ni623  1  0.12723567  0.98699150  0.28381664  1.0
  Ni  Ni624  1  0.46056900  0.32032483  0.28381664  1.0
  Ni  Ni625  1  0.46056900  0.65365817  0.28381664  1.0
  Ni  Ni626  1  0.46056900  0.98699150  0.28381664  1.0
  Ni  Ni627  1  0.79390233  0.32032483  0.28381664  1.0
  Ni  Ni628  1  0.79390233  0.65365817  0.28381664  1.0
  Ni  Ni629  1  0.79390233  0.98699150  0.28381664  1.0
  Ni  Ni630  1  0.01743633  0.15365817  0.16533121  1.0
  Ni  Ni631  1  0.01743633  0.48699150  0.16533121  1.0
  Ni  Ni632  1  0.01743633  0.82032483  0.16533121  1.0
  Ni  Ni633  1  0.35076967  0.15365817  0.16533121  1.0
  Ni  Ni634  1  0.35076967  0.48699150  0.16533121  1.0
  Ni  Ni635  1  0.35076967  0.82032483  0.16533121  1.0
  Ni  Ni636  1  0.68410300  0.15365817  0.16533121  1.0
  Ni  Ni637  1  0.68410300  0.48699150  0.16533121  1.0
  Ni  Ni638  1  0.68410300  0.82032483  0.16533121  1.0
  Ni  Ni639  1  0.01743633  0.32032483  0.23675979  1.0
  Ni  Ni640  1  0.01743633  0.65365817  0.23675979  1.0
  Ni  Ni641  1  0.01743633  0.98699150  0.23675979  1.0
  Ni  Ni642  1  0.35076967  0.32032483  0.23675979  1.0
  Ni  Ni643  1  0.35076967  0.65365817  0.23675979  1.0
  Ni  Ni644  1  0.35076967  0.98699150  0.23675979  1.0
  Ni  Ni645  1  0.68410300  0.32032483  0.23675979  1.0
  Ni  Ni646  1  0.68410300  0.65365817  0.23675979  1.0
  Ni  Ni647  1  0.68410300  0.98699150  0.23675979  1.0
  Zr  Zr648  1  0.08905033  0.01892617  0.38229579  1.0
  Zr  Zr649  1  0.08905033  0.35225950  0.38229579  1.0
  Zr  Zr650  1  0.08905033  0.68559283  0.38229579  1.0
  Zr  Zr651  1  0.42238367  0.01892617  0.38229579  1.0
  Zr  Zr652  1  0.42238367  0.35225950  0.38229579  1.0
  Zr  Zr653  1  0.42238367  0.68559283  0.38229579  1.0
  Zr  Zr654  1  0.75571700  0.01892617  0.38229579  1.0
  Zr  Zr655  1  0.75571700  0.35225950  0.38229579  1.0
  Zr  Zr656  1  0.75571700  0.68559283  0.38229579  1.0
  Zr  Zr657  1  0.08905033  0.18559283  0.31086721  1.0
  Zr  Zr658  1  0.08905033  0.51892617  0.31086721  1.0
  Zr  Zr659  1  0.08905033  0.85225950  0.31086721  1.0
  Zr  Zr660  1  0.42238367  0.18559283  0.31086721  1.0
  Zr  Zr661  1  0.42238367  0.51892617  0.31086721  1.0
  Zr  Zr662  1  0.42238367  0.85225950  0.31086721  1.0
  Zr  Zr663  1  0.75571700  0.18559283  0.31086721  1.0
  Zr  Zr664  1  0.75571700  0.51892617  0.31086721  1.0
  Zr  Zr665  1  0.75571700  0.85225950  0.31086721  1.0
  Zr  Zr666  1  0.06974067  0.06421233  0.37116300  1.0
  Zr  Zr667  1  0.06974067  0.39754567  0.37116300  1.0
  Zr  Zr668  1  0.06974067  0.73087900  0.37116300  1.0
  Zr  Zr669  1  0.40307400  0.06421233  0.37116300  1.0
  Zr  Zr670  1  0.40307400  0.39754567  0.37116300  1.0
  Zr  Zr671  1  0.40307400  0.73087900  0.37116300  1.0
  Zr  Zr672  1  0.73640733  0.06421233  0.37116300  1.0
  Zr  Zr673  1  0.73640733  0.39754567  0.37116300  1.0
  Zr  Zr674  1  0.73640733  0.73087900  0.37116300  1.0
  Zr  Zr675  1  0.06974067  0.23087900  0.29973443  1.0
  Zr  Zr676  1  0.06974067  0.56421233  0.29973443  1.0
  Zr  Zr677  1  0.06974067  0.89754567  0.29973443  1.0
  Zr  Zr678  1  0.40307400  0.23087900  0.29973443  1.0
  Zr  Zr679  1  0.40307400  0.56421233  0.29973443  1.0
  Zr  Zr680  1  0.40307400  0.89754567  0.29973443  1.0
  Zr  Zr681  1  0.73640733  0.23087900  0.29973443  1.0
  Zr  Zr682  1  0.73640733  0.56421233  0.29973443  1.0
  Zr  Zr683  1  0.73640733  0.89754567  0.29973443  1.0
  Zr  Zr684  1  0.26359267  0.10245433  0.41455129  1.0
  Zr  Zr685  1  0.26359267  0.43578767  0.41455129  1.0
  Zr  Zr686  1  0.26359267  0.76912100  0.41455129  1.0
  Zr  Zr687  1  0.59692600  0.10245433  0.41455129  1.0
  Zr  Zr688  1  0.59692600  0.43578767  0.41455129  1.0
  Zr  Zr689  1  0.59692600  0.76912100  0.41455129  1.0
  Zr  Zr690  1  0.93025933  0.10245433  0.41455129  1.0
  Zr  Zr691  1  0.93025933  0.43578767  0.41455129  1.0
  Zr  Zr692  1  0.93025933  0.76912100  0.41455129  1.0
  Zr  Zr693  1  0.26359267  0.26912100  0.34312271  1.0
  Zr  Zr694  1  0.26359267  0.60245433  0.34312271  1.0
  Zr  Zr695  1  0.26359267  0.93578767  0.34312271  1.0
  Zr  Zr696  1  0.59692600  0.26912100  0.34312271  1.0
  Zr  Zr697  1  0.59692600  0.60245433  0.34312271  1.0
  Zr  Zr698  1  0.59692600  0.93578767  0.34312271  1.0
  Zr  Zr699  1  0.93025933  0.26912100  0.34312271  1.0
  Zr  Zr700  1  0.93025933  0.60245433  0.34312271  1.0
  Zr  Zr701  1  0.93025933  0.93578767  0.34312271  1.0
  Zr  Zr702  1  0.24428300  0.14774050  0.40341850  1.0
  Zr  Zr703  1  0.24428300  0.48107383  0.40341850  1.0
  Zr  Zr704  1  0.24428300  0.81440717  0.40341850  1.0
  Zr  Zr705  1  0.57761633  0.14774050  0.40341850  1.0
  Zr  Zr706  1  0.57761633  0.48107383  0.40341850  1.0
  Zr  Zr707  1  0.57761633  0.81440717  0.40341850  1.0
  Zr  Zr708  1  0.91094967  0.14774050  0.40341850  1.0
  Zr  Zr709  1  0.91094967  0.48107383  0.40341850  1.0
  Zr  Zr710  1  0.91094967  0.81440717  0.40341850  1.0
  Zr  Zr711  1  0.24428300  0.31440717  0.33198993  1.0
  Zr  Zr712  1  0.24428300  0.64774050  0.33198993  1.0
  Zr  Zr713  1  0.24428300  0.98107383  0.33198993  1.0
  Zr  Zr714  1  0.57761633  0.31440717  0.33198993  1.0
  Zr  Zr715  1  0.57761633  0.64774050  0.33198993  1.0
  Zr  Zr716  1  0.57761633  0.98107383  0.33198993  1.0
  Zr  Zr717  1  0.91094967  0.31440717  0.33198993  1.0
  Zr  Zr718  1  0.91094967  0.64774050  0.33198993  1.0
  Zr  Zr719  1  0.91094967  0.98107383  0.33198993  1.0
  Ni  Ni720  1  0.20609767  0.01300850  0.28761193  1.0
  Ni  Ni721  1  0.20609767  0.34634183  0.28761193  1.0
  Ni  Ni722  1  0.20609767  0.67967517  0.28761193  1.0
  Ni  Ni723  1  0.53943100  0.01300850  0.28761193  1.0
  Ni  Ni724  1  0.53943100  0.34634183  0.28761193  1.0
  Ni  Ni725  1  0.53943100  0.67967517  0.28761193  1.0
  Ni  Ni726  1  0.87276433  0.01300850  0.28761193  1.0
  Ni  Ni727  1  0.87276433  0.34634183  0.28761193  1.0
  Ni  Ni728  1  0.87276433  0.67967517  0.28761193  1.0
  Ni  Ni729  1  0.20609767  0.17967517  0.35904050  1.0
  Ni  Ni730  1  0.20609767  0.51300850  0.35904050  1.0
  Ni  Ni731  1  0.20609767  0.84634183  0.35904050  1.0
  Ni  Ni732  1  0.53943100  0.17967517  0.35904050  1.0
  Ni  Ni733  1  0.53943100  0.51300850  0.35904050  1.0
  Ni  Ni734  1  0.53943100  0.84634183  0.35904050  1.0
  Ni  Ni735  1  0.87276433  0.17967517  0.35904050  1.0
  Ni  Ni736  1  0.87276433  0.51300850  0.35904050  1.0
  Ni  Ni737  1  0.87276433  0.84634183  0.35904050  1.0
  Ni  Ni738  1  0.31589700  0.01300850  0.33466879  1.0
  Ni  Ni739  1  0.31589700  0.34634183  0.33466879  1.0
  Ni  Ni740  1  0.31589700  0.67967517  0.33466879  1.0
  Ni  Ni741  1  0.64923033  0.01300850  0.33466879  1.0
  Ni  Ni742  1  0.64923033  0.34634183  0.33466879  1.0
  Ni  Ni743  1  0.64923033  0.67967517  0.33466879  1.0
  Ni  Ni744  1  0.98256367  0.01300850  0.33466879  1.0
  Ni  Ni745  1  0.98256367  0.34634183  0.33466879  1.0
  Ni  Ni746  1  0.98256367  0.67967517  0.33466879  1.0
  Ni  Ni747  1  0.31589700  0.17967517  0.40609736  1.0
  Ni  Ni748  1  0.31589700  0.51300850  0.40609736  1.0
  Ni  Ni749  1  0.31589700  0.84634183  0.40609736  1.0
  Ni  Ni750  1  0.64923033  0.17967517  0.40609736  1.0
  Ni  Ni751  1  0.64923033  0.51300850  0.40609736  1.0
  Ni  Ni752  1  0.64923033  0.84634183  0.40609736  1.0
  Ni  Ni753  1  0.98256367  0.17967517  0.40609736  1.0
  Ni  Ni754  1  0.98256367  0.51300850  0.40609736  1.0
  Ni  Ni755  1  0.98256367  0.84634183  0.40609736  1.0
  Ni  Ni756  1  0.24348933  0.04163267  0.37718286  1.0
  Ni  Ni757  1  0.24348933  0.37496600  0.37718286  1.0
  Ni  Ni758  1  0.24348933  0.70829933  0.37718286  1.0
  Ni  Ni759  1  0.57682267  0.04163267  0.37718286  1.0
  Ni  Ni760  1  0.57682267  0.37496600  0.37718286  1.0
  Ni  Ni761  1  0.57682267  0.70829933  0.37718286  1.0
  Ni  Ni762  1  0.91015600  0.04163267  0.37718286  1.0
  Ni  Ni763  1  0.91015600  0.37496600  0.37718286  1.0
  Ni  Ni764  1  0.91015600  0.70829933  0.37718286  1.0
  Ni  Ni765  1  0.24348933  0.20829933  0.30575429  1.0
  Ni  Ni766  1  0.24348933  0.54163267  0.30575429  1.0
  Ni  Ni767  1  0.24348933  0.87496600  0.30575429  1.0
  Ni  Ni768  1  0.57682267  0.20829933  0.30575429  1.0
  Ni  Ni769  1  0.57682267  0.54163267  0.30575429  1.0
  Ni  Ni770  1  0.57682267  0.87496600  0.30575429  1.0
  Ni  Ni771  1  0.91015600  0.20829933  0.30575429  1.0
  Ni  Ni772  1  0.91015600  0.54163267  0.30575429  1.0
  Ni  Ni773  1  0.91015600  0.87496600  0.30575429  1.0
  Ni  Ni774  1  0.07827400  0.04163267  0.30637629  1.0
  Ni  Ni775  1  0.07827400  0.37496600  0.30637629  1.0
  Ni  Ni776  1  0.07827400  0.70829933  0.30637629  1.0
  Ni  Ni777  1  0.41160733  0.04163267  0.30637629  1.0
  Ni  Ni778  1  0.41160733  0.37496600  0.30637629  1.0
  Ni  Ni779  1  0.41160733  0.70829933  0.30637629  1.0
  Ni  Ni780  1  0.74494067  0.04163267  0.30637629  1.0
  Ni  Ni781  1  0.74494067  0.37496600  0.30637629  1.0
  Ni  Ni782  1  0.74494067  0.70829933  0.30637629  1.0
  Ni  Ni783  1  0.07827400  0.20829933  0.37780486  1.0
  Ni  Ni784  1  0.07827400  0.54163267  0.37780486  1.0
  Ni  Ni785  1  0.07827400  0.87496600  0.37780486  1.0
  Ni  Ni786  1  0.41160733  0.20829933  0.37780486  1.0
  Ni  Ni787  1  0.41160733  0.54163267  0.37780486  1.0
  Ni  Ni788  1  0.41160733  0.87496600  0.37780486  1.0
  Ni  Ni789  1  0.74494067  0.20829933  0.37780486  1.0
  Ni  Ni790  1  0.74494067  0.54163267  0.37780486  1.0
  Ni  Ni791  1  0.74494067  0.87496600  0.37780486  1.0
  Ni  Ni792  1  0.24632533  0.04173417  0.30511736  1.0
  Ni  Ni793  1  0.24632533  0.37506750  0.30511736  1.0
  Ni  Ni794  1  0.24632533  0.70840083  0.30511736  1.0
  Ni  Ni795  1  0.57965867  0.04173417  0.30511736  1.0
  Ni  Ni796  1  0.57965867  0.37506750  0.30511736  1.0
  Ni  Ni797  1  0.57965867  0.70840083  0.30511736  1.0
  Ni  Ni798  1  0.91299200  0.04173417  0.30511736  1.0
  Ni  Ni799  1  0.91299200  0.37506750  0.30511736  1.0
  Ni  Ni800  1  0.91299200  0.70840083  0.30511736  1.0
  Ni  Ni801  1  0.24632533  0.20840083  0.37654593  1.0
  Ni  Ni802  1  0.24632533  0.54173417  0.37654593  1.0
  Ni  Ni803  1  0.24632533  0.87506750  0.37654593  1.0
  Ni  Ni804  1  0.57965867  0.20840083  0.37654593  1.0
  Ni  Ni805  1  0.57965867  0.54173417  0.37654593  1.0
  Ni  Ni806  1  0.57965867  0.87506750  0.37654593  1.0
  Ni  Ni807  1  0.91299200  0.20840083  0.37654593  1.0
  Ni  Ni808  1  0.91299200  0.54173417  0.37654593  1.0
  Ni  Ni809  1  0.91299200  0.87506750  0.37654593  1.0
  Ni  Ni810  1  0.28706033  0.07032767  0.32298271  1.0
  Ni  Ni811  1  0.28706033  0.40366100  0.32298271  1.0
  Ni  Ni812  1  0.28706033  0.73699433  0.32298271  1.0
  Ni  Ni813  1  0.62039367  0.07032767  0.32298271  1.0
  Ni  Ni814  1  0.62039367  0.40366100  0.32298271  1.0
  Ni  Ni815  1  0.62039367  0.73699433  0.32298271  1.0
  Ni  Ni816  1  0.95372700  0.07032767  0.32298271  1.0
  Ni  Ni817  1  0.95372700  0.40366100  0.32298271  1.0
  Ni  Ni818  1  0.95372700  0.73699433  0.32298271  1.0
  Ni  Ni819  1  0.28706033  0.23699433  0.39441129  1.0
  Ni  Ni820  1  0.28706033  0.57032767  0.39441129  1.0
  Ni  Ni821  1  0.28706033  0.90366100  0.39441129  1.0
  Ni  Ni822  1  0.62039367  0.23699433  0.39441129  1.0
  Ni  Ni823  1  0.62039367  0.57032767  0.39441129  1.0
  Ni  Ni824  1  0.62039367  0.90366100  0.39441129  1.0
  Ni  Ni825  1  0.95372700  0.23699433  0.39441129  1.0
  Ni  Ni826  1  0.95372700  0.57032767  0.39441129  1.0
  Ni  Ni827  1  0.95372700  0.90366100  0.39441129  1.0
  Ni  Ni828  1  0.17604600  0.07032767  0.41826229  1.0
  Ni  Ni829  1  0.17604600  0.40366100  0.41826229  1.0
  Ni  Ni830  1  0.17604600  0.73699433  0.41826229  1.0
  Ni  Ni831  1  0.50937933  0.07032767  0.41826229  1.0
  Ni  Ni832  1  0.50937933  0.40366100  0.41826229  1.0
  Ni  Ni833  1  0.50937933  0.73699433  0.41826229  1.0
  Ni  Ni834  1  0.84271267  0.07032767  0.41826229  1.0
  Ni  Ni835  1  0.84271267  0.40366100  0.41826229  1.0
  Ni  Ni836  1  0.84271267  0.73699433  0.41826229  1.0
  Ni  Ni837  1  0.17604600  0.23699433  0.34683371  1.0
  Ni  Ni838  1  0.17604600  0.57032767  0.34683371  1.0
  Ni  Ni839  1  0.17604600  0.90366100  0.34683371  1.0
  Ni  Ni840  1  0.50937933  0.23699433  0.34683371  1.0
  Ni  Ni841  1  0.50937933  0.57032767  0.34683371  1.0
  Ni  Ni842  1  0.50937933  0.90366100  0.34683371  1.0
  Ni  Ni843  1  0.84271267  0.23699433  0.34683371  1.0
  Ni  Ni844  1  0.84271267  0.57032767  0.34683371  1.0
  Ni  Ni845  1  0.84271267  0.90366100  0.34683371  1.0
  Ni  Ni846  1  0.04627300  0.09633900  0.31987443  1.0
  Ni  Ni847  1  0.04627300  0.42967233  0.31987443  1.0
  Ni  Ni848  1  0.04627300  0.76300567  0.31987443  1.0
  Ni  Ni849  1  0.37960633  0.09633900  0.31987443  1.0
  Ni  Ni850  1  0.37960633  0.42967233  0.31987443  1.0
  Ni  Ni851  1  0.37960633  0.76300567  0.31987443  1.0
  Ni  Ni852  1  0.71293967  0.09633900  0.31987443  1.0
  Ni  Ni853  1  0.71293967  0.42967233  0.31987443  1.0
  Ni  Ni854  1  0.71293967  0.76300567  0.31987443  1.0
  Ni  Ni855  1  0.04627300  0.26300567  0.39130300  1.0
  Ni  Ni856  1  0.04627300  0.59633900  0.39130300  1.0
  Ni  Ni857  1  0.04627300  0.92967233  0.39130300  1.0
  Ni  Ni858  1  0.37960633  0.26300567  0.39130300  1.0
  Ni  Ni859  1  0.37960633  0.59633900  0.39130300  1.0
  Ni  Ni860  1  0.37960633  0.92967233  0.39130300  1.0
  Ni  Ni861  1  0.71293967  0.26300567  0.39130300  1.0
  Ni  Ni862  1  0.71293967  0.59633900  0.39130300  1.0
  Ni  Ni863  1  0.71293967  0.92967233  0.39130300  1.0
  Ni  Ni864  1  0.15728733  0.09633900  0.36745200  1.0
  Ni  Ni865  1  0.15728733  0.42967233  0.36745200  1.0
  Ni  Ni866  1  0.15728733  0.76300567  0.36745200  1.0
  Ni  Ni867  1  0.49062067  0.09633900  0.36745200  1.0
  Ni  Ni868  1  0.49062067  0.42967233  0.36745200  1.0
  Ni  Ni869  1  0.49062067  0.76300567  0.36745200  1.0
  Ni  Ni870  1  0.82395400  0.09633900  0.36745200  1.0
  Ni  Ni871  1  0.82395400  0.42967233  0.36745200  1.0
  Ni  Ni872  1  0.82395400  0.76300567  0.36745200  1.0
  Ni  Ni873  1  0.15728733  0.26300567  0.29602343  1.0
  Ni  Ni874  1  0.15728733  0.59633900  0.29602343  1.0
  Ni  Ni875  1  0.15728733  0.92967233  0.29602343  1.0
  Ni  Ni876  1  0.49062067  0.26300567  0.29602343  1.0
  Ni  Ni877  1  0.49062067  0.59633900  0.29602343  1.0
  Ni  Ni878  1  0.49062067  0.92967233  0.29602343  1.0
  Ni  Ni879  1  0.82395400  0.26300567  0.29602343  1.0
  Ni  Ni880  1  0.82395400  0.59633900  0.29602343  1.0
  Ni  Ni881  1  0.82395400  0.92967233  0.29602343  1.0
  Ni  Ni882  1  0.08700800  0.12493250  0.33773979  1.0
  Ni  Ni883  1  0.08700800  0.45826583  0.33773979  1.0
  Ni  Ni884  1  0.08700800  0.79159917  0.33773979  1.0
  Ni  Ni885  1  0.42034133  0.12493250  0.33773979  1.0
  Ni  Ni886  1  0.42034133  0.45826583  0.33773979  1.0
  Ni  Ni887  1  0.42034133  0.79159917  0.33773979  1.0
  Ni  Ni888  1  0.75367467  0.12493250  0.33773979  1.0
  Ni  Ni889  1  0.75367467  0.45826583  0.33773979  1.0
  Ni  Ni890  1  0.75367467  0.79159917  0.33773979  1.0
  Ni  Ni891  1  0.08700800  0.29159917  0.40916836  1.0
  Ni  Ni892  1  0.08700800  0.62493250  0.40916836  1.0
  Ni  Ni893  1  0.08700800  0.95826583  0.40916836  1.0
  Ni  Ni894  1  0.42034133  0.29159917  0.40916836  1.0
  Ni  Ni895  1  0.42034133  0.62493250  0.40916836  1.0
  Ni  Ni896  1  0.42034133  0.95826583  0.40916836  1.0
  Ni  Ni897  1  0.75367467  0.29159917  0.40916836  1.0
  Ni  Ni898  1  0.75367467  0.62493250  0.40916836  1.0
  Ni  Ni899  1  0.75367467  0.95826583  0.40916836  1.0
  Ni  Ni900  1  0.08984400  0.12503400  0.40853143  1.0
  Ni  Ni901  1  0.08984400  0.45836733  0.40853143  1.0
  Ni  Ni902  1  0.08984400  0.79170067  0.40853143  1.0
  Ni  Ni903  1  0.42317733  0.12503400  0.40853143  1.0
  Ni  Ni904  1  0.42317733  0.45836733  0.40853143  1.0
  Ni  Ni905  1  0.42317733  0.79170067  0.40853143  1.0
  Ni  Ni906  1  0.75651067  0.12503400  0.40853143  1.0
  Ni  Ni907  1  0.75651067  0.45836733  0.40853143  1.0
  Ni  Ni908  1  0.75651067  0.79170067  0.40853143  1.0
  Ni  Ni909  1  0.08984400  0.29170067  0.33710286  1.0
  Ni  Ni910  1  0.08984400  0.62503400  0.33710286  1.0
  Ni  Ni911  1  0.08984400  0.95836733  0.33710286  1.0
  Ni  Ni912  1  0.42317733  0.29170067  0.33710286  1.0
  Ni  Ni913  1  0.42317733  0.62503400  0.33710286  1.0
  Ni  Ni914  1  0.42317733  0.95836733  0.33710286  1.0
  Ni  Ni915  1  0.75651067  0.29170067  0.33710286  1.0
  Ni  Ni916  1  0.75651067  0.62503400  0.33710286  1.0
  Ni  Ni917  1  0.75651067  0.95836733  0.33710286  1.0
  Ni  Ni918  1  0.25505933  0.12503400  0.33648086  1.0
  Ni  Ni919  1  0.25505933  0.45836733  0.33648086  1.0
  Ni  Ni920  1  0.25505933  0.79170067  0.33648086  1.0
  Ni  Ni921  1  0.58839267  0.12503400  0.33648086  1.0
  Ni  Ni922  1  0.58839267  0.45836733  0.33648086  1.0
  Ni  Ni923  1  0.58839267  0.79170067  0.33648086  1.0
  Ni  Ni924  1  0.92172600  0.12503400  0.33648086  1.0
  Ni  Ni925  1  0.92172600  0.45836733  0.33648086  1.0
  Ni  Ni926  1  0.92172600  0.79170067  0.33648086  1.0
  Ni  Ni927  1  0.25505933  0.29170067  0.40790943  1.0
  Ni  Ni928  1  0.25505933  0.62503400  0.40790943  1.0
  Ni  Ni929  1  0.25505933  0.95836733  0.40790943  1.0
  Ni  Ni930  1  0.58839267  0.29170067  0.40790943  1.0
  Ni  Ni931  1  0.58839267  0.62503400  0.40790943  1.0
  Ni  Ni932  1  0.58839267  0.95836733  0.40790943  1.0
  Ni  Ni933  1  0.92172600  0.29170067  0.40790943  1.0
  Ni  Ni934  1  0.92172600  0.62503400  0.40790943  1.0
  Ni  Ni935  1  0.92172600  0.95836733  0.40790943  1.0
  Ni  Ni936  1  0.12723567  0.15365817  0.35524521  1.0
  Ni  Ni937  1  0.12723567  0.48699150  0.35524521  1.0
  Ni  Ni938  1  0.12723567  0.82032483  0.35524521  1.0
  Ni  Ni939  1  0.46056900  0.15365817  0.35524521  1.0
  Ni  Ni940  1  0.46056900  0.48699150  0.35524521  1.0
  Ni  Ni941  1  0.46056900  0.82032483  0.35524521  1.0
  Ni  Ni942  1  0.79390233  0.15365817  0.35524521  1.0
  Ni  Ni943  1  0.79390233  0.48699150  0.35524521  1.0
  Ni  Ni944  1  0.79390233  0.82032483  0.35524521  1.0
  Ni  Ni945  1  0.12723567  0.32032483  0.42667379  1.0
  Ni  Ni946  1  0.12723567  0.65365817  0.42667379  1.0
  Ni  Ni947  1  0.12723567  0.98699150  0.42667379  1.0
  Ni  Ni948  1  0.46056900  0.32032483  0.42667379  1.0
  Ni  Ni949  1  0.46056900  0.65365817  0.42667379  1.0
  Ni  Ni950  1  0.46056900  0.98699150  0.42667379  1.0
  Ni  Ni951  1  0.79390233  0.32032483  0.42667379  1.0
  Ni  Ni952  1  0.79390233  0.65365817  0.42667379  1.0
  Ni  Ni953  1  0.79390233  0.98699150  0.42667379  1.0
  Ni  Ni954  1  0.01743633  0.15365817  0.30818836  1.0
  Ni  Ni955  1  0.01743633  0.48699150  0.30818836  1.0
  Ni  Ni956  1  0.01743633  0.82032483  0.30818836  1.0
  Ni  Ni957  1  0.35076967  0.15365817  0.30818836  1.0
  Ni  Ni958  1  0.35076967  0.48699150  0.30818836  1.0
  Ni  Ni959  1  0.35076967  0.82032483  0.30818836  1.0
  Ni  Ni960  1  0.68410300  0.15365817  0.30818836  1.0
  Ni  Ni961  1  0.68410300  0.48699150  0.30818836  1.0
  Ni  Ni962  1  0.68410300  0.82032483  0.30818836  1.0
  Ni  Ni963  1  0.01743633  0.32032483  0.37961693  1.0
  Ni  Ni964  1  0.01743633  0.65365817  0.37961693  1.0
  Ni  Ni965  1  0.01743633  0.98699150  0.37961693  1.0
  Ni  Ni966  1  0.35076967  0.32032483  0.37961693  1.0
  Ni  Ni967  1  0.35076967  0.65365817  0.37961693  1.0
  Ni  Ni968  1  0.35076967  0.98699150  0.37961693  1.0
  Ni  Ni969  1  0.68410300  0.32032483  0.37961693  1.0
  Ni  Ni970  1  0.68410300  0.65365817  0.37961693  1.0
  Ni  Ni971  1  0.68410300  0.98699150  0.37961693  1.0
