# generated using pymatgen
data_Zr2Ni7
_symmetry_space_group_name_H-M   'P 1'
_cell_length_a   24.37380227
_cell_length_b   37.65117911
_cell_length_c   33.03003921
_cell_angle_alpha   97.90547987
_cell_angle_beta   90.58719544
_cell_angle_gamma   103.86521925
_symmetry_Int_Tables_number   1
_chemical_formula_structural   Zr2Ni7
_chemical_formula_sum   'Zr216 Ni756'
_cell_volume   29119.40813689
_cell_formula_units_Z   108
loop_
 _symmetry_equiv_pos_site_id
 _symmetry_equiv_pos_as_xyz
  1  'x, y, z'
loop_
 _atom_site_type_symbol
 _atom_site_label
 _atom_site_symmetry_multiplicity
 _atom_site_fract_x
 _atom_site_fract_y
 _atom_site_fract_z
 _atom_site_occupancy
  Ni  Ni0  1  0.05060933  0.30731633  0.98873421  1.0
  Ni  Ni1  1  0.05060933  0.64064967  0.98873421  1.0
  Ni  Ni2  1  0.05060933  0.97398300  0.98873421  1.0
  Ni  Ni3  1  0.38394267  0.30731633  0.98873421  1.0
  Ni  Ni4  1  0.38394267  0.64064967  0.98873421  1.0
  Ni  Ni5  1  0.38394267  0.97398300  0.98873421  1.0
  Ni  Ni6  1  0.71727600  0.30731633  0.98873421  1.0
  Ni  Ni7  1  0.71727600  0.64064967  0.98873421  1.0
  Ni  Ni8  1  0.71727600  0.97398300  0.98873421  1.0
  Ni  Ni9  1  0.21727600  0.30731633  0.91730564  1.0
  Ni  Ni10  1  0.21727600  0.64064967  0.91730564  1.0
  Ni  Ni11  1  0.21727600  0.97398300  0.91730564  1.0
  Ni  Ni12  1  0.55060933  0.30731633  0.91730564  1.0
  Ni  Ni13  1  0.55060933  0.64064967  0.91730564  1.0
  Ni  Ni14  1  0.55060933  0.97398300  0.91730564  1.0
  Ni  Ni15  1  0.88394267  0.30731633  0.91730564  1.0
  Ni  Ni16  1  0.88394267  0.64064967  0.91730564  1.0
  Ni  Ni17  1  0.88394267  0.97398300  0.91730564  1.0
  Ni  Ni18  1  0.32904300  0.30731633  0.91646236  1.0
  Ni  Ni19  1  0.32904300  0.64064967  0.91646236  1.0
  Ni  Ni20  1  0.32904300  0.97398300  0.91646236  1.0
  Ni  Ni21  1  0.66237633  0.30731633  0.91646236  1.0
  Ni  Ni22  1  0.66237633  0.64064967  0.91646236  1.0
  Ni  Ni23  1  0.66237633  0.97398300  0.91646236  1.0
  Ni  Ni24  1  0.99570967  0.30731633  0.91646236  1.0
  Ni  Ni25  1  0.99570967  0.64064967  0.91646236  1.0
  Ni  Ni26  1  0.99570967  0.97398300  0.91646236  1.0
  Ni  Ni27  1  0.16237633  0.30731633  0.98789093  1.0
  Ni  Ni28  1  0.16237633  0.64064967  0.98789093  1.0
  Ni  Ni29  1  0.16237633  0.97398300  0.98789093  1.0
  Ni  Ni30  1  0.49570967  0.30731633  0.98789093  1.0
  Ni  Ni31  1  0.49570967  0.64064967  0.98789093  1.0
  Ni  Ni32  1  0.49570967  0.97398300  0.98789093  1.0
  Ni  Ni33  1  0.82904300  0.30731633  0.98789093  1.0
  Ni  Ni34  1  0.82904300  0.64064967  0.98789093  1.0
  Ni  Ni35  1  0.82904300  0.97398300  0.98789093  1.0
  Ni  Ni36  1  0.00328933  0.25006800  0.94346050  1.0
  Ni  Ni37  1  0.00328933  0.58340133  0.94346050  1.0
  Ni  Ni38  1  0.00328933  0.91673467  0.94346050  1.0
  Ni  Ni39  1  0.33662267  0.25006800  0.94346050  1.0
  Ni  Ni40  1  0.33662267  0.58340133  0.94346050  1.0
  Ni  Ni41  1  0.33662267  0.91673467  0.94346050  1.0
  Ni  Ni42  1  0.66995600  0.25006800  0.94346050  1.0
  Ni  Ni43  1  0.66995600  0.58340133  0.94346050  1.0
  Ni  Ni44  1  0.66995600  0.91673467  0.94346050  1.0
  Ni  Ni45  1  0.16995600  0.25006800  0.87203193  1.0
  Ni  Ni46  1  0.16995600  0.58340133  0.87203193  1.0
  Ni  Ni47  1  0.16995600  0.91673467  0.87203193  1.0
  Ni  Ni48  1  0.50328933  0.25006800  0.87203193  1.0
  Ni  Ni49  1  0.50328933  0.58340133  0.87203193  1.0
  Ni  Ni50  1  0.50328933  0.91673467  0.87203193  1.0
  Ni  Ni51  1  0.83662267  0.25006800  0.87203193  1.0
  Ni  Ni52  1  0.83662267  0.58340133  0.87203193  1.0
  Ni  Ni53  1  0.83662267  0.91673467  0.87203193  1.0
  Ni  Ni54  1  0.08589700  0.25006800  0.98010779  1.0
  Ni  Ni55  1  0.08589700  0.58340133  0.98010779  1.0
  Ni  Ni56  1  0.08589700  0.91673467  0.98010779  1.0
  Ni  Ni57  1  0.41923033  0.25006800  0.98010779  1.0
  Ni  Ni58  1  0.41923033  0.58340133  0.98010779  1.0
  Ni  Ni59  1  0.41923033  0.91673467  0.98010779  1.0
  Ni  Ni60  1  0.75256367  0.25006800  0.98010779  1.0
  Ni  Ni61  1  0.75256367  0.58340133  0.98010779  1.0
  Ni  Ni62  1  0.75256367  0.91673467  0.98010779  1.0
  Ni  Ni63  1  0.25256367  0.25006800  0.90867921  1.0
  Ni  Ni64  1  0.25256367  0.58340133  0.90867921  1.0
  Ni  Ni65  1  0.25256367  0.91673467  0.90867921  1.0
  Ni  Ni66  1  0.58589700  0.25006800  0.90867921  1.0
  Ni  Ni67  1  0.58589700  0.58340133  0.90867921  1.0
  Ni  Ni68  1  0.58589700  0.91673467  0.90867921  1.0
  Ni  Ni69  1  0.91923033  0.25006800  0.90867921  1.0
  Ni  Ni70  1  0.91923033  0.58340133  0.90867921  1.0
  Ni  Ni71  1  0.91923033  0.91673467  0.90867921  1.0
  Ni  Ni72  1  0.00176983  0.24986500  0.87200271  1.0
  Ni  Ni73  1  0.00176983  0.58319833  0.87200271  1.0
  Ni  Ni74  1  0.00176983  0.91653167  0.87200271  1.0
  Ni  Ni75  1  0.33510317  0.24986500  0.87200271  1.0
  Ni  Ni76  1  0.33510317  0.58319833  0.87200271  1.0
  Ni  Ni77  1  0.33510317  0.91653167  0.87200271  1.0
  Ni  Ni78  1  0.66843650  0.24986500  0.87200271  1.0
  Ni  Ni79  1  0.66843650  0.58319833  0.87200271  1.0
  Ni  Ni80  1  0.66843650  0.91653167  0.87200271  1.0
  Ni  Ni81  1  0.16843650  0.24986500  0.94343129  1.0
  Ni  Ni82  1  0.16843650  0.58319833  0.94343129  1.0
  Ni  Ni83  1  0.16843650  0.91653167  0.94343129  1.0
  Ni  Ni84  1  0.50176983  0.24986500  0.94343129  1.0
  Ni  Ni85  1  0.50176983  0.58319833  0.94343129  1.0
  Ni  Ni86  1  0.50176983  0.91653167  0.94343129  1.0
  Ni  Ni87  1  0.83510317  0.24986500  0.94343129  1.0
  Ni  Ni88  1  0.83510317  0.58319833  0.94343129  1.0
  Ni  Ni89  1  0.83510317  0.91653167  0.94343129  1.0
  Ni  Ni90  1  0.28614217  0.19267800  0.89859700  1.0
  Ni  Ni91  1  0.28614217  0.52601133  0.89859700  1.0
  Ni  Ni92  1  0.28614217  0.85934467  0.89859700  1.0
  Ni  Ni93  1  0.61947550  0.19267800  0.89859700  1.0
  Ni  Ni94  1  0.61947550  0.52601133  0.89859700  1.0
  Ni  Ni95  1  0.61947550  0.85934467  0.89859700  1.0
  Ni  Ni96  1  0.95280883  0.19267800  0.89859700  1.0
  Ni  Ni97  1  0.95280883  0.52601133  0.89859700  1.0
  Ni  Ni98  1  0.95280883  0.85934467  0.89859700  1.0
  Ni  Ni99  1  0.11947550  0.19267800  0.97002557  1.0
  Ni  Ni100  1  0.11947550  0.52601133  0.97002557  1.0
  Ni  Ni101  1  0.11947550  0.85934467  0.97002557  1.0
  Ni  Ni102  1  0.45280883  0.19267800  0.97002557  1.0
  Ni  Ni103  1  0.45280883  0.52601133  0.97002557  1.0
  Ni  Ni104  1  0.45280883  0.85934467  0.97002557  1.0
  Ni  Ni105  1  0.78614217  0.19267800  0.97002557  1.0
  Ni  Ni106  1  0.78614217  0.52601133  0.97002557  1.0
  Ni  Ni107  1  0.78614217  0.85934467  0.97002557  1.0
  Ni  Ni108  1  0.00831600  0.19267800  0.97008779  1.0
  Ni  Ni109  1  0.00831600  0.52601133  0.97008779  1.0
  Ni  Ni110  1  0.00831600  0.85934467  0.97008779  1.0
  Ni  Ni111  1  0.34164933  0.19267800  0.97008779  1.0
  Ni  Ni112  1  0.34164933  0.52601133  0.97008779  1.0
  Ni  Ni113  1  0.34164933  0.85934467  0.97008779  1.0
  Ni  Ni114  1  0.67498267  0.19267800  0.97008779  1.0
  Ni  Ni115  1  0.67498267  0.52601133  0.97008779  1.0
  Ni  Ni116  1  0.67498267  0.85934467  0.97008779  1.0
  Ni  Ni117  1  0.17498267  0.19267800  0.89865921  1.0
  Ni  Ni118  1  0.17498267  0.52601133  0.89865921  1.0
  Ni  Ni119  1  0.17498267  0.85934467  0.89865921  1.0
  Ni  Ni120  1  0.50831600  0.19267800  0.89865921  1.0
  Ni  Ni121  1  0.50831600  0.52601133  0.89865921  1.0
  Ni  Ni122  1  0.50831600  0.85934467  0.89865921  1.0
  Ni  Ni123  1  0.84164933  0.19267800  0.89865921  1.0
  Ni  Ni124  1  0.84164933  0.52601133  0.89865921  1.0
  Ni  Ni125  1  0.84164933  0.85934467  0.89865921  1.0
  Ni  Ni126  1  0.04719117  0.14065533  0.98674857  1.0
  Ni  Ni127  1  0.04719117  0.47398867  0.98674857  1.0
  Ni  Ni128  1  0.04719117  0.80732200  0.98674857  1.0
  Ni  Ni129  1  0.38052450  0.14065533  0.98674857  1.0
  Ni  Ni130  1  0.38052450  0.47398867  0.98674857  1.0
  Ni  Ni131  1  0.38052450  0.80732200  0.98674857  1.0
  Ni  Ni132  1  0.71385783  0.14065533  0.98674857  1.0
  Ni  Ni133  1  0.71385783  0.47398867  0.98674857  1.0
  Ni  Ni134  1  0.71385783  0.80732200  0.98674857  1.0
  Ni  Ni135  1  0.21385783  0.14065533  0.91532000  1.0
  Ni  Ni136  1  0.21385783  0.47398867  0.91532000  1.0
  Ni  Ni137  1  0.21385783  0.80732200  0.91532000  1.0
  Ni  Ni138  1  0.54719117  0.14065533  0.91532000  1.0
  Ni  Ni139  1  0.54719117  0.47398867  0.91532000  1.0
  Ni  Ni140  1  0.54719117  0.80732200  0.91532000  1.0
  Ni  Ni141  1  0.88052450  0.14065533  0.91532000  1.0
  Ni  Ni142  1  0.88052450  0.47398867  0.91532000  1.0
  Ni  Ni143  1  0.88052450  0.80732200  0.91532000  1.0
  Ni  Ni144  1  0.32501733  0.14065533  0.91525779  1.0
  Ni  Ni145  1  0.32501733  0.47398867  0.91525779  1.0
  Ni  Ni146  1  0.32501733  0.80732200  0.91525779  1.0
  Ni  Ni147  1  0.65835067  0.14065533  0.91525779  1.0
  Ni  Ni148  1  0.65835067  0.47398867  0.91525779  1.0
  Ni  Ni149  1  0.65835067  0.80732200  0.91525779  1.0
  Ni  Ni150  1  0.99168400  0.14065533  0.91525779  1.0
  Ni  Ni151  1  0.99168400  0.47398867  0.91525779  1.0
  Ni  Ni152  1  0.99168400  0.80732200  0.91525779  1.0
  Ni  Ni153  1  0.15835067  0.14065533  0.98668636  1.0
  Ni  Ni154  1  0.15835067  0.47398867  0.98668636  1.0
  Ni  Ni155  1  0.15835067  0.80732200  0.98668636  1.0
  Ni  Ni156  1  0.49168400  0.14065533  0.98668636  1.0
  Ni  Ni157  1  0.49168400  0.47398867  0.98668636  1.0
  Ni  Ni158  1  0.49168400  0.80732200  0.98668636  1.0
  Ni  Ni159  1  0.82501733  0.14065533  0.98668636  1.0
  Ni  Ni160  1  0.82501733  0.47398867  0.98668636  1.0
  Ni  Ni161  1  0.82501733  0.80732200  0.98668636  1.0
  Ni  Ni162  1  0.33156350  0.08346833  0.87048571  1.0
  Ni  Ni163  1  0.33156350  0.41680167  0.87048571  1.0
  Ni  Ni164  1  0.33156350  0.75013500  0.87048571  1.0
  Ni  Ni165  1  0.66489683  0.08346833  0.87048571  1.0
  Ni  Ni166  1  0.66489683  0.41680167  0.87048571  1.0
  Ni  Ni167  1  0.66489683  0.75013500  0.87048571  1.0
  Ni  Ni168  1  0.99823017  0.08346833  0.87048571  1.0
  Ni  Ni169  1  0.99823017  0.41680167  0.87048571  1.0
  Ni  Ni170  1  0.99823017  0.75013500  0.87048571  1.0
  Ni  Ni171  1  0.16489683  0.08346833  0.94191429  1.0
  Ni  Ni172  1  0.16489683  0.41680167  0.94191429  1.0
  Ni  Ni173  1  0.16489683  0.75013500  0.94191429  1.0
  Ni  Ni174  1  0.49823017  0.08346833  0.94191429  1.0
  Ni  Ni175  1  0.49823017  0.41680167  0.94191429  1.0
  Ni  Ni176  1  0.49823017  0.75013500  0.94191429  1.0
  Ni  Ni177  1  0.83156350  0.08346833  0.94191429  1.0
  Ni  Ni178  1  0.83156350  0.41680167  0.94191429  1.0
  Ni  Ni179  1  0.83156350  0.75013500  0.94191429  1.0
  Ni  Ni180  1  0.33004400  0.08326533  0.94188507  1.0
  Ni  Ni181  1  0.33004400  0.41659867  0.94188507  1.0
  Ni  Ni182  1  0.33004400  0.74993200  0.94188507  1.0
  Ni  Ni183  1  0.66337733  0.08326533  0.94188507  1.0
  Ni  Ni184  1  0.66337733  0.41659867  0.94188507  1.0
  Ni  Ni185  1  0.66337733  0.74993200  0.94188507  1.0
  Ni  Ni186  1  0.99671067  0.08326533  0.94188507  1.0
  Ni  Ni187  1  0.99671067  0.41659867  0.94188507  1.0
  Ni  Ni188  1  0.99671067  0.74993200  0.94188507  1.0
  Ni  Ni189  1  0.16337733  0.08326533  0.87045650  1.0
  Ni  Ni190  1  0.16337733  0.41659867  0.87045650  1.0
  Ni  Ni191  1  0.16337733  0.74993200  0.87045650  1.0
  Ni  Ni192  1  0.49671067  0.08326533  0.87045650  1.0
  Ni  Ni193  1  0.49671067  0.41659867  0.87045650  1.0
  Ni  Ni194  1  0.49671067  0.74993200  0.87045650  1.0
  Ni  Ni195  1  0.83004400  0.08326533  0.87045650  1.0
  Ni  Ni196  1  0.83004400  0.41659867  0.87045650  1.0
  Ni  Ni197  1  0.83004400  0.74993200  0.87045650  1.0
  Ni  Ni198  1  0.24743633  0.08326533  0.90523779  1.0
  Ni  Ni199  1  0.24743633  0.41659867  0.90523779  1.0
  Ni  Ni200  1  0.24743633  0.74993200  0.90523779  1.0
  Ni  Ni201  1  0.58076967  0.08326533  0.90523779  1.0
  Ni  Ni202  1  0.58076967  0.41659867  0.90523779  1.0
  Ni  Ni203  1  0.58076967  0.74993200  0.90523779  1.0
  Ni  Ni204  1  0.91410300  0.08326533  0.90523779  1.0
  Ni  Ni205  1  0.91410300  0.41659867  0.90523779  1.0
  Ni  Ni206  1  0.91410300  0.74993200  0.90523779  1.0
  Ni  Ni207  1  0.08076967  0.08326533  0.97666636  1.0
  Ni  Ni208  1  0.08076967  0.41659867  0.97666636  1.0
  Ni  Ni209  1  0.08076967  0.74993200  0.97666636  1.0
  Ni  Ni210  1  0.41410300  0.08326533  0.97666636  1.0
  Ni  Ni211  1  0.41410300  0.41659867  0.97666636  1.0
  Ni  Ni212  1  0.41410300  0.74993200  0.97666636  1.0
  Ni  Ni213  1  0.74743633  0.08326533  0.97666636  1.0
  Ni  Ni214  1  0.74743633  0.41659867  0.97666636  1.0
  Ni  Ni215  1  0.74743633  0.74993200  0.97666636  1.0
  Ni  Ni216  1  0.28272400  0.02601700  0.89661136  1.0
  Ni  Ni217  1  0.28272400  0.35935033  0.89661136  1.0
  Ni  Ni218  1  0.28272400  0.69268367  0.89661136  1.0
  Ni  Ni219  1  0.61605733  0.02601700  0.89661136  1.0
  Ni  Ni220  1  0.61605733  0.35935033  0.89661136  1.0
  Ni  Ni221  1  0.61605733  0.69268367  0.89661136  1.0
  Ni  Ni222  1  0.94939067  0.02601700  0.89661136  1.0
  Ni  Ni223  1  0.94939067  0.35935033  0.89661136  1.0
  Ni  Ni224  1  0.94939067  0.69268367  0.89661136  1.0
  Ni  Ni225  1  0.11605733  0.02601700  0.96803993  1.0
  Ni  Ni226  1  0.11605733  0.35935033  0.96803993  1.0
  Ni  Ni227  1  0.11605733  0.69268367  0.96803993  1.0
  Ni  Ni228  1  0.44939067  0.02601700  0.96803993  1.0
  Ni  Ni229  1  0.44939067  0.35935033  0.96803993  1.0
  Ni  Ni230  1  0.44939067  0.69268367  0.96803993  1.0
  Ni  Ni231  1  0.78272400  0.02601700  0.96803993  1.0
  Ni  Ni232  1  0.78272400  0.35935033  0.96803993  1.0
  Ni  Ni233  1  0.78272400  0.69268367  0.96803993  1.0
  Ni  Ni234  1  0.00429033  0.02601700  0.96888321  1.0
  Ni  Ni235  1  0.00429033  0.35935033  0.96888321  1.0
  Ni  Ni236  1  0.00429033  0.69268367  0.96888321  1.0
  Ni  Ni237  1  0.33762367  0.02601700  0.96888321  1.0
  Ni  Ni238  1  0.33762367  0.35935033  0.96888321  1.0
  Ni  Ni239  1  0.33762367  0.69268367  0.96888321  1.0
  Ni  Ni240  1  0.67095700  0.02601700  0.96888321  1.0
  Ni  Ni241  1  0.67095700  0.35935033  0.96888321  1.0
  Ni  Ni242  1  0.67095700  0.69268367  0.96888321  1.0
  Ni  Ni243  1  0.17095700  0.02601700  0.89745464  1.0
  Ni  Ni244  1  0.17095700  0.35935033  0.89745464  1.0
  Ni  Ni245  1  0.17095700  0.69268367  0.89745464  1.0
  Ni  Ni246  1  0.50429033  0.02601700  0.89745464  1.0
  Ni  Ni247  1  0.50429033  0.35935033  0.89745464  1.0
  Ni  Ni248  1  0.50429033  0.69268367  0.89745464  1.0
  Ni  Ni249  1  0.83762367  0.02601700  0.89745464  1.0
  Ni  Ni250  1  0.83762367  0.35935033  0.89745464  1.0
  Ni  Ni251  1  0.83762367  0.69268367  0.89745464  1.0
  Ni  Ni252  1  0.05060933  0.30731633  0.84587707  1.0
  Ni  Ni253  1  0.05060933  0.64064967  0.84587707  1.0
  Ni  Ni254  1  0.05060933  0.97398300  0.84587707  1.0
  Ni  Ni255  1  0.38394267  0.30731633  0.84587707  1.0
  Ni  Ni256  1  0.38394267  0.64064967  0.84587707  1.0
  Ni  Ni257  1  0.38394267  0.97398300  0.84587707  1.0
  Ni  Ni258  1  0.71727600  0.30731633  0.84587707  1.0
  Ni  Ni259  1  0.71727600  0.64064967  0.84587707  1.0
  Ni  Ni260  1  0.71727600  0.97398300  0.84587707  1.0
  Ni  Ni261  1  0.21727600  0.30731633  0.77444850  1.0
  Ni  Ni262  1  0.21727600  0.64064967  0.77444850  1.0
  Ni  Ni263  1  0.21727600  0.97398300  0.77444850  1.0
  Ni  Ni264  1  0.55060933  0.30731633  0.77444850  1.0
  Ni  Ni265  1  0.55060933  0.64064967  0.77444850  1.0
  Ni  Ni266  1  0.55060933  0.97398300  0.77444850  1.0
  Ni  Ni267  1  0.88394267  0.30731633  0.77444850  1.0
  Ni  Ni268  1  0.88394267  0.64064967  0.77444850  1.0
  Ni  Ni269  1  0.88394267  0.97398300  0.77444850  1.0
  Ni  Ni270  1  0.32904300  0.30731633  0.77360521  1.0
  Ni  Ni271  1  0.32904300  0.64064967  0.77360521  1.0
  Ni  Ni272  1  0.32904300  0.97398300  0.77360521  1.0
  Ni  Ni273  1  0.66237633  0.30731633  0.77360521  1.0
  Ni  Ni274  1  0.66237633  0.64064967  0.77360521  1.0
  Ni  Ni275  1  0.66237633  0.97398300  0.77360521  1.0
  Ni  Ni276  1  0.99570967  0.30731633  0.77360521  1.0
  Ni  Ni277  1  0.99570967  0.64064967  0.77360521  1.0
  Ni  Ni278  1  0.99570967  0.97398300  0.77360521  1.0
  Ni  Ni279  1  0.16237633  0.30731633  0.84503379  1.0
  Ni  Ni280  1  0.16237633  0.64064967  0.84503379  1.0
  Ni  Ni281  1  0.16237633  0.97398300  0.84503379  1.0
  Ni  Ni282  1  0.49570967  0.30731633  0.84503379  1.0
  Ni  Ni283  1  0.49570967  0.64064967  0.84503379  1.0
  Ni  Ni284  1  0.49570967  0.97398300  0.84503379  1.0
  Ni  Ni285  1  0.82904300  0.30731633  0.84503379  1.0
  Ni  Ni286  1  0.82904300  0.64064967  0.84503379  1.0
  Ni  Ni287  1  0.82904300  0.97398300  0.84503379  1.0
  Ni  Ni288  1  0.00328933  0.25006800  0.80060336  1.0
  Ni  Ni289  1  0.00328933  0.58340133  0.80060336  1.0
  Ni  Ni290  1  0.00328933  0.91673467  0.80060336  1.0
  Ni  Ni291  1  0.33662267  0.25006800  0.80060336  1.0
  Ni  Ni292  1  0.33662267  0.58340133  0.80060336  1.0
  Ni  Ni293  1  0.33662267  0.91673467  0.80060336  1.0
  Ni  Ni294  1  0.66995600  0.25006800  0.80060336  1.0
  Ni  Ni295  1  0.66995600  0.58340133  0.80060336  1.0
  Ni  Ni296  1  0.66995600  0.91673467  0.80060336  1.0
  Ni  Ni297  1  0.16995600  0.25006800  0.72917479  1.0
  Ni  Ni298  1  0.16995600  0.58340133  0.72917479  1.0
  Ni  Ni299  1  0.16995600  0.91673467  0.72917479  1.0
  Ni  Ni300  1  0.50328933  0.25006800  0.72917479  1.0
  Ni  Ni301  1  0.50328933  0.58340133  0.72917479  1.0
  Ni  Ni302  1  0.50328933  0.91673467  0.72917479  1.0
  Ni  Ni303  1  0.83662267  0.25006800  0.72917479  1.0
  Ni  Ni304  1  0.83662267  0.58340133  0.72917479  1.0
  Ni  Ni305  1  0.83662267  0.91673467  0.72917479  1.0
  Ni  Ni306  1  0.08589700  0.25006800  0.83725064  1.0
  Ni  Ni307  1  0.08589700  0.58340133  0.83725064  1.0
  Ni  Ni308  1  0.08589700  0.91673467  0.83725064  1.0
  Ni  Ni309  1  0.41923033  0.25006800  0.83725064  1.0
  Ni  Ni310  1  0.41923033  0.58340133  0.83725064  1.0
  Ni  Ni311  1  0.41923033  0.91673467  0.83725064  1.0
  Ni  Ni312  1  0.75256367  0.25006800  0.83725064  1.0
  Ni  Ni313  1  0.75256367  0.58340133  0.83725064  1.0
  Ni  Ni314  1  0.75256367  0.91673467  0.83725064  1.0
  Ni  Ni315  1  0.25256367  0.25006800  0.76582207  1.0
  Ni  Ni316  1  0.25256367  0.58340133  0.76582207  1.0
  Ni  Ni317  1  0.25256367  0.91673467  0.76582207  1.0
  Ni  Ni318  1  0.58589700  0.25006800  0.76582207  1.0
  Ni  Ni319  1  0.58589700  0.58340133  0.76582207  1.0
  Ni  Ni320  1  0.58589700  0.91673467  0.76582207  1.0
  Ni  Ni321  1  0.91923033  0.25006800  0.76582207  1.0
  Ni  Ni322  1  0.91923033  0.58340133  0.76582207  1.0
  Ni  Ni323  1  0.91923033  0.91673467  0.76582207  1.0
  Ni  Ni324  1  0.00176983  0.24986500  0.72914557  1.0
  Ni  Ni325  1  0.00176983  0.58319833  0.72914557  1.0
  Ni  Ni326  1  0.00176983  0.91653167  0.72914557  1.0
  Ni  Ni327  1  0.33510317  0.24986500  0.72914557  1.0
  Ni  Ni328  1  0.33510317  0.58319833  0.72914557  1.0
  Ni  Ni329  1  0.33510317  0.91653167  0.72914557  1.0
  Ni  Ni330  1  0.66843650  0.24986500  0.72914557  1.0
  Ni  Ni331  1  0.66843650  0.58319833  0.72914557  1.0
  Ni  Ni332  1  0.66843650  0.91653167  0.72914557  1.0
  Ni  Ni333  1  0.16843650  0.24986500  0.80057414  1.0
  Ni  Ni334  1  0.16843650  0.58319833  0.80057414  1.0
  Ni  Ni335  1  0.16843650  0.91653167  0.80057414  1.0
  Ni  Ni336  1  0.50176983  0.24986500  0.80057414  1.0
  Ni  Ni337  1  0.50176983  0.58319833  0.80057414  1.0
  Ni  Ni338  1  0.50176983  0.91653167  0.80057414  1.0
  Ni  Ni339  1  0.83510317  0.24986500  0.80057414  1.0
  Ni  Ni340  1  0.83510317  0.58319833  0.80057414  1.0
  Ni  Ni341  1  0.83510317  0.91653167  0.80057414  1.0
  Ni  Ni342  1  0.28614217  0.19267800  0.75573986  1.0
  Ni  Ni343  1  0.28614217  0.52601133  0.75573986  1.0
  Ni  Ni344  1  0.28614217  0.85934467  0.75573986  1.0
  Ni  Ni345  1  0.61947550  0.19267800  0.75573986  1.0
  Ni  Ni346  1  0.61947550  0.52601133  0.75573986  1.0
  Ni  Ni347  1  0.61947550  0.85934467  0.75573986  1.0
  Ni  Ni348  1  0.95280883  0.19267800  0.75573986  1.0
  Ni  Ni349  1  0.95280883  0.52601133  0.75573986  1.0
  Ni  Ni350  1  0.95280883  0.85934467  0.75573986  1.0
  Ni  Ni351  1  0.11947550  0.19267800  0.82716843  1.0
  Ni  Ni352  1  0.11947550  0.52601133  0.82716843  1.0
  Ni  Ni353  1  0.11947550  0.85934467  0.82716843  1.0
  Ni  Ni354  1  0.45280883  0.19267800  0.82716843  1.0
  Ni  Ni355  1  0.45280883  0.52601133  0.82716843  1.0
  Ni  Ni356  1  0.45280883  0.85934467  0.82716843  1.0
  Ni  Ni357  1  0.78614217  0.19267800  0.82716843  1.0
  Ni  Ni358  1  0.78614217  0.52601133  0.82716843  1.0
  Ni  Ni359  1  0.78614217  0.85934467  0.82716843  1.0
  Ni  Ni360  1  0.00831600  0.19267800  0.82723064  1.0
  Ni  Ni361  1  0.00831600  0.52601133  0.82723064  1.0
  Ni  Ni362  1  0.00831600  0.85934467  0.82723064  1.0
  Ni  Ni363  1  0.34164933  0.19267800  0.82723064  1.0
  Ni  Ni364  1  0.34164933  0.52601133  0.82723064  1.0
  Ni  Ni365  1  0.34164933  0.85934467  0.82723064  1.0
  Ni  Ni366  1  0.67498267  0.19267800  0.82723064  1.0
  Ni  Ni367  1  0.67498267  0.52601133  0.82723064  1.0
  Ni  Ni368  1  0.67498267  0.85934467  0.82723064  1.0
  Ni  Ni369  1  0.17498267  0.19267800  0.75580207  1.0
  Ni  Ni370  1  0.17498267  0.52601133  0.75580207  1.0
  Ni  Ni371  1  0.17498267  0.85934467  0.75580207  1.0
  Ni  Ni372  1  0.50831600  0.19267800  0.75580207  1.0
  Ni  Ni373  1  0.50831600  0.52601133  0.75580207  1.0
  Ni  Ni374  1  0.50831600  0.85934467  0.75580207  1.0
  Ni  Ni375  1  0.84164933  0.19267800  0.75580207  1.0
  Ni  Ni376  1  0.84164933  0.52601133  0.75580207  1.0
  Ni  Ni377  1  0.84164933  0.85934467  0.75580207  1.0
  Ni  Ni378  1  0.04719117  0.14065533  0.84389143  1.0
  Ni  Ni379  1  0.04719117  0.47398867  0.84389143  1.0
  Ni  Ni380  1  0.04719117  0.80732200  0.84389143  1.0
  Ni  Ni381  1  0.38052450  0.14065533  0.84389143  1.0
  Ni  Ni382  1  0.38052450  0.47398867  0.84389143  1.0
  Ni  Ni383  1  0.38052450  0.80732200  0.84389143  1.0
  Ni  Ni384  1  0.71385783  0.14065533  0.84389143  1.0
  Ni  Ni385  1  0.71385783  0.47398867  0.84389143  1.0
  Ni  Ni386  1  0.71385783  0.80732200  0.84389143  1.0
  Ni  Ni387  1  0.21385783  0.14065533  0.77246286  1.0
  Ni  Ni388  1  0.21385783  0.47398867  0.77246286  1.0
  Ni  Ni389  1  0.21385783  0.80732200  0.77246286  1.0
  Ni  Ni390  1  0.54719117  0.14065533  0.77246286  1.0
  Ni  Ni391  1  0.54719117  0.47398867  0.77246286  1.0
  Ni  Ni392  1  0.54719117  0.80732200  0.77246286  1.0
  Ni  Ni393  1  0.88052450  0.14065533  0.77246286  1.0
  Ni  Ni394  1  0.88052450  0.47398867  0.77246286  1.0
  Ni  Ni395  1  0.88052450  0.80732200  0.77246286  1.0
  Ni  Ni396  1  0.32501733  0.14065533  0.77240064  1.0
  Ni  Ni397  1  0.32501733  0.47398867  0.77240064  1.0
  Ni  Ni398  1  0.32501733  0.80732200  0.77240064  1.0
  Ni  Ni399  1  0.65835067  0.14065533  0.77240064  1.0
  Ni  Ni400  1  0.65835067  0.47398867  0.77240064  1.0
  Ni  Ni401  1  0.65835067  0.80732200  0.77240064  1.0
  Ni  Ni402  1  0.99168400  0.14065533  0.77240064  1.0
  Ni  Ni403  1  0.99168400  0.47398867  0.77240064  1.0
  Ni  Ni404  1  0.99168400  0.80732200  0.77240064  1.0
  Ni  Ni405  1  0.15835067  0.14065533  0.84382921  1.0
  Ni  Ni406  1  0.15835067  0.47398867  0.84382921  1.0
  Ni  Ni407  1  0.15835067  0.80732200  0.84382921  1.0
  Ni  Ni408  1  0.49168400  0.14065533  0.84382921  1.0
  Ni  Ni409  1  0.49168400  0.47398867  0.84382921  1.0
  Ni  Ni410  1  0.49168400  0.80732200  0.84382921  1.0
  Ni  Ni411  1  0.82501733  0.14065533  0.84382921  1.0
  Ni  Ni412  1  0.82501733  0.47398867  0.84382921  1.0
  Ni  Ni413  1  0.82501733  0.80732200  0.84382921  1.0
  Ni  Ni414  1  0.33156350  0.08346833  0.72762857  1.0
  Ni  Ni415  1  0.33156350  0.41680167  0.72762857  1.0
  Ni  Ni416  1  0.33156350  0.75013500  0.72762857  1.0
  Ni  Ni417  1  0.66489683  0.08346833  0.72762857  1.0
  Ni  Ni418  1  0.66489683  0.41680167  0.72762857  1.0
  Ni  Ni419  1  0.66489683  0.75013500  0.72762857  1.0
  Ni  Ni420  1  0.99823017  0.08346833  0.72762857  1.0
  Ni  Ni421  1  0.99823017  0.41680167  0.72762857  1.0
  Ni  Ni422  1  0.99823017  0.75013500  0.72762857  1.0
  Ni  Ni423  1  0.16489683  0.08346833  0.79905714  1.0
  Ni  Ni424  1  0.16489683  0.41680167  0.79905714  1.0
  Ni  Ni425  1  0.16489683  0.75013500  0.79905714  1.0
  Ni  Ni426  1  0.49823017  0.08346833  0.79905714  1.0
  Ni  Ni427  1  0.49823017  0.41680167  0.79905714  1.0
  Ni  Ni428  1  0.49823017  0.75013500  0.79905714  1.0
  Ni  Ni429  1  0.83156350  0.08346833  0.79905714  1.0
  Ni  Ni430  1  0.83156350  0.41680167  0.79905714  1.0
  Ni  Ni431  1  0.83156350  0.75013500  0.79905714  1.0
  Ni  Ni432  1  0.33004400  0.08326533  0.79902793  1.0
  Ni  Ni433  1  0.33004400  0.41659867  0.79902793  1.0
  Ni  Ni434  1  0.33004400  0.74993200  0.79902793  1.0
  Ni  Ni435  1  0.66337733  0.08326533  0.79902793  1.0
  Ni  Ni436  1  0.66337733  0.41659867  0.79902793  1.0
  Ni  Ni437  1  0.66337733  0.74993200  0.79902793  1.0
  Ni  Ni438  1  0.99671067  0.08326533  0.79902793  1.0
  Ni  Ni439  1  0.99671067  0.41659867  0.79902793  1.0
  Ni  Ni440  1  0.99671067  0.74993200  0.79902793  1.0
  Ni  Ni441  1  0.16337733  0.08326533  0.72759936  1.0
  Ni  Ni442  1  0.16337733  0.41659867  0.72759936  1.0
  Ni  Ni443  1  0.16337733  0.74993200  0.72759936  1.0
  Ni  Ni444  1  0.49671067  0.08326533  0.72759936  1.0
  Ni  Ni445  1  0.49671067  0.41659867  0.72759936  1.0
  Ni  Ni446  1  0.49671067  0.74993200  0.72759936  1.0
  Ni  Ni447  1  0.83004400  0.08326533  0.72759936  1.0
  Ni  Ni448  1  0.83004400  0.41659867  0.72759936  1.0
  Ni  Ni449  1  0.83004400  0.74993200  0.72759936  1.0
  Ni  Ni450  1  0.24743633  0.08326533  0.76238064  1.0
  Ni  Ni451  1  0.24743633  0.41659867  0.76238064  1.0
  Ni  Ni452  1  0.24743633  0.74993200  0.76238064  1.0
  Ni  Ni453  1  0.58076967  0.08326533  0.76238064  1.0
  Ni  Ni454  1  0.58076967  0.41659867  0.76238064  1.0
  Ni  Ni455  1  0.58076967  0.74993200  0.76238064  1.0
  Ni  Ni456  1  0.91410300  0.08326533  0.76238064  1.0
  Ni  Ni457  1  0.91410300  0.41659867  0.76238064  1.0
  Ni  Ni458  1  0.91410300  0.74993200  0.76238064  1.0
  Ni  Ni459  1  0.08076967  0.08326533  0.83380921  1.0
  Ni  Ni460  1  0.08076967  0.41659867  0.83380921  1.0
  Ni  Ni461  1  0.08076967  0.74993200  0.83380921  1.0
  Ni  Ni462  1  0.41410300  0.08326533  0.83380921  1.0
  Ni  Ni463  1  0.41410300  0.41659867  0.83380921  1.0
  Ni  Ni464  1  0.41410300  0.74993200  0.83380921  1.0
  Ni  Ni465  1  0.74743633  0.08326533  0.83380921  1.0
  Ni  Ni466  1  0.74743633  0.41659867  0.83380921  1.0
  Ni  Ni467  1  0.74743633  0.74993200  0.83380921  1.0
  Ni  Ni468  1  0.28272400  0.02601700  0.75375421  1.0
  Ni  Ni469  1  0.28272400  0.35935033  0.75375421  1.0
  Ni  Ni470  1  0.28272400  0.69268367  0.75375421  1.0
  Ni  Ni471  1  0.61605733  0.02601700  0.75375421  1.0
  Ni  Ni472  1  0.61605733  0.35935033  0.75375421  1.0
  Ni  Ni473  1  0.61605733  0.69268367  0.75375421  1.0
  Ni  Ni474  1  0.94939067  0.02601700  0.75375421  1.0
  Ni  Ni475  1  0.94939067  0.35935033  0.75375421  1.0
  Ni  Ni476  1  0.94939067  0.69268367  0.75375421  1.0
  Ni  Ni477  1  0.11605733  0.02601700  0.82518279  1.0
  Ni  Ni478  1  0.11605733  0.35935033  0.82518279  1.0
  Ni  Ni479  1  0.11605733  0.69268367  0.82518279  1.0
  Ni  Ni480  1  0.44939067  0.02601700  0.82518279  1.0
  Ni  Ni481  1  0.44939067  0.35935033  0.82518279  1.0
  Ni  Ni482  1  0.44939067  0.69268367  0.82518279  1.0
  Ni  Ni483  1  0.78272400  0.02601700  0.82518279  1.0
  Ni  Ni484  1  0.78272400  0.35935033  0.82518279  1.0
  Ni  Ni485  1  0.78272400  0.69268367  0.82518279  1.0
  Ni  Ni486  1  0.00429033  0.02601700  0.82602607  1.0
  Ni  Ni487  1  0.00429033  0.35935033  0.82602607  1.0
  Ni  Ni488  1  0.00429033  0.69268367  0.82602607  1.0
  Ni  Ni489  1  0.33762367  0.02601700  0.82602607  1.0
  Ni  Ni490  1  0.33762367  0.35935033  0.82602607  1.0
  Ni  Ni491  1  0.33762367  0.69268367  0.82602607  1.0
  Ni  Ni492  1  0.67095700  0.02601700  0.82602607  1.0
  Ni  Ni493  1  0.67095700  0.35935033  0.82602607  1.0
  Ni  Ni494  1  0.67095700  0.69268367  0.82602607  1.0
  Ni  Ni495  1  0.17095700  0.02601700  0.75459750  1.0
  Ni  Ni496  1  0.17095700  0.35935033  0.75459750  1.0
  Ni  Ni497  1  0.17095700  0.69268367  0.75459750  1.0
  Ni  Ni498  1  0.50429033  0.02601700  0.75459750  1.0
  Ni  Ni499  1  0.50429033  0.35935033  0.75459750  1.0
  Ni  Ni500  1  0.50429033  0.69268367  0.75459750  1.0
  Ni  Ni501  1  0.83762367  0.02601700  0.75459750  1.0
  Ni  Ni502  1  0.83762367  0.35935033  0.75459750  1.0
  Ni  Ni503  1  0.83762367  0.69268367  0.75459750  1.0
  Ni  Ni504  1  0.05060933  0.30731633  0.70301993  1.0
  Ni  Ni505  1  0.05060933  0.64064967  0.70301993  1.0
  Ni  Ni506  1  0.05060933  0.97398300  0.70301993  1.0
  Ni  Ni507  1  0.38394267  0.30731633  0.70301993  1.0
  Ni  Ni508  1  0.38394267  0.64064967  0.70301993  1.0
  Ni  Ni509  1  0.38394267  0.97398300  0.70301993  1.0
  Ni  Ni510  1  0.71727600  0.30731633  0.70301993  1.0
  Ni  Ni511  1  0.71727600  0.64064967  0.70301993  1.0
  Ni  Ni512  1  0.71727600  0.97398300  0.70301993  1.0
  Ni  Ni513  1  0.21727600  0.30731633  0.63159136  1.0
  Ni  Ni514  1  0.21727600  0.64064967  0.63159136  1.0
  Ni  Ni515  1  0.21727600  0.97398300  0.63159136  1.0
  Ni  Ni516  1  0.55060933  0.30731633  0.63159136  1.0
  Ni  Ni517  1  0.55060933  0.64064967  0.63159136  1.0
  Ni  Ni518  1  0.55060933  0.97398300  0.63159136  1.0
  Ni  Ni519  1  0.88394267  0.30731633  0.63159136  1.0
  Ni  Ni520  1  0.88394267  0.64064967  0.63159136  1.0
  Ni  Ni521  1  0.88394267  0.97398300  0.63159136  1.0
  Ni  Ni522  1  0.32904300  0.30731633  0.63074807  1.0
  Ni  Ni523  1  0.32904300  0.64064967  0.63074807  1.0
  Ni  Ni524  1  0.32904300  0.97398300  0.63074807  1.0
  Ni  Ni525  1  0.66237633  0.30731633  0.63074807  1.0
  Ni  Ni526  1  0.66237633  0.64064967  0.63074807  1.0
  Ni  Ni527  1  0.66237633  0.97398300  0.63074807  1.0
  Ni  Ni528  1  0.99570967  0.30731633  0.63074807  1.0
  Ni  Ni529  1  0.99570967  0.64064967  0.63074807  1.0
  Ni  Ni530  1  0.99570967  0.97398300  0.63074807  1.0
  Ni  Ni531  1  0.16237633  0.30731633  0.70217664  1.0
  Ni  Ni532  1  0.16237633  0.64064967  0.70217664  1.0
  Ni  Ni533  1  0.16237633  0.97398300  0.70217664  1.0
  Ni  Ni534  1  0.49570967  0.30731633  0.70217664  1.0
  Ni  Ni535  1  0.49570967  0.64064967  0.70217664  1.0
  Ni  Ni536  1  0.49570967  0.97398300  0.70217664  1.0
  Ni  Ni537  1  0.82904300  0.30731633  0.70217664  1.0
  Ni  Ni538  1  0.82904300  0.64064967  0.70217664  1.0
  Ni  Ni539  1  0.82904300  0.97398300  0.70217664  1.0
  Ni  Ni540  1  0.00328933  0.25006800  0.65774621  1.0
  Ni  Ni541  1  0.00328933  0.58340133  0.65774621  1.0
  Ni  Ni542  1  0.00328933  0.91673467  0.65774621  1.0
  Ni  Ni543  1  0.33662267  0.25006800  0.65774621  1.0
  Ni  Ni544  1  0.33662267  0.58340133  0.65774621  1.0
  Ni  Ni545  1  0.33662267  0.91673467  0.65774621  1.0
  Ni  Ni546  1  0.66995600  0.25006800  0.65774621  1.0
  Ni  Ni547  1  0.66995600  0.58340133  0.65774621  1.0
  Ni  Ni548  1  0.66995600  0.91673467  0.65774621  1.0
  Ni  Ni549  1  0.16995600  0.25006800  0.58631764  1.0
  Ni  Ni550  1  0.16995600  0.58340133  0.58631764  1.0
  Ni  Ni551  1  0.16995600  0.91673467  0.58631764  1.0
  Ni  Ni552  1  0.50328933  0.25006800  0.58631764  1.0
  Ni  Ni553  1  0.50328933  0.58340133  0.58631764  1.0
  Ni  Ni554  1  0.50328933  0.91673467  0.58631764  1.0
  Ni  Ni555  1  0.83662267  0.25006800  0.58631764  1.0
  Ni  Ni556  1  0.83662267  0.58340133  0.58631764  1.0
  Ni  Ni557  1  0.83662267  0.91673467  0.58631764  1.0
  Ni  Ni558  1  0.08589700  0.25006800  0.69439350  1.0
  Ni  Ni559  1  0.08589700  0.58340133  0.69439350  1.0
  Ni  Ni560  1  0.08589700  0.91673467  0.69439350  1.0
  Ni  Ni561  1  0.41923033  0.25006800  0.69439350  1.0
  Ni  Ni562  1  0.41923033  0.58340133  0.69439350  1.0
  Ni  Ni563  1  0.41923033  0.91673467  0.69439350  1.0
  Ni  Ni564  1  0.75256367  0.25006800  0.69439350  1.0
  Ni  Ni565  1  0.75256367  0.58340133  0.69439350  1.0
  Ni  Ni566  1  0.75256367  0.91673467  0.69439350  1.0
  Ni  Ni567  1  0.25256367  0.25006800  0.62296493  1.0
  Ni  Ni568  1  0.25256367  0.58340133  0.62296493  1.0
  Ni  Ni569  1  0.25256367  0.91673467  0.62296493  1.0
  Ni  Ni570  1  0.58589700  0.25006800  0.62296493  1.0
  Ni  Ni571  1  0.58589700  0.58340133  0.62296493  1.0
  Ni  Ni572  1  0.58589700  0.91673467  0.62296493  1.0
  Ni  Ni573  1  0.91923033  0.25006800  0.62296493  1.0
  Ni  Ni574  1  0.91923033  0.58340133  0.62296493  1.0
  Ni  Ni575  1  0.91923033  0.91673467  0.62296493  1.0
  Ni  Ni576  1  0.00176983  0.24986500  0.58628843  1.0
  Ni  Ni577  1  0.00176983  0.58319833  0.58628843  1.0
  Ni  Ni578  1  0.00176983  0.91653167  0.58628843  1.0
  Ni  Ni579  1  0.33510317  0.24986500  0.58628843  1.0
  Ni  Ni580  1  0.33510317  0.58319833  0.58628843  1.0
  Ni  Ni581  1  0.33510317  0.91653167  0.58628843  1.0
  Ni  Ni582  1  0.66843650  0.24986500  0.58628843  1.0
  Ni  Ni583  1  0.66843650  0.58319833  0.58628843  1.0
  Ni  Ni584  1  0.66843650  0.91653167  0.58628843  1.0
  Ni  Ni585  1  0.16843650  0.24986500  0.65771700  1.0
  Ni  Ni586  1  0.16843650  0.58319833  0.65771700  1.0
  Ni  Ni587  1  0.16843650  0.91653167  0.65771700  1.0
  Ni  Ni588  1  0.50176983  0.24986500  0.65771700  1.0
  Ni  Ni589  1  0.50176983  0.58319833  0.65771700  1.0
  Ni  Ni590  1  0.50176983  0.91653167  0.65771700  1.0
  Ni  Ni591  1  0.83510317  0.24986500  0.65771700  1.0
  Ni  Ni592  1  0.83510317  0.58319833  0.65771700  1.0
  Ni  Ni593  1  0.83510317  0.91653167  0.65771700  1.0
  Ni  Ni594  1  0.28614217  0.19267800  0.61288271  1.0
  Ni  Ni595  1  0.28614217  0.52601133  0.61288271  1.0
  Ni  Ni596  1  0.28614217  0.85934467  0.61288271  1.0
  Ni  Ni597  1  0.61947550  0.19267800  0.61288271  1.0
  Ni  Ni598  1  0.61947550  0.52601133  0.61288271  1.0
  Ni  Ni599  1  0.61947550  0.85934467  0.61288271  1.0
  Ni  Ni600  1  0.95280883  0.19267800  0.61288271  1.0
  Ni  Ni601  1  0.95280883  0.52601133  0.61288271  1.0
  Ni  Ni602  1  0.95280883  0.85934467  0.61288271  1.0
  Ni  Ni603  1  0.11947550  0.19267800  0.68431129  1.0
  Ni  Ni604  1  0.11947550  0.52601133  0.68431129  1.0
  Ni  Ni605  1  0.11947550  0.85934467  0.68431129  1.0
  Ni  Ni606  1  0.45280883  0.19267800  0.68431129  1.0
  Ni  Ni607  1  0.45280883  0.52601133  0.68431129  1.0
  Ni  Ni608  1  0.45280883  0.85934467  0.68431129  1.0
  Ni  Ni609  1  0.78614217  0.19267800  0.68431129  1.0
  Ni  Ni610  1  0.78614217  0.52601133  0.68431129  1.0
  Ni  Ni611  1  0.78614217  0.85934467  0.68431129  1.0
  Ni  Ni612  1  0.00831600  0.19267800  0.68437350  1.0
  Ni  Ni613  1  0.00831600  0.52601133  0.68437350  1.0
  Ni  Ni614  1  0.00831600  0.85934467  0.68437350  1.0
  Ni  Ni615  1  0.34164933  0.19267800  0.68437350  1.0
  Ni  Ni616  1  0.34164933  0.52601133  0.68437350  1.0
  Ni  Ni617  1  0.34164933  0.85934467  0.68437350  1.0
  Ni  Ni618  1  0.67498267  0.19267800  0.68437350  1.0
  Ni  Ni619  1  0.67498267  0.52601133  0.68437350  1.0
  Ni  Ni620  1  0.67498267  0.85934467  0.68437350  1.0
  Ni  Ni621  1  0.17498267  0.19267800  0.61294493  1.0
  Ni  Ni622  1  0.17498267  0.52601133  0.61294493  1.0
  Ni  Ni623  1  0.17498267  0.85934467  0.61294493  1.0
  Ni  Ni624  1  0.50831600  0.19267800  0.61294493  1.0
  Ni  Ni625  1  0.50831600  0.52601133  0.61294493  1.0
  Ni  Ni626  1  0.50831600  0.85934467  0.61294493  1.0
  Ni  Ni627  1  0.84164933  0.19267800  0.61294493  1.0
  Ni  Ni628  1  0.84164933  0.52601133  0.61294493  1.0
  Ni  Ni629  1  0.84164933  0.85934467  0.61294493  1.0
  Ni  Ni630  1  0.04719117  0.14065533  0.70103429  1.0
  Ni  Ni631  1  0.04719117  0.47398867  0.70103429  1.0
  Ni  Ni632  1  0.04719117  0.80732200  0.70103429  1.0
  Ni  Ni633  1  0.38052450  0.14065533  0.70103429  1.0
  Ni  Ni634  1  0.38052450  0.47398867  0.70103429  1.0
  Ni  Ni635  1  0.38052450  0.80732200  0.70103429  1.0
  Ni  Ni636  1  0.71385783  0.14065533  0.70103429  1.0
  Ni  Ni637  1  0.71385783  0.47398867  0.70103429  1.0
  Ni  Ni638  1  0.71385783  0.80732200  0.70103429  1.0
  Ni  Ni639  1  0.21385783  0.14065533  0.62960571  1.0
  Ni  Ni640  1  0.21385783  0.47398867  0.62960571  1.0
  Ni  Ni641  1  0.21385783  0.80732200  0.62960571  1.0
  Ni  Ni642  1  0.54719117  0.14065533  0.62960571  1.0
  Ni  Ni643  1  0.54719117  0.47398867  0.62960571  1.0
  Ni  Ni644  1  0.54719117  0.80732200  0.62960571  1.0
  Ni  Ni645  1  0.88052450  0.14065533  0.62960571  1.0
  Ni  Ni646  1  0.88052450  0.47398867  0.62960571  1.0
  Ni  Ni647  1  0.88052450  0.80732200  0.62960571  1.0
  Ni  Ni648  1  0.32501733  0.14065533  0.62954350  1.0
  Ni  Ni649  1  0.32501733  0.47398867  0.62954350  1.0
  Ni  Ni650  1  0.32501733  0.80732200  0.62954350  1.0
  Ni  Ni651  1  0.65835067  0.14065533  0.62954350  1.0
  Ni  Ni652  1  0.65835067  0.47398867  0.62954350  1.0
  Ni  Ni653  1  0.65835067  0.80732200  0.62954350  1.0
  Ni  Ni654  1  0.99168400  0.14065533  0.62954350  1.0
  Ni  Ni655  1  0.99168400  0.47398867  0.62954350  1.0
  Ni  Ni656  1  0.99168400  0.80732200  0.62954350  1.0
  Ni  Ni657  1  0.15835067  0.14065533  0.70097207  1.0
  Ni  Ni658  1  0.15835067  0.47398867  0.70097207  1.0
  Ni  Ni659  1  0.15835067  0.80732200  0.70097207  1.0
  Ni  Ni660  1  0.49168400  0.14065533  0.70097207  1.0
  Ni  Ni661  1  0.49168400  0.47398867  0.70097207  1.0
  Ni  Ni662  1  0.49168400  0.80732200  0.70097207  1.0
  Ni  Ni663  1  0.82501733  0.14065533  0.70097207  1.0
  Ni  Ni664  1  0.82501733  0.47398867  0.70097207  1.0
  Ni  Ni665  1  0.82501733  0.80732200  0.70097207  1.0
  Ni  Ni666  1  0.33156350  0.08346833  0.58477143  1.0
  Ni  Ni667  1  0.33156350  0.41680167  0.58477143  1.0
  Ni  Ni668  1  0.33156350  0.75013500  0.58477143  1.0
  Ni  Ni669  1  0.66489683  0.08346833  0.58477143  1.0
  Ni  Ni670  1  0.66489683  0.41680167  0.58477143  1.0
  Ni  Ni671  1  0.66489683  0.75013500  0.58477143  1.0
  Ni  Ni672  1  0.99823017  0.08346833  0.58477143  1.0
  Ni  Ni673  1  0.99823017  0.41680167  0.58477143  1.0
  Ni  Ni674  1  0.99823017  0.75013500  0.58477143  1.0
  Ni  Ni675  1  0.16489683  0.08346833  0.65620000  1.0
  Ni  Ni676  1  0.16489683  0.41680167  0.65620000  1.0
  Ni  Ni677  1  0.16489683  0.75013500  0.65620000  1.0
  Ni  Ni678  1  0.49823017  0.08346833  0.65620000  1.0
  Ni  Ni679  1  0.49823017  0.41680167  0.65620000  1.0
  Ni  Ni680  1  0.49823017  0.75013500  0.65620000  1.0
  Ni  Ni681  1  0.83156350  0.08346833  0.65620000  1.0
  Ni  Ni682  1  0.83156350  0.41680167  0.65620000  1.0
  Ni  Ni683  1  0.83156350  0.75013500  0.65620000  1.0
  Ni  Ni684  1  0.33004400  0.08326533  0.65617079  1.0
  Ni  Ni685  1  0.33004400  0.41659867  0.65617079  1.0
  Ni  Ni686  1  0.33004400  0.74993200  0.65617079  1.0
  Ni  Ni687  1  0.66337733  0.08326533  0.65617079  1.0
  Ni  Ni688  1  0.66337733  0.41659867  0.65617079  1.0
  Ni  Ni689  1  0.66337733  0.74993200  0.65617079  1.0
  Ni  Ni690  1  0.99671067  0.08326533  0.65617079  1.0
  Ni  Ni691  1  0.99671067  0.41659867  0.65617079  1.0
  Ni  Ni692  1  0.99671067  0.74993200  0.65617079  1.0
  Ni  Ni693  1  0.16337733  0.08326533  0.58474221  1.0
  Ni  Ni694  1  0.16337733  0.41659867  0.58474221  1.0
  Ni  Ni695  1  0.16337733  0.74993200  0.58474221  1.0
  Ni  Ni696  1  0.49671067  0.08326533  0.58474221  1.0
  Ni  Ni697  1  0.49671067  0.41659867  0.58474221  1.0
  Ni  Ni698  1  0.49671067  0.74993200  0.58474221  1.0
  Ni  Ni699  1  0.83004400  0.08326533  0.58474221  1.0
  Ni  Ni700  1  0.83004400  0.41659867  0.58474221  1.0
  Ni  Ni701  1  0.83004400  0.74993200  0.58474221  1.0
  Ni  Ni702  1  0.24743633  0.08326533  0.61952350  1.0
  Ni  Ni703  1  0.24743633  0.41659867  0.61952350  1.0
  Ni  Ni704  1  0.24743633  0.74993200  0.61952350  1.0
  Ni  Ni705  1  0.58076967  0.08326533  0.61952350  1.0
  Ni  Ni706  1  0.58076967  0.41659867  0.61952350  1.0
  Ni  Ni707  1  0.58076967  0.74993200  0.61952350  1.0
  Ni  Ni708  1  0.91410300  0.08326533  0.61952350  1.0
  Ni  Ni709  1  0.91410300  0.41659867  0.61952350  1.0
  Ni  Ni710  1  0.91410300  0.74993200  0.61952350  1.0
  Ni  Ni711  1  0.08076967  0.08326533  0.69095207  1.0
  Ni  Ni712  1  0.08076967  0.41659867  0.69095207  1.0
  Ni  Ni713  1  0.08076967  0.74993200  0.69095207  1.0
  Ni  Ni714  1  0.41410300  0.08326533  0.69095207  1.0
  Ni  Ni715  1  0.41410300  0.41659867  0.69095207  1.0
  Ni  Ni716  1  0.41410300  0.74993200  0.69095207  1.0
  Ni  Ni717  1  0.74743633  0.08326533  0.69095207  1.0
  Ni  Ni718  1  0.74743633  0.41659867  0.69095207  1.0
  Ni  Ni719  1  0.74743633  0.74993200  0.69095207  1.0
  Ni  Ni720  1  0.28272400  0.02601700  0.61089707  1.0
  Ni  Ni721  1  0.28272400  0.35935033  0.61089707  1.0
  Ni  Ni722  1  0.28272400  0.69268367  0.61089707  1.0
  Ni  Ni723  1  0.61605733  0.02601700  0.61089707  1.0
  Ni  Ni724  1  0.61605733  0.35935033  0.61089707  1.0
  Ni  Ni725  1  0.61605733  0.69268367  0.61089707  1.0
  Ni  Ni726  1  0.94939067  0.02601700  0.61089707  1.0
  Ni  Ni727  1  0.94939067  0.35935033  0.61089707  1.0
  Ni  Ni728  1  0.94939067  0.69268367  0.61089707  1.0
  Ni  Ni729  1  0.11605733  0.02601700  0.68232564  1.0
  Ni  Ni730  1  0.11605733  0.35935033  0.68232564  1.0
  Ni  Ni731  1  0.11605733  0.69268367  0.68232564  1.0
  Ni  Ni732  1  0.44939067  0.02601700  0.68232564  1.0
  Ni  Ni733  1  0.44939067  0.35935033  0.68232564  1.0
  Ni  Ni734  1  0.44939067  0.69268367  0.68232564  1.0
  Ni  Ni735  1  0.78272400  0.02601700  0.68232564  1.0
  Ni  Ni736  1  0.78272400  0.35935033  0.68232564  1.0
  Ni  Ni737  1  0.78272400  0.69268367  0.68232564  1.0
  Ni  Ni738  1  0.00429033  0.02601700  0.68316893  1.0
  Ni  Ni739  1  0.00429033  0.35935033  0.68316893  1.0
  Ni  Ni740  1  0.00429033  0.69268367  0.68316893  1.0
  Ni  Ni741  1  0.33762367  0.02601700  0.68316893  1.0
  Ni  Ni742  1  0.33762367  0.35935033  0.68316893  1.0
  Ni  Ni743  1  0.33762367  0.69268367  0.68316893  1.0
  Ni  Ni744  1  0.67095700  0.02601700  0.68316893  1.0
  Ni  Ni745  1  0.67095700  0.35935033  0.68316893  1.0
  Ni  Ni746  1  0.67095700  0.69268367  0.68316893  1.0
  Ni  Ni747  1  0.17095700  0.02601700  0.61174036  1.0
  Ni  Ni748  1  0.17095700  0.35935033  0.61174036  1.0
  Ni  Ni749  1  0.17095700  0.69268367  0.61174036  1.0
  Ni  Ni750  1  0.50429033  0.02601700  0.61174036  1.0
  Ni  Ni751  1  0.50429033  0.35935033  0.61174036  1.0
  Ni  Ni752  1  0.50429033  0.69268367  0.61174036  1.0
  Ni  Ni753  1  0.83762367  0.02601700  0.61174036  1.0
  Ni  Ni754  1  0.83762367  0.35935033  0.61174036  1.0
  Ni  Ni755  1  0.83762367  0.69268367  0.61174036  1.0
  Zr  Zr756  1  0.10321533  0.29548100  0.91547936  1.0
  Zr  Zr757  1  0.10321533  0.62881433  0.91547936  1.0
  Zr  Zr758  1  0.10321533  0.96214767  0.91547936  1.0
  Zr  Zr759  1  0.43654867  0.29548100  0.91547936  1.0
  Zr  Zr760  1  0.43654867  0.62881433  0.91547936  1.0
  Zr  Zr761  1  0.43654867  0.96214767  0.91547936  1.0
  Zr  Zr762  1  0.76988200  0.29548100  0.91547936  1.0
  Zr  Zr763  1  0.76988200  0.62881433  0.91547936  1.0
  Zr  Zr764  1  0.76988200  0.96214767  0.91547936  1.0
  Zr  Zr765  1  0.26988200  0.29548100  0.98690793  1.0
  Zr  Zr766  1  0.26988200  0.62881433  0.98690793  1.0
  Zr  Zr767  1  0.26988200  0.96214767  0.98690793  1.0
  Zr  Zr768  1  0.60321533  0.29548100  0.98690793  1.0
  Zr  Zr769  1  0.60321533  0.62881433  0.98690793  1.0
  Zr  Zr770  1  0.60321533  0.96214767  0.98690793  1.0
  Zr  Zr771  1  0.93654867  0.29548100  0.98690793  1.0
  Zr  Zr772  1  0.93654867  0.62881433  0.98690793  1.0
  Zr  Zr773  1  0.93654867  0.96214767  0.98690793  1.0
  Zr  Zr774  1  0.06758400  0.20490867  0.90020879  1.0
  Zr  Zr775  1  0.06758400  0.53824200  0.90020879  1.0
  Zr  Zr776  1  0.06758400  0.87157533  0.90020879  1.0
  Zr  Zr777  1  0.40091733  0.20490867  0.90020879  1.0
  Zr  Zr778  1  0.40091733  0.53824200  0.90020879  1.0
  Zr  Zr779  1  0.40091733  0.87157533  0.90020879  1.0
  Zr  Zr780  1  0.73425067  0.20490867  0.90020879  1.0
  Zr  Zr781  1  0.73425067  0.53824200  0.90020879  1.0
  Zr  Zr782  1  0.73425067  0.87157533  0.90020879  1.0
  Zr  Zr783  1  0.23425067  0.20490867  0.97163736  1.0
  Zr  Zr784  1  0.23425067  0.53824200  0.97163736  1.0
  Zr  Zr785  1  0.23425067  0.87157533  0.97163736  1.0
  Zr  Zr786  1  0.56758400  0.20490867  0.97163736  1.0
  Zr  Zr787  1  0.56758400  0.53824200  0.97163736  1.0
  Zr  Zr788  1  0.56758400  0.87157533  0.97163736  1.0
  Zr  Zr789  1  0.90091733  0.20490867  0.97163736  1.0
  Zr  Zr790  1  0.90091733  0.53824200  0.97163736  1.0
  Zr  Zr791  1  0.90091733  0.87157533  0.97163736  1.0
  Zr  Zr792  1  0.26574933  0.12842467  0.98513679  1.0
  Zr  Zr793  1  0.26574933  0.46175800  0.98513679  1.0
  Zr  Zr794  1  0.26574933  0.79509133  0.98513679  1.0
  Zr  Zr795  1  0.59908267  0.12842467  0.98513679  1.0
  Zr  Zr796  1  0.59908267  0.46175800  0.98513679  1.0
  Zr  Zr797  1  0.59908267  0.79509133  0.98513679  1.0
  Zr  Zr798  1  0.93241600  0.12842467  0.98513679  1.0
  Zr  Zr799  1  0.93241600  0.46175800  0.98513679  1.0
  Zr  Zr800  1  0.93241600  0.79509133  0.98513679  1.0
  Zr  Zr801  1  0.09908267  0.12842467  0.91370821  1.0
  Zr  Zr802  1  0.09908267  0.46175800  0.91370821  1.0
  Zr  Zr803  1  0.09908267  0.79509133  0.91370821  1.0
  Zr  Zr804  1  0.43241600  0.12842467  0.91370821  1.0
  Zr  Zr805  1  0.43241600  0.46175800  0.91370821  1.0
  Zr  Zr806  1  0.43241600  0.79509133  0.91370821  1.0
  Zr  Zr807  1  0.76574933  0.12842467  0.91370821  1.0
  Zr  Zr808  1  0.76574933  0.46175800  0.91370821  1.0
  Zr  Zr809  1  0.76574933  0.79509133  0.91370821  1.0
  Zr  Zr810  1  0.23011800  0.03785233  0.96986621  1.0
  Zr  Zr811  1  0.23011800  0.37118567  0.96986621  1.0
  Zr  Zr812  1  0.23011800  0.70451900  0.96986621  1.0
  Zr  Zr813  1  0.56345133  0.03785233  0.96986621  1.0
  Zr  Zr814  1  0.56345133  0.37118567  0.96986621  1.0
  Zr  Zr815  1  0.56345133  0.70451900  0.96986621  1.0
  Zr  Zr816  1  0.89678467  0.03785233  0.96986621  1.0
  Zr  Zr817  1  0.89678467  0.37118567  0.96986621  1.0
  Zr  Zr818  1  0.89678467  0.70451900  0.96986621  1.0
  Zr  Zr819  1  0.06345133  0.03785233  0.89843764  1.0
  Zr  Zr820  1  0.06345133  0.37118567  0.89843764  1.0
  Zr  Zr821  1  0.06345133  0.70451900  0.89843764  1.0
  Zr  Zr822  1  0.39678467  0.03785233  0.89843764  1.0
  Zr  Zr823  1  0.39678467  0.37118567  0.89843764  1.0
  Zr  Zr824  1  0.39678467  0.70451900  0.89843764  1.0
  Zr  Zr825  1  0.73011800  0.03785233  0.89843764  1.0
  Zr  Zr826  1  0.73011800  0.37118567  0.89843764  1.0
  Zr  Zr827  1  0.73011800  0.70451900  0.89843764  1.0
  Zr  Zr828  1  0.10321533  0.29548100  0.77262221  1.0
  Zr  Zr829  1  0.10321533  0.62881433  0.77262221  1.0
  Zr  Zr830  1  0.10321533  0.96214767  0.77262221  1.0
  Zr  Zr831  1  0.43654867  0.29548100  0.77262221  1.0
  Zr  Zr832  1  0.43654867  0.62881433  0.77262221  1.0
  Zr  Zr833  1  0.43654867  0.96214767  0.77262221  1.0
  Zr  Zr834  1  0.76988200  0.29548100  0.77262221  1.0
  Zr  Zr835  1  0.76988200  0.62881433  0.77262221  1.0
  Zr  Zr836  1  0.76988200  0.96214767  0.77262221  1.0
  Zr  Zr837  1  0.26988200  0.29548100  0.84405079  1.0
  Zr  Zr838  1  0.26988200  0.62881433  0.84405079  1.0
  Zr  Zr839  1  0.26988200  0.96214767  0.84405079  1.0
  Zr  Zr840  1  0.60321533  0.29548100  0.84405079  1.0
  Zr  Zr841  1  0.60321533  0.62881433  0.84405079  1.0
  Zr  Zr842  1  0.60321533  0.96214767  0.84405079  1.0
  Zr  Zr843  1  0.93654867  0.29548100  0.84405079  1.0
  Zr  Zr844  1  0.93654867  0.62881433  0.84405079  1.0
  Zr  Zr845  1  0.93654867  0.96214767  0.84405079  1.0
  Zr  Zr846  1  0.06758400  0.20490867  0.75735164  1.0
  Zr  Zr847  1  0.06758400  0.53824200  0.75735164  1.0
  Zr  Zr848  1  0.06758400  0.87157533  0.75735164  1.0
  Zr  Zr849  1  0.40091733  0.20490867  0.75735164  1.0
  Zr  Zr850  1  0.40091733  0.53824200  0.75735164  1.0
  Zr  Zr851  1  0.40091733  0.87157533  0.75735164  1.0
  Zr  Zr852  1  0.73425067  0.20490867  0.75735164  1.0
  Zr  Zr853  1  0.73425067  0.53824200  0.75735164  1.0
  Zr  Zr854  1  0.73425067  0.87157533  0.75735164  1.0
  Zr  Zr855  1  0.23425067  0.20490867  0.82878021  1.0
  Zr  Zr856  1  0.23425067  0.53824200  0.82878021  1.0
  Zr  Zr857  1  0.23425067  0.87157533  0.82878021  1.0
  Zr  Zr858  1  0.56758400  0.20490867  0.82878021  1.0
  Zr  Zr859  1  0.56758400  0.53824200  0.82878021  1.0
  Zr  Zr860  1  0.56758400  0.87157533  0.82878021  1.0
  Zr  Zr861  1  0.90091733  0.20490867  0.82878021  1.0
  Zr  Zr862  1  0.90091733  0.53824200  0.82878021  1.0
  Zr  Zr863  1  0.90091733  0.87157533  0.82878021  1.0
  Zr  Zr864  1  0.26574933  0.12842467  0.84227964  1.0
  Zr  Zr865  1  0.26574933  0.46175800  0.84227964  1.0
  Zr  Zr866  1  0.26574933  0.79509133  0.84227964  1.0
  Zr  Zr867  1  0.59908267  0.12842467  0.84227964  1.0
  Zr  Zr868  1  0.59908267  0.46175800  0.84227964  1.0
  Zr  Zr869  1  0.59908267  0.79509133  0.84227964  1.0
  Zr  Zr870  1  0.93241600  0.12842467  0.84227964  1.0
  Zr  Zr871  1  0.93241600  0.46175800  0.84227964  1.0
  Zr  Zr872  1  0.93241600  0.79509133  0.84227964  1.0
  Zr  Zr873  1  0.09908267  0.12842467  0.77085107  1.0
  Zr  Zr874  1  0.09908267  0.46175800  0.77085107  1.0
  Zr  Zr875  1  0.09908267  0.79509133  0.77085107  1.0
  Zr  Zr876  1  0.43241600  0.12842467  0.77085107  1.0
  Zr  Zr877  1  0.43241600  0.46175800  0.77085107  1.0
  Zr  Zr878  1  0.43241600  0.79509133  0.77085107  1.0
  Zr  Zr879  1  0.76574933  0.12842467  0.77085107  1.0
  Zr  Zr880  1  0.76574933  0.46175800  0.77085107  1.0
  Zr  Zr881  1  0.76574933  0.79509133  0.77085107  1.0
  Zr  Zr882  1  0.23011800  0.03785233  0.82700907  1.0
  Zr  Zr883  1  0.23011800  0.37118567  0.82700907  1.0
  Zr  Zr884  1  0.23011800  0.70451900  0.82700907  1.0
  Zr  Zr885  1  0.56345133  0.03785233  0.82700907  1.0
  Zr  Zr886  1  0.56345133  0.37118567  0.82700907  1.0
  Zr  Zr887  1  0.56345133  0.70451900  0.82700907  1.0
  Zr  Zr888  1  0.89678467  0.03785233  0.82700907  1.0
  Zr  Zr889  1  0.89678467  0.37118567  0.82700907  1.0
  Zr  Zr890  1  0.89678467  0.70451900  0.82700907  1.0
  Zr  Zr891  1  0.06345133  0.03785233  0.75558050  1.0
  Zr  Zr892  1  0.06345133  0.37118567  0.75558050  1.0
  Zr  Zr893  1  0.06345133  0.70451900  0.75558050  1.0
  Zr  Zr894  1  0.39678467  0.03785233  0.75558050  1.0
  Zr  Zr895  1  0.39678467  0.37118567  0.75558050  1.0
  Zr  Zr896  1  0.39678467  0.70451900  0.75558050  1.0
  Zr  Zr897  1  0.73011800  0.03785233  0.75558050  1.0
  Zr  Zr898  1  0.73011800  0.37118567  0.75558050  1.0
  Zr  Zr899  1  0.73011800  0.70451900  0.75558050  1.0
  Zr  Zr900  1  0.10321533  0.29548100  0.62976507  1.0
  Zr  Zr901  1  0.10321533  0.62881433  0.62976507  1.0
  Zr  Zr902  1  0.10321533  0.96214767  0.62976507  1.0
  Zr  Zr903  1  0.43654867  0.29548100  0.62976507  1.0
  Zr  Zr904  1  0.43654867  0.62881433  0.62976507  1.0
  Zr  Zr905  1  0.43654867  0.96214767  0.62976507  1.0
  Zr  Zr906  1  0.76988200  0.29548100  0.62976507  1.0
  Zr  Zr907  1  0.76988200  0.62881433  0.62976507  1.0
  Zr  Zr908  1  0.76988200  0.96214767  0.62976507  1.0
  Zr  Zr909  1  0.26988200  0.29548100  0.70119364  1.0
  Zr  Zr910  1  0.26988200  0.62881433  0.70119364  1.0
  Zr  Zr911  1  0.26988200  0.96214767  0.70119364  1.0
  Zr  Zr912  1  0.60321533  0.29548100  0.70119364  1.0
  Zr  Zr913  1  0.60321533  0.62881433  0.70119364  1.0
  Zr  Zr914  1  0.60321533  0.96214767  0.70119364  1.0
  Zr  Zr915  1  0.93654867  0.29548100  0.70119364  1.0
  Zr  Zr916  1  0.93654867  0.62881433  0.70119364  1.0
  Zr  Zr917  1  0.93654867  0.96214767  0.70119364  1.0
  Zr  Zr918  1  0.06758400  0.20490867  0.61449450  1.0
  Zr  Zr919  1  0.06758400  0.53824200  0.61449450  1.0
  Zr  Zr920  1  0.06758400  0.87157533  0.61449450  1.0
  Zr  Zr921  1  0.40091733  0.20490867  0.61449450  1.0
  Zr  Zr922  1  0.40091733  0.53824200  0.61449450  1.0
  Zr  Zr923  1  0.40091733  0.87157533  0.61449450  1.0
  Zr  Zr924  1  0.73425067  0.20490867  0.61449450  1.0
  Zr  Zr925  1  0.73425067  0.53824200  0.61449450  1.0
  Zr  Zr926  1  0.73425067  0.87157533  0.61449450  1.0
  Zr  Zr927  1  0.23425067  0.20490867  0.68592307  1.0
  Zr  Zr928  1  0.23425067  0.53824200  0.68592307  1.0
  Zr  Zr929  1  0.23425067  0.87157533  0.68592307  1.0
  Zr  Zr930  1  0.56758400  0.20490867  0.68592307  1.0
  Zr  Zr931  1  0.56758400  0.53824200  0.68592307  1.0
  Zr  Zr932  1  0.56758400  0.87157533  0.68592307  1.0
  Zr  Zr933  1  0.90091733  0.20490867  0.68592307  1.0
  Zr  Zr934  1  0.90091733  0.53824200  0.68592307  1.0
  Zr  Zr935  1  0.90091733  0.87157533  0.68592307  1.0
  Zr  Zr936  1  0.26574933  0.12842467  0.69942250  1.0
  Zr  Zr937  1  0.26574933  0.46175800  0.69942250  1.0
  Zr  Zr938  1  0.26574933  0.79509133  0.69942250  1.0
  Zr  Zr939  1  0.59908267  0.12842467  0.69942250  1.0
  Zr  Zr940  1  0.59908267  0.46175800  0.69942250  1.0
  Zr  Zr941  1  0.59908267  0.79509133  0.69942250  1.0
  Zr  Zr942  1  0.93241600  0.12842467  0.69942250  1.0
  Zr  Zr943  1  0.93241600  0.46175800  0.69942250  1.0
  Zr  Zr944  1  0.93241600  0.79509133  0.69942250  1.0
  Zr  Zr945  1  0.09908267  0.12842467  0.62799393  1.0
  Zr  Zr946  1  0.09908267  0.46175800  0.62799393  1.0
  Zr  Zr947  1  0.09908267  0.79509133  0.62799393  1.0
  Zr  Zr948  1  0.43241600  0.12842467  0.62799393  1.0
  Zr  Zr949  1  0.43241600  0.46175800  0.62799393  1.0
  Zr  Zr950  1  0.43241600  0.79509133  0.62799393  1.0
  Zr  Zr951  1  0.76574933  0.12842467  0.62799393  1.0
  Zr  Zr952  1  0.76574933  0.46175800  0.62799393  1.0
  Zr  Zr953  1  0.76574933  0.79509133  0.62799393  1.0
  Zr  Zr954  1  0.23011800  0.03785233  0.68415193  1.0
  Zr  Zr955  1  0.23011800  0.37118567  0.68415193  1.0
  Zr  Zr956  1  0.23011800  0.70451900  0.68415193  1.0
  Zr  Zr957  1  0.56345133  0.03785233  0.68415193  1.0
  Zr  Zr958  1  0.56345133  0.37118567  0.68415193  1.0
  Zr  Zr959  1  0.56345133  0.70451900  0.68415193  1.0
  Zr  Zr960  1  0.89678467  0.03785233  0.68415193  1.0
  Zr  Zr961  1  0.89678467  0.37118567  0.68415193  1.0
  Zr  Zr962  1  0.89678467  0.70451900  0.68415193  1.0
  Zr  Zr963  1  0.06345133  0.03785233  0.61272336  1.0
  Zr  Zr964  1  0.06345133  0.37118567  0.61272336  1.0
  Zr  Zr965  1  0.06345133  0.70451900  0.61272336  1.0
  Zr  Zr966  1  0.39678467  0.03785233  0.61272336  1.0
  Zr  Zr967  1  0.39678467  0.37118567  0.61272336  1.0
  Zr  Zr968  1  0.39678467  0.70451900  0.61272336  1.0
  Zr  Zr969  1  0.73011800  0.03785233  0.61272336  1.0
  Zr  Zr970  1  0.73011800  0.37118567  0.61272336  1.0
  Zr  Zr971  1  0.73011800  0.70451900  0.61272336  1.0
