# generated using pymatgen
data_Zr2Ni7
_symmetry_space_group_name_H-M   'P 1'
_cell_length_a   37.54683728
_cell_length_b   39.64668261
_cell_length_c   47.18577030
_cell_angle_alpha   66.30901243
_cell_angle_beta   40.47552568
_cell_angle_gamma   75.24266322
_symmetry_Int_Tables_number   1
_chemical_formula_structural   Zr2Ni7
_chemical_formula_sum   'Zr288 Ni1008'
_cell_volume   41599.15448128
_cell_formula_units_Z   144
loop_
 _symmetry_equiv_pos_site_id
 _symmetry_equiv_pos_as_xyz
  1  'x, y, z'
loop_
 _atom_site_type_symbol
 _atom_site_label
 _atom_site_symmetry_multiplicity
 _atom_site_fract_x
 _atom_site_fract_y
 _atom_site_fract_z
 _atom_site_occupancy
  Zr  Zr0  1  0.12214150  0.03785233  0.07451718  1.0
  Zr  Zr1  1  0.12214150  0.37118567  0.07451718  1.0
  Zr  Zr2  1  0.12214150  0.70451900  0.07451717  1.0
  Zr  Zr3  1  0.45547483  0.03785233  0.07451718  1.0
  Zr  Zr4  1  0.45547483  0.37118567  0.07451717  1.0
  Zr  Zr5  1  0.45547483  0.70451900  0.07451717  1.0
  Zr  Zr6  1  0.78880817  0.03785233  0.07451718  1.0
  Zr  Zr7  1  0.78880817  0.37118567  0.07451717  1.0
  Zr  Zr8  1  0.78880817  0.70451900  0.07451717  1.0
  Zr  Zr9  1  0.28880817  0.03785233  0.02451718  1.0
  Zr  Zr10  1  0.28880817  0.37118567  0.02451718  1.0
  Zr  Zr11  1  0.28880817  0.70451900  0.02451718  1.0
  Zr  Zr12  1  0.62214150  0.03785233  0.02451718  1.0
  Zr  Zr13  1  0.62214150  0.37118567  0.02451718  1.0
  Zr  Zr14  1  0.62214150  0.70451900  0.02451718  1.0
  Zr  Zr15  1  0.95547483  0.03785233  0.02451718  1.0
  Zr  Zr16  1  0.95547483  0.37118567  0.02451718  1.0
  Zr  Zr17  1  0.95547483  0.70451900  0.02451718  1.0
  Zr  Zr18  1  0.13179633  0.12842467  0.03865613  1.0
  Zr  Zr19  1  0.13179633  0.46175800  0.03865613  1.0
  Zr  Zr20  1  0.13179633  0.79509133  0.03865612  1.0
  Zr  Zr21  1  0.46512967  0.12842467  0.03865613  1.0
  Zr  Zr22  1  0.46512967  0.46175800  0.03865613  1.0
  Zr  Zr23  1  0.46512967  0.79509133  0.03865613  1.0
  Zr  Zr24  1  0.79846300  0.12842467  0.03865613  1.0
  Zr  Zr25  1  0.79846300  0.46175800  0.03865613  1.0
  Zr  Zr26  1  0.79846300  0.79509133  0.03865613  1.0
  Zr  Zr27  1  0.29846300  0.12842467  0.08865613  1.0
  Zr  Zr28  1  0.29846300  0.46175800  0.08865612  1.0
  Zr  Zr29  1  0.29846300  0.79509133  0.08865612  1.0
  Zr  Zr30  1  0.63179633  0.12842467  0.08865613  1.0
  Zr  Zr31  1  0.63179633  0.46175800  0.08865612  1.0
  Zr  Zr32  1  0.63179633  0.79509133  0.08865612  1.0
  Zr  Zr33  1  0.96512967  0.12842467  0.08865613  1.0
  Zr  Zr34  1  0.96512967  0.46175800  0.08865613  1.0
  Zr  Zr35  1  0.96512967  0.79509133  0.08865613  1.0
  Zr  Zr36  1  0.03487033  0.20490867  0.00294432  1.0
  Zr  Zr37  1  0.03487033  0.53824200  0.00294432  1.0
  Zr  Zr38  1  0.03487033  0.87157533  0.00294433  1.0
  Zr  Zr39  1  0.36820367  0.20490867  0.00294433  1.0
  Zr  Zr40  1  0.36820367  0.53824200  0.00294432  1.0
  Zr  Zr41  1  0.36820367  0.87157533  0.00294432  1.0
  Zr  Zr42  1  0.70153700  0.20490867  0.00294433  1.0
  Zr  Zr43  1  0.70153700  0.53824200  0.00294432  1.0
  Zr  Zr44  1  0.70153700  0.87157533  0.00294432  1.0
  Zr  Zr45  1  0.20153700  0.20490867  0.05294432  1.0
  Zr  Zr46  1  0.20153700  0.53824200  0.05294433  1.0
  Zr  Zr47  1  0.20153700  0.87157533  0.05294433  1.0
  Zr  Zr48  1  0.53487033  0.20490867  0.05294433  1.0
  Zr  Zr49  1  0.53487033  0.53824200  0.05294433  1.0
  Zr  Zr50  1  0.53487033  0.87157533  0.05294433  1.0
  Zr  Zr51  1  0.86820367  0.20490867  0.05294433  1.0
  Zr  Zr52  1  0.86820367  0.53824200  0.05294433  1.0
  Zr  Zr53  1  0.86820367  0.87157533  0.05294433  1.0
  Zr  Zr54  1  0.04452517  0.29548100  0.06708328  1.0
  Zr  Zr55  1  0.04452517  0.62881433  0.06708328  1.0
  Zr  Zr56  1  0.04452517  0.96214767  0.06708327  1.0
  Zr  Zr57  1  0.37785850  0.29548100  0.06708328  1.0
  Zr  Zr58  1  0.37785850  0.62881433  0.06708327  1.0
  Zr  Zr59  1  0.37785850  0.96214767  0.06708327  1.0
  Zr  Zr60  1  0.71119183  0.29548100  0.06708328  1.0
  Zr  Zr61  1  0.71119183  0.62881433  0.06708327  1.0
  Zr  Zr62  1  0.71119183  0.96214767  0.06708327  1.0
  Zr  Zr63  1  0.21119183  0.29548100  0.01708327  1.0
  Zr  Zr64  1  0.21119183  0.62881433  0.01708328  1.0
  Zr  Zr65  1  0.21119183  0.96214767  0.01708328  1.0
  Zr  Zr66  1  0.54452517  0.29548100  0.01708327  1.0
  Zr  Zr67  1  0.54452517  0.62881433  0.01708328  1.0
  Zr  Zr68  1  0.54452517  0.96214767  0.01708327  1.0
  Zr  Zr69  1  0.87785850  0.29548100  0.01708328  1.0
  Zr  Zr70  1  0.87785850  0.62881433  0.01708328  1.0
  Zr  Zr71  1  0.87785850  0.96214767  0.01708327  1.0
  Ni  Ni72  1  0.06361783  0.02601700  0.06367888  1.0
  Ni  Ni73  1  0.06361783  0.35935033  0.06367888  1.0
  Ni  Ni74  1  0.06361783  0.69268367  0.06367888  1.0
  Ni  Ni75  1  0.39695117  0.02601700  0.06367888  1.0
  Ni  Ni76  1  0.39695117  0.35935033  0.06367888  1.0
  Ni  Ni77  1  0.39695117  0.69268367  0.06367888  1.0
  Ni  Ni78  1  0.73028450  0.02601700  0.06367888  1.0
  Ni  Ni79  1  0.73028450  0.35935033  0.06367888  1.0
  Ni  Ni80  1  0.73028450  0.69268367  0.06367888  1.0
  Ni  Ni81  1  0.23028450  0.02601700  0.01367888  1.0
  Ni  Ni82  1  0.23028450  0.35935033  0.01367888  1.0
  Ni  Ni83  1  0.23028450  0.69268367  0.01367888  1.0
  Ni  Ni84  1  0.56361783  0.02601700  0.01367888  1.0
  Ni  Ni85  1  0.56361783  0.35935033  0.01367888  1.0
  Ni  Ni86  1  0.56361783  0.69268367  0.01367888  1.0
  Ni  Ni87  1  0.89695117  0.02601700  0.01367888  1.0
  Ni  Ni88  1  0.89695117  0.35935033  0.01367888  1.0
  Ni  Ni89  1  0.89695117  0.69268367  0.01367888  1.0
  Ni  Ni90  1  0.00871817  0.02601700  0.04720898  1.0
  Ni  Ni91  1  0.00871817  0.35935033  0.04720898  1.0
  Ni  Ni92  1  0.00871817  0.69268367  0.04720898  1.0
  Ni  Ni93  1  0.34205150  0.02601700  0.04720897  1.0
  Ni  Ni94  1  0.34205150  0.35935033  0.04720897  1.0
  Ni  Ni95  1  0.34205150  0.69268367  0.04720897  1.0
  Ni  Ni96  1  0.67538483  0.02601700  0.04720898  1.0
  Ni  Ni97  1  0.67538483  0.35935033  0.04720897  1.0
  Ni  Ni98  1  0.67538483  0.69268367  0.04720897  1.0
  Ni  Ni99  1  0.17538483  0.02601700  0.09720898  1.0
  Ni  Ni100  1  0.17538483  0.35935033  0.09720898  1.0
  Ni  Ni101  1  0.17538483  0.69268367  0.09720898  1.0
  Ni  Ni102  1  0.50871817  0.02601700  0.09720898  1.0
  Ni  Ni103  1  0.50871817  0.35935033  0.09720898  1.0
  Ni  Ni104  1  0.50871817  0.69268367  0.09720898  1.0
  Ni  Ni105  1  0.84205150  0.02601700  0.09720898  1.0
  Ni  Ni106  1  0.84205150  0.35935033  0.09720898  1.0
  Ni  Ni107  1  0.84205150  0.69268367  0.09720898  1.0
  Ni  Ni108  1  0.04492200  0.08326533  0.08082623  1.0
  Ni  Ni109  1  0.04492200  0.41659867  0.08082623  1.0
  Ni  Ni110  1  0.04492200  0.74993200  0.08082623  1.0
  Ni  Ni111  1  0.37825533  0.08326533  0.08082623  1.0
  Ni  Ni112  1  0.37825533  0.41659867  0.08082622  1.0
  Ni  Ni113  1  0.37825533  0.74993200  0.08082623  1.0
  Ni  Ni114  1  0.71158867  0.08326533  0.08082623  1.0
  Ni  Ni115  1  0.71158867  0.41659867  0.08082623  1.0
  Ni  Ni116  1  0.71158867  0.74993200  0.08082623  1.0
  Ni  Ni117  1  0.21158867  0.08326533  0.03082622  1.0
  Ni  Ni118  1  0.21158867  0.41659867  0.03082622  1.0
  Ni  Ni119  1  0.21158867  0.74993200  0.03082623  1.0
  Ni  Ni120  1  0.54492200  0.08326533  0.03082623  1.0
  Ni  Ni121  1  0.54492200  0.41659867  0.03082622  1.0
  Ni  Ni122  1  0.54492200  0.74993200  0.03082622  1.0
  Ni  Ni123  1  0.87825533  0.08326533  0.03082623  1.0
  Ni  Ni124  1  0.87825533  0.41659867  0.03082623  1.0
  Ni  Ni125  1  0.87825533  0.74993200  0.03082622  1.0
  Ni  Ni126  1  0.12752967  0.08326533  0.00560853  1.0
  Ni  Ni127  1  0.12752967  0.41659867  0.00560853  1.0
  Ni  Ni128  1  0.12752967  0.74993200  0.00560853  1.0
  Ni  Ni129  1  0.46086300  0.08326533  0.00560853  1.0
  Ni  Ni130  1  0.46086300  0.41659867  0.00560853  1.0
  Ni  Ni131  1  0.46086300  0.74993200  0.00560852  1.0
  Ni  Ni132  1  0.79419633  0.08326533  0.00560853  1.0
  Ni  Ni133  1  0.79419633  0.41659867  0.00560852  1.0
  Ni  Ni134  1  0.79419633  0.74993200  0.00560853  1.0
  Ni  Ni135  1  0.29419633  0.08326533  0.05560853  1.0
  Ni  Ni136  1  0.29419633  0.41659867  0.05560853  1.0
  Ni  Ni137  1  0.29419633  0.74993200  0.05560853  1.0
  Ni  Ni138  1  0.62752967  0.08326533  0.05560853  1.0
  Ni  Ni139  1  0.62752967  0.41659867  0.05560853  1.0
  Ni  Ni140  1  0.62752967  0.74993200  0.05560853  1.0
  Ni  Ni141  1  0.96086300  0.08326533  0.05560853  1.0
  Ni  Ni142  1  0.96086300  0.41659867  0.05560853  1.0
  Ni  Ni143  1  0.96086300  0.74993200  0.05560853  1.0
  Ni  Ni144  1  0.04350400  0.08346833  0.03160613  1.0
  Ni  Ni145  1  0.04350400  0.41680167  0.03160613  1.0
  Ni  Ni146  1  0.04350400  0.75013500  0.03160613  1.0
  Ni  Ni147  1  0.37683733  0.08346833  0.03160613  1.0
  Ni  Ni148  1  0.37683733  0.41680167  0.03160613  1.0
  Ni  Ni149  1  0.37683733  0.75013500  0.03160613  1.0
  Ni  Ni150  1  0.71017067  0.08346833  0.03160613  1.0
  Ni  Ni151  1  0.71017067  0.41680167  0.03160613  1.0
  Ni  Ni152  1  0.71017067  0.75013500  0.03160612  1.0
  Ni  Ni153  1  0.21017067  0.08346833  0.08160613  1.0
  Ni  Ni154  1  0.21017067  0.41680167  0.08160612  1.0
  Ni  Ni155  1  0.21017067  0.75013500  0.08160612  1.0
  Ni  Ni156  1  0.54350400  0.08346833  0.08160612  1.0
  Ni  Ni157  1  0.54350400  0.41680167  0.08160612  1.0
  Ni  Ni158  1  0.54350400  0.75013500  0.08160612  1.0
  Ni  Ni159  1  0.87683733  0.08346833  0.08160613  1.0
  Ni  Ni160  1  0.87683733  0.41680167  0.08160612  1.0
  Ni  Ni161  1  0.87683733  0.75013500  0.08160613  1.0
  Ni  Ni162  1  0.02313650  0.14065533  0.09947648  1.0
  Ni  Ni163  1  0.02313650  0.47398867  0.09947647  1.0
  Ni  Ni164  1  0.02313650  0.80732200  0.09947648  1.0
  Ni  Ni165  1  0.35646983  0.14065533  0.09947648  1.0
  Ni  Ni166  1  0.35646983  0.47398867  0.09947648  1.0
  Ni  Ni167  1  0.35646983  0.80732200  0.09947647  1.0
  Ni  Ni168  1  0.68980317  0.14065533  0.09947648  1.0
  Ni  Ni169  1  0.68980317  0.47398867  0.09947648  1.0
  Ni  Ni170  1  0.68980317  0.80732200  0.09947648  1.0
  Ni  Ni171  1  0.18980317  0.14065533  0.04947648  1.0
  Ni  Ni172  1  0.18980317  0.47398867  0.04947648  1.0
  Ni  Ni173  1  0.18980317  0.80732200  0.04947648  1.0
  Ni  Ni174  1  0.52313650  0.14065533  0.04947648  1.0
  Ni  Ni175  1  0.52313650  0.47398867  0.04947647  1.0
  Ni  Ni176  1  0.52313650  0.80732200  0.04947647  1.0
  Ni  Ni177  1  0.85646983  0.14065533  0.04947648  1.0
  Ni  Ni178  1  0.85646983  0.47398867  0.04947648  1.0
  Ni  Ni179  1  0.85646983  0.80732200  0.04947647  1.0
  Ni  Ni180  1  0.07864367  0.14065533  0.01612863  1.0
  Ni  Ni181  1  0.07864367  0.47398867  0.01612863  1.0
  Ni  Ni182  1  0.07864367  0.80732200  0.01612863  1.0
  Ni  Ni183  1  0.41197700  0.14065533  0.01612863  1.0
  Ni  Ni184  1  0.41197700  0.47398867  0.01612863  1.0
  Ni  Ni185  1  0.41197700  0.80732200  0.01612863  1.0
  Ni  Ni186  1  0.74531033  0.14065533  0.01612863  1.0
  Ni  Ni187  1  0.74531033  0.47398867  0.01612863  1.0
  Ni  Ni188  1  0.74531033  0.80732200  0.01612863  1.0
  Ni  Ni189  1  0.24531033  0.14065533  0.06612863  1.0
  Ni  Ni190  1  0.24531033  0.47398867  0.06612862  1.0
  Ni  Ni191  1  0.24531033  0.80732200  0.06612863  1.0
  Ni  Ni192  1  0.57864367  0.14065533  0.06612863  1.0
  Ni  Ni193  1  0.57864367  0.47398867  0.06612863  1.0
  Ni  Ni194  1  0.57864367  0.80732200  0.06612862  1.0
  Ni  Ni195  1  0.91197700  0.14065533  0.06612863  1.0
  Ni  Ni196  1  0.91197700  0.47398867  0.06612863  1.0
  Ni  Ni197  1  0.91197700  0.80732200  0.06612862  1.0
  Ni  Ni198  1  0.14353017  0.19267800  0.04212398  1.0
  Ni  Ni199  1  0.14353017  0.52601133  0.04212398  1.0
  Ni  Ni200  1  0.14353017  0.85934467  0.04212398  1.0
  Ni  Ni201  1  0.47686350  0.19267800  0.04212398  1.0
  Ni  Ni202  1  0.47686350  0.52601133  0.04212398  1.0
  Ni  Ni203  1  0.47686350  0.85934467  0.04212398  1.0
  Ni  Ni204  1  0.81019683  0.19267800  0.04212398  1.0
  Ni  Ni205  1  0.81019683  0.52601133  0.04212398  1.0
  Ni  Ni206  1  0.81019683  0.85934467  0.04212398  1.0
  Ni  Ni207  1  0.31019683  0.19267800  0.09212398  1.0
  Ni  Ni208  1  0.31019683  0.52601133  0.09212397  1.0
  Ni  Ni209  1  0.31019683  0.85934467  0.09212397  1.0
  Ni  Ni210  1  0.64353017  0.19267800  0.09212398  1.0
  Ni  Ni211  1  0.64353017  0.52601133  0.09212398  1.0
  Ni  Ni212  1  0.64353017  0.85934467  0.09212398  1.0
  Ni  Ni213  1  0.97686350  0.19267800  0.09212398  1.0
  Ni  Ni214  1  0.97686350  0.52601133  0.09212398  1.0
  Ni  Ni215  1  0.97686350  0.85934467  0.09212397  1.0
  Ni  Ni216  1  0.08802300  0.19267800  0.02547183  1.0
  Ni  Ni217  1  0.08802300  0.52601133  0.02547183  1.0
  Ni  Ni218  1  0.08802300  0.85934467  0.02547183  1.0
  Ni  Ni219  1  0.42135633  0.19267800  0.02547183  1.0
  Ni  Ni220  1  0.42135633  0.52601133  0.02547183  1.0
  Ni  Ni221  1  0.42135633  0.85934467  0.02547183  1.0
  Ni  Ni222  1  0.75468967  0.19267800  0.02547183  1.0
  Ni  Ni223  1  0.75468967  0.52601133  0.02547183  1.0
  Ni  Ni224  1  0.75468967  0.85934467  0.02547183  1.0
  Ni  Ni225  1  0.25468967  0.19267800  0.07547183  1.0
  Ni  Ni226  1  0.25468967  0.52601133  0.07547182  1.0
  Ni  Ni227  1  0.25468967  0.85934467  0.07547183  1.0
  Ni  Ni228  1  0.58802300  0.19267800  0.07547183  1.0
  Ni  Ni229  1  0.58802300  0.52601133  0.07547183  1.0
  Ni  Ni230  1  0.58802300  0.85934467  0.07547182  1.0
  Ni  Ni231  1  0.92135633  0.19267800  0.07547182  1.0
  Ni  Ni232  1  0.92135633  0.52601133  0.07547183  1.0
  Ni  Ni233  1  0.92135633  0.85934467  0.07547182  1.0
  Ni  Ni234  1  0.12316267  0.24986500  0.00999432  1.0
  Ni  Ni235  1  0.12316267  0.58319833  0.00999433  1.0
  Ni  Ni236  1  0.12316267  0.91653167  0.00999433  1.0
  Ni  Ni237  1  0.45649600  0.24986500  0.00999433  1.0
  Ni  Ni238  1  0.45649600  0.58319833  0.00999433  1.0
  Ni  Ni239  1  0.45649600  0.91653167  0.00999433  1.0
  Ni  Ni240  1  0.78982933  0.24986500  0.00999432  1.0
  Ni  Ni241  1  0.78982933  0.58319833  0.00999432  1.0
  Ni  Ni242  1  0.78982933  0.91653167  0.00999433  1.0
  Ni  Ni243  1  0.28982933  0.24986500  0.05999433  1.0
  Ni  Ni244  1  0.28982933  0.58319833  0.05999433  1.0
  Ni  Ni245  1  0.28982933  0.91653167  0.05999433  1.0
  Ni  Ni246  1  0.62316267  0.24986500  0.05999433  1.0
  Ni  Ni247  1  0.62316267  0.58319833  0.05999433  1.0
  Ni  Ni248  1  0.62316267  0.91653167  0.05999433  1.0
  Ni  Ni249  1  0.95649600  0.24986500  0.05999433  1.0
  Ni  Ni250  1  0.95649600  0.58319833  0.05999433  1.0
  Ni  Ni251  1  0.95649600  0.91653167  0.05999433  1.0
  Ni  Ni252  1  0.12174467  0.25006800  0.06077423  1.0
  Ni  Ni253  1  0.12174467  0.58340133  0.06077423  1.0
  Ni  Ni254  1  0.12174467  0.91673467  0.06077423  1.0
  Ni  Ni255  1  0.45507800  0.25006800  0.06077423  1.0
  Ni  Ni256  1  0.45507800  0.58340133  0.06077423  1.0
  Ni  Ni257  1  0.45507800  0.91673467  0.06077423  1.0
  Ni  Ni258  1  0.78841133  0.25006800  0.06077423  1.0
  Ni  Ni259  1  0.78841133  0.58340133  0.06077422  1.0
  Ni  Ni260  1  0.78841133  0.91673467  0.06077422  1.0
  Ni  Ni261  1  0.28841133  0.25006800  0.01077423  1.0
  Ni  Ni262  1  0.28841133  0.58340133  0.01077423  1.0
  Ni  Ni263  1  0.28841133  0.91673467  0.01077423  1.0
  Ni  Ni264  1  0.62174467  0.25006800  0.01077423  1.0
  Ni  Ni265  1  0.62174467  0.58340133  0.01077423  1.0
  Ni  Ni266  1  0.62174467  0.91673467  0.01077423  1.0
  Ni  Ni267  1  0.95507800  0.25006800  0.01077423  1.0
  Ni  Ni268  1  0.95507800  0.58340133  0.01077423  1.0
  Ni  Ni269  1  0.95507800  0.91673467  0.01077423  1.0
  Ni  Ni270  1  0.03913700  0.25006800  0.03599192  1.0
  Ni  Ni271  1  0.03913700  0.58340133  0.03599192  1.0
  Ni  Ni272  1  0.03913700  0.91673467  0.03599193  1.0
  Ni  Ni273  1  0.37247033  0.25006800  0.03599193  1.0
  Ni  Ni274  1  0.37247033  0.58340133  0.03599192  1.0
  Ni  Ni275  1  0.37247033  0.91673467  0.03599192  1.0
  Ni  Ni276  1  0.70580367  0.25006800  0.03599193  1.0
  Ni  Ni277  1  0.70580367  0.58340133  0.03599193  1.0
  Ni  Ni278  1  0.70580367  0.91673467  0.03599193  1.0
  Ni  Ni279  1  0.20580367  0.25006800  0.08599193  1.0
  Ni  Ni280  1  0.20580367  0.58340133  0.08599193  1.0
  Ni  Ni281  1  0.20580367  0.91673467  0.08599193  1.0
  Ni  Ni282  1  0.53913700  0.25006800  0.08599193  1.0
  Ni  Ni283  1  0.53913700  0.58340133  0.08599193  1.0
  Ni  Ni284  1  0.53913700  0.91673467  0.08599193  1.0
  Ni  Ni285  1  0.87247033  0.25006800  0.08599192  1.0
  Ni  Ni286  1  0.87247033  0.58340133  0.08599193  1.0
  Ni  Ni287  1  0.87247033  0.91673467  0.08599192  1.0
  Ni  Ni288  1  0.10304883  0.30731633  0.07792157  1.0
  Ni  Ni289  1  0.10304883  0.64064967  0.07792157  1.0
  Ni  Ni290  1  0.10304883  0.97398300  0.07792158  1.0
  Ni  Ni291  1  0.43638217  0.30731633  0.07792158  1.0
  Ni  Ni292  1  0.43638217  0.64064967  0.07792157  1.0
  Ni  Ni293  1  0.43638217  0.97398300  0.07792158  1.0
  Ni  Ni294  1  0.76971550  0.30731633  0.07792157  1.0
  Ni  Ni295  1  0.76971550  0.64064967  0.07792158  1.0
  Ni  Ni296  1  0.76971550  0.97398300  0.07792157  1.0
  Ni  Ni297  1  0.26971550  0.30731633  0.02792158  1.0
  Ni  Ni298  1  0.26971550  0.64064967  0.02792157  1.0
  Ni  Ni299  1  0.26971550  0.97398300  0.02792158  1.0
  Ni  Ni300  1  0.60304883  0.30731633  0.02792158  1.0
  Ni  Ni301  1  0.60304883  0.64064967  0.02792158  1.0
  Ni  Ni302  1  0.60304883  0.97398300  0.02792158  1.0
  Ni  Ni303  1  0.93638217  0.30731633  0.02792158  1.0
  Ni  Ni304  1  0.93638217  0.64064967  0.02792157  1.0
  Ni  Ni305  1  0.93638217  0.97398300  0.02792158  1.0
  Ni  Ni306  1  0.15794850  0.30731633  0.09439148  1.0
  Ni  Ni307  1  0.15794850  0.64064967  0.09439148  1.0
  Ni  Ni308  1  0.15794850  0.97398300  0.09439148  1.0
  Ni  Ni309  1  0.49128183  0.30731633  0.09439148  1.0
  Ni  Ni310  1  0.49128183  0.64064967  0.09439148  1.0
  Ni  Ni311  1  0.49128183  0.97398300  0.09439148  1.0
  Ni  Ni312  1  0.82461517  0.30731633  0.09439148  1.0
  Ni  Ni313  1  0.82461517  0.64064967  0.09439148  1.0
  Ni  Ni314  1  0.82461517  0.97398300  0.09439148  1.0
  Ni  Ni315  1  0.32461517  0.30731633  0.04439148  1.0
  Ni  Ni316  1  0.32461517  0.64064967  0.04439148  1.0
  Ni  Ni317  1  0.32461517  0.97398300  0.04439147  1.0
  Ni  Ni318  1  0.65794850  0.30731633  0.04439148  1.0
  Ni  Ni319  1  0.65794850  0.64064967  0.04439147  1.0
  Ni  Ni320  1  0.65794850  0.97398300  0.04439147  1.0
  Ni  Ni321  1  0.99128183  0.30731633  0.04439148  1.0
  Ni  Ni322  1  0.99128183  0.64064967  0.04439148  1.0
  Ni  Ni323  1  0.99128183  0.97398300  0.04439148  1.0
  Zr  Zr324  1  0.12214150  0.03785233  0.17451718  1.0
  Zr  Zr325  1  0.12214150  0.37118567  0.17451718  1.0
  Zr  Zr326  1  0.12214150  0.70451900  0.17451718  1.0
  Zr  Zr327  1  0.45547483  0.03785233  0.17451718  1.0
  Zr  Zr328  1  0.45547483  0.37118567  0.17451718  1.0
  Zr  Zr329  1  0.45547483  0.70451900  0.17451717  1.0
  Zr  Zr330  1  0.78880817  0.03785233  0.17451718  1.0
  Zr  Zr331  1  0.78880817  0.37118567  0.17451718  1.0
  Zr  Zr332  1  0.78880817  0.70451900  0.17451717  1.0
  Zr  Zr333  1  0.28880817  0.03785233  0.12451717  1.0
  Zr  Zr334  1  0.28880817  0.37118567  0.12451718  1.0
  Zr  Zr335  1  0.28880817  0.70451900  0.12451718  1.0
  Zr  Zr336  1  0.62214150  0.03785233  0.12451718  1.0
  Zr  Zr337  1  0.62214150  0.37118567  0.12451718  1.0
  Zr  Zr338  1  0.62214150  0.70451900  0.12451718  1.0
  Zr  Zr339  1  0.95547483  0.03785233  0.12451718  1.0
  Zr  Zr340  1  0.95547483  0.37118567  0.12451717  1.0
  Zr  Zr341  1  0.95547483  0.70451900  0.12451718  1.0
  Zr  Zr342  1  0.13179633  0.12842467  0.13865613  1.0
  Zr  Zr343  1  0.13179633  0.46175800  0.13865613  1.0
  Zr  Zr344  1  0.13179633  0.79509133  0.13865613  1.0
  Zr  Zr345  1  0.46512967  0.12842467  0.13865613  1.0
  Zr  Zr346  1  0.46512967  0.46175800  0.13865613  1.0
  Zr  Zr347  1  0.46512967  0.79509133  0.13865613  1.0
  Zr  Zr348  1  0.79846300  0.12842467  0.13865613  1.0
  Zr  Zr349  1  0.79846300  0.46175800  0.13865613  1.0
  Zr  Zr350  1  0.79846300  0.79509133  0.13865613  1.0
  Zr  Zr351  1  0.29846300  0.12842467  0.18865612  1.0
  Zr  Zr352  1  0.29846300  0.46175800  0.18865612  1.0
  Zr  Zr353  1  0.29846300  0.79509133  0.18865612  1.0
  Zr  Zr354  1  0.63179633  0.12842467  0.18865613  1.0
  Zr  Zr355  1  0.63179633  0.46175800  0.18865612  1.0
  Zr  Zr356  1  0.63179633  0.79509133  0.18865612  1.0
  Zr  Zr357  1  0.96512967  0.12842467  0.18865613  1.0
  Zr  Zr358  1  0.96512967  0.46175800  0.18865613  1.0
  Zr  Zr359  1  0.96512967  0.79509133  0.18865613  1.0
  Zr  Zr360  1  0.03487033  0.20490867  0.10294432  1.0
  Zr  Zr361  1  0.03487033  0.53824200  0.10294433  1.0
  Zr  Zr362  1  0.03487033  0.87157533  0.10294433  1.0
  Zr  Zr363  1  0.36820367  0.20490867  0.10294433  1.0
  Zr  Zr364  1  0.36820367  0.53824200  0.10294433  1.0
  Zr  Zr365  1  0.36820367  0.87157533  0.10294432  1.0
  Zr  Zr366  1  0.70153700  0.20490867  0.10294433  1.0
  Zr  Zr367  1  0.70153700  0.53824200  0.10294432  1.0
  Zr  Zr368  1  0.70153700  0.87157533  0.10294432  1.0
  Zr  Zr369  1  0.20153700  0.20490867  0.15294432  1.0
  Zr  Zr370  1  0.20153700  0.53824200  0.15294432  1.0
  Zr  Zr371  1  0.20153700  0.87157533  0.15294432  1.0
  Zr  Zr372  1  0.53487033  0.20490867  0.15294432  1.0
  Zr  Zr373  1  0.53487033  0.53824200  0.15294432  1.0
  Zr  Zr374  1  0.53487033  0.87157533  0.15294432  1.0
  Zr  Zr375  1  0.86820367  0.20490867  0.15294432  1.0
  Zr  Zr376  1  0.86820367  0.53824200  0.15294432  1.0
  Zr  Zr377  1  0.86820367  0.87157533  0.15294432  1.0
  Zr  Zr378  1  0.04452517  0.29548100  0.16708328  1.0
  Zr  Zr379  1  0.04452517  0.62881433  0.16708328  1.0
  Zr  Zr380  1  0.04452517  0.96214767  0.16708327  1.0
  Zr  Zr381  1  0.37785850  0.29548100  0.16708328  1.0
  Zr  Zr382  1  0.37785850  0.62881433  0.16708328  1.0
  Zr  Zr383  1  0.37785850  0.96214767  0.16708327  1.0
  Zr  Zr384  1  0.71119183  0.29548100  0.16708328  1.0
  Zr  Zr385  1  0.71119183  0.62881433  0.16708328  1.0
  Zr  Zr386  1  0.71119183  0.96214767  0.16708327  1.0
  Zr  Zr387  1  0.21119183  0.29548100  0.11708327  1.0
  Zr  Zr388  1  0.21119183  0.62881433  0.11708328  1.0
  Zr  Zr389  1  0.21119183  0.96214767  0.11708328  1.0
  Zr  Zr390  1  0.54452517  0.29548100  0.11708328  1.0
  Zr  Zr391  1  0.54452517  0.62881433  0.11708328  1.0
  Zr  Zr392  1  0.54452517  0.96214767  0.11708328  1.0
  Zr  Zr393  1  0.87785850  0.29548100  0.11708328  1.0
  Zr  Zr394  1  0.87785850  0.62881433  0.11708328  1.0
  Zr  Zr395  1  0.87785850  0.96214767  0.11708327  1.0
  Ni  Ni396  1  0.06361783  0.02601700  0.16367888  1.0
  Ni  Ni397  1  0.06361783  0.35935033  0.16367888  1.0
  Ni  Ni398  1  0.06361783  0.69268367  0.16367888  1.0
  Ni  Ni399  1  0.39695117  0.02601700  0.16367888  1.0
  Ni  Ni400  1  0.39695117  0.35935033  0.16367888  1.0
  Ni  Ni401  1  0.39695117  0.69268367  0.16367888  1.0
  Ni  Ni402  1  0.73028450  0.02601700  0.16367888  1.0
  Ni  Ni403  1  0.73028450  0.35935033  0.16367888  1.0
  Ni  Ni404  1  0.73028450  0.69268367  0.16367888  1.0
  Ni  Ni405  1  0.23028450  0.02601700  0.11367888  1.0
  Ni  Ni406  1  0.23028450  0.35935033  0.11367888  1.0
  Ni  Ni407  1  0.23028450  0.69268367  0.11367888  1.0
  Ni  Ni408  1  0.56361783  0.02601700  0.11367888  1.0
  Ni  Ni409  1  0.56361783  0.35935033  0.11367888  1.0
  Ni  Ni410  1  0.56361783  0.69268367  0.11367888  1.0
  Ni  Ni411  1  0.89695117  0.02601700  0.11367888  1.0
  Ni  Ni412  1  0.89695117  0.35935033  0.11367888  1.0
  Ni  Ni413  1  0.89695117  0.69268367  0.11367888  1.0
  Ni  Ni414  1  0.00871817  0.02601700  0.14720898  1.0
  Ni  Ni415  1  0.00871817  0.35935033  0.14720898  1.0
  Ni  Ni416  1  0.00871817  0.69268367  0.14720898  1.0
  Ni  Ni417  1  0.34205150  0.02601700  0.14720898  1.0
  Ni  Ni418  1  0.34205150  0.35935033  0.14720898  1.0
  Ni  Ni419  1  0.34205150  0.69268367  0.14720898  1.0
  Ni  Ni420  1  0.67538483  0.02601700  0.14720898  1.0
  Ni  Ni421  1  0.67538483  0.35935033  0.14720898  1.0
  Ni  Ni422  1  0.67538483  0.69268367  0.14720897  1.0
  Ni  Ni423  1  0.17538483  0.02601700  0.19720898  1.0
  Ni  Ni424  1  0.17538483  0.35935033  0.19720898  1.0
  Ni  Ni425  1  0.17538483  0.69268367  0.19720898  1.0
  Ni  Ni426  1  0.50871817  0.02601700  0.19720898  1.0
  Ni  Ni427  1  0.50871817  0.35935033  0.19720898  1.0
  Ni  Ni428  1  0.50871817  0.69268367  0.19720898  1.0
  Ni  Ni429  1  0.84205150  0.02601700  0.19720898  1.0
  Ni  Ni430  1  0.84205150  0.35935033  0.19720898  1.0
  Ni  Ni431  1  0.84205150  0.69268367  0.19720898  1.0
  Ni  Ni432  1  0.04492200  0.08326533  0.18082622  1.0
  Ni  Ni433  1  0.04492200  0.41659867  0.18082623  1.0
  Ni  Ni434  1  0.04492200  0.74993200  0.18082623  1.0
  Ni  Ni435  1  0.37825533  0.08326533  0.18082622  1.0
  Ni  Ni436  1  0.37825533  0.41659867  0.18082622  1.0
  Ni  Ni437  1  0.37825533  0.74993200  0.18082623  1.0
  Ni  Ni438  1  0.71158867  0.08326533  0.18082623  1.0
  Ni  Ni439  1  0.71158867  0.41659867  0.18082623  1.0
  Ni  Ni440  1  0.71158867  0.74993200  0.18082623  1.0
  Ni  Ni441  1  0.21158867  0.08326533  0.13082622  1.0
  Ni  Ni442  1  0.21158867  0.41659867  0.13082622  1.0
  Ni  Ni443  1  0.21158867  0.74993200  0.13082623  1.0
  Ni  Ni444  1  0.54492200  0.08326533  0.13082623  1.0
  Ni  Ni445  1  0.54492200  0.41659867  0.13082622  1.0
  Ni  Ni446  1  0.54492200  0.74993200  0.13082622  1.0
  Ni  Ni447  1  0.87825533  0.08326533  0.13082623  1.0
  Ni  Ni448  1  0.87825533  0.41659867  0.13082622  1.0
  Ni  Ni449  1  0.87825533  0.74993200  0.13082623  1.0
  Ni  Ni450  1  0.12752967  0.08326533  0.10560852  1.0
  Ni  Ni451  1  0.12752967  0.41659867  0.10560852  1.0
  Ni  Ni452  1  0.12752967  0.74993200  0.10560853  1.0
  Ni  Ni453  1  0.46086300  0.08326533  0.10560853  1.0
  Ni  Ni454  1  0.46086300  0.41659867  0.10560852  1.0
  Ni  Ni455  1  0.46086300  0.74993200  0.10560852  1.0
  Ni  Ni456  1  0.79419633  0.08326533  0.10560853  1.0
  Ni  Ni457  1  0.79419633  0.41659867  0.10560852  1.0
  Ni  Ni458  1  0.79419633  0.74993200  0.10560853  1.0
  Ni  Ni459  1  0.29419633  0.08326533  0.15560852  1.0
  Ni  Ni460  1  0.29419633  0.41659867  0.15560852  1.0
  Ni  Ni461  1  0.29419633  0.74993200  0.15560852  1.0
  Ni  Ni462  1  0.62752967  0.08326533  0.15560853  1.0
  Ni  Ni463  1  0.62752967  0.41659867  0.15560853  1.0
  Ni  Ni464  1  0.62752967  0.74993200  0.15560852  1.0
  Ni  Ni465  1  0.96086300  0.08326533  0.15560853  1.0
  Ni  Ni466  1  0.96086300  0.41659867  0.15560853  1.0
  Ni  Ni467  1  0.96086300  0.74993200  0.15560852  1.0
  Ni  Ni468  1  0.04350400  0.08346833  0.13160613  1.0
  Ni  Ni469  1  0.04350400  0.41680167  0.13160613  1.0
  Ni  Ni470  1  0.04350400  0.75013500  0.13160613  1.0
  Ni  Ni471  1  0.37683733  0.08346833  0.13160613  1.0
  Ni  Ni472  1  0.37683733  0.41680167  0.13160613  1.0
  Ni  Ni473  1  0.37683733  0.75013500  0.13160613  1.0
  Ni  Ni474  1  0.71017067  0.08346833  0.13160613  1.0
  Ni  Ni475  1  0.71017067  0.41680167  0.13160613  1.0
  Ni  Ni476  1  0.71017067  0.75013500  0.13160613  1.0
  Ni  Ni477  1  0.21017067  0.08346833  0.18160613  1.0
  Ni  Ni478  1  0.21017067  0.41680167  0.18160612  1.0
  Ni  Ni479  1  0.21017067  0.75013500  0.18160612  1.0
  Ni  Ni480  1  0.54350400  0.08346833  0.18160612  1.0
  Ni  Ni481  1  0.54350400  0.41680167  0.18160612  1.0
  Ni  Ni482  1  0.54350400  0.75013500  0.18160612  1.0
  Ni  Ni483  1  0.87683733  0.08346833  0.18160613  1.0
  Ni  Ni484  1  0.87683733  0.41680167  0.18160612  1.0
  Ni  Ni485  1  0.87683733  0.75013500  0.18160613  1.0
  Ni  Ni486  1  0.02313650  0.14065533  0.19947648  1.0
  Ni  Ni487  1  0.02313650  0.47398867  0.19947647  1.0
  Ni  Ni488  1  0.02313650  0.80732200  0.19947647  1.0
  Ni  Ni489  1  0.35646983  0.14065533  0.19947648  1.0
  Ni  Ni490  1  0.35646983  0.47398867  0.19947648  1.0
  Ni  Ni491  1  0.35646983  0.80732200  0.19947648  1.0
  Ni  Ni492  1  0.68980317  0.14065533  0.19947648  1.0
  Ni  Ni493  1  0.68980317  0.47398867  0.19947647  1.0
  Ni  Ni494  1  0.68980317  0.80732200  0.19947648  1.0
  Ni  Ni495  1  0.18980317  0.14065533  0.14947648  1.0
  Ni  Ni496  1  0.18980317  0.47398867  0.14947647  1.0
  Ni  Ni497  1  0.18980317  0.80732200  0.14947647  1.0
  Ni  Ni498  1  0.52313650  0.14065533  0.14947648  1.0
  Ni  Ni499  1  0.52313650  0.47398867  0.14947648  1.0
  Ni  Ni500  1  0.52313650  0.80732200  0.14947647  1.0
  Ni  Ni501  1  0.85646983  0.14065533  0.14947648  1.0
  Ni  Ni502  1  0.85646983  0.47398867  0.14947648  1.0
  Ni  Ni503  1  0.85646983  0.80732200  0.14947647  1.0
  Ni  Ni504  1  0.07864367  0.14065533  0.11612863  1.0
  Ni  Ni505  1  0.07864367  0.47398867  0.11612863  1.0
  Ni  Ni506  1  0.07864367  0.80732200  0.11612862  1.0
  Ni  Ni507  1  0.41197700  0.14065533  0.11612863  1.0
  Ni  Ni508  1  0.41197700  0.47398867  0.11612863  1.0
  Ni  Ni509  1  0.41197700  0.80732200  0.11612862  1.0
  Ni  Ni510  1  0.74531033  0.14065533  0.11612863  1.0
  Ni  Ni511  1  0.74531033  0.47398867  0.11612862  1.0
  Ni  Ni512  1  0.74531033  0.80732200  0.11612863  1.0
  Ni  Ni513  1  0.24531033  0.14065533  0.16612863  1.0
  Ni  Ni514  1  0.24531033  0.47398867  0.16612862  1.0
  Ni  Ni515  1  0.24531033  0.80732200  0.16612863  1.0
  Ni  Ni516  1  0.57864367  0.14065533  0.16612863  1.0
  Ni  Ni517  1  0.57864367  0.47398867  0.16612863  1.0
  Ni  Ni518  1  0.57864367  0.80732200  0.16612863  1.0
  Ni  Ni519  1  0.91197700  0.14065533  0.16612863  1.0
  Ni  Ni520  1  0.91197700  0.47398867  0.16612862  1.0
  Ni  Ni521  1  0.91197700  0.80732200  0.16612863  1.0
  Ni  Ni522  1  0.14353017  0.19267800  0.14212398  1.0
  Ni  Ni523  1  0.14353017  0.52601133  0.14212398  1.0
  Ni  Ni524  1  0.14353017  0.85934467  0.14212398  1.0
  Ni  Ni525  1  0.47686350  0.19267800  0.14212398  1.0
  Ni  Ni526  1  0.47686350  0.52601133  0.14212398  1.0
  Ni  Ni527  1  0.47686350  0.85934467  0.14212398  1.0
  Ni  Ni528  1  0.81019683  0.19267800  0.14212398  1.0
  Ni  Ni529  1  0.81019683  0.52601133  0.14212398  1.0
  Ni  Ni530  1  0.81019683  0.85934467  0.14212398  1.0
  Ni  Ni531  1  0.31019683  0.19267800  0.19212398  1.0
  Ni  Ni532  1  0.31019683  0.52601133  0.19212398  1.0
  Ni  Ni533  1  0.31019683  0.85934467  0.19212398  1.0
  Ni  Ni534  1  0.64353017  0.19267800  0.19212398  1.0
  Ni  Ni535  1  0.64353017  0.52601133  0.19212398  1.0
  Ni  Ni536  1  0.64353017  0.85934467  0.19212398  1.0
  Ni  Ni537  1  0.97686350  0.19267800  0.19212398  1.0
  Ni  Ni538  1  0.97686350  0.52601133  0.19212398  1.0
  Ni  Ni539  1  0.97686350  0.85934467  0.19212397  1.0
  Ni  Ni540  1  0.08802300  0.19267800  0.12547183  1.0
  Ni  Ni541  1  0.08802300  0.52601133  0.12547182  1.0
  Ni  Ni542  1  0.08802300  0.85934467  0.12547182  1.0
  Ni  Ni543  1  0.42135633  0.19267800  0.12547183  1.0
  Ni  Ni544  1  0.42135633  0.52601133  0.12547182  1.0
  Ni  Ni545  1  0.42135633  0.85934467  0.12547182  1.0
  Ni  Ni546  1  0.75468967  0.19267800  0.12547183  1.0
  Ni  Ni547  1  0.75468967  0.52601133  0.12547182  1.0
  Ni  Ni548  1  0.75468967  0.85934467  0.12547182  1.0
  Ni  Ni549  1  0.25468967  0.19267800  0.17547182  1.0
  Ni  Ni550  1  0.25468967  0.52601133  0.17547182  1.0
  Ni  Ni551  1  0.25468967  0.85934467  0.17547182  1.0
  Ni  Ni552  1  0.58802300  0.19267800  0.17547182  1.0
  Ni  Ni553  1  0.58802300  0.52601133  0.17547183  1.0
  Ni  Ni554  1  0.58802300  0.85934467  0.17547182  1.0
  Ni  Ni555  1  0.92135633  0.19267800  0.17547182  1.0
  Ni  Ni556  1  0.92135633  0.52601133  0.17547182  1.0
  Ni  Ni557  1  0.92135633  0.85934467  0.17547182  1.0
  Ni  Ni558  1  0.12316267  0.24986500  0.10999433  1.0
  Ni  Ni559  1  0.12316267  0.58319833  0.10999433  1.0
  Ni  Ni560  1  0.12316267  0.91653167  0.10999433  1.0
  Ni  Ni561  1  0.45649600  0.24986500  0.10999433  1.0
  Ni  Ni562  1  0.45649600  0.58319833  0.10999433  1.0
  Ni  Ni563  1  0.45649600  0.91653167  0.10999432  1.0
  Ni  Ni564  1  0.78982933  0.24986500  0.10999432  1.0
  Ni  Ni565  1  0.78982933  0.58319833  0.10999433  1.0
  Ni  Ni566  1  0.78982933  0.91653167  0.10999432  1.0
  Ni  Ni567  1  0.28982933  0.24986500  0.15999433  1.0
  Ni  Ni568  1  0.28982933  0.58319833  0.15999432  1.0
  Ni  Ni569  1  0.28982933  0.91653167  0.15999433  1.0
  Ni  Ni570  1  0.62316267  0.24986500  0.15999433  1.0
  Ni  Ni571  1  0.62316267  0.58319833  0.15999432  1.0
  Ni  Ni572  1  0.62316267  0.91653167  0.15999432  1.0
  Ni  Ni573  1  0.95649600  0.24986500  0.15999433  1.0
  Ni  Ni574  1  0.95649600  0.58319833  0.15999433  1.0
  Ni  Ni575  1  0.95649600  0.91653167  0.15999433  1.0
  Ni  Ni576  1  0.12174467  0.25006800  0.16077423  1.0
  Ni  Ni577  1  0.12174467  0.58340133  0.16077423  1.0
  Ni  Ni578  1  0.12174467  0.91673467  0.16077422  1.0
  Ni  Ni579  1  0.45507800  0.25006800  0.16077423  1.0
  Ni  Ni580  1  0.45507800  0.58340133  0.16077422  1.0
  Ni  Ni581  1  0.45507800  0.91673467  0.16077423  1.0
  Ni  Ni582  1  0.78841133  0.25006800  0.16077423  1.0
  Ni  Ni583  1  0.78841133  0.58340133  0.16077422  1.0
  Ni  Ni584  1  0.78841133  0.91673467  0.16077422  1.0
  Ni  Ni585  1  0.28841133  0.25006800  0.11077423  1.0
  Ni  Ni586  1  0.28841133  0.58340133  0.11077423  1.0
  Ni  Ni587  1  0.28841133  0.91673467  0.11077423  1.0
  Ni  Ni588  1  0.62174467  0.25006800  0.11077423  1.0
  Ni  Ni589  1  0.62174467  0.58340133  0.11077423  1.0
  Ni  Ni590  1  0.62174467  0.91673467  0.11077422  1.0
  Ni  Ni591  1  0.95507800  0.25006800  0.11077423  1.0
  Ni  Ni592  1  0.95507800  0.58340133  0.11077423  1.0
  Ni  Ni593  1  0.95507800  0.91673467  0.11077423  1.0
  Ni  Ni594  1  0.03913700  0.25006800  0.13599192  1.0
  Ni  Ni595  1  0.03913700  0.58340133  0.13599192  1.0
  Ni  Ni596  1  0.03913700  0.91673467  0.13599193  1.0
  Ni  Ni597  1  0.37247033  0.25006800  0.13599193  1.0
  Ni  Ni598  1  0.37247033  0.58340133  0.13599193  1.0
  Ni  Ni599  1  0.37247033  0.91673467  0.13599193  1.0
  Ni  Ni600  1  0.70580367  0.25006800  0.13599193  1.0
  Ni  Ni601  1  0.70580367  0.58340133  0.13599193  1.0
  Ni  Ni602  1  0.70580367  0.91673467  0.13599192  1.0
  Ni  Ni603  1  0.20580367  0.25006800  0.18599193  1.0
  Ni  Ni604  1  0.20580367  0.58340133  0.18599193  1.0
  Ni  Ni605  1  0.20580367  0.91673467  0.18599193  1.0
  Ni  Ni606  1  0.53913700  0.25006800  0.18599193  1.0
  Ni  Ni607  1  0.53913700  0.58340133  0.18599193  1.0
  Ni  Ni608  1  0.53913700  0.91673467  0.18599193  1.0
  Ni  Ni609  1  0.87247033  0.25006800  0.18599192  1.0
  Ni  Ni610  1  0.87247033  0.58340133  0.18599193  1.0
  Ni  Ni611  1  0.87247033  0.91673467  0.18599192  1.0
  Ni  Ni612  1  0.10304883  0.30731633  0.17792158  1.0
  Ni  Ni613  1  0.10304883  0.64064967  0.17792158  1.0
  Ni  Ni614  1  0.10304883  0.97398300  0.17792158  1.0
  Ni  Ni615  1  0.43638217  0.30731633  0.17792158  1.0
  Ni  Ni616  1  0.43638217  0.64064967  0.17792158  1.0
  Ni  Ni617  1  0.43638217  0.97398300  0.17792158  1.0
  Ni  Ni618  1  0.76971550  0.30731633  0.17792158  1.0
  Ni  Ni619  1  0.76971550  0.64064967  0.17792158  1.0
  Ni  Ni620  1  0.76971550  0.97398300  0.17792158  1.0
  Ni  Ni621  1  0.26971550  0.30731633  0.12792158  1.0
  Ni  Ni622  1  0.26971550  0.64064967  0.12792157  1.0
  Ni  Ni623  1  0.26971550  0.97398300  0.12792158  1.0
  Ni  Ni624  1  0.60304883  0.30731633  0.12792158  1.0
  Ni  Ni625  1  0.60304883  0.64064967  0.12792158  1.0
  Ni  Ni626  1  0.60304883  0.97398300  0.12792158  1.0
  Ni  Ni627  1  0.93638217  0.30731633  0.12792158  1.0
  Ni  Ni628  1  0.93638217  0.64064967  0.12792157  1.0
  Ni  Ni629  1  0.93638217  0.97398300  0.12792158  1.0
  Ni  Ni630  1  0.15794850  0.30731633  0.19439148  1.0
  Ni  Ni631  1  0.15794850  0.64064967  0.19439147  1.0
  Ni  Ni632  1  0.15794850  0.97398300  0.19439148  1.0
  Ni  Ni633  1  0.49128183  0.30731633  0.19439147  1.0
  Ni  Ni634  1  0.49128183  0.64064967  0.19439147  1.0
  Ni  Ni635  1  0.49128183  0.97398300  0.19439148  1.0
  Ni  Ni636  1  0.82461517  0.30731633  0.19439148  1.0
  Ni  Ni637  1  0.82461517  0.64064967  0.19439148  1.0
  Ni  Ni638  1  0.82461517  0.97398300  0.19439148  1.0
  Ni  Ni639  1  0.32461517  0.30731633  0.14439147  1.0
  Ni  Ni640  1  0.32461517  0.64064967  0.14439147  1.0
  Ni  Ni641  1  0.32461517  0.97398300  0.14439147  1.0
  Ni  Ni642  1  0.65794850  0.30731633  0.14439148  1.0
  Ni  Ni643  1  0.65794850  0.64064967  0.14439147  1.0
  Ni  Ni644  1  0.65794850  0.97398300  0.14439147  1.0
  Ni  Ni645  1  0.99128183  0.30731633  0.14439148  1.0
  Ni  Ni646  1  0.99128183  0.64064967  0.14439148  1.0
  Ni  Ni647  1  0.99128183  0.97398300  0.14439148  1.0
  Zr  Zr648  1  0.12214150  0.03785233  0.27451717  1.0
  Zr  Zr649  1  0.12214150  0.37118567  0.27451717  1.0
  Zr  Zr650  1  0.12214150  0.70451900  0.27451717  1.0
  Zr  Zr651  1  0.45547483  0.03785233  0.27451718  1.0
  Zr  Zr652  1  0.45547483  0.37118567  0.27451717  1.0
  Zr  Zr653  1  0.45547483  0.70451900  0.27451717  1.0
  Zr  Zr654  1  0.78880817  0.03785233  0.27451718  1.0
  Zr  Zr655  1  0.78880817  0.37118567  0.27451717  1.0
  Zr  Zr656  1  0.78880817  0.70451900  0.27451717  1.0
  Zr  Zr657  1  0.28880817  0.03785233  0.22451718  1.0
  Zr  Zr658  1  0.28880817  0.37118567  0.22451718  1.0
  Zr  Zr659  1  0.28880817  0.70451900  0.22451718  1.0
  Zr  Zr660  1  0.62214150  0.03785233  0.22451718  1.0
  Zr  Zr661  1  0.62214150  0.37118567  0.22451718  1.0
  Zr  Zr662  1  0.62214150  0.70451900  0.22451718  1.0
  Zr  Zr663  1  0.95547483  0.03785233  0.22451718  1.0
  Zr  Zr664  1  0.95547483  0.37118567  0.22451718  1.0
  Zr  Zr665  1  0.95547483  0.70451900  0.22451718  1.0
  Zr  Zr666  1  0.13179633  0.12842467  0.23865612  1.0
  Zr  Zr667  1  0.13179633  0.46175800  0.23865612  1.0
  Zr  Zr668  1  0.13179633  0.79509133  0.23865612  1.0
  Zr  Zr669  1  0.46512967  0.12842467  0.23865612  1.0
  Zr  Zr670  1  0.46512967  0.46175800  0.23865612  1.0
  Zr  Zr671  1  0.46512967  0.79509133  0.23865612  1.0
  Zr  Zr672  1  0.79846300  0.12842467  0.23865612  1.0
  Zr  Zr673  1  0.79846300  0.46175800  0.23865613  1.0
  Zr  Zr674  1  0.79846300  0.79509133  0.23865612  1.0
  Zr  Zr675  1  0.29846300  0.12842467  0.28865613  1.0
  Zr  Zr676  1  0.29846300  0.46175800  0.28865613  1.0
  Zr  Zr677  1  0.29846300  0.79509133  0.28865613  1.0
  Zr  Zr678  1  0.63179633  0.12842467  0.28865613  1.0
  Zr  Zr679  1  0.63179633  0.46175800  0.28865612  1.0
  Zr  Zr680  1  0.63179633  0.79509133  0.28865613  1.0
  Zr  Zr681  1  0.96512967  0.12842467  0.28865613  1.0
  Zr  Zr682  1  0.96512967  0.46175800  0.28865613  1.0
  Zr  Zr683  1  0.96512967  0.79509133  0.28865613  1.0
  Zr  Zr684  1  0.03487033  0.20490867  0.20294432  1.0
  Zr  Zr685  1  0.03487033  0.53824200  0.20294433  1.0
  Zr  Zr686  1  0.03487033  0.87157533  0.20294432  1.0
  Zr  Zr687  1  0.36820367  0.20490867  0.20294432  1.0
  Zr  Zr688  1  0.36820367  0.53824200  0.20294432  1.0
  Zr  Zr689  1  0.36820367  0.87157533  0.20294433  1.0
  Zr  Zr690  1  0.70153700  0.20490867  0.20294432  1.0
  Zr  Zr691  1  0.70153700  0.53824200  0.20294432  1.0
  Zr  Zr692  1  0.70153700  0.87157533  0.20294432  1.0
  Zr  Zr693  1  0.20153700  0.20490867  0.25294433  1.0
  Zr  Zr694  1  0.20153700  0.53824200  0.25294433  1.0
  Zr  Zr695  1  0.20153700  0.87157533  0.25294432  1.0
  Zr  Zr696  1  0.53487033  0.20490867  0.25294433  1.0
  Zr  Zr697  1  0.53487033  0.53824200  0.25294433  1.0
  Zr  Zr698  1  0.53487033  0.87157533  0.25294432  1.0
  Zr  Zr699  1  0.86820367  0.20490867  0.25294433  1.0
  Zr  Zr700  1  0.86820367  0.53824200  0.25294433  1.0
  Zr  Zr701  1  0.86820367  0.87157533  0.25294433  1.0
  Zr  Zr702  1  0.04452517  0.29548100  0.26708328  1.0
  Zr  Zr703  1  0.04452517  0.62881433  0.26708328  1.0
  Zr  Zr704  1  0.04452517  0.96214767  0.26708327  1.0
  Zr  Zr705  1  0.37785850  0.29548100  0.26708328  1.0
  Zr  Zr706  1  0.37785850  0.62881433  0.26708328  1.0
  Zr  Zr707  1  0.37785850  0.96214767  0.26708327  1.0
  Zr  Zr708  1  0.71119183  0.29548100  0.26708328  1.0
  Zr  Zr709  1  0.71119183  0.62881433  0.26708328  1.0
  Zr  Zr710  1  0.71119183  0.96214767  0.26708328  1.0
  Zr  Zr711  1  0.21119183  0.29548100  0.21708328  1.0
  Zr  Zr712  1  0.21119183  0.62881433  0.21708328  1.0
  Zr  Zr713  1  0.21119183  0.96214767  0.21708328  1.0
  Zr  Zr714  1  0.54452517  0.29548100  0.21708328  1.0
  Zr  Zr715  1  0.54452517  0.62881433  0.21708328  1.0
  Zr  Zr716  1  0.54452517  0.96214767  0.21708328  1.0
  Zr  Zr717  1  0.87785850  0.29548100  0.21708328  1.0
  Zr  Zr718  1  0.87785850  0.62881433  0.21708328  1.0
  Zr  Zr719  1  0.87785850  0.96214767  0.21708328  1.0
  Ni  Ni720  1  0.06361783  0.02601700  0.26367888  1.0
  Ni  Ni721  1  0.06361783  0.35935033  0.26367888  1.0
  Ni  Ni722  1  0.06361783  0.69268367  0.26367888  1.0
  Ni  Ni723  1  0.39695117  0.02601700  0.26367888  1.0
  Ni  Ni724  1  0.39695117  0.35935033  0.26367887  1.0
  Ni  Ni725  1  0.39695117  0.69268367  0.26367887  1.0
  Ni  Ni726  1  0.73028450  0.02601700  0.26367887  1.0
  Ni  Ni727  1  0.73028450  0.35935033  0.26367888  1.0
  Ni  Ni728  1  0.73028450  0.69268367  0.26367887  1.0
  Ni  Ni729  1  0.23028450  0.02601700  0.21367888  1.0
  Ni  Ni730  1  0.23028450  0.35935033  0.21367887  1.0
  Ni  Ni731  1  0.23028450  0.69268367  0.21367888  1.0
  Ni  Ni732  1  0.56361783  0.02601700  0.21367887  1.0
  Ni  Ni733  1  0.56361783  0.35935033  0.21367888  1.0
  Ni  Ni734  1  0.56361783  0.69268367  0.21367888  1.0
  Ni  Ni735  1  0.89695117  0.02601700  0.21367888  1.0
  Ni  Ni736  1  0.89695117  0.35935033  0.21367888  1.0
  Ni  Ni737  1  0.89695117  0.69268367  0.21367888  1.0
  Ni  Ni738  1  0.00871817  0.02601700  0.24720897  1.0
  Ni  Ni739  1  0.00871817  0.35935033  0.24720897  1.0
  Ni  Ni740  1  0.00871817  0.69268367  0.24720898  1.0
  Ni  Ni741  1  0.34205150  0.02601700  0.24720897  1.0
  Ni  Ni742  1  0.34205150  0.35935033  0.24720897  1.0
  Ni  Ni743  1  0.34205150  0.69268367  0.24720897  1.0
  Ni  Ni744  1  0.67538483  0.02601700  0.24720898  1.0
  Ni  Ni745  1  0.67538483  0.35935033  0.24720897  1.0
  Ni  Ni746  1  0.67538483  0.69268367  0.24720897  1.0
  Ni  Ni747  1  0.17538483  0.02601700  0.29720897  1.0
  Ni  Ni748  1  0.17538483  0.35935033  0.29720897  1.0
  Ni  Ni749  1  0.17538483  0.69268367  0.29720898  1.0
  Ni  Ni750  1  0.50871817  0.02601700  0.29720897  1.0
  Ni  Ni751  1  0.50871817  0.35935033  0.29720897  1.0
  Ni  Ni752  1  0.50871817  0.69268367  0.29720897  1.0
  Ni  Ni753  1  0.84205150  0.02601700  0.29720897  1.0
  Ni  Ni754  1  0.84205150  0.35935033  0.29720898  1.0
  Ni  Ni755  1  0.84205150  0.69268367  0.29720897  1.0
  Ni  Ni756  1  0.04492200  0.08326533  0.28082622  1.0
  Ni  Ni757  1  0.04492200  0.41659867  0.28082622  1.0
  Ni  Ni758  1  0.04492200  0.74993200  0.28082622  1.0
  Ni  Ni759  1  0.37825533  0.08326533  0.28082622  1.0
  Ni  Ni760  1  0.37825533  0.41659867  0.28082622  1.0
  Ni  Ni761  1  0.37825533  0.74993200  0.28082622  1.0
  Ni  Ni762  1  0.71158867  0.08326533  0.28082622  1.0
  Ni  Ni763  1  0.71158867  0.41659867  0.28082622  1.0
  Ni  Ni764  1  0.71158867  0.74993200  0.28082622  1.0
  Ni  Ni765  1  0.21158867  0.08326533  0.23082623  1.0
  Ni  Ni766  1  0.21158867  0.41659867  0.23082622  1.0
  Ni  Ni767  1  0.21158867  0.74993200  0.23082623  1.0
  Ni  Ni768  1  0.54492200  0.08326533  0.23082623  1.0
  Ni  Ni769  1  0.54492200  0.41659867  0.23082623  1.0
  Ni  Ni770  1  0.54492200  0.74993200  0.23082623  1.0
  Ni  Ni771  1  0.87825533  0.08326533  0.23082623  1.0
  Ni  Ni772  1  0.87825533  0.41659867  0.23082623  1.0
  Ni  Ni773  1  0.87825533  0.74993200  0.23082623  1.0
  Ni  Ni774  1  0.12752967  0.08326533  0.20560852  1.0
  Ni  Ni775  1  0.12752967  0.41659867  0.20560853  1.0
  Ni  Ni776  1  0.12752967  0.74993200  0.20560853  1.0
  Ni  Ni777  1  0.46086300  0.08326533  0.20560853  1.0
  Ni  Ni778  1  0.46086300  0.41659867  0.20560853  1.0
  Ni  Ni779  1  0.46086300  0.74993200  0.20560853  1.0
  Ni  Ni780  1  0.79419633  0.08326533  0.20560853  1.0
  Ni  Ni781  1  0.79419633  0.41659867  0.20560853  1.0
  Ni  Ni782  1  0.79419633  0.74993200  0.20560853  1.0
  Ni  Ni783  1  0.29419633  0.08326533  0.25560853  1.0
  Ni  Ni784  1  0.29419633  0.41659867  0.25560853  1.0
  Ni  Ni785  1  0.29419633  0.74993200  0.25560852  1.0
  Ni  Ni786  1  0.62752967  0.08326533  0.25560853  1.0
  Ni  Ni787  1  0.62752967  0.41659867  0.25560853  1.0
  Ni  Ni788  1  0.62752967  0.74993200  0.25560852  1.0
  Ni  Ni789  1  0.96086300  0.08326533  0.25560853  1.0
  Ni  Ni790  1  0.96086300  0.41659867  0.25560853  1.0
  Ni  Ni791  1  0.96086300  0.74993200  0.25560852  1.0
  Ni  Ni792  1  0.04350400  0.08346833  0.23160612  1.0
  Ni  Ni793  1  0.04350400  0.41680167  0.23160613  1.0
  Ni  Ni794  1  0.04350400  0.75013500  0.23160613  1.0
  Ni  Ni795  1  0.37683733  0.08346833  0.23160613  1.0
  Ni  Ni796  1  0.37683733  0.41680167  0.23160613  1.0
  Ni  Ni797  1  0.37683733  0.75013500  0.23160613  1.0
  Ni  Ni798  1  0.71017067  0.08346833  0.23160613  1.0
  Ni  Ni799  1  0.71017067  0.41680167  0.23160613  1.0
  Ni  Ni800  1  0.71017067  0.75013500  0.23160612  1.0
  Ni  Ni801  1  0.21017067  0.08346833  0.28160612  1.0
  Ni  Ni802  1  0.21017067  0.41680167  0.28160612  1.0
  Ni  Ni803  1  0.21017067  0.75013500  0.28160612  1.0
  Ni  Ni804  1  0.54350400  0.08346833  0.28160612  1.0
  Ni  Ni805  1  0.54350400  0.41680167  0.28160612  1.0
  Ni  Ni806  1  0.54350400  0.75013500  0.28160612  1.0
  Ni  Ni807  1  0.87683733  0.08346833  0.28160613  1.0
  Ni  Ni808  1  0.87683733  0.41680167  0.28160612  1.0
  Ni  Ni809  1  0.87683733  0.75013500  0.28160613  1.0
  Ni  Ni810  1  0.02313650  0.14065533  0.29947647  1.0
  Ni  Ni811  1  0.02313650  0.47398867  0.29947647  1.0
  Ni  Ni812  1  0.02313650  0.80732200  0.29947647  1.0
  Ni  Ni813  1  0.35646983  0.14065533  0.29947648  1.0
  Ni  Ni814  1  0.35646983  0.47398867  0.29947648  1.0
  Ni  Ni815  1  0.35646983  0.80732200  0.29947647  1.0
  Ni  Ni816  1  0.68980317  0.14065533  0.29947647  1.0
  Ni  Ni817  1  0.68980317  0.47398867  0.29947648  1.0
  Ni  Ni818  1  0.68980317  0.80732200  0.29947647  1.0
  Ni  Ni819  1  0.18980317  0.14065533  0.24947648  1.0
  Ni  Ni820  1  0.18980317  0.47398867  0.24947648  1.0
  Ni  Ni821  1  0.18980317  0.80732200  0.24947648  1.0
  Ni  Ni822  1  0.52313650  0.14065533  0.24947648  1.0
  Ni  Ni823  1  0.52313650  0.47398867  0.24947648  1.0
  Ni  Ni824  1  0.52313650  0.80732200  0.24947648  1.0
  Ni  Ni825  1  0.85646983  0.14065533  0.24947648  1.0
  Ni  Ni826  1  0.85646983  0.47398867  0.24947648  1.0
  Ni  Ni827  1  0.85646983  0.80732200  0.24947648  1.0
  Ni  Ni828  1  0.07864367  0.14065533  0.21612863  1.0
  Ni  Ni829  1  0.07864367  0.47398867  0.21612862  1.0
  Ni  Ni830  1  0.07864367  0.80732200  0.21612862  1.0
  Ni  Ni831  1  0.41197700  0.14065533  0.21612863  1.0
  Ni  Ni832  1  0.41197700  0.47398867  0.21612863  1.0
  Ni  Ni833  1  0.41197700  0.80732200  0.21612862  1.0
  Ni  Ni834  1  0.74531033  0.14065533  0.21612863  1.0
  Ni  Ni835  1  0.74531033  0.47398867  0.21612862  1.0
  Ni  Ni836  1  0.74531033  0.80732200  0.21612863  1.0
  Ni  Ni837  1  0.24531033  0.14065533  0.26612863  1.0
  Ni  Ni838  1  0.24531033  0.47398867  0.26612862  1.0
  Ni  Ni839  1  0.24531033  0.80732200  0.26612862  1.0
  Ni  Ni840  1  0.57864367  0.14065533  0.26612863  1.0
  Ni  Ni841  1  0.57864367  0.47398867  0.26612863  1.0
  Ni  Ni842  1  0.57864367  0.80732200  0.26612862  1.0
  Ni  Ni843  1  0.91197700  0.14065533  0.26612863  1.0
  Ni  Ni844  1  0.91197700  0.47398867  0.26612863  1.0
  Ni  Ni845  1  0.91197700  0.80732200  0.26612862  1.0
  Ni  Ni846  1  0.14353017  0.19267800  0.24212398  1.0
  Ni  Ni847  1  0.14353017  0.52601133  0.24212398  1.0
  Ni  Ni848  1  0.14353017  0.85934467  0.24212398  1.0
  Ni  Ni849  1  0.47686350  0.19267800  0.24212398  1.0
  Ni  Ni850  1  0.47686350  0.52601133  0.24212398  1.0
  Ni  Ni851  1  0.47686350  0.85934467  0.24212398  1.0
  Ni  Ni852  1  0.81019683  0.19267800  0.24212398  1.0
  Ni  Ni853  1  0.81019683  0.52601133  0.24212398  1.0
  Ni  Ni854  1  0.81019683  0.85934467  0.24212398  1.0
  Ni  Ni855  1  0.31019683  0.19267800  0.29212397  1.0
  Ni  Ni856  1  0.31019683  0.52601133  0.29212397  1.0
  Ni  Ni857  1  0.31019683  0.85934467  0.29212398  1.0
  Ni  Ni858  1  0.64353017  0.19267800  0.29212397  1.0
  Ni  Ni859  1  0.64353017  0.52601133  0.29212397  1.0
  Ni  Ni860  1  0.64353017  0.85934467  0.29212398  1.0
  Ni  Ni861  1  0.97686350  0.19267800  0.29212398  1.0
  Ni  Ni862  1  0.97686350  0.52601133  0.29212398  1.0
  Ni  Ni863  1  0.97686350  0.85934467  0.29212397  1.0
  Ni  Ni864  1  0.08802300  0.19267800  0.22547182  1.0
  Ni  Ni865  1  0.08802300  0.52601133  0.22547183  1.0
  Ni  Ni866  1  0.08802300  0.85934467  0.22547182  1.0
  Ni  Ni867  1  0.42135633  0.19267800  0.22547183  1.0
  Ni  Ni868  1  0.42135633  0.52601133  0.22547182  1.0
  Ni  Ni869  1  0.42135633  0.85934467  0.22547182  1.0
  Ni  Ni870  1  0.75468967  0.19267800  0.22547183  1.0
  Ni  Ni871  1  0.75468967  0.52601133  0.22547182  1.0
  Ni  Ni872  1  0.75468967  0.85934467  0.22547182  1.0
  Ni  Ni873  1  0.25468967  0.19267800  0.27547183  1.0
  Ni  Ni874  1  0.25468967  0.52601133  0.27547182  1.0
  Ni  Ni875  1  0.25468967  0.85934467  0.27547183  1.0
  Ni  Ni876  1  0.58802300  0.19267800  0.27547182  1.0
  Ni  Ni877  1  0.58802300  0.52601133  0.27547183  1.0
  Ni  Ni878  1  0.58802300  0.85934467  0.27547183  1.0
  Ni  Ni879  1  0.92135633  0.19267800  0.27547182  1.0
  Ni  Ni880  1  0.92135633  0.52601133  0.27547183  1.0
  Ni  Ni881  1  0.92135633  0.85934467  0.27547182  1.0
  Ni  Ni882  1  0.12316267  0.24986500  0.20999432  1.0
  Ni  Ni883  1  0.12316267  0.58319833  0.20999433  1.0
  Ni  Ni884  1  0.12316267  0.91653167  0.20999433  1.0
  Ni  Ni885  1  0.45649600  0.24986500  0.20999433  1.0
  Ni  Ni886  1  0.45649600  0.58319833  0.20999432  1.0
  Ni  Ni887  1  0.45649600  0.91653167  0.20999433  1.0
  Ni  Ni888  1  0.78982933  0.24986500  0.20999433  1.0
  Ni  Ni889  1  0.78982933  0.58319833  0.20999432  1.0
  Ni  Ni890  1  0.78982933  0.91653167  0.20999433  1.0
  Ni  Ni891  1  0.28982933  0.24986500  0.25999433  1.0
  Ni  Ni892  1  0.28982933  0.58319833  0.25999432  1.0
  Ni  Ni893  1  0.28982933  0.91653167  0.25999433  1.0
  Ni  Ni894  1  0.62316267  0.24986500  0.25999433  1.0
  Ni  Ni895  1  0.62316267  0.58319833  0.25999432  1.0
  Ni  Ni896  1  0.62316267  0.91653167  0.25999432  1.0
  Ni  Ni897  1  0.95649600  0.24986500  0.25999433  1.0
  Ni  Ni898  1  0.95649600  0.58319833  0.25999433  1.0
  Ni  Ni899  1  0.95649600  0.91653167  0.25999432  1.0
  Ni  Ni900  1  0.12174467  0.25006800  0.26077423  1.0
  Ni  Ni901  1  0.12174467  0.58340133  0.26077423  1.0
  Ni  Ni902  1  0.12174467  0.91673467  0.26077422  1.0
  Ni  Ni903  1  0.45507800  0.25006800  0.26077423  1.0
  Ni  Ni904  1  0.45507800  0.58340133  0.26077423  1.0
  Ni  Ni905  1  0.45507800  0.91673467  0.26077423  1.0
  Ni  Ni906  1  0.78841133  0.25006800  0.26077423  1.0
  Ni  Ni907  1  0.78841133  0.58340133  0.26077423  1.0
  Ni  Ni908  1  0.78841133  0.91673467  0.26077423  1.0
  Ni  Ni909  1  0.28841133  0.25006800  0.21077423  1.0
  Ni  Ni910  1  0.28841133  0.58340133  0.21077422  1.0
  Ni  Ni911  1  0.28841133  0.91673467  0.21077423  1.0
  Ni  Ni912  1  0.62174467  0.25006800  0.21077423  1.0
  Ni  Ni913  1  0.62174467  0.58340133  0.21077422  1.0
  Ni  Ni914  1  0.62174467  0.91673467  0.21077423  1.0
  Ni  Ni915  1  0.95507800  0.25006800  0.21077423  1.0
  Ni  Ni916  1  0.95507800  0.58340133  0.21077423  1.0
  Ni  Ni917  1  0.95507800  0.91673467  0.21077423  1.0
  Ni  Ni918  1  0.03913700  0.25006800  0.23599192  1.0
  Ni  Ni919  1  0.03913700  0.58340133  0.23599192  1.0
  Ni  Ni920  1  0.03913700  0.91673467  0.23599192  1.0
  Ni  Ni921  1  0.37247033  0.25006800  0.23599192  1.0
  Ni  Ni922  1  0.37247033  0.58340133  0.23599192  1.0
  Ni  Ni923  1  0.37247033  0.91673467  0.23599192  1.0
  Ni  Ni924  1  0.70580367  0.25006800  0.23599193  1.0
  Ni  Ni925  1  0.70580367  0.58340133  0.23599192  1.0
  Ni  Ni926  1  0.70580367  0.91673467  0.23599192  1.0
  Ni  Ni927  1  0.20580367  0.25006800  0.28599193  1.0
  Ni  Ni928  1  0.20580367  0.58340133  0.28599193  1.0
  Ni  Ni929  1  0.20580367  0.91673467  0.28599193  1.0
  Ni  Ni930  1  0.53913700  0.25006800  0.28599193  1.0
  Ni  Ni931  1  0.53913700  0.58340133  0.28599193  1.0
  Ni  Ni932  1  0.53913700  0.91673467  0.28599193  1.0
  Ni  Ni933  1  0.87247033  0.25006800  0.28599192  1.0
  Ni  Ni934  1  0.87247033  0.58340133  0.28599193  1.0
  Ni  Ni935  1  0.87247033  0.91673467  0.28599192  1.0
  Ni  Ni936  1  0.10304883  0.30731633  0.27792158  1.0
  Ni  Ni937  1  0.10304883  0.64064967  0.27792158  1.0
  Ni  Ni938  1  0.10304883  0.97398300  0.27792158  1.0
  Ni  Ni939  1  0.43638217  0.30731633  0.27792158  1.0
  Ni  Ni940  1  0.43638217  0.64064967  0.27792158  1.0
  Ni  Ni941  1  0.43638217  0.97398300  0.27792158  1.0
  Ni  Ni942  1  0.76971550  0.30731633  0.27792158  1.0
  Ni  Ni943  1  0.76971550  0.64064967  0.27792158  1.0
  Ni  Ni944  1  0.76971550  0.97398300  0.27792157  1.0
  Ni  Ni945  1  0.26971550  0.30731633  0.22792157  1.0
  Ni  Ni946  1  0.26971550  0.64064967  0.22792157  1.0
  Ni  Ni947  1  0.26971550  0.97398300  0.22792157  1.0
  Ni  Ni948  1  0.60304883  0.30731633  0.22792158  1.0
  Ni  Ni949  1  0.60304883  0.64064967  0.22792157  1.0
  Ni  Ni950  1  0.60304883  0.97398300  0.22792157  1.0
  Ni  Ni951  1  0.93638217  0.30731633  0.22792158  1.0
  Ni  Ni952  1  0.93638217  0.64064967  0.22792157  1.0
  Ni  Ni953  1  0.93638217  0.97398300  0.22792157  1.0
  Ni  Ni954  1  0.15794850  0.30731633  0.29439148  1.0
  Ni  Ni955  1  0.15794850  0.64064967  0.29439147  1.0
  Ni  Ni956  1  0.15794850  0.97398300  0.29439148  1.0
  Ni  Ni957  1  0.49128183  0.30731633  0.29439148  1.0
  Ni  Ni958  1  0.49128183  0.64064967  0.29439147  1.0
  Ni  Ni959  1  0.49128183  0.97398300  0.29439148  1.0
  Ni  Ni960  1  0.82461517  0.30731633  0.29439148  1.0
  Ni  Ni961  1  0.82461517  0.64064967  0.29439148  1.0
  Ni  Ni962  1  0.82461517  0.97398300  0.29439148  1.0
  Ni  Ni963  1  0.32461517  0.30731633  0.24439148  1.0
  Ni  Ni964  1  0.32461517  0.64064967  0.24439148  1.0
  Ni  Ni965  1  0.32461517  0.97398300  0.24439147  1.0
  Ni  Ni966  1  0.65794850  0.30731633  0.24439148  1.0
  Ni  Ni967  1  0.65794850  0.64064967  0.24439148  1.0
  Ni  Ni968  1  0.65794850  0.97398300  0.24439147  1.0
  Ni  Ni969  1  0.99128183  0.30731633  0.24439148  1.0
  Ni  Ni970  1  0.99128183  0.64064967  0.24439148  1.0
  Ni  Ni971  1  0.99128183  0.97398300  0.24439148  1.0
  Zr  Zr972  1  0.12214150  0.03785233  0.37451717  1.0
  Zr  Zr973  1  0.12214150  0.37118567  0.37451717  1.0
  Zr  Zr974  1  0.12214150  0.70451900  0.37451717  1.0
  Zr  Zr975  1  0.45547483  0.03785233  0.37451717  1.0
  Zr  Zr976  1  0.45547483  0.37118567  0.37451717  1.0
  Zr  Zr977  1  0.45547483  0.70451900  0.37451717  1.0
  Zr  Zr978  1  0.78880817  0.03785233  0.37451717  1.0
  Zr  Zr979  1  0.78880817  0.37118567  0.37451717  1.0
  Zr  Zr980  1  0.78880817  0.70451900  0.37451717  1.0
  Zr  Zr981  1  0.28880817  0.03785233  0.32451718  1.0
  Zr  Zr982  1  0.28880817  0.37118567  0.32451718  1.0
  Zr  Zr983  1  0.28880817  0.70451900  0.32451718  1.0
  Zr  Zr984  1  0.62214150  0.03785233  0.32451718  1.0
  Zr  Zr985  1  0.62214150  0.37118567  0.32451718  1.0
  Zr  Zr986  1  0.62214150  0.70451900  0.32451718  1.0
  Zr  Zr987  1  0.95547483  0.03785233  0.32451718  1.0
  Zr  Zr988  1  0.95547483  0.37118567  0.32451717  1.0
  Zr  Zr989  1  0.95547483  0.70451900  0.32451717  1.0
  Zr  Zr990  1  0.13179633  0.12842467  0.33865612  1.0
  Zr  Zr991  1  0.13179633  0.46175800  0.33865612  1.0
  Zr  Zr992  1  0.13179633  0.79509133  0.33865613  1.0
  Zr  Zr993  1  0.46512967  0.12842467  0.33865612  1.0
  Zr  Zr994  1  0.46512967  0.46175800  0.33865612  1.0
  Zr  Zr995  1  0.46512967  0.79509133  0.33865613  1.0
  Zr  Zr996  1  0.79846300  0.12842467  0.33865613  1.0
  Zr  Zr997  1  0.79846300  0.46175800  0.33865612  1.0
  Zr  Zr998  1  0.79846300  0.79509133  0.33865613  1.0
  Zr  Zr999  1  0.29846300  0.12842467  0.38865613  1.0
  Zr  Zr1000  1  0.29846300  0.46175800  0.38865613  1.0
  Zr  Zr1001  1  0.29846300  0.79509133  0.38865613  1.0
  Zr  Zr1002  1  0.63179633  0.12842467  0.38865612  1.0
  Zr  Zr1003  1  0.63179633  0.46175800  0.38865613  1.0
  Zr  Zr1004  1  0.63179633  0.79509133  0.38865613  1.0
  Zr  Zr1005  1  0.96512967  0.12842467  0.38865613  1.0
  Zr  Zr1006  1  0.96512967  0.46175800  0.38865613  1.0
  Zr  Zr1007  1  0.96512967  0.79509133  0.38865613  1.0
  Zr  Zr1008  1  0.03487033  0.20490867  0.30294432  1.0
  Zr  Zr1009  1  0.03487033  0.53824200  0.30294432  1.0
  Zr  Zr1010  1  0.03487033  0.87157533  0.30294432  1.0
  Zr  Zr1011  1  0.36820367  0.20490867  0.30294432  1.0
  Zr  Zr1012  1  0.36820367  0.53824200  0.30294432  1.0
  Zr  Zr1013  1  0.36820367  0.87157533  0.30294433  1.0
  Zr  Zr1014  1  0.70153700  0.20490867  0.30294432  1.0
  Zr  Zr1015  1  0.70153700  0.53824200  0.30294432  1.0
  Zr  Zr1016  1  0.70153700  0.87157533  0.30294432  1.0
  Zr  Zr1017  1  0.20153700  0.20490867  0.35294432  1.0
  Zr  Zr1018  1  0.20153700  0.53824200  0.35294432  1.0
  Zr  Zr1019  1  0.20153700  0.87157533  0.35294433  1.0
  Zr  Zr1020  1  0.53487033  0.20490867  0.35294432  1.0
  Zr  Zr1021  1  0.53487033  0.53824200  0.35294433  1.0
  Zr  Zr1022  1  0.53487033  0.87157533  0.35294432  1.0
  Zr  Zr1023  1  0.86820367  0.20490867  0.35294432  1.0
  Zr  Zr1024  1  0.86820367  0.53824200  0.35294433  1.0
  Zr  Zr1025  1  0.86820367  0.87157533  0.35294432  1.0
  Zr  Zr1026  1  0.04452517  0.29548100  0.36708328  1.0
  Zr  Zr1027  1  0.04452517  0.62881433  0.36708328  1.0
  Zr  Zr1028  1  0.04452517  0.96214767  0.36708328  1.0
  Zr  Zr1029  1  0.37785850  0.29548100  0.36708328  1.0
  Zr  Zr1030  1  0.37785850  0.62881433  0.36708328  1.0
  Zr  Zr1031  1  0.37785850  0.96214767  0.36708328  1.0
  Zr  Zr1032  1  0.71119183  0.29548100  0.36708328  1.0
  Zr  Zr1033  1  0.71119183  0.62881433  0.36708327  1.0
  Zr  Zr1034  1  0.71119183  0.96214767  0.36708327  1.0
  Zr  Zr1035  1  0.21119183  0.29548100  0.31708327  1.0
  Zr  Zr1036  1  0.21119183  0.62881433  0.31708327  1.0
  Zr  Zr1037  1  0.21119183  0.96214767  0.31708327  1.0
  Zr  Zr1038  1  0.54452517  0.29548100  0.31708327  1.0
  Zr  Zr1039  1  0.54452517  0.62881433  0.31708327  1.0
  Zr  Zr1040  1  0.54452517  0.96214767  0.31708327  1.0
  Zr  Zr1041  1  0.87785850  0.29548100  0.31708327  1.0
  Zr  Zr1042  1  0.87785850  0.62881433  0.31708327  1.0
  Zr  Zr1043  1  0.87785850  0.96214767  0.31708327  1.0
  Ni  Ni1044  1  0.06361783  0.02601700  0.36367888  1.0
  Ni  Ni1045  1  0.06361783  0.35935033  0.36367887  1.0
  Ni  Ni1046  1  0.06361783  0.69268367  0.36367888  1.0
  Ni  Ni1047  1  0.39695117  0.02601700  0.36367888  1.0
  Ni  Ni1048  1  0.39695117  0.35935033  0.36367887  1.0
  Ni  Ni1049  1  0.39695117  0.69268367  0.36367888  1.0
  Ni  Ni1050  1  0.73028450  0.02601700  0.36367888  1.0
  Ni  Ni1051  1  0.73028450  0.35935033  0.36367887  1.0
  Ni  Ni1052  1  0.73028450  0.69268367  0.36367888  1.0
  Ni  Ni1053  1  0.23028450  0.02601700  0.31367888  1.0
  Ni  Ni1054  1  0.23028450  0.35935033  0.31367887  1.0
  Ni  Ni1055  1  0.23028450  0.69268367  0.31367888  1.0
  Ni  Ni1056  1  0.56361783  0.02601700  0.31367888  1.0
  Ni  Ni1057  1  0.56361783  0.35935033  0.31367888  1.0
  Ni  Ni1058  1  0.56361783  0.69268367  0.31367888  1.0
  Ni  Ni1059  1  0.89695117  0.02601700  0.31367888  1.0
  Ni  Ni1060  1  0.89695117  0.35935033  0.31367888  1.0
  Ni  Ni1061  1  0.89695117  0.69268367  0.31367888  1.0
  Ni  Ni1062  1  0.00871817  0.02601700  0.34720897  1.0
  Ni  Ni1063  1  0.00871817  0.35935033  0.34720897  1.0
  Ni  Ni1064  1  0.00871817  0.69268367  0.34720897  1.0
  Ni  Ni1065  1  0.34205150  0.02601700  0.34720897  1.0
  Ni  Ni1066  1  0.34205150  0.35935033  0.34720898  1.0
  Ni  Ni1067  1  0.34205150  0.69268367  0.34720897  1.0
  Ni  Ni1068  1  0.67538483  0.02601700  0.34720898  1.0
  Ni  Ni1069  1  0.67538483  0.35935033  0.34720898  1.0
  Ni  Ni1070  1  0.67538483  0.69268367  0.34720897  1.0
  Ni  Ni1071  1  0.17538483  0.02601700  0.39720897  1.0
  Ni  Ni1072  1  0.17538483  0.35935033  0.39720897  1.0
  Ni  Ni1073  1  0.17538483  0.69268367  0.39720898  1.0
  Ni  Ni1074  1  0.50871817  0.02601700  0.39720898  1.0
  Ni  Ni1075  1  0.50871817  0.35935033  0.39720897  1.0
  Ni  Ni1076  1  0.50871817  0.69268367  0.39720897  1.0
  Ni  Ni1077  1  0.84205150  0.02601700  0.39720898  1.0
  Ni  Ni1078  1  0.84205150  0.35935033  0.39720897  1.0
  Ni  Ni1079  1  0.84205150  0.69268367  0.39720898  1.0
  Ni  Ni1080  1  0.04492200  0.08326533  0.38082622  1.0
  Ni  Ni1081  1  0.04492200  0.41659867  0.38082622  1.0
  Ni  Ni1082  1  0.04492200  0.74993200  0.38082622  1.0
  Ni  Ni1083  1  0.37825533  0.08326533  0.38082622  1.0
  Ni  Ni1084  1  0.37825533  0.41659867  0.38082622  1.0
  Ni  Ni1085  1  0.37825533  0.74993200  0.38082622  1.0
  Ni  Ni1086  1  0.71158867  0.08326533  0.38082623  1.0
  Ni  Ni1087  1  0.71158867  0.41659867  0.38082622  1.0
  Ni  Ni1088  1  0.71158867  0.74993200  0.38082622  1.0
  Ni  Ni1089  1  0.21158867  0.08326533  0.33082622  1.0
  Ni  Ni1090  1  0.21158867  0.41659867  0.33082622  1.0
  Ni  Ni1091  1  0.21158867  0.74993200  0.33082623  1.0
  Ni  Ni1092  1  0.54492200  0.08326533  0.33082623  1.0
  Ni  Ni1093  1  0.54492200  0.41659867  0.33082622  1.0
  Ni  Ni1094  1  0.54492200  0.74993200  0.33082623  1.0
  Ni  Ni1095  1  0.87825533  0.08326533  0.33082623  1.0
  Ni  Ni1096  1  0.87825533  0.41659867  0.33082623  1.0
  Ni  Ni1097  1  0.87825533  0.74993200  0.33082623  1.0
  Ni  Ni1098  1  0.12752967  0.08326533  0.30560853  1.0
  Ni  Ni1099  1  0.12752967  0.41659867  0.30560853  1.0
  Ni  Ni1100  1  0.12752967  0.74993200  0.30560853  1.0
  Ni  Ni1101  1  0.46086300  0.08326533  0.30560853  1.0
  Ni  Ni1102  1  0.46086300  0.41659867  0.30560853  1.0
  Ni  Ni1103  1  0.46086300  0.74993200  0.30560853  1.0
  Ni  Ni1104  1  0.79419633  0.08326533  0.30560853  1.0
  Ni  Ni1105  1  0.79419633  0.41659867  0.30560853  1.0
  Ni  Ni1106  1  0.79419633  0.74993200  0.30560853  1.0
  Ni  Ni1107  1  0.29419633  0.08326533  0.35560853  1.0
  Ni  Ni1108  1  0.29419633  0.41659867  0.35560853  1.0
  Ni  Ni1109  1  0.29419633  0.74993200  0.35560853  1.0
  Ni  Ni1110  1  0.62752967  0.08326533  0.35560853  1.0
  Ni  Ni1111  1  0.62752967  0.41659867  0.35560853  1.0
  Ni  Ni1112  1  0.62752967  0.74993200  0.35560853  1.0
  Ni  Ni1113  1  0.96086300  0.08326533  0.35560853  1.0
  Ni  Ni1114  1  0.96086300  0.41659867  0.35560853  1.0
  Ni  Ni1115  1  0.96086300  0.74993200  0.35560853  1.0
  Ni  Ni1116  1  0.04350400  0.08346833  0.33160612  1.0
  Ni  Ni1117  1  0.04350400  0.41680167  0.33160612  1.0
  Ni  Ni1118  1  0.04350400  0.75013500  0.33160613  1.0
  Ni  Ni1119  1  0.37683733  0.08346833  0.33160613  1.0
  Ni  Ni1120  1  0.37683733  0.41680167  0.33160612  1.0
  Ni  Ni1121  1  0.37683733  0.75013500  0.33160613  1.0
  Ni  Ni1122  1  0.71017067  0.08346833  0.33160613  1.0
  Ni  Ni1123  1  0.71017067  0.41680167  0.33160612  1.0
  Ni  Ni1124  1  0.71017067  0.75013500  0.33160612  1.0
  Ni  Ni1125  1  0.21017067  0.08346833  0.38160613  1.0
  Ni  Ni1126  1  0.21017067  0.41680167  0.38160612  1.0
  Ni  Ni1127  1  0.21017067  0.75013500  0.38160612  1.0
  Ni  Ni1128  1  0.54350400  0.08346833  0.38160613  1.0
  Ni  Ni1129  1  0.54350400  0.41680167  0.38160612  1.0
  Ni  Ni1130  1  0.54350400  0.75013500  0.38160612  1.0
  Ni  Ni1131  1  0.87683733  0.08346833  0.38160613  1.0
  Ni  Ni1132  1  0.87683733  0.41680167  0.38160612  1.0
  Ni  Ni1133  1  0.87683733  0.75013500  0.38160613  1.0
  Ni  Ni1134  1  0.02313650  0.14065533  0.39947647  1.0
  Ni  Ni1135  1  0.02313650  0.47398867  0.39947647  1.0
  Ni  Ni1136  1  0.02313650  0.80732200  0.39947647  1.0
  Ni  Ni1137  1  0.35646983  0.14065533  0.39947647  1.0
  Ni  Ni1138  1  0.35646983  0.47398867  0.39947647  1.0
  Ni  Ni1139  1  0.35646983  0.80732200  0.39947647  1.0
  Ni  Ni1140  1  0.68980317  0.14065533  0.39947648  1.0
  Ni  Ni1141  1  0.68980317  0.47398867  0.39947647  1.0
  Ni  Ni1142  1  0.68980317  0.80732200  0.39947647  1.0
  Ni  Ni1143  1  0.18980317  0.14065533  0.34947648  1.0
  Ni  Ni1144  1  0.18980317  0.47398867  0.34947648  1.0
  Ni  Ni1145  1  0.18980317  0.80732200  0.34947648  1.0
  Ni  Ni1146  1  0.52313650  0.14065533  0.34947648  1.0
  Ni  Ni1147  1  0.52313650  0.47398867  0.34947648  1.0
  Ni  Ni1148  1  0.52313650  0.80732200  0.34947648  1.0
  Ni  Ni1149  1  0.85646983  0.14065533  0.34947648  1.0
  Ni  Ni1150  1  0.85646983  0.47398867  0.34947647  1.0
  Ni  Ni1151  1  0.85646983  0.80732200  0.34947647  1.0
  Ni  Ni1152  1  0.07864367  0.14065533  0.31612862  1.0
  Ni  Ni1153  1  0.07864367  0.47398867  0.31612862  1.0
  Ni  Ni1154  1  0.07864367  0.80732200  0.31612862  1.0
  Ni  Ni1155  1  0.41197700  0.14065533  0.31612863  1.0
  Ni  Ni1156  1  0.41197700  0.47398867  0.31612862  1.0
  Ni  Ni1157  1  0.41197700  0.80732200  0.31612862  1.0
  Ni  Ni1158  1  0.74531033  0.14065533  0.31612863  1.0
  Ni  Ni1159  1  0.74531033  0.47398867  0.31612862  1.0
  Ni  Ni1160  1  0.74531033  0.80732200  0.31612863  1.0
  Ni  Ni1161  1  0.24531033  0.14065533  0.36612862  1.0
  Ni  Ni1162  1  0.24531033  0.47398867  0.36612862  1.0
  Ni  Ni1163  1  0.24531033  0.80732200  0.36612862  1.0
  Ni  Ni1164  1  0.57864367  0.14065533  0.36612862  1.0
  Ni  Ni1165  1  0.57864367  0.47398867  0.36612862  1.0
  Ni  Ni1166  1  0.57864367  0.80732200  0.36612862  1.0
  Ni  Ni1167  1  0.91197700  0.14065533  0.36612862  1.0
  Ni  Ni1168  1  0.91197700  0.47398867  0.36612862  1.0
  Ni  Ni1169  1  0.91197700  0.80732200  0.36612862  1.0
  Ni  Ni1170  1  0.14353017  0.19267800  0.34212398  1.0
  Ni  Ni1171  1  0.14353017  0.52601133  0.34212398  1.0
  Ni  Ni1172  1  0.14353017  0.85934467  0.34212398  1.0
  Ni  Ni1173  1  0.47686350  0.19267800  0.34212398  1.0
  Ni  Ni1174  1  0.47686350  0.52601133  0.34212398  1.0
  Ni  Ni1175  1  0.47686350  0.85934467  0.34212398  1.0
  Ni  Ni1176  1  0.81019683  0.19267800  0.34212398  1.0
  Ni  Ni1177  1  0.81019683  0.52601133  0.34212398  1.0
  Ni  Ni1178  1  0.81019683  0.85934467  0.34212398  1.0
  Ni  Ni1179  1  0.31019683  0.19267800  0.39212397  1.0
  Ni  Ni1180  1  0.31019683  0.52601133  0.39212397  1.0
  Ni  Ni1181  1  0.31019683  0.85934467  0.39212398  1.0
  Ni  Ni1182  1  0.64353017  0.19267800  0.39212397  1.0
  Ni  Ni1183  1  0.64353017  0.52601133  0.39212397  1.0
  Ni  Ni1184  1  0.64353017  0.85934467  0.39212398  1.0
  Ni  Ni1185  1  0.97686350  0.19267800  0.39212398  1.0
  Ni  Ni1186  1  0.97686350  0.52601133  0.39212398  1.0
  Ni  Ni1187  1  0.97686350  0.85934467  0.39212397  1.0
  Ni  Ni1188  1  0.08802300  0.19267800  0.32547182  1.0
  Ni  Ni1189  1  0.08802300  0.52601133  0.32547182  1.0
  Ni  Ni1190  1  0.08802300  0.85934467  0.32547182  1.0
  Ni  Ni1191  1  0.42135633  0.19267800  0.32547183  1.0
  Ni  Ni1192  1  0.42135633  0.52601133  0.32547183  1.0
  Ni  Ni1193  1  0.42135633  0.85934467  0.32547182  1.0
  Ni  Ni1194  1  0.75468967  0.19267800  0.32547183  1.0
  Ni  Ni1195  1  0.75468967  0.52601133  0.32547183  1.0
  Ni  Ni1196  1  0.75468967  0.85934467  0.32547182  1.0
  Ni  Ni1197  1  0.25468967  0.19267800  0.37547183  1.0
  Ni  Ni1198  1  0.25468967  0.52601133  0.37547183  1.0
  Ni  Ni1199  1  0.25468967  0.85934467  0.37547183  1.0
  Ni  Ni1200  1  0.58802300  0.19267800  0.37547183  1.0
  Ni  Ni1201  1  0.58802300  0.52601133  0.37547182  1.0
  Ni  Ni1202  1  0.58802300  0.85934467  0.37547183  1.0
  Ni  Ni1203  1  0.92135633  0.19267800  0.37547182  1.0
  Ni  Ni1204  1  0.92135633  0.52601133  0.37547182  1.0
  Ni  Ni1205  1  0.92135633  0.85934467  0.37547182  1.0
  Ni  Ni1206  1  0.12316267  0.24986500  0.30999432  1.0
  Ni  Ni1207  1  0.12316267  0.58319833  0.30999433  1.0
  Ni  Ni1208  1  0.12316267  0.91653167  0.30999433  1.0
  Ni  Ni1209  1  0.45649600  0.24986500  0.30999433  1.0
  Ni  Ni1210  1  0.45649600  0.58319833  0.30999433  1.0
  Ni  Ni1211  1  0.45649600  0.91653167  0.30999433  1.0
  Ni  Ni1212  1  0.78982933  0.24986500  0.30999432  1.0
  Ni  Ni1213  1  0.78982933  0.58319833  0.30999433  1.0
  Ni  Ni1214  1  0.78982933  0.91653167  0.30999432  1.0
  Ni  Ni1215  1  0.28982933  0.24986500  0.35999433  1.0
  Ni  Ni1216  1  0.28982933  0.58319833  0.35999433  1.0
  Ni  Ni1217  1  0.28982933  0.91653167  0.35999433  1.0
  Ni  Ni1218  1  0.62316267  0.24986500  0.35999433  1.0
  Ni  Ni1219  1  0.62316267  0.58319833  0.35999433  1.0
  Ni  Ni1220  1  0.62316267  0.91653167  0.35999432  1.0
  Ni  Ni1221  1  0.95649600  0.24986500  0.35999433  1.0
  Ni  Ni1222  1  0.95649600  0.58319833  0.35999433  1.0
  Ni  Ni1223  1  0.95649600  0.91653167  0.35999433  1.0
  Ni  Ni1224  1  0.12174467  0.25006800  0.36077422  1.0
  Ni  Ni1225  1  0.12174467  0.58340133  0.36077422  1.0
  Ni  Ni1226  1  0.12174467  0.91673467  0.36077422  1.0
  Ni  Ni1227  1  0.45507800  0.25006800  0.36077422  1.0
  Ni  Ni1228  1  0.45507800  0.58340133  0.36077423  1.0
  Ni  Ni1229  1  0.45507800  0.91673467  0.36077422  1.0
  Ni  Ni1230  1  0.78841133  0.25006800  0.36077422  1.0
  Ni  Ni1231  1  0.78841133  0.58340133  0.36077422  1.0
  Ni  Ni1232  1  0.78841133  0.91673467  0.36077422  1.0
  Ni  Ni1233  1  0.28841133  0.25006800  0.31077423  1.0
  Ni  Ni1234  1  0.28841133  0.58340133  0.31077423  1.0
  Ni  Ni1235  1  0.28841133  0.91673467  0.31077423  1.0
  Ni  Ni1236  1  0.62174467  0.25006800  0.31077422  1.0
  Ni  Ni1237  1  0.62174467  0.58340133  0.31077423  1.0
  Ni  Ni1238  1  0.62174467  0.91673467  0.31077422  1.0
  Ni  Ni1239  1  0.95507800  0.25006800  0.31077423  1.0
  Ni  Ni1240  1  0.95507800  0.58340133  0.31077423  1.0
  Ni  Ni1241  1  0.95507800  0.91673467  0.31077423  1.0
  Ni  Ni1242  1  0.03913700  0.25006800  0.33599192  1.0
  Ni  Ni1243  1  0.03913700  0.58340133  0.33599192  1.0
  Ni  Ni1244  1  0.03913700  0.91673467  0.33599193  1.0
  Ni  Ni1245  1  0.37247033  0.25006800  0.33599192  1.0
  Ni  Ni1246  1  0.37247033  0.58340133  0.33599193  1.0
  Ni  Ni1247  1  0.37247033  0.91673467  0.33599192  1.0
  Ni  Ni1248  1  0.70580367  0.25006800  0.33599192  1.0
  Ni  Ni1249  1  0.70580367  0.58340133  0.33599193  1.0
  Ni  Ni1250  1  0.70580367  0.91673467  0.33599192  1.0
  Ni  Ni1251  1  0.20580367  0.25006800  0.38599193  1.0
  Ni  Ni1252  1  0.20580367  0.58340133  0.38599193  1.0
  Ni  Ni1253  1  0.20580367  0.91673467  0.38599193  1.0
  Ni  Ni1254  1  0.53913700  0.25006800  0.38599193  1.0
  Ni  Ni1255  1  0.53913700  0.58340133  0.38599193  1.0
  Ni  Ni1256  1  0.53913700  0.91673467  0.38599192  1.0
  Ni  Ni1257  1  0.87247033  0.25006800  0.38599192  1.0
  Ni  Ni1258  1  0.87247033  0.58340133  0.38599193  1.0
  Ni  Ni1259  1  0.87247033  0.91673467  0.38599192  1.0
  Ni  Ni1260  1  0.10304883  0.30731633  0.37792158  1.0
  Ni  Ni1261  1  0.10304883  0.64064967  0.37792158  1.0
  Ni  Ni1262  1  0.10304883  0.97398300  0.37792158  1.0
  Ni  Ni1263  1  0.43638217  0.30731633  0.37792158  1.0
  Ni  Ni1264  1  0.43638217  0.64064967  0.37792158  1.0
  Ni  Ni1265  1  0.43638217  0.97398300  0.37792158  1.0
  Ni  Ni1266  1  0.76971550  0.30731633  0.37792158  1.0
  Ni  Ni1267  1  0.76971550  0.64064967  0.37792158  1.0
  Ni  Ni1268  1  0.76971550  0.97398300  0.37792158  1.0
  Ni  Ni1269  1  0.26971550  0.30731633  0.32792158  1.0
  Ni  Ni1270  1  0.26971550  0.64064967  0.32792157  1.0
  Ni  Ni1271  1  0.26971550  0.97398300  0.32792157  1.0
  Ni  Ni1272  1  0.60304883  0.30731633  0.32792158  1.0
  Ni  Ni1273  1  0.60304883  0.64064967  0.32792157  1.0
  Ni  Ni1274  1  0.60304883  0.97398300  0.32792157  1.0
  Ni  Ni1275  1  0.93638217  0.30731633  0.32792158  1.0
  Ni  Ni1276  1  0.93638217  0.64064967  0.32792157  1.0
  Ni  Ni1277  1  0.93638217  0.97398300  0.32792158  1.0
  Ni  Ni1278  1  0.15794850  0.30731633  0.39439147  1.0
  Ni  Ni1279  1  0.15794850  0.64064967  0.39439147  1.0
  Ni  Ni1280  1  0.15794850  0.97398300  0.39439147  1.0
  Ni  Ni1281  1  0.49128183  0.30731633  0.39439148  1.0
  Ni  Ni1282  1  0.49128183  0.64064967  0.39439147  1.0
  Ni  Ni1283  1  0.49128183  0.97398300  0.39439148  1.0
  Ni  Ni1284  1  0.82461517  0.30731633  0.39439148  1.0
  Ni  Ni1285  1  0.82461517  0.64064967  0.39439148  1.0
  Ni  Ni1286  1  0.82461517  0.97398300  0.39439148  1.0
  Ni  Ni1287  1  0.32461517  0.30731633  0.34439148  1.0
  Ni  Ni1288  1  0.32461517  0.64064967  0.34439148  1.0
  Ni  Ni1289  1  0.32461517  0.97398300  0.34439147  1.0
  Ni  Ni1290  1  0.65794850  0.30731633  0.34439148  1.0
  Ni  Ni1291  1  0.65794850  0.64064967  0.34439148  1.0
  Ni  Ni1292  1  0.65794850  0.97398300  0.34439147  1.0
  Ni  Ni1293  1  0.99128183  0.30731633  0.34439148  1.0
  Ni  Ni1294  1  0.99128183  0.64064967  0.34439148  1.0
  Ni  Ni1295  1  0.99128183  0.97398300  0.34439148  1.0
