# generated using pymatgen
data_Zr6Ni23
_symmetry_space_group_name_H-M   'P 1'
_cell_length_a   24.24041667
_cell_length_b   59.37665199
_cell_length_c   33.31526611
_cell_angle_alpha   101.42175366
_cell_angle_beta   90.00000000
_cell_angle_gamma   90.00000000
_symmetry_Int_Tables_number   1
_chemical_formula_structural   Zr6Ni23
_chemical_formula_sum   'Zr324 Ni1242'
_cell_volume   47001.53322162
_cell_formula_units_Z   54
loop_
 _symmetry_equiv_pos_site_id
 _symmetry_equiv_pos_as_xyz
  1  'x, y, z'
loop_
 _atom_site_type_symbol
 _atom_site_label
 _atom_site_symmetry_multiplicity
 _atom_site_fract_x
 _atom_site_fract_y
 _atom_site_fract_z
 _atom_site_occupancy
  Ni  Ni0  1  0.00000000  0.24163171  0.13755243  1.0
  Ni  Ni1  1  0.00000000  0.57496505  0.13755243  1.0
  Ni  Ni2  1  0.00000000  0.90829838  0.13755243  1.0
  Ni  Ni3  1  0.33333333  0.24163171  0.13755243  1.0
  Ni  Ni4  1  0.33333333  0.57496505  0.13755243  1.0
  Ni  Ni5  1  0.33333333  0.90829838  0.13755243  1.0
  Ni  Ni6  1  0.66666667  0.24163171  0.13755243  1.0
  Ni  Ni7  1  0.66666667  0.57496505  0.13755243  1.0
  Ni  Ni8  1  0.66666667  0.90829838  0.13755243  1.0
  Ni  Ni9  1  0.16666667  0.12258410  0.06612386  1.0
  Ni  Ni10  1  0.16666667  0.45591743  0.06612386  1.0
  Ni  Ni11  1  0.16666667  0.78925076  0.06612386  1.0
  Ni  Ni12  1  0.50000000  0.12258410  0.06612386  1.0
  Ni  Ni13  1  0.50000000  0.45591743  0.06612386  1.0
  Ni  Ni14  1  0.50000000  0.78925076  0.06612386  1.0
  Ni  Ni15  1  0.83333333  0.12258410  0.06612386  1.0
  Ni  Ni16  1  0.83333333  0.45591743  0.06612386  1.0
  Ni  Ni17  1  0.83333333  0.78925076  0.06612386  1.0
  Ni  Ni18  1  0.08333333  0.18210790  0.10183814  1.0
  Ni  Ni19  1  0.08333333  0.51544124  0.10183814  1.0
  Ni  Ni20  1  0.08333333  0.84877457  0.10183814  1.0
  Ni  Ni21  1  0.41666667  0.18210790  0.10183814  1.0
  Ni  Ni22  1  0.41666667  0.51544124  0.10183814  1.0
  Ni  Ni23  1  0.41666667  0.84877457  0.10183814  1.0
  Ni  Ni24  1  0.75000000  0.18210790  0.10183814  1.0
  Ni  Ni25  1  0.75000000  0.51544124  0.10183814  1.0
  Ni  Ni26  1  0.75000000  0.84877457  0.10183814  1.0
  Ni  Ni27  1  0.25000000  0.06306029  0.03040957  1.0
  Ni  Ni28  1  0.25000000  0.39639362  0.03040957  1.0
  Ni  Ni29  1  0.25000000  0.72972695  0.03040957  1.0
  Ni  Ni30  1  0.58333333  0.06306029  0.03040957  1.0
  Ni  Ni31  1  0.58333333  0.39639362  0.03040957  1.0
  Ni  Ni32  1  0.58333333  0.72972695  0.03040957  1.0
  Ni  Ni33  1  0.91666667  0.06306029  0.03040957  1.0
  Ni  Ni34  1  0.91666667  0.39639362  0.03040957  1.0
  Ni  Ni35  1  0.91666667  0.72972695  0.03040957  1.0
  Ni  Ni36  1  0.08333333  0.22972695  0.03040957  1.0
  Ni  Ni37  1  0.08333333  0.56306029  0.03040957  1.0
  Ni  Ni38  1  0.08333333  0.89639362  0.03040957  1.0
  Ni  Ni39  1  0.41666667  0.22972695  0.03040957  1.0
  Ni  Ni40  1  0.41666667  0.56306029  0.03040957  1.0
  Ni  Ni41  1  0.41666667  0.89639362  0.03040957  1.0
  Ni  Ni42  1  0.75000000  0.22972695  0.03040957  1.0
  Ni  Ni43  1  0.75000000  0.56306029  0.03040957  1.0
  Ni  Ni44  1  0.75000000  0.89639362  0.03040957  1.0
  Ni  Ni45  1  0.25000000  0.01544124  0.10183814  1.0
  Ni  Ni46  1  0.25000000  0.34877457  0.10183814  1.0
  Ni  Ni47  1  0.25000000  0.68210790  0.10183814  1.0
  Ni  Ni48  1  0.58333333  0.01544124  0.10183814  1.0
  Ni  Ni49  1  0.58333333  0.34877457  0.10183814  1.0
  Ni  Ni50  1  0.58333333  0.68210790  0.10183814  1.0
  Ni  Ni51  1  0.91666667  0.01544124  0.10183814  1.0
  Ni  Ni52  1  0.91666667  0.34877457  0.10183814  1.0
  Ni  Ni53  1  0.91666667  0.68210790  0.10183814  1.0
  Ni  Ni54  1  0.00000000  0.12258410  0.06612386  1.0
  Ni  Ni55  1  0.00000000  0.45591743  0.06612386  1.0
  Ni  Ni56  1  0.00000000  0.78925076  0.06612386  1.0
  Ni  Ni57  1  0.33333333  0.12258410  0.06612386  1.0
  Ni  Ni58  1  0.33333333  0.45591743  0.06612386  1.0
  Ni  Ni59  1  0.33333333  0.78925076  0.06612386  1.0
  Ni  Ni60  1  0.66666667  0.12258410  0.06612386  1.0
  Ni  Ni61  1  0.66666667  0.45591743  0.06612386  1.0
  Ni  Ni62  1  0.66666667  0.78925076  0.06612386  1.0
  Ni  Ni63  1  0.16666667  0.24163171  0.13755243  1.0
  Ni  Ni64  1  0.16666667  0.57496505  0.13755243  1.0
  Ni  Ni65  1  0.16666667  0.90829838  0.13755243  1.0
  Ni  Ni66  1  0.50000000  0.24163171  0.13755243  1.0
  Ni  Ni67  1  0.50000000  0.57496505  0.13755243  1.0
  Ni  Ni68  1  0.50000000  0.90829838  0.13755243  1.0
  Ni  Ni69  1  0.83333333  0.24163171  0.13755243  1.0
  Ni  Ni70  1  0.83333333  0.57496505  0.13755243  1.0
  Ni  Ni71  1  0.83333333  0.90829838  0.13755243  1.0
  Ni  Ni72  1  0.25000000  0.22972695  0.03040957  1.0
  Ni  Ni73  1  0.25000000  0.56306029  0.03040957  1.0
  Ni  Ni74  1  0.25000000  0.89639362  0.03040957  1.0
  Ni  Ni75  1  0.58333333  0.22972695  0.03040957  1.0
  Ni  Ni76  1  0.58333333  0.56306029  0.03040957  1.0
  Ni  Ni77  1  0.58333333  0.89639362  0.03040957  1.0
  Ni  Ni78  1  0.91666667  0.22972695  0.03040957  1.0
  Ni  Ni79  1  0.91666667  0.56306029  0.03040957  1.0
  Ni  Ni80  1  0.91666667  0.89639362  0.03040957  1.0
  Ni  Ni81  1  0.08333333  0.01544124  0.10183814  1.0
  Ni  Ni82  1  0.08333333  0.34877457  0.10183814  1.0
  Ni  Ni83  1  0.08333333  0.68210790  0.10183814  1.0
  Ni  Ni84  1  0.41666667  0.01544124  0.10183814  1.0
  Ni  Ni85  1  0.41666667  0.34877457  0.10183814  1.0
  Ni  Ni86  1  0.41666667  0.68210790  0.10183814  1.0
  Ni  Ni87  1  0.75000000  0.01544124  0.10183814  1.0
  Ni  Ni88  1  0.75000000  0.34877457  0.10183814  1.0
  Ni  Ni89  1  0.75000000  0.68210790  0.10183814  1.0
  Ni  Ni90  1  0.25000000  0.18210790  0.10183814  1.0
  Ni  Ni91  1  0.25000000  0.51544124  0.10183814  1.0
  Ni  Ni92  1  0.25000000  0.84877457  0.10183814  1.0
  Ni  Ni93  1  0.58333333  0.18210790  0.10183814  1.0
  Ni  Ni94  1  0.58333333  0.51544124  0.10183814  1.0
  Ni  Ni95  1  0.58333333  0.84877457  0.10183814  1.0
  Ni  Ni96  1  0.91666667  0.18210790  0.10183814  1.0
  Ni  Ni97  1  0.91666667  0.51544124  0.10183814  1.0
  Ni  Ni98  1  0.91666667  0.84877457  0.10183814  1.0
  Ni  Ni99  1  0.08333333  0.06306029  0.03040957  1.0
  Ni  Ni100  1  0.08333333  0.39639362  0.03040957  1.0
  Ni  Ni101  1  0.08333333  0.72972695  0.03040957  1.0
  Ni  Ni102  1  0.41666667  0.06306029  0.03040957  1.0
  Ni  Ni103  1  0.41666667  0.39639362  0.03040957  1.0
  Ni  Ni104  1  0.41666667  0.72972695  0.03040957  1.0
  Ni  Ni105  1  0.75000000  0.06306029  0.03040957  1.0
  Ni  Ni106  1  0.75000000  0.39639362  0.03040957  1.0
  Ni  Ni107  1  0.75000000  0.72972695  0.03040957  1.0
  Ni  Ni108  1  0.00000000  0.28925076  0.06612386  1.0
  Ni  Ni109  1  0.00000000  0.62258410  0.06612386  1.0
  Ni  Ni110  1  0.00000000  0.95591743  0.06612386  1.0
  Ni  Ni111  1  0.33333333  0.28925076  0.06612386  1.0
  Ni  Ni112  1  0.33333333  0.62258410  0.06612386  1.0
  Ni  Ni113  1  0.33333333  0.95591743  0.06612386  1.0
  Ni  Ni114  1  0.66666667  0.28925076  0.06612386  1.0
  Ni  Ni115  1  0.66666667  0.62258410  0.06612386  1.0
  Ni  Ni116  1  0.66666667  0.95591743  0.06612386  1.0
  Ni  Ni117  1  0.16666667  0.07496505  0.13755243  1.0
  Ni  Ni118  1  0.16666667  0.40829838  0.13755243  1.0
  Ni  Ni119  1  0.16666667  0.74163171  0.13755243  1.0
  Ni  Ni120  1  0.50000000  0.07496505  0.13755243  1.0
  Ni  Ni121  1  0.50000000  0.40829838  0.13755243  1.0
  Ni  Ni122  1  0.50000000  0.74163171  0.13755243  1.0
  Ni  Ni123  1  0.83333333  0.07496505  0.13755243  1.0
  Ni  Ni124  1  0.83333333  0.40829838  0.13755243  1.0
  Ni  Ni125  1  0.83333333  0.74163171  0.13755243  1.0
  Ni  Ni126  1  0.24663845  0.10544729  0.03185024  1.0
  Ni  Ni127  1  0.24663844  0.43878062  0.03185024  1.0
  Ni  Ni128  1  0.24663845  0.77211395  0.03185024  1.0
  Ni  Ni129  1  0.57997178  0.10544729  0.03185024  1.0
  Ni  Ni130  1  0.57997178  0.43878062  0.03185024  1.0
  Ni  Ni131  1  0.57997178  0.77211395  0.03185024  1.0
  Ni  Ni132  1  0.91330511  0.10544729  0.03185024  1.0
  Ni  Ni133  1  0.91330511  0.43878062  0.03185024  1.0
  Ni  Ni134  1  0.91330511  0.77211395  0.03185024  1.0
  Ni  Ni135  1  0.07997178  0.22449491  0.10327881  1.0
  Ni  Ni136  1  0.07997178  0.55782824  0.10327881  1.0
  Ni  Ni137  1  0.07997178  0.89116157  0.10327881  1.0
  Ni  Ni138  1  0.41330511  0.22449491  0.10327881  1.0
  Ni  Ni139  1  0.41330511  0.55782824  0.10327881  1.0
  Ni  Ni140  1  0.41330511  0.89116157  0.10327881  1.0
  Ni  Ni141  1  0.74663844  0.22449491  0.10327881  1.0
  Ni  Ni142  1  0.74663844  0.55782824  0.10327881  1.0
  Ni  Ni143  1  0.74663844  0.89116157  0.10327881  1.0
  Ni  Ni144  1  0.08669489  0.10544729  0.03185024  1.0
  Ni  Ni145  1  0.08669489  0.43878062  0.03185024  1.0
  Ni  Ni146  1  0.08669489  0.77211395  0.03185024  1.0
  Ni  Ni147  1  0.42002822  0.10544729  0.03185024  1.0
  Ni  Ni148  1  0.42002822  0.43878062  0.03185024  1.0
  Ni  Ni149  1  0.42002822  0.77211395  0.03185024  1.0
  Ni  Ni150  1  0.75336156  0.10544729  0.03185024  1.0
  Ni  Ni151  1  0.75336155  0.43878062  0.03185024  1.0
  Ni  Ni152  1  0.75336156  0.77211395  0.03185024  1.0
  Ni  Ni153  1  0.25336156  0.22449491  0.10327881  1.0
  Ni  Ni154  1  0.25336156  0.55782824  0.10327881  1.0
  Ni  Ni155  1  0.25336156  0.89116157  0.10327881  1.0
  Ni  Ni156  1  0.58669489  0.22449491  0.10327881  1.0
  Ni  Ni157  1  0.58669489  0.55782824  0.10327881  1.0
  Ni  Ni158  1  0.58669489  0.89116157  0.10327881  1.0
  Ni  Ni159  1  0.92002822  0.22449491  0.10327881  1.0
  Ni  Ni160  1  0.92002822  0.55782824  0.10327881  1.0
  Ni  Ni161  1  0.92002822  0.89116157  0.10327881  1.0
  Ni  Ni162  1  0.00000000  0.33115754  0.06324252  1.0
  Ni  Ni163  1  0.00000000  0.66449087  0.06324252  1.0
  Ni  Ni164  1  0.00000000  0.99782421  0.06324252  1.0
  Ni  Ni165  1  0.33333333  0.33115754  0.06324252  1.0
  Ni  Ni166  1  0.33333333  0.66449087  0.06324252  1.0
  Ni  Ni167  1  0.33333333  0.99782421  0.06324252  1.0
  Ni  Ni168  1  0.66666667  0.33115754  0.06324252  1.0
  Ni  Ni169  1  0.66666667  0.66449087  0.06324252  1.0
  Ni  Ni170  1  0.66666667  0.99782421  0.06324252  1.0
  Ni  Ni171  1  0.16666667  0.11687183  0.13467110  1.0
  Ni  Ni172  1  0.16666667  0.45020516  0.13467110  1.0
  Ni  Ni173  1  0.16666667  0.78353849  0.13467110  1.0
  Ni  Ni174  1  0.50000000  0.11687183  0.13467110  1.0
  Ni  Ni175  1  0.50000000  0.45020516  0.13467110  1.0
  Ni  Ni176  1  0.50000000  0.78353849  0.13467110  1.0
  Ni  Ni177  1  0.83333333  0.11687183  0.13467110  1.0
  Ni  Ni178  1  0.83333333  0.45020516  0.13467110  1.0
  Ni  Ni179  1  0.83333333  0.78353849  0.13467110  1.0
  Ni  Ni180  1  0.00000000  0.28161760  0.13755243  1.0
  Ni  Ni181  1  0.00000000  0.61495094  0.13755243  1.0
  Ni  Ni182  1  0.00000000  0.94828427  0.13755243  1.0
  Ni  Ni183  1  0.33333333  0.28161760  0.13755243  1.0
  Ni  Ni184  1  0.33333333  0.61495094  0.13755243  1.0
  Ni  Ni185  1  0.33333333  0.94828427  0.13755243  1.0
  Ni  Ni186  1  0.66666667  0.28161760  0.13755243  1.0
  Ni  Ni187  1  0.66666667  0.61495094  0.13755243  1.0
  Ni  Ni188  1  0.66666667  0.94828427  0.13755243  1.0
  Ni  Ni189  1  0.16666667  0.16256999  0.06612386  1.0
  Ni  Ni190  1  0.16666667  0.49590332  0.06612386  1.0
  Ni  Ni191  1  0.16666667  0.82923665  0.06612386  1.0
  Ni  Ni192  1  0.50000000  0.16256999  0.06612386  1.0
  Ni  Ni193  1  0.50000000  0.49590332  0.06612386  1.0
  Ni  Ni194  1  0.50000000  0.82923665  0.06612386  1.0
  Ni  Ni195  1  0.83333333  0.16256999  0.06612386  1.0
  Ni  Ni196  1  0.83333333  0.49590332  0.06612386  1.0
  Ni  Ni197  1  0.83333333  0.82923665  0.06612386  1.0
  Ni  Ni198  1  0.08669489  0.13972090  0.10039748  1.0
  Ni  Ni199  1  0.08669489  0.47305424  0.10039748  1.0
  Ni  Ni200  1  0.08669489  0.80638757  0.10039748  1.0
  Ni  Ni201  1  0.42002822  0.13972090  0.10039748  1.0
  Ni  Ni202  1  0.42002822  0.47305424  0.10039748  1.0
  Ni  Ni203  1  0.42002822  0.80638757  0.10039748  1.0
  Ni  Ni204  1  0.75336156  0.13972090  0.10039748  1.0
  Ni  Ni205  1  0.75336155  0.47305424  0.10039748  1.0
  Ni  Ni206  1  0.75336155  0.80638757  0.10039748  1.0
  Ni  Ni207  1  0.25336156  0.02067328  0.02896890  1.0
  Ni  Ni208  1  0.25336156  0.35400662  0.02896890  1.0
  Ni  Ni209  1  0.25336156  0.68733995  0.02896890  1.0
  Ni  Ni210  1  0.58669489  0.02067328  0.02896890  1.0
  Ni  Ni211  1  0.58669489  0.35400662  0.02896890  1.0
  Ni  Ni212  1  0.58669489  0.68733995  0.02896890  1.0
  Ni  Ni213  1  0.92002822  0.02067328  0.02896890  1.0
  Ni  Ni214  1  0.92002822  0.35400662  0.02896890  1.0
  Ni  Ni215  1  0.92002822  0.68733995  0.02896890  1.0
  Ni  Ni216  1  0.24663844  0.13972090  0.10039748  1.0
  Ni  Ni217  1  0.24663844  0.47305424  0.10039748  1.0
  Ni  Ni218  1  0.24663844  0.80638757  0.10039748  1.0
  Ni  Ni219  1  0.57997178  0.13972090  0.10039748  1.0
  Ni  Ni220  1  0.57997178  0.47305424  0.10039748  1.0
  Ni  Ni221  1  0.57997178  0.80638757  0.10039748  1.0
  Ni  Ni222  1  0.91330511  0.13972090  0.10039748  1.0
  Ni  Ni223  1  0.91330511  0.47305424  0.10039748  1.0
  Ni  Ni224  1  0.91330511  0.80638757  0.10039748  1.0
  Ni  Ni225  1  0.07997178  0.02067329  0.02896890  1.0
  Ni  Ni226  1  0.07997178  0.35400662  0.02896891  1.0
  Ni  Ni227  1  0.07997178  0.68733995  0.02896890  1.0
  Ni  Ni228  1  0.41330511  0.02067329  0.02896890  1.0
  Ni  Ni229  1  0.41330511  0.35400662  0.02896891  1.0
  Ni  Ni230  1  0.41330511  0.68733995  0.02896890  1.0
  Ni  Ni231  1  0.74663844  0.02067329  0.02896890  1.0
  Ni  Ni232  1  0.74663844  0.35400662  0.02896891  1.0
  Ni  Ni233  1  0.74663844  0.68733995  0.02896890  1.0
  Ni  Ni234  1  0.00000000  0.24734398  0.06900519  1.0
  Ni  Ni235  1  0.00000000  0.58067732  0.06900519  1.0
  Ni  Ni236  1  0.00000000  0.91401065  0.06900519  1.0
  Ni  Ni237  1  0.33333333  0.24734398  0.06900519  1.0
  Ni  Ni238  1  0.33333333  0.58067732  0.06900519  1.0
  Ni  Ni239  1  0.33333333  0.91401065  0.06900519  1.0
  Ni  Ni240  1  0.66666667  0.24734398  0.06900519  1.0
  Ni  Ni241  1  0.66666667  0.58067732  0.06900519  1.0
  Ni  Ni242  1  0.66666667  0.91401065  0.06900519  1.0
  Ni  Ni243  1  0.16666667  0.03305827  0.14043376  1.0
  Ni  Ni244  1  0.16666667  0.36639160  0.14043376  1.0
  Ni  Ni245  1  0.16666667  0.69972494  0.14043376  1.0
  Ni  Ni246  1  0.50000000  0.03305827  0.14043376  1.0
  Ni  Ni247  1  0.50000000  0.36639160  0.14043376  1.0
  Ni  Ni248  1  0.50000000  0.69972494  0.14043376  1.0
  Ni  Ni249  1  0.83333333  0.03305827  0.14043376  1.0
  Ni  Ni250  1  0.83333333  0.36639160  0.14043376  1.0
  Ni  Ni251  1  0.83333333  0.69972494  0.14043376  1.0
  Ni  Ni252  1  0.33333333  0.20164582  0.13755243  1.0
  Ni  Ni253  1  0.33333333  0.53497916  0.13755243  1.0
  Ni  Ni254  1  0.33333333  0.86831249  0.13755243  1.0
  Ni  Ni255  1  0.66666667  0.20164582  0.13755243  1.0
  Ni  Ni256  1  0.66666667  0.53497916  0.13755243  1.0
  Ni  Ni257  1  0.66666667  0.86831249  0.13755243  1.0
  Ni  Ni258  1  1.00000000  0.20164582  0.13755243  1.0
  Ni  Ni259  1  1.00000000  0.53497916  0.13755243  1.0
  Ni  Ni260  1  1.00000000  0.86831249  0.13755243  1.0
  Ni  Ni261  1  0.16666667  0.08259821  0.06612386  1.0
  Ni  Ni262  1  0.16666667  0.41593154  0.06612386  1.0
  Ni  Ni263  1  0.16666667  0.74926487  0.06612386  1.0
  Ni  Ni264  1  0.50000000  0.08259821  0.06612386  1.0
  Ni  Ni265  1  0.50000000  0.41593154  0.06612386  1.0
  Ni  Ni266  1  0.50000000  0.74926487  0.06612386  1.0
  Ni  Ni267  1  0.83333333  0.08259821  0.06612386  1.0
  Ni  Ni268  1  0.83333333  0.41593154  0.06612386  1.0
  Ni  Ni269  1  0.83333333  0.74926487  0.06612386  1.0
  Ni  Ni270  1  0.05242911  0.31373024  0.11508281  1.0
  Ni  Ni271  1  0.05242911  0.64706357  0.11508281  1.0
  Ni  Ni272  1  0.05242911  0.98039691  0.11508281  1.0
  Ni  Ni273  1  0.38576244  0.31373024  0.11508281  1.0
  Ni  Ni274  1  0.38576244  0.64706357  0.11508281  1.0
  Ni  Ni275  1  0.38576244  0.98039691  0.11508281  1.0
  Ni  Ni276  1  0.71909578  0.31373024  0.11508281  1.0
  Ni  Ni277  1  0.71909578  0.64706357  0.11508281  1.0
  Ni  Ni278  1  0.71909578  0.98039691  0.11508281  1.0
  Ni  Ni279  1  0.21909578  0.19468262  0.04365424  1.0
  Ni  Ni280  1  0.21909578  0.52801595  0.04365424  1.0
  Ni  Ni281  1  0.21909578  0.86134929  0.04365424  1.0
  Ni  Ni282  1  0.55242911  0.19468262  0.04365424  1.0
  Ni  Ni283  1  0.55242911  0.52801595  0.04365424  1.0
  Ni  Ni284  1  0.55242911  0.86134929  0.04365424  1.0
  Ni  Ni285  1  0.88576244  0.19468262  0.04365424  1.0
  Ni  Ni286  1  0.88576244  0.52801595  0.04365424  1.0
  Ni  Ni287  1  0.88576244  0.86134929  0.04365424  1.0
  Ni  Ni288  1  0.28090422  0.31373024  0.11508281  1.0
  Ni  Ni289  1  0.28090422  0.64706357  0.11508281  1.0
  Ni  Ni290  1  0.28090422  0.98039691  0.11508281  1.0
  Ni  Ni291  1  0.61423755  0.31373024  0.11508281  1.0
  Ni  Ni292  1  0.61423755  0.64706357  0.11508281  1.0
  Ni  Ni293  1  0.61423755  0.98039691  0.11508281  1.0
  Ni  Ni294  1  0.94757089  0.31373024  0.11508281  1.0
  Ni  Ni295  1  0.94757089  0.64706357  0.11508281  1.0
  Ni  Ni296  1  0.94757089  0.98039691  0.11508281  1.0
  Ni  Ni297  1  0.11423755  0.19468262  0.04365424  1.0
  Ni  Ni298  1  0.11423755  0.52801595  0.04365424  1.0
  Ni  Ni299  1  0.11423755  0.86134929  0.04365424  1.0
  Ni  Ni300  1  0.44757089  0.19468262  0.04365424  1.0
  Ni  Ni301  1  0.44757089  0.52801595  0.04365424  1.0
  Ni  Ni302  1  0.44757089  0.86134929  0.04365424  1.0
  Ni  Ni303  1  0.78090422  0.19468262  0.04365424  1.0
  Ni  Ni304  1  0.78090422  0.52801595  0.04365424  1.0
  Ni  Ni305  1  0.78090422  0.86134929  0.04365424  1.0
  Ni  Ni306  1  0.00000000  0.08312487  0.03963452  1.0
  Ni  Ni307  1  0.00000000  0.41645821  0.03963452  1.0
  Ni  Ni308  1  0.00000000  0.74979154  0.03963452  1.0
  Ni  Ni309  1  0.33333333  0.08312487  0.03963452  1.0
  Ni  Ni310  1  0.33333333  0.41645821  0.03963452  1.0
  Ni  Ni311  1  0.33333333  0.74979154  0.03963452  1.0
  Ni  Ni312  1  0.66666667  0.08312487  0.03963452  1.0
  Ni  Ni313  1  0.66666667  0.41645821  0.03963452  1.0
  Ni  Ni314  1  0.66666667  0.74979154  0.03963452  1.0
  Ni  Ni315  1  0.16666667  0.20217249  0.11106310  1.0
  Ni  Ni316  1  0.16666667  0.53550583  0.11106310  1.0
  Ni  Ni317  1  0.16666667  0.86883916  0.11106310  1.0
  Ni  Ni318  1  0.50000000  0.20217249  0.11106310  1.0
  Ni  Ni319  1  0.50000000  0.53550583  0.11106310  1.0
  Ni  Ni320  1  0.50000000  0.86883916  0.11106310  1.0
  Ni  Ni321  1  0.83333333  0.20217249  0.11106310  1.0
  Ni  Ni322  1  0.83333333  0.53550583  0.11106310  1.0
  Ni  Ni323  1  0.83333333  0.86883916  0.11106310  1.0
  Ni  Ni324  1  0.33333333  0.01784627  0.13755243  1.0
  Ni  Ni325  1  0.33333333  0.35117960  0.13755243  1.0
  Ni  Ni326  1  0.33333333  0.68451294  0.13755243  1.0
  Ni  Ni327  1  0.66666667  0.01784627  0.13755243  1.0
  Ni  Ni328  1  0.66666667  0.35117960  0.13755243  1.0
  Ni  Ni329  1  0.66666667  0.68451294  0.13755243  1.0
  Ni  Ni330  1  1.00000000  0.01784627  0.13755243  1.0
  Ni  Ni331  1  1.00000000  0.35117960  0.13755243  1.0
  Ni  Ni332  1  1.00000000  0.68451294  0.13755243  1.0
  Ni  Ni333  1  0.16666667  0.23213199  0.06612386  1.0
  Ni  Ni334  1  0.16666667  0.56546532  0.06612386  1.0
  Ni  Ni335  1  0.16666667  0.89879865  0.06612386  1.0
  Ni  Ni336  1  0.50000000  0.23213199  0.06612386  1.0
  Ni  Ni337  1  0.50000000  0.56546532  0.06612386  1.0
  Ni  Ni338  1  0.50000000  0.89879865  0.06612386  1.0
  Ni  Ni339  1  0.83333333  0.23213199  0.06612386  1.0
  Ni  Ni340  1  0.83333333  0.56546532  0.06612386  1.0
  Ni  Ni341  1  0.83333333  0.89879865  0.06612386  1.0
  Ni  Ni342  1  0.28090422  0.26477129  0.01716490  1.0
  Ni  Ni343  1  0.28090422  0.59810462  0.01716491  1.0
  Ni  Ni344  1  0.28090422  0.93143795  0.01716491  1.0
  Ni  Ni345  1  0.61423755  0.26477129  0.01716490  1.0
  Ni  Ni346  1  0.61423755  0.59810462  0.01716490  1.0
  Ni  Ni347  1  0.61423755  0.93143795  0.01716491  1.0
  Ni  Ni348  1  0.94757089  0.26477129  0.01716490  1.0
  Ni  Ni349  1  0.94757089  0.59810462  0.01716490  1.0
  Ni  Ni350  1  0.94757089  0.93143795  0.01716491  1.0
  Ni  Ni351  1  0.11423756  0.05048557  0.08859348  1.0
  Ni  Ni352  1  0.11423756  0.38381890  0.08859348  1.0
  Ni  Ni353  1  0.11423755  0.71715224  0.08859348  1.0
  Ni  Ni354  1  0.44757089  0.05048557  0.08859348  1.0
  Ni  Ni355  1  0.44757089  0.38381890  0.08859348  1.0
  Ni  Ni356  1  0.44757089  0.71715224  0.08859348  1.0
  Ni  Ni357  1  0.78090422  0.05048557  0.08859348  1.0
  Ni  Ni358  1  0.78090422  0.38381890  0.08859348  1.0
  Ni  Ni359  1  0.78090422  0.71715224  0.08859348  1.0
  Ni  Ni360  1  0.05242911  0.26477129  0.01716490  1.0
  Ni  Ni361  1  0.05242911  0.59810462  0.01716491  1.0
  Ni  Ni362  1  0.05242911  0.93143795  0.01716490  1.0
  Ni  Ni363  1  0.38576244  0.26477129  0.01716490  1.0
  Ni  Ni364  1  0.38576244  0.59810462  0.01716490  1.0
  Ni  Ni365  1  0.38576244  0.93143795  0.01716491  1.0
  Ni  Ni366  1  0.71909578  0.26477129  0.01716490  1.0
  Ni  Ni367  1  0.71909578  0.59810462  0.01716490  1.0
  Ni  Ni368  1  0.71909578  0.93143795  0.01716490  1.0
  Ni  Ni369  1  0.21909578  0.05048557  0.08859348  1.0
  Ni  Ni370  1  0.21909578  0.38381890  0.08859348  1.0
  Ni  Ni371  1  0.21909578  0.71715224  0.08859348  1.0
  Ni  Ni372  1  0.55242911  0.05048557  0.08859348  1.0
  Ni  Ni373  1  0.55242911  0.38381890  0.08859348  1.0
  Ni  Ni374  1  0.55242911  0.71715224  0.08859348  1.0
  Ni  Ni375  1  0.88576244  0.05048557  0.08859348  1.0
  Ni  Ni376  1  0.88576244  0.38381890  0.08859348  1.0
  Ni  Ni377  1  0.88576244  0.71715224  0.08859348  1.0
  Ni  Ni378  1  0.33333333  0.16204332  0.09261319  1.0
  Ni  Ni379  1  0.33333333  0.49537665  0.09261319  1.0
  Ni  Ni380  1  0.33333333  0.82870998  0.09261319  1.0
  Ni  Ni381  1  0.66666667  0.16204332  0.09261319  1.0
  Ni  Ni382  1  0.66666667  0.49537665  0.09261319  1.0
  Ni  Ni383  1  0.66666667  0.82870998  0.09261319  1.0
  Ni  Ni384  1  1.00000000  0.16204332  0.09261319  1.0
  Ni  Ni385  1  1.00000000  0.49537665  0.09261319  1.0
  Ni  Ni386  1  1.00000000  0.82870998  0.09261319  1.0
  Ni  Ni387  1  0.16666667  0.04299570  0.02118462  1.0
  Ni  Ni388  1  0.16666667  0.37632903  0.02118462  1.0
  Ni  Ni389  1  0.16666667  0.70966236  0.02118462  1.0
  Ni  Ni390  1  0.50000000  0.04299570  0.02118462  1.0
  Ni  Ni391  1  0.50000000  0.37632903  0.02118462  1.0
  Ni  Ni392  1  0.50000000  0.70966236  0.02118462  1.0
  Ni  Ni393  1  0.83333333  0.04299570  0.02118462  1.0
  Ni  Ni394  1  0.83333333  0.37632903  0.02118462  1.0
  Ni  Ni395  1  0.83333333  0.70966236  0.02118462  1.0
  Ni  Ni396  1  0.00000000  0.13208382  0.13755243  1.0
  Ni  Ni397  1  0.00000000  0.46541716  0.13755243  1.0
  Ni  Ni398  1  0.00000000  0.79875049  0.13755243  1.0
  Ni  Ni399  1  0.33333333  0.13208382  0.13755243  1.0
  Ni  Ni400  1  0.33333333  0.46541716  0.13755243  1.0
  Ni  Ni401  1  0.33333333  0.79875049  0.13755243  1.0
  Ni  Ni402  1  0.66666667  0.13208382  0.13755243  1.0
  Ni  Ni403  1  0.66666667  0.46541716  0.13755243  1.0
  Ni  Ni404  1  0.66666667  0.79875049  0.13755243  1.0
  Ni  Ni405  1  0.16666667  0.01303621  0.06612386  1.0
  Ni  Ni406  1  0.16666667  0.34636954  0.06612386  1.0
  Ni  Ni407  1  0.16666667  0.67970287  0.06612386  1.0
  Ni  Ni408  1  0.50000000  0.01303621  0.06612386  1.0
  Ni  Ni409  1  0.50000000  0.34636954  0.06612386  1.0
  Ni  Ni410  1  0.50000000  0.67970287  0.06612386  1.0
  Ni  Ni411  1  0.83333333  0.01303621  0.06612386  1.0
  Ni  Ni412  1  0.83333333  0.34636954  0.06612386  1.0
  Ni  Ni413  1  0.83333333  0.67970287  0.06612386  1.0
  Ni  Ni414  1  0.33333333  0.14639362  0.28040957  1.0
  Ni  Ni415  1  0.33333333  0.47972695  0.28040957  1.0
  Ni  Ni416  1  0.33333333  0.81306029  0.28040957  1.0
  Ni  Ni417  1  0.66666667  0.14639362  0.28040957  1.0
  Ni  Ni418  1  0.66666667  0.47972695  0.28040957  1.0
  Ni  Ni419  1  0.66666667  0.81306029  0.28040957  1.0
  Ni  Ni420  1  1.00000000  0.14639362  0.28040957  1.0
  Ni  Ni421  1  1.00000000  0.47972695  0.28040957  1.0
  Ni  Ni422  1  1.00000000  0.81306029  0.28040957  1.0
  Ni  Ni423  1  0.16666667  0.02734600  0.20898100  1.0
  Ni  Ni424  1  0.16666667  0.36067933  0.20898100  1.0
  Ni  Ni425  1  0.16666667  0.69401267  0.20898100  1.0
  Ni  Ni426  1  0.50000000  0.02734600  0.20898100  1.0
  Ni  Ni427  1  0.50000000  0.36067933  0.20898100  1.0
  Ni  Ni428  1  0.50000000  0.69401267  0.20898100  1.0
  Ni  Ni429  1  0.83333333  0.02734600  0.20898100  1.0
  Ni  Ni430  1  0.83333333  0.36067933  0.20898100  1.0
  Ni  Ni431  1  0.83333333  0.69401267  0.20898100  1.0
  Ni  Ni432  1  0.08333333  0.08686981  0.24469529  1.0
  Ni  Ni433  1  0.08333333  0.42020314  0.24469529  1.0
  Ni  Ni434  1  0.08333333  0.75353648  0.24469529  1.0
  Ni  Ni435  1  0.41666667  0.08686981  0.24469529  1.0
  Ni  Ni436  1  0.41666667  0.42020314  0.24469529  1.0
  Ni  Ni437  1  0.41666667  0.75353648  0.24469529  1.0
  Ni  Ni438  1  0.75000000  0.08686981  0.24469529  1.0
  Ni  Ni439  1  0.75000000  0.42020314  0.24469529  1.0
  Ni  Ni440  1  0.75000000  0.75353648  0.24469529  1.0
  Ni  Ni441  1  0.25000000  0.30115552  0.17326671  1.0
  Ni  Ni442  1  0.25000000  0.63448886  0.17326671  1.0
  Ni  Ni443  1  0.25000000  0.96782219  0.17326671  1.0
  Ni  Ni444  1  0.58333333  0.30115552  0.17326671  1.0
  Ni  Ni445  1  0.58333333  0.63448886  0.17326671  1.0
  Ni  Ni446  1  0.58333333  0.96782219  0.17326671  1.0
  Ni  Ni447  1  0.91666667  0.30115552  0.17326671  1.0
  Ni  Ni448  1  0.91666667  0.63448886  0.17326671  1.0
  Ni  Ni449  1  0.91666667  0.96782219  0.17326671  1.0
  Ni  Ni450  1  0.08333333  0.13448886  0.17326671  1.0
  Ni  Ni451  1  0.08333333  0.46782219  0.17326671  1.0
  Ni  Ni452  1  0.08333333  0.80115552  0.17326671  1.0
  Ni  Ni453  1  0.41666667  0.13448886  0.17326671  1.0
  Ni  Ni454  1  0.41666667  0.46782219  0.17326671  1.0
  Ni  Ni455  1  0.41666667  0.80115552  0.17326671  1.0
  Ni  Ni456  1  0.75000000  0.13448886  0.17326671  1.0
  Ni  Ni457  1  0.75000000  0.46782219  0.17326671  1.0
  Ni  Ni458  1  0.75000000  0.80115552  0.17326671  1.0
  Ni  Ni459  1  0.25000000  0.25353648  0.24469529  1.0
  Ni  Ni460  1  0.25000000  0.58686981  0.24469529  1.0
  Ni  Ni461  1  0.25000000  0.92020314  0.24469529  1.0
  Ni  Ni462  1  0.58333333  0.25353648  0.24469529  1.0
  Ni  Ni463  1  0.58333333  0.58686981  0.24469529  1.0
  Ni  Ni464  1  0.58333333  0.92020314  0.24469529  1.0
  Ni  Ni465  1  0.91666667  0.25353648  0.24469529  1.0
  Ni  Ni466  1  0.91666667  0.58686981  0.24469529  1.0
  Ni  Ni467  1  0.91666667  0.92020314  0.24469529  1.0
  Ni  Ni468  1  0.00000000  0.02734600  0.20898100  1.0
  Ni  Ni469  1  0.00000000  0.36067933  0.20898100  1.0
  Ni  Ni470  1  0.00000000  0.69401267  0.20898100  1.0
  Ni  Ni471  1  0.33333333  0.02734600  0.20898100  1.0
  Ni  Ni472  1  0.33333333  0.36067933  0.20898100  1.0
  Ni  Ni473  1  0.33333333  0.69401267  0.20898100  1.0
  Ni  Ni474  1  0.66666667  0.02734600  0.20898100  1.0
  Ni  Ni475  1  0.66666667  0.36067933  0.20898100  1.0
  Ni  Ni476  1  0.66666667  0.69401267  0.20898100  1.0
  Ni  Ni477  1  0.16666667  0.14639362  0.28040957  1.0
  Ni  Ni478  1  0.16666667  0.47972695  0.28040957  1.0
  Ni  Ni479  1  0.16666667  0.81306029  0.28040957  1.0
  Ni  Ni480  1  0.50000000  0.14639362  0.28040957  1.0
  Ni  Ni481  1  0.50000000  0.47972695  0.28040957  1.0
  Ni  Ni482  1  0.50000000  0.81306029  0.28040957  1.0
  Ni  Ni483  1  0.83333333  0.14639362  0.28040957  1.0
  Ni  Ni484  1  0.83333333  0.47972695  0.28040957  1.0
  Ni  Ni485  1  0.83333333  0.81306029  0.28040957  1.0
  Ni  Ni486  1  0.25000000  0.13448886  0.17326671  1.0
  Ni  Ni487  1  0.25000000  0.46782219  0.17326671  1.0
  Ni  Ni488  1  0.25000000  0.80115552  0.17326671  1.0
  Ni  Ni489  1  0.58333333  0.13448886  0.17326671  1.0
  Ni  Ni490  1  0.58333333  0.46782219  0.17326671  1.0
  Ni  Ni491  1  0.58333333  0.80115552  0.17326671  1.0
  Ni  Ni492  1  0.91666667  0.13448886  0.17326671  1.0
  Ni  Ni493  1  0.91666667  0.46782219  0.17326671  1.0
  Ni  Ni494  1  0.91666667  0.80115552  0.17326671  1.0
  Ni  Ni495  1  0.08333333  0.25353648  0.24469529  1.0
  Ni  Ni496  1  0.08333333  0.58686981  0.24469529  1.0
  Ni  Ni497  1  0.08333333  0.92020314  0.24469529  1.0
  Ni  Ni498  1  0.41666667  0.25353648  0.24469529  1.0
  Ni  Ni499  1  0.41666667  0.58686981  0.24469529  1.0
  Ni  Ni500  1  0.41666667  0.92020314  0.24469529  1.0
  Ni  Ni501  1  0.75000000  0.25353648  0.24469529  1.0
  Ni  Ni502  1  0.75000000  0.58686981  0.24469529  1.0
  Ni  Ni503  1  0.75000000  0.92020314  0.24469529  1.0
  Ni  Ni504  1  0.25000000  0.08686981  0.24469529  1.0
  Ni  Ni505  1  0.25000000  0.42020314  0.24469529  1.0
  Ni  Ni506  1  0.25000000  0.75353648  0.24469529  1.0
  Ni  Ni507  1  0.58333333  0.08686981  0.24469529  1.0
  Ni  Ni508  1  0.58333333  0.42020314  0.24469529  1.0
  Ni  Ni509  1  0.58333333  0.75353648  0.24469529  1.0
  Ni  Ni510  1  0.91666667  0.08686981  0.24469529  1.0
  Ni  Ni511  1  0.91666667  0.42020314  0.24469529  1.0
  Ni  Ni512  1  0.91666667  0.75353648  0.24469529  1.0
  Ni  Ni513  1  0.08333333  0.30115552  0.17326671  1.0
  Ni  Ni514  1  0.08333333  0.63448886  0.17326671  1.0
  Ni  Ni515  1  0.08333333  0.96782219  0.17326671  1.0
  Ni  Ni516  1  0.41666667  0.30115552  0.17326671  1.0
  Ni  Ni517  1  0.41666667  0.63448886  0.17326671  1.0
  Ni  Ni518  1  0.41666667  0.96782219  0.17326671  1.0
  Ni  Ni519  1  0.75000000  0.30115552  0.17326671  1.0
  Ni  Ni520  1  0.75000000  0.63448886  0.17326671  1.0
  Ni  Ni521  1  0.75000000  0.96782219  0.17326671  1.0
  Ni  Ni522  1  0.00000000  0.19401267  0.20898100  1.0
  Ni  Ni523  1  0.00000000  0.52734600  0.20898100  1.0
  Ni  Ni524  1  0.00000000  0.86067933  0.20898100  1.0
  Ni  Ni525  1  0.33333333  0.19401267  0.20898100  1.0
  Ni  Ni526  1  0.33333333  0.52734600  0.20898100  1.0
  Ni  Ni527  1  0.33333333  0.86067933  0.20898100  1.0
  Ni  Ni528  1  0.66666667  0.19401267  0.20898100  1.0
  Ni  Ni529  1  0.66666667  0.52734600  0.20898100  1.0
  Ni  Ni530  1  0.66666667  0.86067933  0.20898100  1.0
  Ni  Ni531  1  0.16666667  0.31306029  0.28040957  1.0
  Ni  Ni532  1  0.16666667  0.64639362  0.28040957  1.0
  Ni  Ni533  1  0.16666667  0.97972695  0.28040957  1.0
  Ni  Ni534  1  0.50000000  0.31306029  0.28040957  1.0
  Ni  Ni535  1  0.50000000  0.64639362  0.28040957  1.0
  Ni  Ni536  1  0.50000000  0.97972695  0.28040957  1.0
  Ni  Ni537  1  0.83333333  0.31306029  0.28040957  1.0
  Ni  Ni538  1  0.83333333  0.64639362  0.28040957  1.0
  Ni  Ni539  1  0.83333333  0.97972695  0.28040957  1.0
  Ni  Ni540  1  0.24663845  0.01020919  0.17470738  1.0
  Ni  Ni541  1  0.24663844  0.34354252  0.17470738  1.0
  Ni  Ni542  1  0.24663845  0.67687586  0.17470738  1.0
  Ni  Ni543  1  0.57997178  0.01020919  0.17470738  1.0
  Ni  Ni544  1  0.57997178  0.34354252  0.17470738  1.0
  Ni  Ni545  1  0.57997178  0.67687586  0.17470738  1.0
  Ni  Ni546  1  0.91330511  0.01020919  0.17470738  1.0
  Ni  Ni547  1  0.91330511  0.34354252  0.17470738  1.0
  Ni  Ni548  1  0.91330511  0.67687586  0.17470738  1.0
  Ni  Ni549  1  0.07997178  0.12925681  0.24613595  1.0
  Ni  Ni550  1  0.07997178  0.46259014  0.24613595  1.0
  Ni  Ni551  1  0.07997178  0.79592348  0.24613595  1.0
  Ni  Ni552  1  0.41330511  0.12925681  0.24613595  1.0
  Ni  Ni553  1  0.41330511  0.46259014  0.24613595  1.0
  Ni  Ni554  1  0.41330511  0.79592348  0.24613595  1.0
  Ni  Ni555  1  0.74663844  0.12925681  0.24613595  1.0
  Ni  Ni556  1  0.74663844  0.46259014  0.24613595  1.0
  Ni  Ni557  1  0.74663844  0.79592348  0.24613595  1.0
  Ni  Ni558  1  0.08669489  0.01020919  0.17470738  1.0
  Ni  Ni559  1  0.08669489  0.34354252  0.17470738  1.0
  Ni  Ni560  1  0.08669489  0.67687586  0.17470738  1.0
  Ni  Ni561  1  0.42002822  0.01020919  0.17470738  1.0
  Ni  Ni562  1  0.42002822  0.34354252  0.17470738  1.0
  Ni  Ni563  1  0.42002822  0.67687586  0.17470738  1.0
  Ni  Ni564  1  0.75336155  0.01020919  0.17470738  1.0
  Ni  Ni565  1  0.75336155  0.34354252  0.17470738  1.0
  Ni  Ni566  1  0.75336155  0.67687586  0.17470738  1.0
  Ni  Ni567  1  0.25336156  0.12925681  0.24613595  1.0
  Ni  Ni568  1  0.25336155  0.46259014  0.24613595  1.0
  Ni  Ni569  1  0.25336156  0.79592348  0.24613595  1.0
  Ni  Ni570  1  0.58669489  0.12925681  0.24613595  1.0
  Ni  Ni571  1  0.58669489  0.46259014  0.24613595  1.0
  Ni  Ni572  1  0.58669489  0.79592348  0.24613595  1.0
  Ni  Ni573  1  0.92002822  0.12925681  0.24613595  1.0
  Ni  Ni574  1  0.92002822  0.46259014  0.24613595  1.0
  Ni  Ni575  1  0.92002822  0.79592348  0.24613595  1.0
  Ni  Ni576  1  0.00000000  0.23591945  0.20609967  1.0
  Ni  Ni577  1  0.00000000  0.56925278  0.20609967  1.0
  Ni  Ni578  1  0.00000000  0.90258611  0.20609967  1.0
  Ni  Ni579  1  0.33333333  0.23591945  0.20609967  1.0
  Ni  Ni580  1  0.33333333  0.56925278  0.20609967  1.0
  Ni  Ni581  1  0.33333333  0.90258611  0.20609967  1.0
  Ni  Ni582  1  0.66666667  0.23591945  0.20609967  1.0
  Ni  Ni583  1  0.66666667  0.56925278  0.20609967  1.0
  Ni  Ni584  1  0.66666667  0.90258611  0.20609967  1.0
  Ni  Ni585  1  0.16666667  0.02163373  0.27752824  1.0
  Ni  Ni586  1  0.16666667  0.35496706  0.27752824  1.0
  Ni  Ni587  1  0.16666667  0.68830040  0.27752824  1.0
  Ni  Ni588  1  0.50000000  0.02163373  0.27752824  1.0
  Ni  Ni589  1  0.50000000  0.35496706  0.27752824  1.0
  Ni  Ni590  1  0.50000000  0.68830040  0.27752824  1.0
  Ni  Ni591  1  0.83333333  0.02163373  0.27752824  1.0
  Ni  Ni592  1  0.83333333  0.35496706  0.27752824  1.0
  Ni  Ni593  1  0.83333333  0.68830040  0.27752824  1.0
  Ni  Ni594  1  0.33333333  0.18637951  0.28040957  1.0
  Ni  Ni595  1  0.33333333  0.51971284  0.28040957  1.0
  Ni  Ni596  1  0.33333333  0.85304618  0.28040957  1.0
  Ni  Ni597  1  0.66666667  0.18637951  0.28040957  1.0
  Ni  Ni598  1  0.66666667  0.51971284  0.28040957  1.0
  Ni  Ni599  1  0.66666667  0.85304618  0.28040957  1.0
  Ni  Ni600  1  1.00000000  0.18637951  0.28040957  1.0
  Ni  Ni601  1  1.00000000  0.51971284  0.28040957  1.0
  Ni  Ni602  1  1.00000000  0.85304618  0.28040957  1.0
  Ni  Ni603  1  0.16666667  0.06733189  0.20898100  1.0
  Ni  Ni604  1  0.16666667  0.40066522  0.20898100  1.0
  Ni  Ni605  1  0.16666667  0.73399856  0.20898100  1.0
  Ni  Ni606  1  0.50000000  0.06733189  0.20898100  1.0
  Ni  Ni607  1  0.50000000  0.40066522  0.20898100  1.0
  Ni  Ni608  1  0.50000000  0.73399856  0.20898100  1.0
  Ni  Ni609  1  0.83333333  0.06733189  0.20898100  1.0
  Ni  Ni610  1  0.83333333  0.40066522  0.20898100  1.0
  Ni  Ni611  1  0.83333333  0.73399856  0.20898100  1.0
  Ni  Ni612  1  0.08669489  0.04448281  0.24325462  1.0
  Ni  Ni613  1  0.08669489  0.37781614  0.24325462  1.0
  Ni  Ni614  1  0.08669489  0.71114948  0.24325462  1.0
  Ni  Ni615  1  0.42002822  0.04448281  0.24325462  1.0
  Ni  Ni616  1  0.42002822  0.37781614  0.24325462  1.0
  Ni  Ni617  1  0.42002822  0.71114948  0.24325462  1.0
  Ni  Ni618  1  0.75336155  0.04448281  0.24325462  1.0
  Ni  Ni619  1  0.75336155  0.37781614  0.24325462  1.0
  Ni  Ni620  1  0.75336155  0.71114948  0.24325462  1.0
  Ni  Ni621  1  0.25336155  0.25876852  0.17182605  1.0
  Ni  Ni622  1  0.25336155  0.59210186  0.17182605  1.0
  Ni  Ni623  1  0.25336155  0.92543519  0.17182605  1.0
  Ni  Ni624  1  0.58669489  0.25876852  0.17182605  1.0
  Ni  Ni625  1  0.58669489  0.59210186  0.17182605  1.0
  Ni  Ni626  1  0.58669489  0.92543519  0.17182605  1.0
  Ni  Ni627  1  0.92002822  0.25876852  0.17182605  1.0
  Ni  Ni628  1  0.92002822  0.59210186  0.17182605  1.0
  Ni  Ni629  1  0.92002822  0.92543519  0.17182605  1.0
  Ni  Ni630  1  0.24663844  0.04448281  0.24325462  1.0
  Ni  Ni631  1  0.24663844  0.37781614  0.24325462  1.0
  Ni  Ni632  1  0.24663844  0.71114948  0.24325462  1.0
  Ni  Ni633  1  0.57997178  0.04448281  0.24325462  1.0
  Ni  Ni634  1  0.57997178  0.37781614  0.24325462  1.0
  Ni  Ni635  1  0.57997178  0.71114948  0.24325462  1.0
  Ni  Ni636  1  0.91330511  0.04448281  0.24325462  1.0
  Ni  Ni637  1  0.91330511  0.37781614  0.24325462  1.0
  Ni  Ni638  1  0.91330511  0.71114948  0.24325462  1.0
  Ni  Ni639  1  0.07997178  0.25876852  0.17182605  1.0
  Ni  Ni640  1  0.07997178  0.59210186  0.17182605  1.0
  Ni  Ni641  1  0.07997178  0.92543519  0.17182605  1.0
  Ni  Ni642  1  0.41330511  0.25876852  0.17182605  1.0
  Ni  Ni643  1  0.41330511  0.59210186  0.17182605  1.0
  Ni  Ni644  1  0.41330511  0.92543519  0.17182605  1.0
  Ni  Ni645  1  0.74663844  0.25876852  0.17182605  1.0
  Ni  Ni646  1  0.74663844  0.59210186  0.17182605  1.0
  Ni  Ni647  1  0.74663844  0.92543519  0.17182605  1.0
  Ni  Ni648  1  0.00000000  0.15210589  0.21186233  1.0
  Ni  Ni649  1  0.00000000  0.48543922  0.21186233  1.0
  Ni  Ni650  1  0.00000000  0.81877255  0.21186233  1.0
  Ni  Ni651  1  0.33333333  0.15210589  0.21186233  1.0
  Ni  Ni652  1  0.33333333  0.48543922  0.21186233  1.0
  Ni  Ni653  1  0.33333333  0.81877255  0.21186233  1.0
  Ni  Ni654  1  0.66666667  0.15210589  0.21186233  1.0
  Ni  Ni655  1  0.66666667  0.48543922  0.21186233  1.0
  Ni  Ni656  1  0.66666667  0.81877255  0.21186233  1.0
  Ni  Ni657  1  0.16666667  0.27115351  0.28329090  1.0
  Ni  Ni658  1  0.16666667  0.60448684  0.28329090  1.0
  Ni  Ni659  1  0.16666667  0.93782017  0.28329090  1.0
  Ni  Ni660  1  0.50000000  0.27115351  0.28329090  1.0
  Ni  Ni661  1  0.50000000  0.60448684  0.28329090  1.0
  Ni  Ni662  1  0.50000000  0.93782017  0.28329090  1.0
  Ni  Ni663  1  0.83333333  0.27115351  0.28329090  1.0
  Ni  Ni664  1  0.83333333  0.60448684  0.28329090  1.0
  Ni  Ni665  1  0.83333333  0.93782017  0.28329090  1.0
  Ni  Ni666  1  0.33333333  0.10640773  0.28040957  1.0
  Ni  Ni667  1  0.33333333  0.43974106  0.28040957  1.0
  Ni  Ni668  1  0.33333333  0.77307440  0.28040957  1.0
  Ni  Ni669  1  0.66666667  0.10640773  0.28040957  1.0
  Ni  Ni670  1  0.66666667  0.43974106  0.28040957  1.0
  Ni  Ni671  1  0.66666667  0.77307440  0.28040957  1.0
  Ni  Ni672  1  1.00000000  0.10640773  0.28040957  1.0
  Ni  Ni673  1  1.00000000  0.43974106  0.28040957  1.0
  Ni  Ni674  1  1.00000000  0.77307440  0.28040957  1.0
  Ni  Ni675  1  0.16666667  0.32069344  0.20898100  1.0
  Ni  Ni676  1  0.16666667  0.65402678  0.20898100  1.0
  Ni  Ni677  1  0.16666667  0.98736011  0.20898100  1.0
  Ni  Ni678  1  0.50000000  0.32069344  0.20898100  1.0
  Ni  Ni679  1  0.50000000  0.65402678  0.20898100  1.0
  Ni  Ni680  1  0.50000000  0.98736011  0.20898100  1.0
  Ni  Ni681  1  0.83333333  0.32069344  0.20898100  1.0
  Ni  Ni682  1  0.83333333  0.65402678  0.20898100  1.0
  Ni  Ni683  1  0.83333333  0.98736011  0.20898100  1.0
  Ni  Ni684  1  0.05242911  0.21849214  0.25793995  1.0
  Ni  Ni685  1  0.05242911  0.55182548  0.25793995  1.0
  Ni  Ni686  1  0.05242911  0.88515881  0.25793995  1.0
  Ni  Ni687  1  0.38576244  0.21849214  0.25793995  1.0
  Ni  Ni688  1  0.38576244  0.55182548  0.25793995  1.0
  Ni  Ni689  1  0.38576244  0.88515881  0.25793995  1.0
  Ni  Ni690  1  0.71909578  0.21849214  0.25793995  1.0
  Ni  Ni691  1  0.71909578  0.55182548  0.25793995  1.0
  Ni  Ni692  1  0.71909578  0.88515881  0.25793995  1.0
  Ni  Ni693  1  0.21909578  0.09944452  0.18651138  1.0
  Ni  Ni694  1  0.21909578  0.43277786  0.18651138  1.0
  Ni  Ni695  1  0.21909578  0.76611119  0.18651138  1.0
  Ni  Ni696  1  0.55242911  0.09944452  0.18651138  1.0
  Ni  Ni697  1  0.55242911  0.43277786  0.18651138  1.0
  Ni  Ni698  1  0.55242911  0.76611119  0.18651138  1.0
  Ni  Ni699  1  0.88576244  0.09944452  0.18651138  1.0
  Ni  Ni700  1  0.88576244  0.43277786  0.18651138  1.0
  Ni  Ni701  1  0.88576244  0.76611119  0.18651138  1.0
  Ni  Ni702  1  0.28090422  0.21849214  0.25793995  1.0
  Ni  Ni703  1  0.28090422  0.55182548  0.25793995  1.0
  Ni  Ni704  1  0.28090422  0.88515881  0.25793995  1.0
  Ni  Ni705  1  0.61423755  0.21849214  0.25793995  1.0
  Ni  Ni706  1  0.61423755  0.55182548  0.25793995  1.0
  Ni  Ni707  1  0.61423755  0.88515881  0.25793995  1.0
  Ni  Ni708  1  0.94757089  0.21849214  0.25793995  1.0
  Ni  Ni709  1  0.94757089  0.55182548  0.25793995  1.0
  Ni  Ni710  1  0.94757089  0.88515881  0.25793995  1.0
  Ni  Ni711  1  0.11423755  0.09944452  0.18651138  1.0
  Ni  Ni712  1  0.11423755  0.43277786  0.18651138  1.0
  Ni  Ni713  1  0.11423755  0.76611119  0.18651138  1.0
  Ni  Ni714  1  0.44757089  0.09944452  0.18651138  1.0
  Ni  Ni715  1  0.44757089  0.43277786  0.18651138  1.0
  Ni  Ni716  1  0.44757089  0.76611119  0.18651138  1.0
  Ni  Ni717  1  0.78090422  0.09944452  0.18651138  1.0
  Ni  Ni718  1  0.78090422  0.43277786  0.18651138  1.0
  Ni  Ni719  1  0.78090422  0.76611119  0.18651138  1.0
  Ni  Ni720  1  0.33333333  0.32122011  0.18249167  1.0
  Ni  Ni721  1  0.33333333  0.65455345  0.18249167  1.0
  Ni  Ni722  1  0.33333333  0.98788678  0.18249167  1.0
  Ni  Ni723  1  0.66666667  0.32122011  0.18249167  1.0
  Ni  Ni724  1  0.66666667  0.65455345  0.18249167  1.0
  Ni  Ni725  1  0.66666667  0.98788678  0.18249167  1.0
  Ni  Ni726  1  1.00000000  0.32122011  0.18249167  1.0
  Ni  Ni727  1  1.00000000  0.65455345  0.18249167  1.0
  Ni  Ni728  1  0.00000000  0.98788678  0.18249167  1.0
  Ni  Ni729  1  0.16666667  0.10693440  0.25392024  1.0
  Ni  Ni730  1  0.16666667  0.44026773  0.25392024  1.0
  Ni  Ni731  1  0.16666667  0.77360106  0.25392024  1.0
  Ni  Ni732  1  0.50000000  0.10693440  0.25392024  1.0
  Ni  Ni733  1  0.50000000  0.44026773  0.25392024  1.0
  Ni  Ni734  1  0.50000000  0.77360106  0.25392024  1.0
  Ni  Ni735  1  0.83333333  0.10693440  0.25392024  1.0
  Ni  Ni736  1  0.83333333  0.44026773  0.25392024  1.0
  Ni  Ni737  1  0.83333333  0.77360106  0.25392024  1.0
  Ni  Ni738  1  0.33333333  0.25594151  0.28040957  1.0
  Ni  Ni739  1  0.33333333  0.58927484  0.28040957  1.0
  Ni  Ni740  1  0.33333333  0.92260818  0.28040957  1.0
  Ni  Ni741  1  0.66666667  0.25594151  0.28040957  1.0
  Ni  Ni742  1  0.66666667  0.58927484  0.28040957  1.0
  Ni  Ni743  1  0.66666667  0.92260818  0.28040957  1.0
  Ni  Ni744  1  1.00000000  0.25594151  0.28040957  1.0
  Ni  Ni745  1  1.00000000  0.58927484  0.28040957  1.0
  Ni  Ni746  1  1.00000000  0.92260818  0.28040957  1.0
  Ni  Ni747  1  0.16666667  0.13689389  0.20898100  1.0
  Ni  Ni748  1  0.16666667  0.47022722  0.20898100  1.0
  Ni  Ni749  1  0.16666667  0.80356056  0.20898100  1.0
  Ni  Ni750  1  0.50000000  0.13689389  0.20898100  1.0
  Ni  Ni751  1  0.50000000  0.47022722  0.20898100  1.0
  Ni  Ni752  1  0.50000000  0.80356056  0.20898100  1.0
  Ni  Ni753  1  0.83333333  0.13689389  0.20898100  1.0
  Ni  Ni754  1  0.83333333  0.47022722  0.20898100  1.0
  Ni  Ni755  1  0.83333333  0.80356056  0.20898100  1.0
  Ni  Ni756  1  0.28090422  0.16953319  0.16002205  1.0
  Ni  Ni757  1  0.28090422  0.50286652  0.16002205  1.0
  Ni  Ni758  1  0.28090422  0.83619986  0.16002205  1.0
  Ni  Ni759  1  0.61423755  0.16953319  0.16002205  1.0
  Ni  Ni760  1  0.61423755  0.50286652  0.16002205  1.0
  Ni  Ni761  1  0.61423755  0.83619986  0.16002205  1.0
  Ni  Ni762  1  0.94757089  0.16953319  0.16002205  1.0
  Ni  Ni763  1  0.94757089  0.50286652  0.16002205  1.0
  Ni  Ni764  1  0.94757089  0.83619986  0.16002205  1.0
  Ni  Ni765  1  0.11423755  0.28858081  0.23145062  1.0
  Ni  Ni766  1  0.11423755  0.62191414  0.23145062  1.0
  Ni  Ni767  1  0.11423755  0.95524748  0.23145062  1.0
  Ni  Ni768  1  0.44757089  0.28858081  0.23145062  1.0
  Ni  Ni769  1  0.44757089  0.62191414  0.23145062  1.0
  Ni  Ni770  1  0.44757089  0.95524748  0.23145062  1.0
  Ni  Ni771  1  0.78090422  0.28858081  0.23145062  1.0
  Ni  Ni772  1  0.78090422  0.62191414  0.23145062  1.0
  Ni  Ni773  1  0.78090422  0.95524748  0.23145062  1.0
  Ni  Ni774  1  0.05242911  0.16953319  0.16002205  1.0
  Ni  Ni775  1  0.05242911  0.50286652  0.16002205  1.0
  Ni  Ni776  1  0.05242911  0.83619986  0.16002205  1.0
  Ni  Ni777  1  0.38576244  0.16953319  0.16002205  1.0
  Ni  Ni778  1  0.38576244  0.50286652  0.16002205  1.0
  Ni  Ni779  1  0.38576244  0.83619986  0.16002205  1.0
  Ni  Ni780  1  0.71909578  0.16953319  0.16002205  1.0
  Ni  Ni781  1  0.71909578  0.50286652  0.16002205  1.0
  Ni  Ni782  1  0.71909578  0.83619986  0.16002205  1.0
  Ni  Ni783  1  0.21909578  0.28858081  0.23145062  1.0
  Ni  Ni784  1  0.21909578  0.62191414  0.23145062  1.0
  Ni  Ni785  1  0.21909578  0.95524748  0.23145062  1.0
  Ni  Ni786  1  0.55242911  0.28858081  0.23145062  1.0
  Ni  Ni787  1  0.55242911  0.62191414  0.23145062  1.0
  Ni  Ni788  1  0.55242911  0.95524748  0.23145062  1.0
  Ni  Ni789  1  0.88576244  0.28858081  0.23145062  1.0
  Ni  Ni790  1  0.88576244  0.62191414  0.23145062  1.0
  Ni  Ni791  1  0.88576244  0.95524748  0.23145062  1.0
  Ni  Ni792  1  0.33333333  0.06680522  0.23547033  1.0
  Ni  Ni793  1  0.33333333  0.40013855  0.23547033  1.0
  Ni  Ni794  1  0.33333333  0.73347189  0.23547033  1.0
  Ni  Ni795  1  0.66666667  0.06680522  0.23547033  1.0
  Ni  Ni796  1  0.66666667  0.40013855  0.23547033  1.0
  Ni  Ni797  1  0.66666667  0.73347189  0.23547033  1.0
  Ni  Ni798  1  1.00000000  0.06680522  0.23547033  1.0
  Ni  Ni799  1  1.00000000  0.40013855  0.23547033  1.0
  Ni  Ni800  1  1.00000000  0.73347189  0.23547033  1.0
  Ni  Ni801  1  0.16666667  0.28109094  0.16404176  1.0
  Ni  Ni802  1  0.16666667  0.61442427  0.16404176  1.0
  Ni  Ni803  1  0.16666667  0.94775760  0.16404176  1.0
  Ni  Ni804  1  0.50000000  0.28109094  0.16404176  1.0
  Ni  Ni805  1  0.50000000  0.61442427  0.16404176  1.0
  Ni  Ni806  1  0.50000000  0.94775760  0.16404176  1.0
  Ni  Ni807  1  0.83333333  0.28109094  0.16404176  1.0
  Ni  Ni808  1  0.83333333  0.61442427  0.16404176  1.0
  Ni  Ni809  1  0.83333333  0.94775760  0.16404176  1.0
  Ni  Ni810  1  0.00000000  0.03684573  0.28040957  1.0
  Ni  Ni811  1  0.00000000  0.37017906  0.28040957  1.0
  Ni  Ni812  1  0.00000000  0.70351240  0.28040957  1.0
  Ni  Ni813  1  0.33333333  0.03684573  0.28040957  1.0
  Ni  Ni814  1  0.33333333  0.37017906  0.28040957  1.0
  Ni  Ni815  1  0.33333333  0.70351240  0.28040957  1.0
  Ni  Ni816  1  0.66666667  0.03684573  0.28040957  1.0
  Ni  Ni817  1  0.66666667  0.37017906  0.28040957  1.0
  Ni  Ni818  1  0.66666667  0.70351240  0.28040957  1.0
  Ni  Ni819  1  0.16666667  0.25113144  0.20898100  1.0
  Ni  Ni820  1  0.16666667  0.58446478  0.20898100  1.0
  Ni  Ni821  1  0.16666667  0.91779811  0.20898100  1.0
  Ni  Ni822  1  0.50000000  0.25113144  0.20898100  1.0
  Ni  Ni823  1  0.50000000  0.58446478  0.20898100  1.0
  Ni  Ni824  1  0.50000000  0.91779811  0.20898100  1.0
  Ni  Ni825  1  0.83333333  0.25113144  0.20898100  1.0
  Ni  Ni826  1  0.83333333  0.58446478  0.20898100  1.0
  Ni  Ni827  1  0.83333333  0.91779811  0.20898100  1.0
  Ni  Ni828  1  0.33333333  0.05115552  0.42326671  1.0
  Ni  Ni829  1  0.33333333  0.38448886  0.42326671  1.0
  Ni  Ni830  1  0.33333333  0.71782219  0.42326671  1.0
  Ni  Ni831  1  0.66666667  0.05115552  0.42326671  1.0
  Ni  Ni832  1  0.66666667  0.38448886  0.42326671  1.0
  Ni  Ni833  1  0.66666667  0.71782219  0.42326671  1.0
  Ni  Ni834  1  1.00000000  0.05115552  0.42326671  1.0
  Ni  Ni835  1  1.00000000  0.38448886  0.42326671  1.0
  Ni  Ni836  1  1.00000000  0.71782219  0.42326671  1.0
  Ni  Ni837  1  0.16666667  0.26544124  0.35183814  1.0
  Ni  Ni838  1  0.16666667  0.59877457  0.35183814  1.0
  Ni  Ni839  1  0.16666667  0.93210790  0.35183814  1.0
  Ni  Ni840  1  0.50000000  0.26544124  0.35183814  1.0
  Ni  Ni841  1  0.50000000  0.59877457  0.35183814  1.0
  Ni  Ni842  1  0.50000000  0.93210790  0.35183814  1.0
  Ni  Ni843  1  0.83333333  0.26544124  0.35183814  1.0
  Ni  Ni844  1  0.83333333  0.59877457  0.35183814  1.0
  Ni  Ni845  1  0.83333333  0.93210790  0.35183814  1.0
  Ni  Ni846  1  0.08333333  0.32496505  0.38755243  1.0
  Ni  Ni847  1  0.08333333  0.65829838  0.38755243  1.0
  Ni  Ni848  1  0.08333333  0.99163171  0.38755243  1.0
  Ni  Ni849  1  0.41666667  0.32496505  0.38755243  1.0
  Ni  Ni850  1  0.41666667  0.65829838  0.38755243  1.0
  Ni  Ni851  1  0.41666667  0.99163171  0.38755243  1.0
  Ni  Ni852  1  0.75000000  0.32496505  0.38755243  1.0
  Ni  Ni853  1  0.75000000  0.65829838  0.38755243  1.0
  Ni  Ni854  1  0.75000000  0.99163171  0.38755243  1.0
  Ni  Ni855  1  0.25000000  0.20591743  0.31612386  1.0
  Ni  Ni856  1  0.25000000  0.53925076  0.31612386  1.0
  Ni  Ni857  1  0.25000000  0.87258410  0.31612386  1.0
  Ni  Ni858  1  0.58333333  0.20591743  0.31612386  1.0
  Ni  Ni859  1  0.58333333  0.53925076  0.31612386  1.0
  Ni  Ni860  1  0.58333333  0.87258410  0.31612386  1.0
  Ni  Ni861  1  0.91666667  0.20591743  0.31612386  1.0
  Ni  Ni862  1  0.91666667  0.53925076  0.31612386  1.0
  Ni  Ni863  1  0.91666667  0.87258410  0.31612386  1.0
  Ni  Ni864  1  0.08333333  0.03925076  0.31612386  1.0
  Ni  Ni865  1  0.08333333  0.37258410  0.31612386  1.0
  Ni  Ni866  1  0.08333333  0.70591743  0.31612386  1.0
  Ni  Ni867  1  0.41666667  0.03925076  0.31612386  1.0
  Ni  Ni868  1  0.41666667  0.37258410  0.31612386  1.0
  Ni  Ni869  1  0.41666667  0.70591743  0.31612386  1.0
  Ni  Ni870  1  0.75000000  0.03925076  0.31612386  1.0
  Ni  Ni871  1  0.75000000  0.37258410  0.31612386  1.0
  Ni  Ni872  1  0.75000000  0.70591743  0.31612386  1.0
  Ni  Ni873  1  0.25000000  0.15829838  0.38755243  1.0
  Ni  Ni874  1  0.25000000  0.49163171  0.38755243  1.0
  Ni  Ni875  1  0.25000000  0.82496505  0.38755243  1.0
  Ni  Ni876  1  0.58333333  0.15829838  0.38755243  1.0
  Ni  Ni877  1  0.58333333  0.49163171  0.38755243  1.0
  Ni  Ni878  1  0.58333333  0.82496505  0.38755243  1.0
  Ni  Ni879  1  0.91666667  0.15829838  0.38755243  1.0
  Ni  Ni880  1  0.91666667  0.49163171  0.38755243  1.0
  Ni  Ni881  1  0.91666667  0.82496505  0.38755243  1.0
  Ni  Ni882  1  0.00000000  0.26544124  0.35183814  1.0
  Ni  Ni883  1  0.00000000  0.59877457  0.35183814  1.0
  Ni  Ni884  1  0.00000000  0.93210790  0.35183814  1.0
  Ni  Ni885  1  0.33333333  0.26544124  0.35183814  1.0
  Ni  Ni886  1  0.33333333  0.59877457  0.35183814  1.0
  Ni  Ni887  1  0.33333333  0.93210790  0.35183814  1.0
  Ni  Ni888  1  0.66666667  0.26544124  0.35183814  1.0
  Ni  Ni889  1  0.66666667  0.59877457  0.35183814  1.0
  Ni  Ni890  1  0.66666667  0.93210790  0.35183814  1.0
  Ni  Ni891  1  0.16666667  0.05115552  0.42326671  1.0
  Ni  Ni892  1  0.16666667  0.38448886  0.42326671  1.0
  Ni  Ni893  1  0.16666667  0.71782219  0.42326671  1.0
  Ni  Ni894  1  0.50000000  0.05115552  0.42326671  1.0
  Ni  Ni895  1  0.50000000  0.38448886  0.42326671  1.0
  Ni  Ni896  1  0.50000000  0.71782219  0.42326671  1.0
  Ni  Ni897  1  0.83333333  0.05115552  0.42326671  1.0
  Ni  Ni898  1  0.83333333  0.38448886  0.42326671  1.0
  Ni  Ni899  1  0.83333333  0.71782219  0.42326671  1.0
  Ni  Ni900  1  0.25000000  0.03925076  0.31612386  1.0
  Ni  Ni901  1  0.25000000  0.37258410  0.31612386  1.0
  Ni  Ni902  1  0.25000000  0.70591743  0.31612386  1.0
  Ni  Ni903  1  0.58333333  0.03925076  0.31612386  1.0
  Ni  Ni904  1  0.58333333  0.37258410  0.31612386  1.0
  Ni  Ni905  1  0.58333333  0.70591743  0.31612386  1.0
  Ni  Ni906  1  0.91666667  0.03925076  0.31612386  1.0
  Ni  Ni907  1  0.91666667  0.37258410  0.31612386  1.0
  Ni  Ni908  1  0.91666667  0.70591743  0.31612386  1.0
  Ni  Ni909  1  0.08333333  0.15829838  0.38755243  1.0
  Ni  Ni910  1  0.08333333  0.49163171  0.38755243  1.0
  Ni  Ni911  1  0.08333333  0.82496505  0.38755243  1.0
  Ni  Ni912  1  0.41666667  0.15829838  0.38755243  1.0
  Ni  Ni913  1  0.41666667  0.49163171  0.38755243  1.0
  Ni  Ni914  1  0.41666667  0.82496505  0.38755243  1.0
  Ni  Ni915  1  0.75000000  0.15829838  0.38755243  1.0
  Ni  Ni916  1  0.75000000  0.49163171  0.38755243  1.0
  Ni  Ni917  1  0.75000000  0.82496505  0.38755243  1.0
  Ni  Ni918  1  0.25000000  0.32496505  0.38755243  1.0
  Ni  Ni919  1  0.25000000  0.65829838  0.38755243  1.0
  Ni  Ni920  1  0.25000000  0.99163171  0.38755243  1.0
  Ni  Ni921  1  0.58333333  0.32496505  0.38755243  1.0
  Ni  Ni922  1  0.58333333  0.65829838  0.38755243  1.0
  Ni  Ni923  1  0.58333333  0.99163171  0.38755243  1.0
  Ni  Ni924  1  0.91666667  0.32496505  0.38755243  1.0
  Ni  Ni925  1  0.91666667  0.65829838  0.38755243  1.0
  Ni  Ni926  1  0.91666667  0.99163171  0.38755243  1.0
  Ni  Ni927  1  0.08333333  0.20591743  0.31612386  1.0
  Ni  Ni928  1  0.08333333  0.53925076  0.31612386  1.0
  Ni  Ni929  1  0.08333333  0.87258410  0.31612386  1.0
  Ni  Ni930  1  0.41666667  0.20591743  0.31612386  1.0
  Ni  Ni931  1  0.41666667  0.53925076  0.31612386  1.0
  Ni  Ni932  1  0.41666667  0.87258410  0.31612386  1.0
  Ni  Ni933  1  0.75000000  0.20591743  0.31612386  1.0
  Ni  Ni934  1  0.75000000  0.53925076  0.31612386  1.0
  Ni  Ni935  1  0.75000000  0.87258410  0.31612386  1.0
  Ni  Ni936  1  0.00000000  0.09877457  0.35183814  1.0
  Ni  Ni937  1  0.00000000  0.43210790  0.35183814  1.0
  Ni  Ni938  1  0.00000000  0.76544124  0.35183814  1.0
  Ni  Ni939  1  0.33333333  0.09877457  0.35183814  1.0
  Ni  Ni940  1  0.33333333  0.43210790  0.35183814  1.0
  Ni  Ni941  1  0.33333333  0.76544124  0.35183814  1.0
  Ni  Ni942  1  0.66666667  0.09877457  0.35183814  1.0
  Ni  Ni943  1  0.66666667  0.43210790  0.35183814  1.0
  Ni  Ni944  1  0.66666667  0.76544124  0.35183814  1.0
  Ni  Ni945  1  0.16666667  0.21782219  0.42326671  1.0
  Ni  Ni946  1  0.16666667  0.55115552  0.42326671  1.0
  Ni  Ni947  1  0.16666667  0.88448886  0.42326671  1.0
  Ni  Ni948  1  0.50000000  0.21782219  0.42326671  1.0
  Ni  Ni949  1  0.50000000  0.55115552  0.42326671  1.0
  Ni  Ni950  1  0.50000000  0.88448886  0.42326671  1.0
  Ni  Ni951  1  0.83333333  0.21782219  0.42326671  1.0
  Ni  Ni952  1  0.83333333  0.55115552  0.42326671  1.0
  Ni  Ni953  1  0.83333333  0.88448886  0.42326671  1.0
  Ni  Ni954  1  0.24663844  0.24830443  0.31756452  1.0
  Ni  Ni955  1  0.24663844  0.58163776  0.31756452  1.0
  Ni  Ni956  1  0.24663844  0.91497110  0.31756452  1.0
  Ni  Ni957  1  0.57997178  0.24830443  0.31756452  1.0
  Ni  Ni958  1  0.57997178  0.58163776  0.31756452  1.0
  Ni  Ni959  1  0.57997178  0.91497110  0.31756452  1.0
  Ni  Ni960  1  0.91330511  0.24830443  0.31756452  1.0
  Ni  Ni961  1  0.91330511  0.58163776  0.31756452  1.0
  Ni  Ni962  1  0.91330511  0.91497110  0.31756452  1.0
  Ni  Ni963  1  0.07997178  0.03401872  0.38899310  1.0
  Ni  Ni964  1  0.07997178  0.36735205  0.38899310  1.0
  Ni  Ni965  1  0.07997178  0.70068538  0.38899310  1.0
  Ni  Ni966  1  0.41330511  0.03401872  0.38899310  1.0
  Ni  Ni967  1  0.41330511  0.36735205  0.38899310  1.0
  Ni  Ni968  1  0.41330511  0.70068538  0.38899310  1.0
  Ni  Ni969  1  0.74663844  0.03401872  0.38899310  1.0
  Ni  Ni970  1  0.74663844  0.36735205  0.38899310  1.0
  Ni  Ni971  1  0.74663844  0.70068538  0.38899310  1.0
  Ni  Ni972  1  0.08669489  0.24830443  0.31756452  1.0
  Ni  Ni973  1  0.08669489  0.58163776  0.31756452  1.0
  Ni  Ni974  1  0.08669489  0.91497110  0.31756452  1.0
  Ni  Ni975  1  0.42002822  0.24830443  0.31756452  1.0
  Ni  Ni976  1  0.42002822  0.58163776  0.31756452  1.0
  Ni  Ni977  1  0.42002822  0.91497110  0.31756452  1.0
  Ni  Ni978  1  0.75336156  0.24830443  0.31756452  1.0
  Ni  Ni979  1  0.75336156  0.58163776  0.31756452  1.0
  Ni  Ni980  1  0.75336155  0.91497110  0.31756452  1.0
  Ni  Ni981  1  0.25336155  0.03401872  0.38899309  1.0
  Ni  Ni982  1  0.25336156  0.36735205  0.38899309  1.0
  Ni  Ni983  1  0.25336156  0.70068538  0.38899309  1.0
  Ni  Ni984  1  0.58669489  0.03401872  0.38899309  1.0
  Ni  Ni985  1  0.58669489  0.36735205  0.38899309  1.0
  Ni  Ni986  1  0.58669489  0.70068538  0.38899309  1.0
  Ni  Ni987  1  0.92002822  0.03401872  0.38899309  1.0
  Ni  Ni988  1  0.92002822  0.36735205  0.38899309  1.0
  Ni  Ni989  1  0.92002822  0.70068538  0.38899309  1.0
  Ni  Ni990  1  0.33333333  0.14068135  0.34895681  1.0
  Ni  Ni991  1  0.33333333  0.47401468  0.34895681  1.0
  Ni  Ni992  1  0.33333333  0.80734802  0.34895681  1.0
  Ni  Ni993  1  0.66666667  0.14068135  0.34895681  1.0
  Ni  Ni994  1  0.66666667  0.47401468  0.34895681  1.0
  Ni  Ni995  1  0.66666667  0.80734802  0.34895681  1.0
  Ni  Ni996  1  1.00000000  0.14068135  0.34895681  1.0
  Ni  Ni997  1  1.00000000  0.47401468  0.34895681  1.0
  Ni  Ni998  1  1.00000000  0.80734802  0.34895681  1.0
  Ni  Ni999  1  0.16666667  0.25972897  0.42038538  1.0
  Ni  Ni1000  1  0.16666667  0.59306230  0.42038538  1.0
  Ni  Ni1001  1  0.16666667  0.92639564  0.42038538  1.0
  Ni  Ni1002  1  0.50000000  0.25972897  0.42038538  1.0
  Ni  Ni1003  1  0.50000000  0.59306230  0.42038538  1.0
  Ni  Ni1004  1  0.50000000  0.92639564  0.42038538  1.0
  Ni  Ni1005  1  0.83333333  0.25972897  0.42038538  1.0
  Ni  Ni1006  1  0.83333333  0.59306230  0.42038538  1.0
  Ni  Ni1007  1  0.83333333  0.92639564  0.42038538  1.0
  Ni  Ni1008  1  0.00000000  0.09114141  0.42326671  1.0
  Ni  Ni1009  1  0.00000000  0.42447475  0.42326671  1.0
  Ni  Ni1010  1  0.00000000  0.75780808  0.42326671  1.0
  Ni  Ni1011  1  0.33333333  0.09114141  0.42326671  1.0
  Ni  Ni1012  1  0.33333333  0.42447475  0.42326671  1.0
  Ni  Ni1013  1  0.33333333  0.75780808  0.42326671  1.0
  Ni  Ni1014  1  0.66666667  0.09114141  0.42326671  1.0
  Ni  Ni1015  1  0.66666667  0.42447475  0.42326671  1.0
  Ni  Ni1016  1  0.66666667  0.75780808  0.42326671  1.0
  Ni  Ni1017  1  0.16666667  0.30542713  0.35183814  1.0
  Ni  Ni1018  1  0.16666667  0.63876046  0.35183814  1.0
  Ni  Ni1019  1  0.16666667  0.97209379  0.35183814  1.0
  Ni  Ni1020  1  0.50000000  0.30542713  0.35183814  1.0
  Ni  Ni1021  1  0.50000000  0.63876046  0.35183814  1.0
  Ni  Ni1022  1  0.50000000  0.97209379  0.35183814  1.0
  Ni  Ni1023  1  0.83333333  0.30542713  0.35183814  1.0
  Ni  Ni1024  1  0.83333333  0.63876046  0.35183814  1.0
  Ni  Ni1025  1  0.83333333  0.97209379  0.35183814  1.0
  Ni  Ni1026  1  0.08669489  0.28257805  0.38611176  1.0
  Ni  Ni1027  1  0.08669489  0.61591138  0.38611176  1.0
  Ni  Ni1028  1  0.08669489  0.94924471  0.38611176  1.0
  Ni  Ni1029  1  0.42002822  0.28257805  0.38611176  1.0
  Ni  Ni1030  1  0.42002822  0.61591138  0.38611176  1.0
  Ni  Ni1031  1  0.42002822  0.94924471  0.38611176  1.0
  Ni  Ni1032  1  0.75336155  0.28257805  0.38611176  1.0
  Ni  Ni1033  1  0.75336155  0.61591138  0.38611176  1.0
  Ni  Ni1034  1  0.75336155  0.94924471  0.38611176  1.0
  Ni  Ni1035  1  0.25336155  0.16353043  0.31468319  1.0
  Ni  Ni1036  1  0.25336155  0.49686376  0.31468319  1.0
  Ni  Ni1037  1  0.25336155  0.83019709  0.31468319  1.0
  Ni  Ni1038  1  0.58669489  0.16353043  0.31468319  1.0
  Ni  Ni1039  1  0.58669489  0.49686376  0.31468319  1.0
  Ni  Ni1040  1  0.58669489  0.83019709  0.31468319  1.0
  Ni  Ni1041  1  0.92002822  0.16353043  0.31468319  1.0
  Ni  Ni1042  1  0.92002822  0.49686376  0.31468319  1.0
  Ni  Ni1043  1  0.92002822  0.83019709  0.31468319  1.0
  Ni  Ni1044  1  0.24663844  0.28257805  0.38611176  1.0
  Ni  Ni1045  1  0.24663844  0.61591138  0.38611176  1.0
  Ni  Ni1046  1  0.24663844  0.94924471  0.38611176  1.0
  Ni  Ni1047  1  0.57997178  0.28257805  0.38611176  1.0
  Ni  Ni1048  1  0.57997178  0.61591138  0.38611176  1.0
  Ni  Ni1049  1  0.57997178  0.94924471  0.38611176  1.0
  Ni  Ni1050  1  0.91330511  0.28257805  0.38611176  1.0
  Ni  Ni1051  1  0.91330511  0.61591138  0.38611176  1.0
  Ni  Ni1052  1  0.91330511  0.94924471  0.38611176  1.0
  Ni  Ni1053  1  0.07997178  0.16353043  0.31468319  1.0
  Ni  Ni1054  1  0.07997178  0.49686376  0.31468319  1.0
  Ni  Ni1055  1  0.07997178  0.83019709  0.31468319  1.0
  Ni  Ni1056  1  0.41330511  0.16353043  0.31468319  1.0
  Ni  Ni1057  1  0.41330511  0.49686376  0.31468319  1.0
  Ni  Ni1058  1  0.41330511  0.83019709  0.31468319  1.0
  Ni  Ni1059  1  0.74663844  0.16353043  0.31468319  1.0
  Ni  Ni1060  1  0.74663844  0.49686376  0.31468319  1.0
  Ni  Ni1061  1  0.74663844  0.83019709  0.31468319  1.0
  Ni  Ni1062  1  0.33333333  0.05686779  0.35471948  1.0
  Ni  Ni1063  1  0.33333333  0.39020113  0.35471948  1.0
  Ni  Ni1064  1  0.33333333  0.72353446  0.35471948  1.0
  Ni  Ni1065  1  0.66666667  0.05686779  0.35471948  1.0
  Ni  Ni1066  1  0.66666667  0.39020113  0.35471948  1.0
  Ni  Ni1067  1  0.66666667  0.72353446  0.35471948  1.0
  Ni  Ni1068  1  1.00000000  0.05686779  0.35471948  1.0
  Ni  Ni1069  1  1.00000000  0.39020113  0.35471948  1.0
  Ni  Ni1070  1  1.00000000  0.72353446  0.35471948  1.0
  Ni  Ni1071  1  0.16666667  0.17591541  0.42614805  1.0
  Ni  Ni1072  1  0.16666667  0.50924875  0.42614805  1.0
  Ni  Ni1073  1  0.16666667  0.84258208  0.42614805  1.0
  Ni  Ni1074  1  0.50000000  0.17591541  0.42614805  1.0
  Ni  Ni1075  1  0.50000000  0.50924875  0.42614805  1.0
  Ni  Ni1076  1  0.50000000  0.84258208  0.42614805  1.0
  Ni  Ni1077  1  0.83333333  0.17591541  0.42614805  1.0
  Ni  Ni1078  1  0.83333333  0.50924875  0.42614805  1.0
  Ni  Ni1079  1  0.83333333  0.84258208  0.42614805  1.0
  Ni  Ni1080  1  0.33333333  0.01116963  0.42326671  1.0
  Ni  Ni1081  1  0.33333333  0.34450297  0.42326671  1.0
  Ni  Ni1082  1  0.33333333  0.67783630  0.42326671  1.0
  Ni  Ni1083  1  0.66666667  0.01116963  0.42326671  1.0
  Ni  Ni1084  1  0.66666667  0.34450297  0.42326671  1.0
  Ni  Ni1085  1  0.66666667  0.67783630  0.42326671  1.0
  Ni  Ni1086  1  1.00000000  0.01116963  0.42326671  1.0
  Ni  Ni1087  1  1.00000000  0.34450297  0.42326671  1.0
  Ni  Ni1088  1  1.00000000  0.67783630  0.42326671  1.0
  Ni  Ni1089  1  0.16666667  0.22545535  0.35183814  1.0
  Ni  Ni1090  1  0.16666667  0.55878868  0.35183814  1.0
  Ni  Ni1091  1  0.16666667  0.89212201  0.35183814  1.0
  Ni  Ni1092  1  0.50000000  0.22545535  0.35183814  1.0
  Ni  Ni1093  1  0.50000000  0.55878868  0.35183814  1.0
  Ni  Ni1094  1  0.50000000  0.89212201  0.35183814  1.0
  Ni  Ni1095  1  0.83333333  0.22545535  0.35183814  1.0
  Ni  Ni1096  1  0.83333333  0.55878868  0.35183814  1.0
  Ni  Ni1097  1  0.83333333  0.89212201  0.35183814  1.0
  Ni  Ni1098  1  0.05242911  0.12325405  0.40079709  1.0
  Ni  Ni1099  1  0.05242911  0.45658738  0.40079709  1.0
  Ni  Ni1100  1  0.05242911  0.78992072  0.40079709  1.0
  Ni  Ni1101  1  0.38576244  0.12325405  0.40079709  1.0
  Ni  Ni1102  1  0.38576244  0.45658738  0.40079709  1.0
  Ni  Ni1103  1  0.38576244  0.78992072  0.40079709  1.0
  Ni  Ni1104  1  0.71909578  0.12325405  0.40079709  1.0
  Ni  Ni1105  1  0.71909578  0.45658738  0.40079709  1.0
  Ni  Ni1106  1  0.71909578  0.78992072  0.40079709  1.0
  Ni  Ni1107  1  0.21909578  0.00420643  0.32936852  1.0
  Ni  Ni1108  1  0.21909578  0.33753976  0.32936852  1.0
  Ni  Ni1109  1  0.21909578  0.67087310  0.32936852  1.0
  Ni  Ni1110  1  0.55242911  0.00420643  0.32936852  1.0
  Ni  Ni1111  1  0.55242911  0.33753976  0.32936852  1.0
  Ni  Ni1112  1  0.55242911  0.67087310  0.32936852  1.0
  Ni  Ni1113  1  0.88576244  0.00420643  0.32936852  1.0
  Ni  Ni1114  1  0.88576244  0.33753976  0.32936852  1.0
  Ni  Ni1115  1  0.88576244  0.67087310  0.32936852  1.0
  Ni  Ni1116  1  0.28090422  0.12325405  0.40079709  1.0
  Ni  Ni1117  1  0.28090422  0.45658738  0.40079709  1.0
  Ni  Ni1118  1  0.28090422  0.78992072  0.40079709  1.0
  Ni  Ni1119  1  0.61423755  0.12325405  0.40079709  1.0
  Ni  Ni1120  1  0.61423755  0.45658738  0.40079709  1.0
  Ni  Ni1121  1  0.61423755  0.78992072  0.40079709  1.0
  Ni  Ni1122  1  0.94757089  0.12325405  0.40079709  1.0
  Ni  Ni1123  1  0.94757089  0.45658738  0.40079709  1.0
  Ni  Ni1124  1  0.94757089  0.78992072  0.40079709  1.0
  Ni  Ni1125  1  0.11423755  0.00420643  0.32936852  1.0
  Ni  Ni1126  1  0.11423755  0.33753976  0.32936852  1.0
  Ni  Ni1127  1  0.11423755  0.67087310  0.32936852  1.0
  Ni  Ni1128  1  0.44757089  0.00420643  0.32936852  1.0
  Ni  Ni1129  1  0.44757089  0.33753976  0.32936852  1.0
  Ni  Ni1130  1  0.44757089  0.67087310  0.32936852  1.0
  Ni  Ni1131  1  0.78090422  0.00420643  0.32936852  1.0
  Ni  Ni1132  1  0.78090422  0.33753976  0.32936852  1.0
  Ni  Ni1133  1  0.78090422  0.67087310  0.32936852  1.0
  Ni  Ni1134  1  0.33333333  0.22598202  0.32534881  1.0
  Ni  Ni1135  1  0.33333333  0.55931535  0.32534881  1.0
  Ni  Ni1136  1  0.33333333  0.89264868  0.32534881  1.0
  Ni  Ni1137  1  0.66666667  0.22598202  0.32534881  1.0
  Ni  Ni1138  1  0.66666667  0.55931535  0.32534881  1.0
  Ni  Ni1139  1  0.66666667  0.89264868  0.32534881  1.0
  Ni  Ni1140  1  1.00000000  0.22598202  0.32534881  1.0
  Ni  Ni1141  1  1.00000000  0.55931535  0.32534881  1.0
  Ni  Ni1142  1  1.00000000  0.89264868  0.32534881  1.0
  Ni  Ni1143  1  0.16666667  0.01169630  0.39677738  1.0
  Ni  Ni1144  1  0.16666667  0.34502964  0.39677738  1.0
  Ni  Ni1145  1  0.16666667  0.67836297  0.39677738  1.0
  Ni  Ni1146  1  0.50000000  0.01169630  0.39677738  1.0
  Ni  Ni1147  1  0.50000000  0.34502964  0.39677738  1.0
  Ni  Ni1148  1  0.50000000  0.67836297  0.39677738  1.0
  Ni  Ni1149  1  0.83333333  0.01169630  0.39677738  1.0
  Ni  Ni1150  1  0.83333333  0.34502964  0.39677738  1.0
  Ni  Ni1151  1  0.83333333  0.67836297  0.39677738  1.0
  Ni  Ni1152  1  0.33333333  0.16070341  0.42326671  1.0
  Ni  Ni1153  1  0.33333333  0.49403675  0.42326671  1.0
  Ni  Ni1154  1  0.33333333  0.82737008  0.42326671  1.0
  Ni  Ni1155  1  0.66666667  0.16070341  0.42326671  1.0
  Ni  Ni1156  1  0.66666667  0.49403675  0.42326671  1.0
  Ni  Ni1157  1  0.66666667  0.82737008  0.42326671  1.0
  Ni  Ni1158  1  1.00000000  0.16070341  0.42326671  1.0
  Ni  Ni1159  1  1.00000000  0.49403675  0.42326671  1.0
  Ni  Ni1160  1  1.00000000  0.82737008  0.42326671  1.0
  Ni  Ni1161  1  0.16666667  0.04165579  0.35183814  1.0
  Ni  Ni1162  1  0.16666667  0.37498913  0.35183814  1.0
  Ni  Ni1163  1  0.16666667  0.70832246  0.35183814  1.0
  Ni  Ni1164  1  0.50000000  0.04165579  0.35183814  1.0
  Ni  Ni1165  1  0.50000000  0.37498913  0.35183814  1.0
  Ni  Ni1166  1  0.50000000  0.70832246  0.35183814  1.0
  Ni  Ni1167  1  0.83333333  0.04165579  0.35183814  1.0
  Ni  Ni1168  1  0.83333333  0.37498913  0.35183814  1.0
  Ni  Ni1169  1  0.83333333  0.70832246  0.35183814  1.0
  Ni  Ni1170  1  0.28090422  0.07429509  0.30287919  1.0
  Ni  Ni1171  1  0.28090422  0.40762843  0.30287919  1.0
  Ni  Ni1172  1  0.28090422  0.74096176  0.30287919  1.0
  Ni  Ni1173  1  0.61423755  0.07429509  0.30287919  1.0
  Ni  Ni1174  1  0.61423755  0.40762843  0.30287919  1.0
  Ni  Ni1175  1  0.61423755  0.74096176  0.30287919  1.0
  Ni  Ni1176  1  0.94757089  0.07429509  0.30287919  1.0
  Ni  Ni1177  1  0.94757089  0.40762843  0.30287919  1.0
  Ni  Ni1178  1  0.94757089  0.74096176  0.30287919  1.0
  Ni  Ni1179  1  0.11423755  0.19334271  0.37430776  1.0
  Ni  Ni1180  1  0.11423755  0.52667605  0.37430776  1.0
  Ni  Ni1181  1  0.11423755  0.86000938  0.37430776  1.0
  Ni  Ni1182  1  0.44757089  0.19334271  0.37430776  1.0
  Ni  Ni1183  1  0.44757089  0.52667605  0.37430776  1.0
  Ni  Ni1184  1  0.44757089  0.86000938  0.37430776  1.0
  Ni  Ni1185  1  0.78090422  0.19334271  0.37430776  1.0
  Ni  Ni1186  1  0.78090422  0.52667605  0.37430776  1.0
  Ni  Ni1187  1  0.78090422  0.86000938  0.37430776  1.0
  Ni  Ni1188  1  0.05242911  0.07429509  0.30287919  1.0
  Ni  Ni1189  1  0.05242911  0.40762843  0.30287919  1.0
  Ni  Ni1190  1  0.05242911  0.74096176  0.30287919  1.0
  Ni  Ni1191  1  0.38576244  0.07429509  0.30287919  1.0
  Ni  Ni1192  1  0.38576244  0.40762843  0.30287919  1.0
  Ni  Ni1193  1  0.38576244  0.74096176  0.30287919  1.0
  Ni  Ni1194  1  0.71909578  0.07429509  0.30287919  1.0
  Ni  Ni1195  1  0.71909578  0.40762843  0.30287919  1.0
  Ni  Ni1196  1  0.71909578  0.74096176  0.30287919  1.0
  Ni  Ni1197  1  0.21909578  0.19334271  0.37430776  1.0
  Ni  Ni1198  1  0.21909578  0.52667605  0.37430776  1.0
  Ni  Ni1199  1  0.21909578  0.86000938  0.37430776  1.0
  Ni  Ni1200  1  0.55242911  0.19334271  0.37430776  1.0
  Ni  Ni1201  1  0.55242911  0.52667605  0.37430776  1.0
  Ni  Ni1202  1  0.55242911  0.86000938  0.37430776  1.0
  Ni  Ni1203  1  0.88576244  0.19334271  0.37430776  1.0
  Ni  Ni1204  1  0.88576244  0.52667605  0.37430776  1.0
  Ni  Ni1205  1  0.88576244  0.86000938  0.37430776  1.0
  Ni  Ni1206  1  0.33333333  0.30490046  0.37832748  1.0
  Ni  Ni1207  1  0.33333333  0.63823379  0.37832748  1.0
  Ni  Ni1208  1  0.33333333  0.97156713  0.37832748  1.0
  Ni  Ni1209  1  0.66666667  0.30490046  0.37832748  1.0
  Ni  Ni1210  1  0.66666667  0.63823379  0.37832748  1.0
  Ni  Ni1211  1  0.66666667  0.97156713  0.37832748  1.0
  Ni  Ni1212  1  1.00000000  0.30490046  0.37832748  1.0
  Ni  Ni1213  1  1.00000000  0.63823379  0.37832748  1.0
  Ni  Ni1214  1  1.00000000  0.97156713  0.37832748  1.0
  Ni  Ni1215  1  0.16666667  0.18585284  0.30689890  1.0
  Ni  Ni1216  1  0.16666667  0.51918617  0.30689890  1.0
  Ni  Ni1217  1  0.16666667  0.85251951  0.30689890  1.0
  Ni  Ni1218  1  0.50000000  0.18585284  0.30689890  1.0
  Ni  Ni1219  1  0.50000000  0.51918617  0.30689890  1.0
  Ni  Ni1220  1  0.50000000  0.85251951  0.30689890  1.0
  Ni  Ni1221  1  0.83333333  0.18585284  0.30689890  1.0
  Ni  Ni1222  1  0.83333333  0.51918617  0.30689890  1.0
  Ni  Ni1223  1  0.83333333  0.85251951  0.30689890  1.0
  Ni  Ni1224  1  0.33333333  0.27494097  0.42326671  1.0
  Ni  Ni1225  1  0.33333333  0.60827430  0.42326671  1.0
  Ni  Ni1226  1  0.33333333  0.94160763  0.42326671  1.0
  Ni  Ni1227  1  0.66666667  0.27494097  0.42326671  1.0
  Ni  Ni1228  1  0.66666667  0.60827430  0.42326671  1.0
  Ni  Ni1229  1  0.66666667  0.94160763  0.42326671  1.0
  Ni  Ni1230  1  1.00000000  0.27494097  0.42326671  1.0
  Ni  Ni1231  1  1.00000000  0.60827430  0.42326671  1.0
  Ni  Ni1232  1  1.00000000  0.94160763  0.42326671  1.0
  Ni  Ni1233  1  0.16666667  0.15589335  0.35183814  1.0
  Ni  Ni1234  1  0.16666667  0.48922668  0.35183814  1.0
  Ni  Ni1235  1  0.16666667  0.82256001  0.35183814  1.0
  Ni  Ni1236  1  0.50000000  0.15589335  0.35183814  1.0
  Ni  Ni1237  1  0.50000000  0.48922668  0.35183814  1.0
  Ni  Ni1238  1  0.50000000  0.82256001  0.35183814  1.0
  Ni  Ni1239  1  0.83333333  0.15589335  0.35183814  1.0
  Ni  Ni1240  1  0.83333333  0.48922668  0.35183814  1.0
  Ni  Ni1241  1  0.83333333  0.82256001  0.35183814  1.0
  Zr  Zr1242  1  0.26237767  0.14993010  0.02510486  1.0
  Zr  Zr1243  1  0.26237767  0.48326343  0.02510486  1.0
  Zr  Zr1244  1  0.26237767  0.81659676  0.02510486  1.0
  Zr  Zr1245  1  0.59571100  0.14993010  0.02510486  1.0
  Zr  Zr1246  1  0.59571100  0.48326343  0.02510486  1.0
  Zr  Zr1247  1  0.59571100  0.81659676  0.02510486  1.0
  Zr  Zr1248  1  0.92904433  0.14993010  0.02510486  1.0
  Zr  Zr1249  1  0.92904433  0.48326343  0.02510486  1.0
  Zr  Zr1250  1  0.92904433  0.81659676  0.02510486  1.0
  Zr  Zr1251  1  0.09571100  0.26897771  0.09653343  1.0
  Zr  Zr1252  1  0.09571100  0.60231105  0.09653343  1.0
  Zr  Zr1253  1  0.09571100  0.93564438  0.09653343  1.0
  Zr  Zr1254  1  0.42904433  0.26897771  0.09653343  1.0
  Zr  Zr1255  1  0.42904433  0.60231105  0.09653343  1.0
  Zr  Zr1256  1  0.42904433  0.93564438  0.09653343  1.0
  Zr  Zr1257  1  0.76237767  0.26897771  0.09653343  1.0
  Zr  Zr1258  1  0.76237767  0.60231105  0.09653343  1.0
  Zr  Zr1259  1  0.76237767  0.93564438  0.09653343  1.0
  Zr  Zr1260  1  0.26237767  0.09523810  0.10714286  1.0
  Zr  Zr1261  1  0.26237767  0.42857143  0.10714286  1.0
  Zr  Zr1262  1  0.26237767  0.76190476  0.10714286  1.0
  Zr  Zr1263  1  0.59571100  0.09523810  0.10714286  1.0
  Zr  Zr1264  1  0.59571100  0.42857143  0.10714286  1.0
  Zr  Zr1265  1  0.59571100  0.76190476  0.10714286  1.0
  Zr  Zr1266  1  0.92904433  0.09523810  0.10714286  1.0
  Zr  Zr1267  1  0.92904433  0.42857143  0.10714286  1.0
  Zr  Zr1268  1  0.92904433  0.76190476  0.10714286  1.0
  Zr  Zr1269  1  0.09571100  0.30952381  0.03571429  1.0
  Zr  Zr1270  1  0.09571100  0.64285714  0.03571429  1.0
  Zr  Zr1271  1  0.09571100  0.97619048  0.03571429  1.0
  Zr  Zr1272  1  0.42904433  0.30952381  0.03571429  1.0
  Zr  Zr1273  1  0.42904433  0.64285714  0.03571429  1.0
  Zr  Zr1274  1  0.42904433  0.97619048  0.03571429  1.0
  Zr  Zr1275  1  0.76237767  0.30952381  0.03571429  1.0
  Zr  Zr1276  1  0.76237767  0.64285714  0.03571429  1.0
  Zr  Zr1277  1  0.76237767  0.97619048  0.03571429  1.0
  Zr  Zr1278  1  0.00000000  0.20061271  0.05551443  1.0
  Zr  Zr1279  1  0.00000000  0.53394605  0.05551443  1.0
  Zr  Zr1280  1  0.00000000  0.86727938  0.05551443  1.0
  Zr  Zr1281  1  0.33333333  0.20061271  0.05551443  1.0
  Zr  Zr1282  1  0.33333333  0.53394605  0.05551443  1.0
  Zr  Zr1283  1  0.33333333  0.86727938  0.05551443  1.0
  Zr  Zr1284  1  0.66666667  0.20061271  0.05551443  1.0
  Zr  Zr1285  1  0.66666667  0.53394605  0.05551443  1.0
  Zr  Zr1286  1  0.66666667  0.86727938  0.05551443  1.0
  Zr  Zr1287  1  0.16666667  0.31966033  0.12694300  1.0
  Zr  Zr1288  1  0.16666667  0.65299367  0.12694300  1.0
  Zr  Zr1289  1  0.16666667  0.98632700  0.12694300  1.0
  Zr  Zr1290  1  0.50000000  0.31966033  0.12694300  1.0
  Zr  Zr1291  1  0.50000000  0.65299367  0.12694300  1.0
  Zr  Zr1292  1  0.50000000  0.98632700  0.12694300  1.0
  Zr  Zr1293  1  0.83333333  0.31966033  0.12694300  1.0
  Zr  Zr1294  1  0.83333333  0.65299367  0.12694300  1.0
  Zr  Zr1295  1  0.83333333  0.98632700  0.12694300  1.0
  Zr  Zr1296  1  0.07095567  0.09523810  0.10714286  1.0
  Zr  Zr1297  1  0.07095567  0.42857143  0.10714286  1.0
  Zr  Zr1298  1  0.07095567  0.76190476  0.10714286  1.0
  Zr  Zr1299  1  0.40428900  0.09523810  0.10714286  1.0
  Zr  Zr1300  1  0.40428900  0.42857143  0.10714286  1.0
  Zr  Zr1301  1  0.40428900  0.76190476  0.10714286  1.0
  Zr  Zr1302  1  0.73762233  0.09523810  0.10714286  1.0
  Zr  Zr1303  1  0.73762233  0.42857143  0.10714286  1.0
  Zr  Zr1304  1  0.73762233  0.76190476  0.10714286  1.0
  Zr  Zr1305  1  0.23762233  0.30952381  0.03571429  1.0
  Zr  Zr1306  1  0.23762233  0.64285714  0.03571429  1.0
  Zr  Zr1307  1  0.23762233  0.97619048  0.03571429  1.0
  Zr  Zr1308  1  0.57095567  0.30952381  0.03571429  1.0
  Zr  Zr1309  1  0.57095567  0.64285714  0.03571429  1.0
  Zr  Zr1310  1  0.57095567  0.97619048  0.03571429  1.0
  Zr  Zr1311  1  0.90428900  0.30952381  0.03571429  1.0
  Zr  Zr1312  1  0.90428900  0.64285714  0.03571429  1.0
  Zr  Zr1313  1  0.90428900  0.97619048  0.03571429  1.0
  Zr  Zr1314  1  0.07095567  0.14993010  0.02510486  1.0
  Zr  Zr1315  1  0.07095567  0.48326343  0.02510486  1.0
  Zr  Zr1316  1  0.07095567  0.81659676  0.02510486  1.0
  Zr  Zr1317  1  0.40428900  0.14993010  0.02510486  1.0
  Zr  Zr1318  1  0.40428900  0.48326343  0.02510486  1.0
  Zr  Zr1319  1  0.40428900  0.81659676  0.02510486  1.0
  Zr  Zr1320  1  0.73762233  0.14993010  0.02510486  1.0
  Zr  Zr1321  1  0.73762233  0.48326343  0.02510486  1.0
  Zr  Zr1322  1  0.73762233  0.81659676  0.02510486  1.0
  Zr  Zr1323  1  0.23762233  0.26897771  0.09653343  1.0
  Zr  Zr1324  1  0.23762233  0.60231105  0.09653343  1.0
  Zr  Zr1325  1  0.23762233  0.93564438  0.09653343  1.0
  Zr  Zr1326  1  0.57095567  0.26897771  0.09653343  1.0
  Zr  Zr1327  1  0.57095567  0.60231105  0.09653343  1.0
  Zr  Zr1328  1  0.57095567  0.93564438  0.09653343  1.0
  Zr  Zr1329  1  0.90428900  0.26897771  0.09653343  1.0
  Zr  Zr1330  1  0.90428900  0.60231105  0.09653343  1.0
  Zr  Zr1331  1  0.90428900  0.93564438  0.09653343  1.0
  Zr  Zr1332  1  0.33333333  0.04455548  0.07673329  1.0
  Zr  Zr1333  1  0.33333333  0.37788881  0.07673329  1.0
  Zr  Zr1334  1  0.33333333  0.71122214  0.07673329  1.0
  Zr  Zr1335  1  0.66666667  0.04455548  0.07673329  1.0
  Zr  Zr1336  1  0.66666667  0.37788881  0.07673329  1.0
  Zr  Zr1337  1  0.66666667  0.71122214  0.07673329  1.0
  Zr  Zr1338  1  1.00000000  0.04455548  0.07673329  1.0
  Zr  Zr1339  1  1.00000000  0.37788881  0.07673329  1.0
  Zr  Zr1340  1  1.00000000  0.71122214  0.07673329  1.0
  Zr  Zr1341  1  0.16666667  0.25884119  0.00530471  1.0
  Zr  Zr1342  1  0.16666667  0.59217452  0.00530471  1.0
  Zr  Zr1343  1  0.16666667  0.92550786  0.00530471  1.0
  Zr  Zr1344  1  0.50000000  0.25884119  0.00530471  1.0
  Zr  Zr1345  1  0.50000000  0.59217452  0.00530471  1.0
  Zr  Zr1346  1  0.50000000  0.92550786  0.00530471  1.0
  Zr  Zr1347  1  0.83333333  0.25884119  0.00530471  1.0
  Zr  Zr1348  1  0.83333333  0.59217452  0.00530471  1.0
  Zr  Zr1349  1  0.83333333  0.92550786  0.00530471  1.0
  Zr  Zr1350  1  0.26237767  0.05469200  0.16796200  1.0
  Zr  Zr1351  1  0.26237767  0.38802533  0.16796200  1.0
  Zr  Zr1352  1  0.26237767  0.72135867  0.16796200  1.0
  Zr  Zr1353  1  0.59571100  0.05469200  0.16796200  1.0
  Zr  Zr1354  1  0.59571100  0.38802533  0.16796200  1.0
  Zr  Zr1355  1  0.59571100  0.72135867  0.16796200  1.0
  Zr  Zr1356  1  0.92904433  0.05469200  0.16796200  1.0
  Zr  Zr1357  1  0.92904433  0.38802533  0.16796200  1.0
  Zr  Zr1358  1  0.92904433  0.72135867  0.16796200  1.0
  Zr  Zr1359  1  0.09571100  0.17373962  0.23939057  1.0
  Zr  Zr1360  1  0.09571100  0.50707295  0.23939057  1.0
  Zr  Zr1361  1  0.09571100  0.84040629  0.23939057  1.0
  Zr  Zr1362  1  0.42904433  0.17373962  0.23939057  1.0
  Zr  Zr1363  1  0.42904433  0.50707295  0.23939057  1.0
  Zr  Zr1364  1  0.42904433  0.84040629  0.23939057  1.0
  Zr  Zr1365  1  0.76237767  0.17373962  0.23939057  1.0
  Zr  Zr1366  1  0.76237767  0.50707295  0.23939057  1.0
  Zr  Zr1367  1  0.76237767  0.84040629  0.23939057  1.0
  Zr  Zr1368  1  0.26237767  0.00000000  0.25000000  1.0
  Zr  Zr1369  1  0.26237767  0.33333333  0.25000000  1.0
  Zr  Zr1370  1  0.26237767  0.66666667  0.25000000  1.0
  Zr  Zr1371  1  0.59571100  0.00000000  0.25000000  1.0
  Zr  Zr1372  1  0.59571100  0.33333333  0.25000000  1.0
  Zr  Zr1373  1  0.59571100  0.66666667  0.25000000  1.0
  Zr  Zr1374  1  0.92904433  0.00000000  0.25000000  1.0
  Zr  Zr1375  1  0.92904433  0.33333333  0.25000000  1.0
  Zr  Zr1376  1  0.92904433  0.66666667  0.25000000  1.0
  Zr  Zr1377  1  0.09571100  0.21428571  0.17857143  1.0
  Zr  Zr1378  1  0.09571100  0.54761905  0.17857143  1.0
  Zr  Zr1379  1  0.09571100  0.88095238  0.17857143  1.0
  Zr  Zr1380  1  0.42904433  0.21428571  0.17857143  1.0
  Zr  Zr1381  1  0.42904433  0.54761905  0.17857143  1.0
  Zr  Zr1382  1  0.42904433  0.88095238  0.17857143  1.0
  Zr  Zr1383  1  0.76237767  0.21428571  0.17857143  1.0
  Zr  Zr1384  1  0.76237767  0.54761905  0.17857143  1.0
  Zr  Zr1385  1  0.76237767  0.88095238  0.17857143  1.0
  Zr  Zr1386  1  0.33333333  0.10537462  0.19837157  1.0
  Zr  Zr1387  1  0.33333333  0.43870795  0.19837157  1.0
  Zr  Zr1388  1  0.33333333  0.77204129  0.19837157  1.0
  Zr  Zr1389  1  0.66666667  0.10537462  0.19837157  1.0
  Zr  Zr1390  1  0.66666667  0.43870795  0.19837157  1.0
  Zr  Zr1391  1  0.66666667  0.77204129  0.19837157  1.0
  Zr  Zr1392  1  1.00000000  0.10537462  0.19837157  1.0
  Zr  Zr1393  1  1.00000000  0.43870795  0.19837157  1.0
  Zr  Zr1394  1  1.00000000  0.77204129  0.19837157  1.0
  Zr  Zr1395  1  0.16666667  0.22442224  0.26980014  1.0
  Zr  Zr1396  1  0.16666667  0.55775557  0.26980014  1.0
  Zr  Zr1397  1  0.16666667  0.89108890  0.26980014  1.0
  Zr  Zr1398  1  0.50000000  0.22442224  0.26980014  1.0
  Zr  Zr1399  1  0.50000000  0.55775557  0.26980014  1.0
  Zr  Zr1400  1  0.50000000  0.89108890  0.26980014  1.0
  Zr  Zr1401  1  0.83333333  0.22442224  0.26980014  1.0
  Zr  Zr1402  1  0.83333333  0.55775557  0.26980014  1.0
  Zr  Zr1403  1  0.83333333  0.89108890  0.26980014  1.0
  Zr  Zr1404  1  0.07095567  0.00000000  0.25000000  1.0
  Zr  Zr1405  1  0.07095567  0.33333333  0.25000000  1.0
  Zr  Zr1406  1  0.07095567  0.66666667  0.25000000  1.0
  Zr  Zr1407  1  0.40428900  0.00000000  0.25000000  1.0
  Zr  Zr1408  1  0.40428900  0.33333333  0.25000000  1.0
  Zr  Zr1409  1  0.40428900  0.66666667  0.25000000  1.0
  Zr  Zr1410  1  0.73762233  0.00000000  0.25000000  1.0
  Zr  Zr1411  1  0.73762233  0.33333333  0.25000000  1.0
  Zr  Zr1412  1  0.73762233  0.66666667  0.25000000  1.0
  Zr  Zr1413  1  0.23762233  0.21428571  0.17857143  1.0
  Zr  Zr1414  1  0.23762233  0.54761905  0.17857143  1.0
  Zr  Zr1415  1  0.23762233  0.88095238  0.17857143  1.0
  Zr  Zr1416  1  0.57095567  0.21428571  0.17857143  1.0
  Zr  Zr1417  1  0.57095567  0.54761905  0.17857143  1.0
  Zr  Zr1418  1  0.57095567  0.88095238  0.17857143  1.0
  Zr  Zr1419  1  0.90428900  0.21428571  0.17857143  1.0
  Zr  Zr1420  1  0.90428900  0.54761905  0.17857143  1.0
  Zr  Zr1421  1  0.90428900  0.88095238  0.17857143  1.0
  Zr  Zr1422  1  0.07095567  0.05469200  0.16796200  1.0
  Zr  Zr1423  1  0.07095567  0.38802533  0.16796200  1.0
  Zr  Zr1424  1  0.07095567  0.72135867  0.16796200  1.0
  Zr  Zr1425  1  0.40428900  0.05469200  0.16796200  1.0
  Zr  Zr1426  1  0.40428900  0.38802533  0.16796200  1.0
  Zr  Zr1427  1  0.40428900  0.72135867  0.16796200  1.0
  Zr  Zr1428  1  0.73762233  0.05469200  0.16796200  1.0
  Zr  Zr1429  1  0.73762233  0.38802533  0.16796200  1.0
  Zr  Zr1430  1  0.73762233  0.72135867  0.16796200  1.0
  Zr  Zr1431  1  0.23762233  0.17373962  0.23939057  1.0
  Zr  Zr1432  1  0.23762233  0.50707295  0.23939057  1.0
  Zr  Zr1433  1  0.23762233  0.84040629  0.23939057  1.0
  Zr  Zr1434  1  0.57095567  0.17373962  0.23939057  1.0
  Zr  Zr1435  1  0.57095567  0.50707295  0.23939057  1.0
  Zr  Zr1436  1  0.57095567  0.84040629  0.23939057  1.0
  Zr  Zr1437  1  0.90428900  0.17373962  0.23939057  1.0
  Zr  Zr1438  1  0.90428900  0.50707295  0.23939057  1.0
  Zr  Zr1439  1  0.90428900  0.84040629  0.23939057  1.0
  Zr  Zr1440  1  0.33333333  0.28265071  0.21959043  1.0
  Zr  Zr1441  1  0.33333333  0.61598405  0.21959043  1.0
  Zr  Zr1442  1  0.33333333  0.94931738  0.21959043  1.0
  Zr  Zr1443  1  0.66666667  0.28265071  0.21959043  1.0
  Zr  Zr1444  1  0.66666667  0.61598405  0.21959043  1.0
  Zr  Zr1445  1  0.66666667  0.94931738  0.21959043  1.0
  Zr  Zr1446  1  1.00000000  0.28265071  0.21959043  1.0
  Zr  Zr1447  1  1.00000000  0.61598405  0.21959043  1.0
  Zr  Zr1448  1  1.00000000  0.94931738  0.21959043  1.0
  Zr  Zr1449  1  0.16666667  0.16360310  0.14816186  1.0
  Zr  Zr1450  1  0.16666667  0.49693643  0.14816186  1.0
  Zr  Zr1451  1  0.16666667  0.83026976  0.14816186  1.0
  Zr  Zr1452  1  0.50000000  0.16360310  0.14816186  1.0
  Zr  Zr1453  1  0.50000000  0.49693643  0.14816186  1.0
  Zr  Zr1454  1  0.50000000  0.83026976  0.14816186  1.0
  Zr  Zr1455  1  0.83333333  0.16360310  0.14816186  1.0
  Zr  Zr1456  1  0.83333333  0.49693643  0.14816186  1.0
  Zr  Zr1457  1  0.83333333  0.83026976  0.14816186  1.0
  Zr  Zr1458  1  0.26237767  0.29278724  0.31081914  1.0
  Zr  Zr1459  1  0.26237767  0.62612057  0.31081914  1.0
  Zr  Zr1460  1  0.26237767  0.95945390  0.31081914  1.0
  Zr  Zr1461  1  0.59571100  0.29278724  0.31081914  1.0
  Zr  Zr1462  1  0.59571100  0.62612057  0.31081914  1.0
  Zr  Zr1463  1  0.59571100  0.95945390  0.31081914  1.0
  Zr  Zr1464  1  0.92904433  0.29278724  0.31081914  1.0
  Zr  Zr1465  1  0.92904433  0.62612057  0.31081914  1.0
  Zr  Zr1466  1  0.92904433  0.95945390  0.31081914  1.0
  Zr  Zr1467  1  0.09571100  0.07850152  0.38224771  1.0
  Zr  Zr1468  1  0.09571100  0.41183486  0.38224771  1.0
  Zr  Zr1469  1  0.09571100  0.74516819  0.38224771  1.0
  Zr  Zr1470  1  0.42904433  0.07850152  0.38224771  1.0
  Zr  Zr1471  1  0.42904433  0.41183486  0.38224771  1.0
  Zr  Zr1472  1  0.42904433  0.74516819  0.38224771  1.0
  Zr  Zr1473  1  0.76237767  0.07850152  0.38224771  1.0
  Zr  Zr1474  1  0.76237767  0.41183486  0.38224771  1.0
  Zr  Zr1475  1  0.76237767  0.74516819  0.38224771  1.0
  Zr  Zr1476  1  0.26237767  0.23809524  0.39285714  1.0
  Zr  Zr1477  1  0.26237767  0.57142857  0.39285714  1.0
  Zr  Zr1478  1  0.26237767  0.90476190  0.39285714  1.0
  Zr  Zr1479  1  0.59571100  0.23809524  0.39285714  1.0
  Zr  Zr1480  1  0.59571100  0.57142857  0.39285714  1.0
  Zr  Zr1481  1  0.59571100  0.90476190  0.39285714  1.0
  Zr  Zr1482  1  0.92904433  0.23809524  0.39285714  1.0
  Zr  Zr1483  1  0.92904433  0.57142857  0.39285714  1.0
  Zr  Zr1484  1  0.92904433  0.90476190  0.39285714  1.0
  Zr  Zr1485  1  0.09571100  0.11904762  0.32142857  1.0
  Zr  Zr1486  1  0.09571100  0.45238095  0.32142857  1.0
  Zr  Zr1487  1  0.09571100  0.78571429  0.32142857  1.0
  Zr  Zr1488  1  0.42904433  0.11904762  0.32142857  1.0
  Zr  Zr1489  1  0.42904433  0.45238095  0.32142857  1.0
  Zr  Zr1490  1  0.42904433  0.78571429  0.32142857  1.0
  Zr  Zr1491  1  0.76237767  0.11904762  0.32142857  1.0
  Zr  Zr1492  1  0.76237767  0.45238095  0.32142857  1.0
  Zr  Zr1493  1  0.76237767  0.78571429  0.32142857  1.0
  Zr  Zr1494  1  0.33333333  0.01013652  0.34122871  1.0
  Zr  Zr1495  1  0.33333333  0.34346986  0.34122871  1.0
  Zr  Zr1496  1  0.33333333  0.67680319  0.34122871  1.0
  Zr  Zr1497  1  0.66666667  0.01013652  0.34122871  1.0
  Zr  Zr1498  1  0.66666667  0.34346986  0.34122871  1.0
  Zr  Zr1499  1  0.66666667  0.67680319  0.34122871  1.0
  Zr  Zr1500  1  1.00000000  0.01013652  0.34122871  1.0
  Zr  Zr1501  1  1.00000000  0.34346986  0.34122871  1.0
  Zr  Zr1502  1  1.00000000  0.67680319  0.34122871  1.0
  Zr  Zr1503  1  0.16666667  0.12918414  0.41265729  1.0
  Zr  Zr1504  1  0.16666667  0.46251748  0.41265729  1.0
  Zr  Zr1505  1  0.16666667  0.79585081  0.41265729  1.0
  Zr  Zr1506  1  0.50000000  0.12918414  0.41265729  1.0
  Zr  Zr1507  1  0.50000000  0.46251748  0.41265729  1.0
  Zr  Zr1508  1  0.50000000  0.79585081  0.41265729  1.0
  Zr  Zr1509  1  0.83333333  0.12918414  0.41265729  1.0
  Zr  Zr1510  1  0.83333333  0.46251748  0.41265729  1.0
  Zr  Zr1511  1  0.83333333  0.79585081  0.41265729  1.0
  Zr  Zr1512  1  0.07095567  0.23809524  0.39285714  1.0
  Zr  Zr1513  1  0.07095567  0.57142857  0.39285714  1.0
  Zr  Zr1514  1  0.07095567  0.90476190  0.39285714  1.0
  Zr  Zr1515  1  0.40428900  0.23809524  0.39285714  1.0
  Zr  Zr1516  1  0.40428900  0.57142857  0.39285714  1.0
  Zr  Zr1517  1  0.40428900  0.90476190  0.39285714  1.0
  Zr  Zr1518  1  0.73762233  0.23809524  0.39285714  1.0
  Zr  Zr1519  1  0.73762233  0.57142857  0.39285714  1.0
  Zr  Zr1520  1  0.73762233  0.90476190  0.39285714  1.0
  Zr  Zr1521  1  0.23762233  0.11904762  0.32142857  1.0
  Zr  Zr1522  1  0.23762233  0.45238095  0.32142857  1.0
  Zr  Zr1523  1  0.23762233  0.78571429  0.32142857  1.0
  Zr  Zr1524  1  0.57095567  0.11904762  0.32142857  1.0
  Zr  Zr1525  1  0.57095567  0.45238095  0.32142857  1.0
  Zr  Zr1526  1  0.57095567  0.78571429  0.32142857  1.0
  Zr  Zr1527  1  0.90428900  0.11904762  0.32142857  1.0
  Zr  Zr1528  1  0.90428900  0.45238095  0.32142857  1.0
  Zr  Zr1529  1  0.90428900  0.78571429  0.32142857  1.0
  Zr  Zr1530  1  0.07095567  0.29278724  0.31081914  1.0
  Zr  Zr1531  1  0.07095567  0.62612057  0.31081914  1.0
  Zr  Zr1532  1  0.07095567  0.95945390  0.31081914  1.0
  Zr  Zr1533  1  0.40428900  0.29278724  0.31081914  1.0
  Zr  Zr1534  1  0.40428900  0.62612057  0.31081914  1.0
  Zr  Zr1535  1  0.40428900  0.95945390  0.31081914  1.0
  Zr  Zr1536  1  0.73762233  0.29278724  0.31081914  1.0
  Zr  Zr1537  1  0.73762233  0.62612057  0.31081914  1.0
  Zr  Zr1538  1  0.73762233  0.95945390  0.31081914  1.0
  Zr  Zr1539  1  0.23762233  0.07850152  0.38224771  1.0
  Zr  Zr1540  1  0.23762233  0.41183486  0.38224771  1.0
  Zr  Zr1541  1  0.23762233  0.74516819  0.38224771  1.0
  Zr  Zr1542  1  0.57095567  0.07850152  0.38224771  1.0
  Zr  Zr1543  1  0.57095567  0.41183486  0.38224771  1.0
  Zr  Zr1544  1  0.57095567  0.74516819  0.38224771  1.0
  Zr  Zr1545  1  0.90428900  0.07850152  0.38224771  1.0
  Zr  Zr1546  1  0.90428900  0.41183486  0.38224771  1.0
  Zr  Zr1547  1  0.90428900  0.74516819  0.38224771  1.0
  Zr  Zr1548  1  0.33333333  0.18741262  0.36244757  1.0
  Zr  Zr1549  1  0.33333333  0.52074595  0.36244757  1.0
  Zr  Zr1550  1  0.33333333  0.85407929  0.36244757  1.0
  Zr  Zr1551  1  0.66666667  0.18741262  0.36244757  1.0
  Zr  Zr1552  1  0.66666667  0.52074595  0.36244757  1.0
  Zr  Zr1553  1  0.66666667  0.85407929  0.36244757  1.0
  Zr  Zr1554  1  1.00000000  0.18741262  0.36244757  1.0
  Zr  Zr1555  1  1.00000000  0.52074595  0.36244757  1.0
  Zr  Zr1556  1  1.00000000  0.85407929  0.36244757  1.0
  Zr  Zr1557  1  0.16666667  0.06836500  0.29101900  1.0
  Zr  Zr1558  1  0.16666667  0.40169833  0.29101900  1.0
  Zr  Zr1559  1  0.16666667  0.73503167  0.29101900  1.0
  Zr  Zr1560  1  0.50000000  0.06836500  0.29101900  1.0
  Zr  Zr1561  1  0.50000000  0.40169833  0.29101900  1.0
  Zr  Zr1562  1  0.50000000  0.73503167  0.29101900  1.0
  Zr  Zr1563  1  0.83333333  0.06836500  0.29101900  1.0
  Zr  Zr1564  1  0.83333333  0.40169833  0.29101900  1.0
  Zr  Zr1565  1  0.83333333  0.73503167  0.29101900  1.0
