# generated using pymatgen
data_Zr6Ni23
_symmetry_space_group_name_H-M   'P 1'
_cell_length_a   34.28112601
_cell_length_b   41.98563327
_cell_length_c   25.55164270
_cell_angle_alpha   90.00000000
_cell_angle_beta   90.00000000
_cell_angle_gamma   114.09484255
_symmetry_Int_Tables_number   1
_chemical_formula_structural   Zr6Ni23
_chemical_formula_sum   'Zr216 Ni828'
_cell_volume   33572.52372973
_cell_formula_units_Z   36
loop_
 _symmetry_equiv_pos_site_id
 _symmetry_equiv_pos_as_xyz
  1  'x, y, z'
loop_
 _atom_site_type_symbol
 _atom_site_label
 _atom_site_symmetry_multiplicity
 _atom_site_fract_x
 _atom_site_fract_y
 _atom_site_fract_z
 _atom_site_occupancy
  Ni  Ni0  1  0.09398030  0.19799343  0.09398030  1.0
  Ni  Ni1  1  0.09398030  0.53132677  0.09398030  1.0
  Ni  Ni2  1  0.09398030  0.86466010  0.09398030  1.0
  Ni  Ni3  1  0.42731363  0.19799343  0.09398030  1.0
  Ni  Ni4  1  0.42731363  0.53132677  0.09398030  1.0
  Ni  Ni5  1  0.42731363  0.86466010  0.09398030  1.0
  Ni  Ni6  1  0.76064697  0.19799343  0.09398030  1.0
  Ni  Ni7  1  0.76064697  0.53132677  0.09398030  1.0
  Ni  Ni8  1  0.76064697  0.86466010  0.09398030  1.0
  Ni  Ni9  1  0.19398030  0.06466010  0.19398030  1.0
  Ni  Ni10  1  0.19398030  0.39799343  0.19398030  1.0
  Ni  Ni11  1  0.19398030  0.73132677  0.19398030  1.0
  Ni  Ni12  1  0.52731363  0.06466010  0.19398030  1.0
  Ni  Ni13  1  0.52731363  0.39799343  0.19398030  1.0
  Ni  Ni14  1  0.52731363  0.73132677  0.19398030  1.0
  Ni  Ni15  1  0.86064697  0.06466010  0.19398030  1.0
  Ni  Ni16  1  0.86064697  0.39799343  0.19398030  1.0
  Ni  Ni17  1  0.86064697  0.73132677  0.19398030  1.0
  Ni  Ni18  1  0.31064697  0.13132677  0.14398030  1.0
  Ni  Ni19  1  0.31064697  0.46466010  0.14398030  1.0
  Ni  Ni20  1  0.31064697  0.79799343  0.14398030  1.0
  Ni  Ni21  1  0.64398030  0.13132677  0.14398030  1.0
  Ni  Ni22  1  0.64398030  0.46466010  0.14398030  1.0
  Ni  Ni23  1  0.64398030  0.79799343  0.14398030  1.0
  Ni  Ni24  1  0.97731363  0.13132677  0.14398030  1.0
  Ni  Ni25  1  0.97731363  0.46466010  0.14398030  1.0
  Ni  Ni26  1  0.97731363  0.79799343  0.14398030  1.0
  Ni  Ni27  1  0.21064697  0.26466010  0.04398030  1.0
  Ni  Ni28  1  0.21064697  0.59799343  0.04398030  1.0
  Ni  Ni29  1  0.21064697  0.93132677  0.04398030  1.0
  Ni  Ni30  1  0.54398030  0.26466010  0.04398030  1.0
  Ni  Ni31  1  0.54398030  0.59799343  0.04398030  1.0
  Ni  Ni32  1  0.54398030  0.93132677  0.04398030  1.0
  Ni  Ni33  1  0.87731363  0.26466010  0.04398030  1.0
  Ni  Ni34  1  0.87731363  0.59799343  0.04398030  1.0
  Ni  Ni35  1  0.87731363  0.93132677  0.04398030  1.0
  Ni  Ni36  1  0.21064697  0.09799343  0.04398030  1.0
  Ni  Ni37  1  0.21064697  0.43132677  0.04398030  1.0
  Ni  Ni38  1  0.21064697  0.76466010  0.04398030  1.0
  Ni  Ni39  1  0.54398030  0.09799343  0.04398030  1.0
  Ni  Ni40  1  0.54398030  0.43132677  0.04398030  1.0
  Ni  Ni41  1  0.54398030  0.76466010  0.04398030  1.0
  Ni  Ni42  1  0.87731363  0.09799343  0.04398030  1.0
  Ni  Ni43  1  0.87731363  0.43132677  0.04398030  1.0
  Ni  Ni44  1  0.87731363  0.76466010  0.04398030  1.0
  Ni  Ni45  1  0.31064697  0.29799343  0.14398030  1.0
  Ni  Ni46  1  0.31064697  0.63132677  0.14398030  1.0
  Ni  Ni47  1  0.31064697  0.96466010  0.14398030  1.0
  Ni  Ni48  1  0.64398030  0.29799343  0.14398030  1.0
  Ni  Ni49  1  0.64398030  0.63132677  0.14398030  1.0
  Ni  Ni50  1  0.64398030  0.96466010  0.14398030  1.0
  Ni  Ni51  1  0.97731363  0.29799343  0.14398030  1.0
  Ni  Ni52  1  0.97731363  0.63132677  0.14398030  1.0
  Ni  Ni53  1  0.97731363  0.96466010  0.14398030  1.0
  Ni  Ni54  1  0.26064697  0.03132677  0.09398030  1.0
  Ni  Ni55  1  0.26064697  0.36466010  0.09398030  1.0
  Ni  Ni56  1  0.26064697  0.69799343  0.09398030  1.0
  Ni  Ni57  1  0.59398030  0.03132677  0.09398030  1.0
  Ni  Ni58  1  0.59398030  0.36466010  0.09398030  1.0
  Ni  Ni59  1  0.59398030  0.69799343  0.09398030  1.0
  Ni  Ni60  1  0.92731363  0.03132677  0.09398030  1.0
  Ni  Ni61  1  0.92731363  0.36466010  0.09398030  1.0
  Ni  Ni62  1  0.92731363  0.69799343  0.09398030  1.0
  Ni  Ni63  1  0.02731363  0.23132677  0.19398030  1.0
  Ni  Ni64  1  0.02731363  0.56466010  0.19398030  1.0
  Ni  Ni65  1  0.02731363  0.89799343  0.19398030  1.0
  Ni  Ni66  1  0.36064697  0.23132677  0.19398030  1.0
  Ni  Ni67  1  0.36064697  0.56466010  0.19398030  1.0
  Ni  Ni68  1  0.36064697  0.89799343  0.19398030  1.0
  Ni  Ni69  1  0.69398030  0.23132677  0.19398030  1.0
  Ni  Ni70  1  0.69398030  0.56466010  0.19398030  1.0
  Ni  Ni71  1  0.69398030  0.89799343  0.19398030  1.0
  Ni  Ni72  1  0.14398030  0.13132677  0.14398030  1.0
  Ni  Ni73  1  0.14398030  0.46466010  0.14398030  1.0
  Ni  Ni74  1  0.14398030  0.79799343  0.14398030  1.0
  Ni  Ni75  1  0.47731363  0.13132677  0.14398030  1.0
  Ni  Ni76  1  0.47731363  0.46466010  0.14398030  1.0
  Ni  Ni77  1  0.47731363  0.79799343  0.14398030  1.0
  Ni  Ni78  1  0.81064697  0.13132677  0.14398030  1.0
  Ni  Ni79  1  0.81064697  0.46466010  0.14398030  1.0
  Ni  Ni80  1  0.81064697  0.79799343  0.14398030  1.0
  Ni  Ni81  1  0.04398030  0.26466010  0.04398030  1.0
  Ni  Ni82  1  0.04398030  0.59799343  0.04398030  1.0
  Ni  Ni83  1  0.04398030  0.93132677  0.04398030  1.0
  Ni  Ni84  1  0.37731363  0.26466010  0.04398030  1.0
  Ni  Ni85  1  0.37731363  0.59799343  0.04398030  1.0
  Ni  Ni86  1  0.37731363  0.93132677  0.04398030  1.0
  Ni  Ni87  1  0.71064697  0.26466010  0.04398030  1.0
  Ni  Ni88  1  0.71064697  0.59799343  0.04398030  1.0
  Ni  Ni89  1  0.71064697  0.93132677  0.04398030  1.0
  Ni  Ni90  1  0.04398030  0.09799343  0.04398030  1.0
  Ni  Ni91  1  0.04398030  0.43132677  0.04398030  1.0
  Ni  Ni92  1  0.04398030  0.76466010  0.04398030  1.0
  Ni  Ni93  1  0.37731363  0.09799343  0.04398030  1.0
  Ni  Ni94  1  0.37731363  0.43132677  0.04398030  1.0
  Ni  Ni95  1  0.37731363  0.76466010  0.04398030  1.0
  Ni  Ni96  1  0.71064697  0.09799343  0.04398030  1.0
  Ni  Ni97  1  0.71064697  0.43132677  0.04398030  1.0
  Ni  Ni98  1  0.71064697  0.76466010  0.04398030  1.0
  Ni  Ni99  1  0.14398030  0.29799343  0.14398030  1.0
  Ni  Ni100  1  0.14398030  0.63132677  0.14398030  1.0
  Ni  Ni101  1  0.14398030  0.96466010  0.14398030  1.0
  Ni  Ni102  1  0.47731363  0.29799343  0.14398030  1.0
  Ni  Ni103  1  0.47731363  0.63132677  0.14398030  1.0
  Ni  Ni104  1  0.47731363  0.96466010  0.14398030  1.0
  Ni  Ni105  1  0.81064697  0.29799343  0.14398030  1.0
  Ni  Ni106  1  0.81064697  0.63132677  0.14398030  1.0
  Ni  Ni107  1  0.81064697  0.96466010  0.14398030  1.0
  Ni  Ni108  1  0.19398030  0.23132677  0.19398030  1.0
  Ni  Ni109  1  0.19398030  0.56466010  0.19398030  1.0
  Ni  Ni110  1  0.19398030  0.89799343  0.19398030  1.0
  Ni  Ni111  1  0.52731363  0.23132677  0.19398030  1.0
  Ni  Ni112  1  0.52731363  0.56466010  0.19398030  1.0
  Ni  Ni113  1  0.52731363  0.89799343  0.19398030  1.0
  Ni  Ni114  1  0.86064697  0.23132677  0.19398030  1.0
  Ni  Ni115  1  0.86064697  0.56466010  0.19398030  1.0
  Ni  Ni116  1  0.86064697  0.89799343  0.19398030  1.0
  Ni  Ni117  1  0.09398030  0.03132677  0.09398030  1.0
  Ni  Ni118  1  0.09398030  0.36466010  0.09398030  1.0
  Ni  Ni119  1  0.09398030  0.69799343  0.09398030  1.0
  Ni  Ni120  1  0.42731363  0.03132677  0.09398030  1.0
  Ni  Ni121  1  0.42731363  0.36466010  0.09398030  1.0
  Ni  Ni122  1  0.42731363  0.69799343  0.09398030  1.0
  Ni  Ni123  1  0.76064697  0.03132677  0.09398030  1.0
  Ni  Ni124  1  0.76064697  0.36466010  0.09398030  1.0
  Ni  Ni125  1  0.76064697  0.69799343  0.09398030  1.0
  Ni  Ni126  1  0.27933057  0.31533241  0.06595490  1.0
  Ni  Ni127  1  0.27933057  0.64866575  0.06595490  1.0
  Ni  Ni128  1  0.27933057  0.98199908  0.06595490  1.0
  Ni  Ni129  1  0.61266390  0.31533241  0.06595490  1.0
  Ni  Ni130  1  0.61266390  0.64866575  0.06595490  1.0
  Ni  Ni131  1  0.61266390  0.98199908  0.06595490  1.0
  Ni  Ni132  1  0.94599723  0.31533241  0.06595490  1.0
  Ni  Ni133  1  0.94599723  0.64866575  0.06595490  1.0
  Ni  Ni134  1  0.94599723  0.98199908  0.06595490  1.0
  Ni  Ni135  1  0.04599723  0.18199908  0.16595490  1.0
  Ni  Ni136  1  0.04599723  0.51533241  0.16595490  1.0
  Ni  Ni137  1  0.04599723  0.84866575  0.16595490  1.0
  Ni  Ni138  1  0.37933057  0.18199908  0.16595490  1.0
  Ni  Ni139  1  0.37933057  0.51533241  0.16595490  1.0
  Ni  Ni140  1  0.37933057  0.84866575  0.16595490  1.0
  Ni  Ni141  1  0.71266390  0.18199908  0.16595490  1.0
  Ni  Ni142  1  0.71266390  0.51533241  0.16595490  1.0
  Ni  Ni143  1  0.71266390  0.84866575  0.16595490  1.0
  Ni  Ni144  1  0.20997466  0.01667703  0.16998877  1.0
  Ni  Ni145  1  0.20997466  0.35001037  0.16998877  1.0
  Ni  Ni146  1  0.20997466  0.68334370  0.16998877  1.0
  Ni  Ni147  1  0.54330799  0.01667703  0.16998877  1.0
  Ni  Ni148  1  0.54330799  0.35001037  0.16998877  1.0
  Ni  Ni149  1  0.54330799  0.68334370  0.16998877  1.0
  Ni  Ni150  1  0.87664132  0.01667703  0.16998877  1.0
  Ni  Ni151  1  0.87664132  0.35001037  0.16998877  1.0
  Ni  Ni152  1  0.87664132  0.68334370  0.16998877  1.0
  Ni  Ni153  1  0.10997466  0.15001037  0.06998877  1.0
  Ni  Ni154  1  0.10997466  0.48334370  0.06998877  1.0
  Ni  Ni155  1  0.10997466  0.81667703  0.06998877  1.0
  Ni  Ni156  1  0.44330799  0.15001037  0.06998877  1.0
  Ni  Ni157  1  0.44330799  0.48334370  0.06998877  1.0
  Ni  Ni158  1  0.44330799  0.81667703  0.06998877  1.0
  Ni  Ni159  1  0.77664132  0.15001037  0.06998877  1.0
  Ni  Ni160  1  0.77664132  0.48334370  0.06998877  1.0
  Ni  Ni161  1  0.77664132  0.81667703  0.06998877  1.0
  Ni  Ni162  1  0.06199159  0.21398779  0.02200570  1.0
  Ni  Ni163  1  0.06199159  0.54732112  0.02200570  1.0
  Ni  Ni164  1  0.06199159  0.88065446  0.02200570  1.0
  Ni  Ni165  1  0.39532492  0.21398779  0.02200570  1.0
  Ni  Ni166  1  0.39532492  0.54732112  0.02200570  1.0
  Ni  Ni167  1  0.39532492  0.88065446  0.02200570  1.0
  Ni  Ni168  1  0.72865826  0.21398779  0.02200570  1.0
  Ni  Ni169  1  0.72865826  0.54732112  0.02200570  1.0
  Ni  Ni170  1  0.72865826  0.88065446  0.02200570  1.0
  Ni  Ni171  1  0.16199159  0.08065446  0.12200570  1.0
  Ni  Ni172  1  0.16199159  0.41398779  0.12200570  1.0
  Ni  Ni173  1  0.16199159  0.74732112  0.12200570  1.0
  Ni  Ni174  1  0.49532492  0.08065446  0.12200570  1.0
  Ni  Ni175  1  0.49532492  0.41398779  0.12200570  1.0
  Ni  Ni176  1  0.49532492  0.74732112  0.12200570  1.0
  Ni  Ni177  1  0.82865826  0.08065446  0.12200570  1.0
  Ni  Ni178  1  0.82865826  0.41398779  0.12200570  1.0
  Ni  Ni179  1  0.82865826  0.74732112  0.12200570  1.0
  Ni  Ni180  1  0.15795772  0.24597650  0.11797183  1.0
  Ni  Ni181  1  0.15795772  0.57930983  0.11797183  1.0
  Ni  Ni182  1  0.15795772  0.91264317  0.11797183  1.0
  Ni  Ni183  1  0.49129106  0.24597650  0.11797183  1.0
  Ni  Ni184  1  0.49129106  0.57930983  0.11797183  1.0
  Ni  Ni185  1  0.49129106  0.91264317  0.11797183  1.0
  Ni  Ni186  1  0.82462439  0.24597650  0.11797183  1.0
  Ni  Ni187  1  0.82462439  0.57930983  0.11797183  1.0
  Ni  Ni188  1  0.82462439  0.91264317  0.11797183  1.0
  Ni  Ni189  1  0.05795772  0.04597650  0.01797183  1.0
  Ni  Ni190  1  0.05795772  0.37930983  0.01797183  1.0
  Ni  Ni191  1  0.05795772  0.71264317  0.01797183  1.0
  Ni  Ni192  1  0.39129106  0.04597650  0.01797183  1.0
  Ni  Ni193  1  0.39129106  0.37930983  0.01797183  1.0
  Ni  Ni194  1  0.39129106  0.71264317  0.01797183  1.0
  Ni  Ni195  1  0.72462439  0.04597650  0.01797183  1.0
  Ni  Ni196  1  0.72462439  0.37930983  0.01797183  1.0
  Ni  Ni197  1  0.72462439  0.71264317  0.01797183  1.0
  Ni  Ni198  1  0.24196337  0.08065445  0.12200570  1.0
  Ni  Ni199  1  0.24196337  0.41398779  0.12200570  1.0
  Ni  Ni200  1  0.24196337  0.74732112  0.12200570  1.0
  Ni  Ni201  1  0.57529670  0.08065445  0.12200570  1.0
  Ni  Ni202  1  0.57529670  0.41398779  0.12200570  1.0
  Ni  Ni203  1  0.57529670  0.74732112  0.12200570  1.0
  Ni  Ni204  1  0.90863003  0.08065445  0.12200570  1.0
  Ni  Ni205  1  0.90863003  0.41398779  0.12200570  1.0
  Ni  Ni206  1  0.90863003  0.74732112  0.12200570  1.0
  Ni  Ni207  1  0.14196337  0.21398779  0.02200570  1.0
  Ni  Ni208  1  0.14196337  0.54732112  0.02200570  1.0
  Ni  Ni209  1  0.14196337  0.88065445  0.02200570  1.0
  Ni  Ni210  1  0.47529670  0.21398779  0.02200570  1.0
  Ni  Ni211  1  0.47529670  0.54732112  0.02200570  1.0
  Ni  Ni212  1  0.47529670  0.88065445  0.02200570  1.0
  Ni  Ni213  1  0.80863003  0.21398779  0.02200570  1.0
  Ni  Ni214  1  0.80863003  0.54732112  0.02200570  1.0
  Ni  Ni215  1  0.80863003  0.88065445  0.02200570  1.0
  Ni  Ni216  1  0.31131928  0.04597650  0.01797183  1.0
  Ni  Ni217  1  0.31131928  0.37930983  0.01797183  1.0
  Ni  Ni218  1  0.31131928  0.71264317  0.01797183  1.0
  Ni  Ni219  1  0.64465261  0.04597650  0.01797183  1.0
  Ni  Ni220  1  0.64465261  0.37930983  0.01797183  1.0
  Ni  Ni221  1  0.64465261  0.71264317  0.01797183  1.0
  Ni  Ni222  1  0.97798594  0.04597650  0.01797183  1.0
  Ni  Ni223  1  0.97798594  0.37930983  0.01797183  1.0
  Ni  Ni224  1  0.97798594  0.71264317  0.01797183  1.0
  Ni  Ni225  1  0.07798594  0.24597650  0.11797183  1.0
  Ni  Ni226  1  0.07798594  0.57930983  0.11797183  1.0
  Ni  Ni227  1  0.07798594  0.91264317  0.11797183  1.0
  Ni  Ni228  1  0.41131928  0.24597650  0.11797183  1.0
  Ni  Ni229  1  0.41131928  0.57930983  0.11797183  1.0
  Ni  Ni230  1  0.41131928  0.91264317  0.11797183  1.0
  Ni  Ni231  1  0.74465261  0.24597650  0.11797183  1.0
  Ni  Ni232  1  0.74465261  0.57930983  0.11797183  1.0
  Ni  Ni233  1  0.74465261  0.91264317  0.11797183  1.0
  Ni  Ni234  1  0.12596901  0.18199908  0.16595490  1.0
  Ni  Ni235  1  0.12596901  0.51533241  0.16595490  1.0
  Ni  Ni236  1  0.12596901  0.84866574  0.16595490  1.0
  Ni  Ni237  1  0.45930234  0.18199908  0.16595490  1.0
  Ni  Ni238  1  0.45930234  0.51533241  0.16595490  1.0
  Ni  Ni239  1  0.45930234  0.84866574  0.16595490  1.0
  Ni  Ni240  1  0.79263568  0.18199908  0.16595490  1.0
  Ni  Ni241  1  0.79263568  0.51533241  0.16595490  1.0
  Ni  Ni242  1  0.79263568  0.84866574  0.16595490  1.0
  Ni  Ni243  1  0.02596901  0.31533241  0.06595490  1.0
  Ni  Ni244  1  0.02596901  0.64866574  0.06595490  1.0
  Ni  Ni245  1  0.02596901  0.98199908  0.06595490  1.0
  Ni  Ni246  1  0.35930234  0.31533241  0.06595490  1.0
  Ni  Ni247  1  0.35930234  0.64866574  0.06595490  1.0
  Ni  Ni248  1  0.35930234  0.98199908  0.06595490  1.0
  Ni  Ni249  1  0.69263568  0.31533241  0.06595490  1.0
  Ni  Ni250  1  0.69263568  0.64866574  0.06595490  1.0
  Ni  Ni251  1  0.69263568  0.98199908  0.06595490  1.0
  Ni  Ni252  1  0.03000288  0.15001037  0.06998877  1.0
  Ni  Ni253  1  0.03000288  0.48334370  0.06998877  1.0
  Ni  Ni254  1  0.03000288  0.81667703  0.06998877  1.0
  Ni  Ni255  1  0.36333621  0.15001037  0.06998877  1.0
  Ni  Ni256  1  0.36333621  0.48334370  0.06998877  1.0
  Ni  Ni257  1  0.36333621  0.81667703  0.06998877  1.0
  Ni  Ni258  1  0.69666954  0.15001037  0.06998877  1.0
  Ni  Ni259  1  0.69666954  0.48334370  0.06998877  1.0
  Ni  Ni260  1  0.69666954  0.81667703  0.06998877  1.0
  Ni  Ni261  1  0.13000288  0.01667703  0.16998877  1.0
  Ni  Ni262  1  0.13000288  0.35001037  0.16998877  1.0
  Ni  Ni263  1  0.13000288  0.68334370  0.16998877  1.0
  Ni  Ni264  1  0.46333621  0.01667703  0.16998877  1.0
  Ni  Ni265  1  0.46333621  0.35001037  0.16998877  1.0
  Ni  Ni266  1  0.46333621  0.68334370  0.16998877  1.0
  Ni  Ni267  1  0.79666954  0.01667703  0.16998877  1.0
  Ni  Ni268  1  0.79666954  0.35001037  0.16998877  1.0
  Ni  Ni269  1  0.79666954  0.68334370  0.16998877  1.0
  Ni  Ni270  1  0.19585617  0.28750761  0.19116650  1.0
  Ni  Ni271  1  0.19585617  0.62084095  0.19116650  1.0
  Ni  Ni272  1  0.19585617  0.95417428  0.19116650  1.0
  Ni  Ni273  1  0.52918950  0.28750761  0.19116650  1.0
  Ni  Ni274  1  0.52918950  0.62084095  0.19116650  1.0
  Ni  Ni275  1  0.52918950  0.95417428  0.19116650  1.0
  Ni  Ni276  1  0.86252283  0.28750761  0.19116650  1.0
  Ni  Ni277  1  0.86252283  0.62084095  0.19116650  1.0
  Ni  Ni278  1  0.86252283  0.95417428  0.19116650  1.0
  Ni  Ni279  1  0.09585617  0.08750761  0.09116650  1.0
  Ni  Ni280  1  0.09585617  0.42084095  0.09116650  1.0
  Ni  Ni281  1  0.09585617  0.75417428  0.09116650  1.0
  Ni  Ni282  1  0.42918950  0.08750761  0.09116650  1.0
  Ni  Ni283  1  0.42918950  0.42084095  0.09116650  1.0
  Ni  Ni284  1  0.42918950  0.75417428  0.09116650  1.0
  Ni  Ni285  1  0.76252283  0.08750761  0.09116650  1.0
  Ni  Ni286  1  0.76252283  0.42084095  0.09116650  1.0
  Ni  Ni287  1  0.76252283  0.75417428  0.09116650  1.0
  Ni  Ni288  1  0.23779946  0.26653597  0.12825157  1.0
  Ni  Ni289  1  0.23779946  0.59986930  0.12825157  1.0
  Ni  Ni290  1  0.23779946  0.93320263  0.12825157  1.0
  Ni  Ni291  1  0.57113279  0.26653597  0.12825157  1.0
  Ni  Ni292  1  0.57113279  0.59986930  0.12825157  1.0
  Ni  Ni293  1  0.57113279  0.93320263  0.12825157  1.0
  Ni  Ni294  1  0.90446612  0.26653597  0.12825157  1.0
  Ni  Ni295  1  0.90446612  0.59986930  0.12825157  1.0
  Ni  Ni296  1  0.90446612  0.93320263  0.12825157  1.0
  Ni  Ni297  1  0.13779946  0.06653597  0.02825157  1.0
  Ni  Ni298  1  0.13779946  0.39986930  0.02825157  1.0
  Ni  Ni299  1  0.13779946  0.73320263  0.02825157  1.0
  Ni  Ni300  1  0.47113279  0.06653597  0.02825157  1.0
  Ni  Ni301  1  0.47113279  0.39986930  0.02825157  1.0
  Ni  Ni302  1  0.47113279  0.73320263  0.02825157  1.0
  Ni  Ni303  1  0.80446612  0.06653597  0.02825157  1.0
  Ni  Ni304  1  0.80446612  0.39986930  0.02825157  1.0
  Ni  Ni305  1  0.80446612  0.73320263  0.02825157  1.0
  Ni  Ni306  1  0.20634199  0.30847926  0.09679410  1.0
  Ni  Ni307  1  0.20634199  0.64181259  0.09679410  1.0
  Ni  Ni308  1  0.20634199  0.97514592  0.09679410  1.0
  Ni  Ni309  1  0.53967532  0.30847926  0.09679410  1.0
  Ni  Ni310  1  0.53967532  0.64181259  0.09679410  1.0
  Ni  Ni311  1  0.53967532  0.97514592  0.09679410  1.0
  Ni  Ni312  1  0.87300866  0.30847926  0.09679410  1.0
  Ni  Ni313  1  0.87300866  0.64181259  0.09679410  1.0
  Ni  Ni314  1  0.87300866  0.97514592  0.09679410  1.0
  Ni  Ni315  1  0.30634199  0.17514592  0.19679410  1.0
  Ni  Ni316  1  0.30634199  0.50847926  0.19679410  1.0
  Ni  Ni317  1  0.30634199  0.84181259  0.19679410  1.0
  Ni  Ni318  1  0.63967532  0.17514592  0.19679410  1.0
  Ni  Ni319  1  0.63967532  0.50847926  0.19679410  1.0
  Ni  Ni320  1  0.63967532  0.84181259  0.19679410  1.0
  Ni  Ni321  1  0.97300866  0.17514592  0.19679410  1.0
  Ni  Ni322  1  0.97300866  0.50847926  0.19679410  1.0
  Ni  Ni323  1  0.97300866  0.84181259  0.19679410  1.0
  Ni  Ni324  1  0.26925692  0.32945090  0.15970903  1.0
  Ni  Ni325  1  0.26925692  0.66278423  0.15970903  1.0
  Ni  Ni326  1  0.26925692  0.99611757  0.15970903  1.0
  Ni  Ni327  1  0.60259026  0.32945090  0.15970903  1.0
  Ni  Ni328  1  0.60259026  0.66278423  0.15970903  1.0
  Ni  Ni329  1  0.60259026  0.99611757  0.15970903  1.0
  Ni  Ni330  1  0.93592359  0.32945090  0.15970903  1.0
  Ni  Ni331  1  0.93592359  0.66278423  0.15970903  1.0
  Ni  Ni332  1  0.93592359  0.99611757  0.15970903  1.0
  Ni  Ni333  1  0.16925692  0.12945090  0.05970903  1.0
  Ni  Ni334  1  0.16925692  0.46278423  0.05970903  1.0
  Ni  Ni335  1  0.16925692  0.79611757  0.05970903  1.0
  Ni  Ni336  1  0.50259026  0.12945090  0.05970903  1.0
  Ni  Ni337  1  0.50259026  0.46278423  0.05970903  1.0
  Ni  Ni338  1  0.50259026  0.79611757  0.05970903  1.0
  Ni  Ni339  1  0.83592359  0.12945090  0.05970903  1.0
  Ni  Ni340  1  0.83592359  0.46278423  0.05970903  1.0
  Ni  Ni341  1  0.83592359  0.79611757  0.05970903  1.0
  Ni  Ni342  1  0.19210443  0.17514592  0.19679410  1.0
  Ni  Ni343  1  0.19210443  0.50847925  0.19679410  1.0
  Ni  Ni344  1  0.19210443  0.84181259  0.19679410  1.0
  Ni  Ni345  1  0.52543777  0.17514592  0.19679410  1.0
  Ni  Ni346  1  0.52543777  0.50847925  0.19679410  1.0
  Ni  Ni347  1  0.52543777  0.84181259  0.19679410  1.0
  Ni  Ni348  1  0.85877110  0.17514592  0.19679410  1.0
  Ni  Ni349  1  0.85877110  0.50847925  0.19679410  1.0
  Ni  Ni350  1  0.85877110  0.84181259  0.19679410  1.0
  Ni  Ni351  1  0.09210443  0.30847925  0.09679410  1.0
  Ni  Ni352  1  0.09210443  0.64181259  0.09679410  1.0
  Ni  Ni353  1  0.09210443  0.97514592  0.09679410  1.0
  Ni  Ni354  1  0.42543777  0.30847925  0.09679410  1.0
  Ni  Ni355  1  0.42543777  0.64181259  0.09679410  1.0
  Ni  Ni356  1  0.42543777  0.97514592  0.09679410  1.0
  Ni  Ni357  1  0.75877110  0.30847925  0.09679410  1.0
  Ni  Ni358  1  0.75877110  0.64181259  0.09679410  1.0
  Ni  Ni359  1  0.75877110  0.97514592  0.09679410  1.0
  Ni  Ni360  1  0.28349448  0.12945090  0.05970903  1.0
  Ni  Ni361  1  0.28349448  0.46278423  0.05970903  1.0
  Ni  Ni362  1  0.28349448  0.79611757  0.05970903  1.0
  Ni  Ni363  1  0.61682781  0.12945090  0.05970903  1.0
  Ni  Ni364  1  0.61682781  0.46278423  0.05970903  1.0
  Ni  Ni365  1  0.61682781  0.79611757  0.05970903  1.0
  Ni  Ni366  1  0.95016114  0.12945090  0.05970903  1.0
  Ni  Ni367  1  0.95016114  0.46278423  0.05970903  1.0
  Ni  Ni368  1  0.95016114  0.79611757  0.05970903  1.0
  Ni  Ni369  1  0.05016114  0.32945090  0.15970903  1.0
  Ni  Ni370  1  0.05016114  0.66278423  0.15970903  1.0
  Ni  Ni371  1  0.05016114  0.99611757  0.15970903  1.0
  Ni  Ni372  1  0.38349448  0.32945090  0.15970903  1.0
  Ni  Ni373  1  0.38349448  0.66278423  0.15970903  1.0
  Ni  Ni374  1  0.38349448  0.99611757  0.15970903  1.0
  Ni  Ni375  1  0.71682781  0.32945090  0.15970903  1.0
  Ni  Ni376  1  0.71682781  0.66278423  0.15970903  1.0
  Ni  Ni377  1  0.71682781  0.99611757  0.15970903  1.0
  Ni  Ni378  1  0.31495194  0.08750761  0.09116650  1.0
  Ni  Ni379  1  0.31495194  0.42084094  0.09116650  1.0
  Ni  Ni380  1  0.31495194  0.75417428  0.09116650  1.0
  Ni  Ni381  1  0.64828528  0.08750761  0.09116650  1.0
  Ni  Ni382  1  0.64828528  0.42084094  0.09116650  1.0
  Ni  Ni383  1  0.64828528  0.75417428  0.09116650  1.0
  Ni  Ni384  1  0.98161861  0.08750761  0.09116650  1.0
  Ni  Ni385  1  0.98161861  0.42084094  0.09116650  1.0
  Ni  Ni386  1  0.98161861  0.75417428  0.09116650  1.0
  Ni  Ni387  1  0.08161861  0.28750761  0.19116650  1.0
  Ni  Ni388  1  0.08161861  0.62084094  0.19116650  1.0
  Ni  Ni389  1  0.08161861  0.95417428  0.19116650  1.0
  Ni  Ni390  1  0.41495194  0.28750761  0.19116650  1.0
  Ni  Ni391  1  0.41495194  0.62084094  0.19116650  1.0
  Ni  Ni392  1  0.41495194  0.95417428  0.19116650  1.0
  Ni  Ni393  1  0.74828528  0.28750761  0.19116650  1.0
  Ni  Ni394  1  0.74828528  0.62084094  0.19116650  1.0
  Ni  Ni395  1  0.74828528  0.95417428  0.19116650  1.0
  Ni  Ni396  1  0.25203701  0.06653597  0.02825157  1.0
  Ni  Ni397  1  0.25203701  0.39986930  0.02825157  1.0
  Ni  Ni398  1  0.25203701  0.73320263  0.02825157  1.0
  Ni  Ni399  1  0.58537034  0.06653597  0.02825157  1.0
  Ni  Ni400  1  0.58537034  0.39986930  0.02825157  1.0
  Ni  Ni401  1  0.58537034  0.73320263  0.02825157  1.0
  Ni  Ni402  1  0.91870368  0.06653597  0.02825157  1.0
  Ni  Ni403  1  0.91870368  0.39986930  0.02825157  1.0
  Ni  Ni404  1  0.91870368  0.73320263  0.02825157  1.0
  Ni  Ni405  1  0.01870368  0.26653597  0.12825157  1.0
  Ni  Ni406  1  0.01870368  0.59986930  0.12825157  1.0
  Ni  Ni407  1  0.01870368  0.93320263  0.12825157  1.0
  Ni  Ni408  1  0.35203701  0.26653597  0.12825157  1.0
  Ni  Ni409  1  0.35203701  0.59986930  0.12825157  1.0
  Ni  Ni410  1  0.35203701  0.93320263  0.12825157  1.0
  Ni  Ni411  1  0.68537034  0.26653597  0.12825157  1.0
  Ni  Ni412  1  0.68537034  0.59986930  0.12825157  1.0
  Ni  Ni413  1  0.68537034  0.93320263  0.12825157  1.0
  Ni  Ni414  1  0.29398030  0.26466010  0.29398030  1.0
  Ni  Ni415  1  0.29398030  0.59799343  0.29398030  1.0
  Ni  Ni416  1  0.29398030  0.93132677  0.29398030  1.0
  Ni  Ni417  1  0.62731363  0.26466010  0.29398030  1.0
  Ni  Ni418  1  0.62731363  0.59799343  0.29398030  1.0
  Ni  Ni419  1  0.62731363  0.93132677  0.29398030  1.0
  Ni  Ni420  1  0.96064697  0.26466010  0.29398030  1.0
  Ni  Ni421  1  0.96064697  0.59799343  0.29398030  1.0
  Ni  Ni422  1  0.96064697  0.93132677  0.29398030  1.0
  Ni  Ni423  1  0.06064697  0.13132677  0.39398030  1.0
  Ni  Ni424  1  0.06064697  0.46466010  0.39398030  1.0
  Ni  Ni425  1  0.06064697  0.79799343  0.39398030  1.0
  Ni  Ni426  1  0.39398030  0.13132677  0.39398030  1.0
  Ni  Ni427  1  0.39398030  0.46466010  0.39398030  1.0
  Ni  Ni428  1  0.39398030  0.79799343  0.39398030  1.0
  Ni  Ni429  1  0.72731363  0.13132677  0.39398030  1.0
  Ni  Ni430  1  0.72731363  0.46466010  0.39398030  1.0
  Ni  Ni431  1  0.72731363  0.79799343  0.39398030  1.0
  Ni  Ni432  1  0.17731363  0.19799343  0.34398030  1.0
  Ni  Ni433  1  0.17731363  0.53132677  0.34398030  1.0
  Ni  Ni434  1  0.17731363  0.86466010  0.34398030  1.0
  Ni  Ni435  1  0.51064697  0.19799343  0.34398030  1.0
  Ni  Ni436  1  0.51064697  0.53132677  0.34398030  1.0
  Ni  Ni437  1  0.51064697  0.86466010  0.34398030  1.0
  Ni  Ni438  1  0.84398030  0.19799343  0.34398030  1.0
  Ni  Ni439  1  0.84398030  0.53132677  0.34398030  1.0
  Ni  Ni440  1  0.84398030  0.86466010  0.34398030  1.0
  Ni  Ni441  1  0.07731363  0.33132677  0.24398030  1.0
  Ni  Ni442  1  0.07731363  0.66466010  0.24398030  1.0
  Ni  Ni443  1  0.07731363  0.99799343  0.24398030  1.0
  Ni  Ni444  1  0.41064697  0.33132677  0.24398030  1.0
  Ni  Ni445  1  0.41064697  0.66466010  0.24398030  1.0
  Ni  Ni446  1  0.41064697  0.99799343  0.24398030  1.0
  Ni  Ni447  1  0.74398030  0.33132677  0.24398030  1.0
  Ni  Ni448  1  0.74398030  0.66466010  0.24398030  1.0
  Ni  Ni449  1  0.74398030  0.99799343  0.24398030  1.0
  Ni  Ni450  1  0.07731363  0.16466010  0.24398030  1.0
  Ni  Ni451  1  0.07731363  0.49799343  0.24398030  1.0
  Ni  Ni452  1  0.07731363  0.83132677  0.24398030  1.0
  Ni  Ni453  1  0.41064697  0.16466010  0.24398030  1.0
  Ni  Ni454  1  0.41064697  0.49799343  0.24398030  1.0
  Ni  Ni455  1  0.41064697  0.83132677  0.24398030  1.0
  Ni  Ni456  1  0.74398030  0.16466010  0.24398030  1.0
  Ni  Ni457  1  0.74398030  0.49799343  0.24398030  1.0
  Ni  Ni458  1  0.74398030  0.83132677  0.24398030  1.0
  Ni  Ni459  1  0.17731363  0.03132677  0.34398030  1.0
  Ni  Ni460  1  0.17731363  0.36466010  0.34398030  1.0
  Ni  Ni461  1  0.17731363  0.69799343  0.34398030  1.0
  Ni  Ni462  1  0.51064697  0.03132677  0.34398030  1.0
  Ni  Ni463  1  0.51064697  0.36466010  0.34398030  1.0
  Ni  Ni464  1  0.51064697  0.69799343  0.34398030  1.0
  Ni  Ni465  1  0.84398030  0.03132677  0.34398030  1.0
  Ni  Ni466  1  0.84398030  0.36466010  0.34398030  1.0
  Ni  Ni467  1  0.84398030  0.69799343  0.34398030  1.0
  Ni  Ni468  1  0.12731363  0.09799343  0.29398030  1.0
  Ni  Ni469  1  0.12731363  0.43132677  0.29398030  1.0
  Ni  Ni470  1  0.12731363  0.76466010  0.29398030  1.0
  Ni  Ni471  1  0.46064697  0.09799343  0.29398030  1.0
  Ni  Ni472  1  0.46064697  0.43132677  0.29398030  1.0
  Ni  Ni473  1  0.46064697  0.76466010  0.29398030  1.0
  Ni  Ni474  1  0.79398030  0.09799343  0.29398030  1.0
  Ni  Ni475  1  0.79398030  0.43132677  0.29398030  1.0
  Ni  Ni476  1  0.79398030  0.76466010  0.29398030  1.0
  Ni  Ni477  1  0.22731363  0.29799343  0.39398030  1.0
  Ni  Ni478  1  0.22731363  0.63132677  0.39398030  1.0
  Ni  Ni479  1  0.22731363  0.96466010  0.39398030  1.0
  Ni  Ni480  1  0.56064697  0.29799343  0.39398030  1.0
  Ni  Ni481  1  0.56064697  0.63132677  0.39398030  1.0
  Ni  Ni482  1  0.56064697  0.96466010  0.39398030  1.0
  Ni  Ni483  1  0.89398030  0.29799343  0.39398030  1.0
  Ni  Ni484  1  0.89398030  0.63132677  0.39398030  1.0
  Ni  Ni485  1  0.89398030  0.96466010  0.39398030  1.0
  Ni  Ni486  1  0.01064697  0.19799343  0.34398030  1.0
  Ni  Ni487  1  0.01064697  0.53132677  0.34398030  1.0
  Ni  Ni488  1  0.01064697  0.86466010  0.34398030  1.0
  Ni  Ni489  1  0.34398030  0.19799343  0.34398030  1.0
  Ni  Ni490  1  0.34398030  0.53132677  0.34398030  1.0
  Ni  Ni491  1  0.34398030  0.86466010  0.34398030  1.0
  Ni  Ni492  1  0.67731363  0.19799343  0.34398030  1.0
  Ni  Ni493  1  0.67731363  0.53132677  0.34398030  1.0
  Ni  Ni494  1  0.67731363  0.86466010  0.34398030  1.0
  Ni  Ni495  1  0.24398030  0.33132677  0.24398030  1.0
  Ni  Ni496  1  0.24398030  0.66466010  0.24398030  1.0
  Ni  Ni497  1  0.24398030  0.99799343  0.24398030  1.0
  Ni  Ni498  1  0.57731363  0.33132677  0.24398030  1.0
  Ni  Ni499  1  0.57731363  0.66466010  0.24398030  1.0
  Ni  Ni500  1  0.57731363  0.99799343  0.24398030  1.0
  Ni  Ni501  1  0.91064697  0.33132677  0.24398030  1.0
  Ni  Ni502  1  0.91064697  0.66466010  0.24398030  1.0
  Ni  Ni503  1  0.91064697  0.99799343  0.24398030  1.0
  Ni  Ni504  1  0.24398030  0.16466010  0.24398030  1.0
  Ni  Ni505  1  0.24398030  0.49799343  0.24398030  1.0
  Ni  Ni506  1  0.24398030  0.83132677  0.24398030  1.0
  Ni  Ni507  1  0.57731363  0.16466010  0.24398030  1.0
  Ni  Ni508  1  0.57731363  0.49799343  0.24398030  1.0
  Ni  Ni509  1  0.57731363  0.83132677  0.24398030  1.0
  Ni  Ni510  1  0.91064697  0.16466010  0.24398030  1.0
  Ni  Ni511  1  0.91064697  0.49799343  0.24398030  1.0
  Ni  Ni512  1  0.91064697  0.83132677  0.24398030  1.0
  Ni  Ni513  1  0.01064697  0.03132677  0.34398030  1.0
  Ni  Ni514  1  0.01064697  0.36466010  0.34398030  1.0
  Ni  Ni515  1  0.01064697  0.69799343  0.34398030  1.0
  Ni  Ni516  1  0.34398030  0.03132677  0.34398030  1.0
  Ni  Ni517  1  0.34398030  0.36466010  0.34398030  1.0
  Ni  Ni518  1  0.34398030  0.69799343  0.34398030  1.0
  Ni  Ni519  1  0.67731363  0.03132677  0.34398030  1.0
  Ni  Ni520  1  0.67731363  0.36466010  0.34398030  1.0
  Ni  Ni521  1  0.67731363  0.69799343  0.34398030  1.0
  Ni  Ni522  1  0.06064697  0.29799343  0.39398030  1.0
  Ni  Ni523  1  0.06064697  0.63132677  0.39398030  1.0
  Ni  Ni524  1  0.06064697  0.96466010  0.39398030  1.0
  Ni  Ni525  1  0.39398030  0.29799343  0.39398030  1.0
  Ni  Ni526  1  0.39398030  0.63132677  0.39398030  1.0
  Ni  Ni527  1  0.39398030  0.96466010  0.39398030  1.0
  Ni  Ni528  1  0.72731363  0.29799343  0.39398030  1.0
  Ni  Ni529  1  0.72731363  0.63132677  0.39398030  1.0
  Ni  Ni530  1  0.72731363  0.96466010  0.39398030  1.0
  Ni  Ni531  1  0.29398030  0.09799343  0.29398030  1.0
  Ni  Ni532  1  0.29398030  0.43132677  0.29398030  1.0
  Ni  Ni533  1  0.29398030  0.76466010  0.29398030  1.0
  Ni  Ni534  1  0.62731363  0.09799343  0.29398030  1.0
  Ni  Ni535  1  0.62731363  0.43132677  0.29398030  1.0
  Ni  Ni536  1  0.62731363  0.76466010  0.29398030  1.0
  Ni  Ni537  1  0.96064697  0.09799343  0.29398030  1.0
  Ni  Ni538  1  0.96064697  0.43132677  0.29398030  1.0
  Ni  Ni539  1  0.96064697  0.76466010  0.29398030  1.0
  Ni  Ni540  1  0.14599723  0.04866575  0.26595490  1.0
  Ni  Ni541  1  0.14599723  0.38199908  0.26595490  1.0
  Ni  Ni542  1  0.14599723  0.71533241  0.26595490  1.0
  Ni  Ni543  1  0.47933057  0.04866575  0.26595490  1.0
  Ni  Ni544  1  0.47933057  0.38199908  0.26595490  1.0
  Ni  Ni545  1  0.47933057  0.71533241  0.26595490  1.0
  Ni  Ni546  1  0.81266390  0.04866575  0.26595490  1.0
  Ni  Ni547  1  0.81266390  0.38199908  0.26595490  1.0
  Ni  Ni548  1  0.81266390  0.71533241  0.26595490  1.0
  Ni  Ni549  1  0.24599723  0.24866575  0.36595490  1.0
  Ni  Ni550  1  0.24599723  0.58199908  0.36595490  1.0
  Ni  Ni551  1  0.24599723  0.91533241  0.36595490  1.0
  Ni  Ni552  1  0.57933057  0.24866575  0.36595490  1.0
  Ni  Ni553  1  0.57933057  0.58199908  0.36595490  1.0
  Ni  Ni554  1  0.57933057  0.91533241  0.36595490  1.0
  Ni  Ni555  1  0.91266390  0.24866575  0.36595490  1.0
  Ni  Ni556  1  0.91266390  0.58199908  0.36595490  1.0
  Ni  Ni557  1  0.91266390  0.91533241  0.36595490  1.0
  Ni  Ni558  1  0.07664132  0.08334370  0.36998877  1.0
  Ni  Ni559  1  0.07664132  0.41667703  0.36998877  1.0
  Ni  Ni560  1  0.07664132  0.75001037  0.36998877  1.0
  Ni  Ni561  1  0.40997466  0.08334370  0.36998877  1.0
  Ni  Ni562  1  0.40997466  0.41667703  0.36998877  1.0
  Ni  Ni563  1  0.40997466  0.75001037  0.36998877  1.0
  Ni  Ni564  1  0.74330799  0.08334370  0.36998877  1.0
  Ni  Ni565  1  0.74330799  0.41667703  0.36998877  1.0
  Ni  Ni566  1  0.74330799  0.75001037  0.36998877  1.0
  Ni  Ni567  1  0.30997466  0.21667703  0.26998877  1.0
  Ni  Ni568  1  0.30997466  0.55001037  0.26998877  1.0
  Ni  Ni569  1  0.30997466  0.88334370  0.26998877  1.0
  Ni  Ni570  1  0.64330799  0.21667703  0.26998877  1.0
  Ni  Ni571  1  0.64330799  0.55001037  0.26998877  1.0
  Ni  Ni572  1  0.64330799  0.88334370  0.26998877  1.0
  Ni  Ni573  1  0.97664132  0.21667703  0.26998877  1.0
  Ni  Ni574  1  0.97664132  0.55001037  0.26998877  1.0
  Ni  Ni575  1  0.97664132  0.88334370  0.26998877  1.0
  Ni  Ni576  1  0.26199159  0.28065446  0.22200570  1.0
  Ni  Ni577  1  0.26199159  0.61398779  0.22200570  1.0
  Ni  Ni578  1  0.26199159  0.94732112  0.22200570  1.0
  Ni  Ni579  1  0.59532492  0.28065446  0.22200570  1.0
  Ni  Ni580  1  0.59532492  0.61398779  0.22200570  1.0
  Ni  Ni581  1  0.59532492  0.94732112  0.22200570  1.0
  Ni  Ni582  1  0.92865826  0.28065446  0.22200570  1.0
  Ni  Ni583  1  0.92865826  0.61398779  0.22200570  1.0
  Ni  Ni584  1  0.92865826  0.94732112  0.22200570  1.0
  Ni  Ni585  1  0.02865826  0.14732112  0.32200570  1.0
  Ni  Ni586  1  0.02865826  0.48065446  0.32200570  1.0
  Ni  Ni587  1  0.02865826  0.81398779  0.32200570  1.0
  Ni  Ni588  1  0.36199159  0.14732112  0.32200570  1.0
  Ni  Ni589  1  0.36199159  0.48065446  0.32200570  1.0
  Ni  Ni590  1  0.36199159  0.81398779  0.32200570  1.0
  Ni  Ni591  1  0.69532492  0.14732112  0.32200570  1.0
  Ni  Ni592  1  0.69532492  0.48065446  0.32200570  1.0
  Ni  Ni593  1  0.69532492  0.81398779  0.32200570  1.0
  Ni  Ni594  1  0.02462439  0.31264317  0.31797183  1.0
  Ni  Ni595  1  0.02462439  0.64597650  0.31797183  1.0
  Ni  Ni596  1  0.02462439  0.97930983  0.31797183  1.0
  Ni  Ni597  1  0.35795772  0.31264317  0.31797183  1.0
  Ni  Ni598  1  0.35795772  0.64597650  0.31797183  1.0
  Ni  Ni599  1  0.35795772  0.97930983  0.31797183  1.0
  Ni  Ni600  1  0.69129106  0.31264317  0.31797183  1.0
  Ni  Ni601  1  0.69129106  0.64597650  0.31797183  1.0
  Ni  Ni602  1  0.69129106  0.97930983  0.31797183  1.0
  Ni  Ni603  1  0.25795772  0.11264317  0.21797183  1.0
  Ni  Ni604  1  0.25795772  0.44597650  0.21797183  1.0
  Ni  Ni605  1  0.25795772  0.77930983  0.21797183  1.0
  Ni  Ni606  1  0.59129106  0.11264317  0.21797183  1.0
  Ni  Ni607  1  0.59129106  0.44597650  0.21797183  1.0
  Ni  Ni608  1  0.59129106  0.77930983  0.21797183  1.0
  Ni  Ni609  1  0.92462439  0.11264317  0.21797183  1.0
  Ni  Ni610  1  0.92462439  0.44597650  0.21797183  1.0
  Ni  Ni611  1  0.92462439  0.77930983  0.21797183  1.0
  Ni  Ni612  1  0.10863003  0.14732112  0.32200570  1.0
  Ni  Ni613  1  0.10863003  0.48065445  0.32200570  1.0
  Ni  Ni614  1  0.10863003  0.81398779  0.32200570  1.0
  Ni  Ni615  1  0.44196337  0.14732112  0.32200570  1.0
  Ni  Ni616  1  0.44196337  0.48065445  0.32200570  1.0
  Ni  Ni617  1  0.44196337  0.81398779  0.32200570  1.0
  Ni  Ni618  1  0.77529670  0.14732112  0.32200570  1.0
  Ni  Ni619  1  0.77529670  0.48065445  0.32200570  1.0
  Ni  Ni620  1  0.77529670  0.81398779  0.32200570  1.0
  Ni  Ni621  1  0.00863003  0.28065445  0.22200570  1.0
  Ni  Ni622  1  0.00863003  0.61398779  0.22200570  1.0
  Ni  Ni623  1  0.00863003  0.94732112  0.22200570  1.0
  Ni  Ni624  1  0.34196337  0.28065445  0.22200570  1.0
  Ni  Ni625  1  0.34196337  0.61398779  0.22200570  1.0
  Ni  Ni626  1  0.34196337  0.94732112  0.22200570  1.0
  Ni  Ni627  1  0.67529670  0.28065445  0.22200570  1.0
  Ni  Ni628  1  0.67529670  0.61398779  0.22200570  1.0
  Ni  Ni629  1  0.67529670  0.94732112  0.22200570  1.0
  Ni  Ni630  1  0.17798594  0.11264317  0.21797183  1.0
  Ni  Ni631  1  0.17798594  0.44597650  0.21797183  1.0
  Ni  Ni632  1  0.17798594  0.77930983  0.21797183  1.0
  Ni  Ni633  1  0.51131928  0.11264317  0.21797183  1.0
  Ni  Ni634  1  0.51131928  0.44597650  0.21797183  1.0
  Ni  Ni635  1  0.51131928  0.77930983  0.21797183  1.0
  Ni  Ni636  1  0.84465261  0.11264317  0.21797183  1.0
  Ni  Ni637  1  0.84465261  0.44597650  0.21797183  1.0
  Ni  Ni638  1  0.84465261  0.77930983  0.21797183  1.0
  Ni  Ni639  1  0.27798594  0.31264317  0.31797183  1.0
  Ni  Ni640  1  0.27798594  0.64597650  0.31797183  1.0
  Ni  Ni641  1  0.27798594  0.97930983  0.31797183  1.0
  Ni  Ni642  1  0.61131928  0.31264317  0.31797183  1.0
  Ni  Ni643  1  0.61131928  0.64597650  0.31797183  1.0
  Ni  Ni644  1  0.61131928  0.97930983  0.31797183  1.0
  Ni  Ni645  1  0.94465261  0.31264317  0.31797183  1.0
  Ni  Ni646  1  0.94465261  0.64597650  0.31797183  1.0
  Ni  Ni647  1  0.94465261  0.97930983  0.31797183  1.0
  Ni  Ni648  1  0.32596901  0.24866574  0.36595490  1.0
  Ni  Ni649  1  0.32596901  0.58199908  0.36595490  1.0
  Ni  Ni650  1  0.32596901  0.91533241  0.36595490  1.0
  Ni  Ni651  1  0.65930234  0.24866574  0.36595490  1.0
  Ni  Ni652  1  0.65930234  0.58199908  0.36595490  1.0
  Ni  Ni653  1  0.65930234  0.91533241  0.36595490  1.0
  Ni  Ni654  1  0.99263568  0.24866574  0.36595490  1.0
  Ni  Ni655  1  0.99263568  0.58199908  0.36595490  1.0
  Ni  Ni656  1  0.99263568  0.91533241  0.36595490  1.0
  Ni  Ni657  1  0.22596901  0.04866574  0.26595490  1.0
  Ni  Ni658  1  0.22596901  0.38199908  0.26595490  1.0
  Ni  Ni659  1  0.22596901  0.71533241  0.26595490  1.0
  Ni  Ni660  1  0.55930234  0.04866574  0.26595490  1.0
  Ni  Ni661  1  0.55930234  0.38199908  0.26595490  1.0
  Ni  Ni662  1  0.55930234  0.71533241  0.26595490  1.0
  Ni  Ni663  1  0.89263568  0.04866574  0.26595490  1.0
  Ni  Ni664  1  0.89263568  0.38199908  0.26595490  1.0
  Ni  Ni665  1  0.89263568  0.71533241  0.26595490  1.0
  Ni  Ni666  1  0.23000288  0.21667703  0.26998877  1.0
  Ni  Ni667  1  0.23000288  0.55001037  0.26998877  1.0
  Ni  Ni668  1  0.23000288  0.88334370  0.26998877  1.0
  Ni  Ni669  1  0.56333621  0.21667703  0.26998877  1.0
  Ni  Ni670  1  0.56333621  0.55001037  0.26998877  1.0
  Ni  Ni671  1  0.56333621  0.88334370  0.26998877  1.0
  Ni  Ni672  1  0.89666954  0.21667703  0.26998877  1.0
  Ni  Ni673  1  0.89666954  0.55001037  0.26998877  1.0
  Ni  Ni674  1  0.89666954  0.88334370  0.26998877  1.0
  Ni  Ni675  1  0.33000288  0.08334370  0.36998877  1.0
  Ni  Ni676  1  0.33000288  0.41667703  0.36998877  1.0
  Ni  Ni677  1  0.33000288  0.75001037  0.36998877  1.0
  Ni  Ni678  1  0.66333621  0.08334370  0.36998877  1.0
  Ni  Ni679  1  0.66333621  0.41667703  0.36998877  1.0
  Ni  Ni680  1  0.66333621  0.75001037  0.36998877  1.0
  Ni  Ni681  1  0.99666954  0.08334370  0.36998877  1.0
  Ni  Ni682  1  0.99666954  0.41667703  0.36998877  1.0
  Ni  Ni683  1  0.99666954  0.75001037  0.36998877  1.0
  Ni  Ni684  1  0.06252283  0.02084095  0.39116650  1.0
  Ni  Ni685  1  0.06252283  0.35417428  0.39116650  1.0
  Ni  Ni686  1  0.06252283  0.68750761  0.39116650  1.0
  Ni  Ni687  1  0.39585617  0.02084095  0.39116650  1.0
  Ni  Ni688  1  0.39585617  0.35417428  0.39116650  1.0
  Ni  Ni689  1  0.39585617  0.68750761  0.39116650  1.0
  Ni  Ni690  1  0.72918950  0.02084095  0.39116650  1.0
  Ni  Ni691  1  0.72918950  0.35417428  0.39116650  1.0
  Ni  Ni692  1  0.72918950  0.68750761  0.39116650  1.0
  Ni  Ni693  1  0.29585617  0.15417428  0.29116650  1.0
  Ni  Ni694  1  0.29585617  0.48750761  0.29116650  1.0
  Ni  Ni695  1  0.29585617  0.82084095  0.29116650  1.0
  Ni  Ni696  1  0.62918950  0.15417428  0.29116650  1.0
  Ni  Ni697  1  0.62918950  0.48750761  0.29116650  1.0
  Ni  Ni698  1  0.62918950  0.82084095  0.29116650  1.0
  Ni  Ni699  1  0.96252283  0.15417428  0.29116650  1.0
  Ni  Ni700  1  0.96252283  0.48750761  0.29116650  1.0
  Ni  Ni701  1  0.96252283  0.82084095  0.29116650  1.0
  Ni  Ni702  1  0.10446612  0.33320263  0.32825157  1.0
  Ni  Ni703  1  0.10446612  0.66653597  0.32825157  1.0
  Ni  Ni704  1  0.10446612  0.99986930  0.32825157  1.0
  Ni  Ni705  1  0.43779946  0.33320263  0.32825157  1.0
  Ni  Ni706  1  0.43779946  0.66653597  0.32825157  1.0
  Ni  Ni707  1  0.43779946  0.99986930  0.32825157  1.0
  Ni  Ni708  1  0.77113279  0.33320263  0.32825157  1.0
  Ni  Ni709  1  0.77113279  0.66653597  0.32825157  1.0
  Ni  Ni710  1  0.77113279  0.99986930  0.32825157  1.0
  Ni  Ni711  1  0.00446612  0.13320263  0.22825157  1.0
  Ni  Ni712  1  0.00446612  0.46653597  0.22825157  1.0
  Ni  Ni713  1  0.00446612  0.79986930  0.22825157  1.0
  Ni  Ni714  1  0.33779946  0.13320263  0.22825157  1.0
  Ni  Ni715  1  0.33779946  0.46653597  0.22825157  1.0
  Ni  Ni716  1  0.33779946  0.79986930  0.22825157  1.0
  Ni  Ni717  1  0.67113279  0.13320263  0.22825157  1.0
  Ni  Ni718  1  0.67113279  0.46653597  0.22825157  1.0
  Ni  Ni719  1  0.67113279  0.79986930  0.22825157  1.0
  Ni  Ni720  1  0.07300866  0.04181259  0.29679410  1.0
  Ni  Ni721  1  0.07300866  0.37514592  0.29679410  1.0
  Ni  Ni722  1  0.07300866  0.70847926  0.29679410  1.0
  Ni  Ni723  1  0.40634199  0.04181259  0.29679410  1.0
  Ni  Ni724  1  0.40634199  0.37514592  0.29679410  1.0
  Ni  Ni725  1  0.40634199  0.70847926  0.29679410  1.0
  Ni  Ni726  1  0.73967532  0.04181259  0.29679410  1.0
  Ni  Ni727  1  0.73967532  0.37514592  0.29679410  1.0
  Ni  Ni728  1  0.73967532  0.70847926  0.29679410  1.0
  Ni  Ni729  1  0.17300866  0.24181259  0.39679410  1.0
  Ni  Ni730  1  0.17300866  0.57514592  0.39679410  1.0
  Ni  Ni731  1  0.17300866  0.90847926  0.39679410  1.0
  Ni  Ni732  1  0.50634199  0.24181259  0.39679410  1.0
  Ni  Ni733  1  0.50634199  0.57514592  0.39679410  1.0
  Ni  Ni734  1  0.50634199  0.90847926  0.39679410  1.0
  Ni  Ni735  1  0.83967532  0.24181259  0.39679410  1.0
  Ni  Ni736  1  0.83967532  0.57514592  0.39679410  1.0
  Ni  Ni737  1  0.83967532  0.90847926  0.39679410  1.0
  Ni  Ni738  1  0.13592359  0.06278423  0.35970903  1.0
  Ni  Ni739  1  0.13592359  0.39611757  0.35970903  1.0
  Ni  Ni740  1  0.13592359  0.72945090  0.35970903  1.0
  Ni  Ni741  1  0.46925692  0.06278423  0.35970903  1.0
  Ni  Ni742  1  0.46925692  0.39611757  0.35970903  1.0
  Ni  Ni743  1  0.46925692  0.72945090  0.35970903  1.0
  Ni  Ni744  1  0.80259026  0.06278423  0.35970903  1.0
  Ni  Ni745  1  0.80259026  0.39611757  0.35970903  1.0
  Ni  Ni746  1  0.80259026  0.72945090  0.35970903  1.0
  Ni  Ni747  1  0.03592359  0.19611757  0.25970903  1.0
  Ni  Ni748  1  0.03592359  0.52945090  0.25970903  1.0
  Ni  Ni749  1  0.03592359  0.86278423  0.25970903  1.0
  Ni  Ni750  1  0.36925692  0.19611757  0.25970903  1.0
  Ni  Ni751  1  0.36925692  0.52945090  0.25970903  1.0
  Ni  Ni752  1  0.36925692  0.86278423  0.25970903  1.0
  Ni  Ni753  1  0.70259026  0.19611757  0.25970903  1.0
  Ni  Ni754  1  0.70259026  0.52945090  0.25970903  1.0
  Ni  Ni755  1  0.70259026  0.86278423  0.25970903  1.0
  Ni  Ni756  1  0.05877110  0.24181259  0.39679410  1.0
  Ni  Ni757  1  0.05877110  0.57514592  0.39679410  1.0
  Ni  Ni758  1  0.05877110  0.90847925  0.39679410  1.0
  Ni  Ni759  1  0.39210443  0.24181259  0.39679410  1.0
  Ni  Ni760  1  0.39210443  0.57514592  0.39679410  1.0
  Ni  Ni761  1  0.39210443  0.90847925  0.39679410  1.0
  Ni  Ni762  1  0.72543777  0.24181259  0.39679410  1.0
  Ni  Ni763  1  0.72543777  0.57514592  0.39679410  1.0
  Ni  Ni764  1  0.72543777  0.90847925  0.39679410  1.0
  Ni  Ni765  1  0.29210443  0.04181259  0.29679410  1.0
  Ni  Ni766  1  0.29210443  0.37514592  0.29679410  1.0
  Ni  Ni767  1  0.29210443  0.70847925  0.29679410  1.0
  Ni  Ni768  1  0.62543777  0.04181259  0.29679410  1.0
  Ni  Ni769  1  0.62543777  0.37514592  0.29679410  1.0
  Ni  Ni770  1  0.62543777  0.70847925  0.29679410  1.0
  Ni  Ni771  1  0.95877110  0.04181259  0.29679410  1.0
  Ni  Ni772  1  0.95877110  0.37514592  0.29679410  1.0
  Ni  Ni773  1  0.95877110  0.70847925  0.29679410  1.0
  Ni  Ni774  1  0.15016114  0.19611757  0.25970903  1.0
  Ni  Ni775  1  0.15016114  0.52945090  0.25970903  1.0
  Ni  Ni776  1  0.15016114  0.86278423  0.25970903  1.0
  Ni  Ni777  1  0.48349448  0.19611757  0.25970903  1.0
  Ni  Ni778  1  0.48349448  0.52945090  0.25970903  1.0
  Ni  Ni779  1  0.48349448  0.86278423  0.25970903  1.0
  Ni  Ni780  1  0.81682781  0.19611757  0.25970903  1.0
  Ni  Ni781  1  0.81682781  0.52945090  0.25970903  1.0
  Ni  Ni782  1  0.81682781  0.86278423  0.25970903  1.0
  Ni  Ni783  1  0.25016114  0.06278423  0.35970903  1.0
  Ni  Ni784  1  0.25016114  0.39611757  0.35970903  1.0
  Ni  Ni785  1  0.25016114  0.72945090  0.35970903  1.0
  Ni  Ni786  1  0.58349448  0.06278423  0.35970903  1.0
  Ni  Ni787  1  0.58349448  0.39611757  0.35970903  1.0
  Ni  Ni788  1  0.58349448  0.72945090  0.35970903  1.0
  Ni  Ni789  1  0.91682781  0.06278423  0.35970903  1.0
  Ni  Ni790  1  0.91682781  0.39611757  0.35970903  1.0
  Ni  Ni791  1  0.91682781  0.72945090  0.35970903  1.0
  Ni  Ni792  1  0.18161861  0.15417428  0.29116650  1.0
  Ni  Ni793  1  0.18161861  0.48750761  0.29116650  1.0
  Ni  Ni794  1  0.18161861  0.82084094  0.29116650  1.0
  Ni  Ni795  1  0.51495194  0.15417428  0.29116650  1.0
  Ni  Ni796  1  0.51495194  0.48750761  0.29116650  1.0
  Ni  Ni797  1  0.51495194  0.82084094  0.29116650  1.0
  Ni  Ni798  1  0.84828528  0.15417428  0.29116650  1.0
  Ni  Ni799  1  0.84828528  0.48750761  0.29116650  1.0
  Ni  Ni800  1  0.84828528  0.82084094  0.29116650  1.0
  Ni  Ni801  1  0.28161861  0.02084094  0.39116650  1.0
  Ni  Ni802  1  0.28161861  0.35417428  0.39116650  1.0
  Ni  Ni803  1  0.28161861  0.68750761  0.39116650  1.0
  Ni  Ni804  1  0.61495194  0.02084094  0.39116650  1.0
  Ni  Ni805  1  0.61495194  0.35417428  0.39116650  1.0
  Ni  Ni806  1  0.61495194  0.68750761  0.39116650  1.0
  Ni  Ni807  1  0.94828528  0.02084094  0.39116650  1.0
  Ni  Ni808  1  0.94828528  0.35417428  0.39116650  1.0
  Ni  Ni809  1  0.94828528  0.68750761  0.39116650  1.0
  Ni  Ni810  1  0.11870368  0.13320263  0.22825157  1.0
  Ni  Ni811  1  0.11870368  0.46653597  0.22825157  1.0
  Ni  Ni812  1  0.11870368  0.79986930  0.22825157  1.0
  Ni  Ni813  1  0.45203701  0.13320263  0.22825157  1.0
  Ni  Ni814  1  0.45203701  0.46653597  0.22825157  1.0
  Ni  Ni815  1  0.45203701  0.79986930  0.22825157  1.0
  Ni  Ni816  1  0.78537034  0.13320263  0.22825157  1.0
  Ni  Ni817  1  0.78537034  0.46653597  0.22825157  1.0
  Ni  Ni818  1  0.78537034  0.79986930  0.22825157  1.0
  Ni  Ni819  1  0.21870368  0.33320263  0.32825157  1.0
  Ni  Ni820  1  0.21870368  0.66653597  0.32825157  1.0
  Ni  Ni821  1  0.21870368  0.99986930  0.32825157  1.0
  Ni  Ni822  1  0.55203701  0.33320263  0.32825157  1.0
  Ni  Ni823  1  0.55203701  0.66653597  0.32825157  1.0
  Ni  Ni824  1  0.55203701  0.99986930  0.32825157  1.0
  Ni  Ni825  1  0.88537034  0.33320263  0.32825157  1.0
  Ni  Ni826  1  0.88537034  0.66653597  0.32825157  1.0
  Ni  Ni827  1  0.88537034  0.99986930  0.32825157  1.0
  Zr  Zr828  1  0.01312250  0.03627783  0.10883350  1.0
  Zr  Zr829  1  0.01312250  0.36961117  0.10883350  1.0
  Zr  Zr830  1  0.01312250  0.70294450  0.10883350  1.0
  Zr  Zr831  1  0.34645583  0.03627783  0.10883350  1.0
  Zr  Zr832  1  0.34645583  0.36961117  0.10883350  1.0
  Zr  Zr833  1  0.34645583  0.70294450  0.10883350  1.0
  Zr  Zr834  1  0.67978917  0.03627783  0.10883350  1.0
  Zr  Zr835  1  0.67978917  0.36961117  0.10883350  1.0
  Zr  Zr836  1  0.67978917  0.70294450  0.10883350  1.0
  Zr  Zr837  1  0.24645583  0.16961117  0.00883350  1.0
  Zr  Zr838  1  0.24645583  0.50294450  0.00883350  1.0
  Zr  Zr839  1  0.24645583  0.83627783  0.00883350  1.0
  Zr  Zr840  1  0.57978917  0.16961117  0.00883350  1.0
  Zr  Zr841  1  0.57978917  0.50294450  0.00883350  1.0
  Zr  Zr842  1  0.57978917  0.83627783  0.00883350  1.0
  Zr  Zr843  1  0.91312250  0.16961117  0.00883350  1.0
  Zr  Zr844  1  0.91312250  0.50294450  0.00883350  1.0
  Zr  Zr845  1  0.91312250  0.83627783  0.00883350  1.0
  Zr  Zr846  1  0.09826930  0.06466010  0.19398030  1.0
  Zr  Zr847  1  0.09826930  0.39799343  0.19398030  1.0
  Zr  Zr848  1  0.09826930  0.73132677  0.19398030  1.0
  Zr  Zr849  1  0.43160263  0.06466010  0.19398030  1.0
  Zr  Zr850  1  0.43160263  0.39799343  0.19398030  1.0
  Zr  Zr851  1  0.43160263  0.73132677  0.19398030  1.0
  Zr  Zr852  1  0.76493597  0.06466010  0.19398030  1.0
  Zr  Zr853  1  0.76493597  0.39799343  0.19398030  1.0
  Zr  Zr854  1  0.76493597  0.73132677  0.19398030  1.0
  Zr  Zr855  1  0.33160263  0.19799343  0.09398030  1.0
  Zr  Zr856  1  0.33160263  0.53132677  0.09398030  1.0
  Zr  Zr857  1  0.33160263  0.86466010  0.09398030  1.0
  Zr  Zr858  1  0.66493597  0.19799343  0.09398030  1.0
  Zr  Zr859  1  0.66493597  0.53132677  0.09398030  1.0
  Zr  Zr860  1  0.66493597  0.86466010  0.09398030  1.0
  Zr  Zr861  1  0.99826930  0.19799343  0.09398030  1.0
  Zr  Zr862  1  0.99826930  0.53132677  0.09398030  1.0
  Zr  Zr863  1  0.99826930  0.86466010  0.09398030  1.0
  Zr  Zr864  1  0.05569590  0.12142463  0.15140690  1.0
  Zr  Zr865  1  0.05569590  0.45475797  0.15140690  1.0
  Zr  Zr866  1  0.05569590  0.78809130  0.15140690  1.0
  Zr  Zr867  1  0.38902923  0.12142463  0.15140690  1.0
  Zr  Zr868  1  0.38902923  0.45475797  0.15140690  1.0
  Zr  Zr869  1  0.38902923  0.78809130  0.15140690  1.0
  Zr  Zr870  1  0.72236257  0.12142463  0.15140690  1.0
  Zr  Zr871  1  0.72236257  0.45475797  0.15140690  1.0
  Zr  Zr872  1  0.72236257  0.78809130  0.15140690  1.0
  Zr  Zr873  1  0.28902923  0.25475797  0.05140690  1.0
  Zr  Zr874  1  0.28902923  0.58809130  0.05140690  1.0
  Zr  Zr875  1  0.28902923  0.92142463  0.05140690  1.0
  Zr  Zr876  1  0.62236257  0.25475797  0.05140690  1.0
  Zr  Zr877  1  0.62236257  0.58809130  0.05140690  1.0
  Zr  Zr878  1  0.62236257  0.92142463  0.05140690  1.0
  Zr  Zr879  1  0.95569590  0.25475797  0.05140690  1.0
  Zr  Zr880  1  0.95569590  0.58809130  0.05140690  1.0
  Zr  Zr881  1  0.95569590  0.92142463  0.05140690  1.0
  Zr  Zr882  1  0.17483810  0.02637570  0.07912710  1.0
  Zr  Zr883  1  0.17483810  0.35970903  0.07912710  1.0
  Zr  Zr884  1  0.17483810  0.69304237  0.07912710  1.0
  Zr  Zr885  1  0.50817143  0.02637570  0.07912710  1.0
  Zr  Zr886  1  0.50817143  0.35970903  0.07912710  1.0
  Zr  Zr887  1  0.50817143  0.69304237  0.07912710  1.0
  Zr  Zr888  1  0.84150477  0.02637570  0.07912710  1.0
  Zr  Zr889  1  0.84150477  0.35970903  0.07912710  1.0
  Zr  Zr890  1  0.84150477  0.69304237  0.07912710  1.0
  Zr  Zr891  1  0.27483810  0.22637570  0.17912710  1.0
  Zr  Zr892  1  0.27483810  0.55970903  0.17912710  1.0
  Zr  Zr893  1  0.27483810  0.89304237  0.17912710  1.0
  Zr  Zr894  1  0.60817143  0.22637570  0.17912710  1.0
  Zr  Zr895  1  0.60817143  0.55970903  0.17912710  1.0
  Zr  Zr896  1  0.60817143  0.89304237  0.17912710  1.0
  Zr  Zr897  1  0.94150477  0.22637570  0.17912710  1.0
  Zr  Zr898  1  0.94150477  0.55970903  0.17912710  1.0
  Zr  Zr899  1  0.94150477  0.89304237  0.17912710  1.0
  Zr  Zr900  1  0.28969130  0.06466010  0.19398030  1.0
  Zr  Zr901  1  0.28969130  0.39799343  0.19398030  1.0
  Zr  Zr902  1  0.28969130  0.73132677  0.19398030  1.0
  Zr  Zr903  1  0.62302463  0.06466010  0.19398030  1.0
  Zr  Zr904  1  0.62302463  0.39799343  0.19398030  1.0
  Zr  Zr905  1  0.62302463  0.73132677  0.19398030  1.0
  Zr  Zr906  1  0.95635797  0.06466010  0.19398030  1.0
  Zr  Zr907  1  0.95635797  0.39799343  0.19398030  1.0
  Zr  Zr908  1  0.95635797  0.73132677  0.19398030  1.0
  Zr  Zr909  1  0.18969130  0.19799343  0.09398030  1.0
  Zr  Zr910  1  0.18969130  0.53132677  0.09398030  1.0
  Zr  Zr911  1  0.18969130  0.86466010  0.09398030  1.0
  Zr  Zr912  1  0.52302463  0.19799343  0.09398030  1.0
  Zr  Zr913  1  0.52302463  0.53132677  0.09398030  1.0
  Zr  Zr914  1  0.52302463  0.86466010  0.09398030  1.0
  Zr  Zr915  1  0.85635797  0.19799343  0.09398030  1.0
  Zr  Zr916  1  0.85635797  0.53132677  0.09398030  1.0
  Zr  Zr917  1  0.85635797  0.86466010  0.09398030  1.0
  Zr  Zr918  1  0.13226470  0.27456223  0.03655370  1.0
  Zr  Zr919  1  0.13226470  0.60789557  0.03655370  1.0
  Zr  Zr920  1  0.13226470  0.94122890  0.03655370  1.0
  Zr  Zr921  1  0.46559803  0.27456223  0.03655370  1.0
  Zr  Zr922  1  0.46559803  0.60789557  0.03655370  1.0
  Zr  Zr923  1  0.46559803  0.94122890  0.03655370  1.0
  Zr  Zr924  1  0.79893137  0.27456223  0.03655370  1.0
  Zr  Zr925  1  0.79893137  0.60789557  0.03655370  1.0
  Zr  Zr926  1  0.79893137  0.94122890  0.03655370  1.0
  Zr  Zr927  1  0.23226470  0.14122890  0.13655370  1.0
  Zr  Zr928  1  0.23226470  0.47456223  0.13655370  1.0
  Zr  Zr929  1  0.23226470  0.80789557  0.13655370  1.0
  Zr  Zr930  1  0.56559803  0.14122890  0.13655370  1.0
  Zr  Zr931  1  0.56559803  0.47456223  0.13655370  1.0
  Zr  Zr932  1  0.56559803  0.80789557  0.13655370  1.0
  Zr  Zr933  1  0.89893137  0.14122890  0.13655370  1.0
  Zr  Zr934  1  0.89893137  0.47456223  0.13655370  1.0
  Zr  Zr935  1  0.89893137  0.80789557  0.13655370  1.0
  Zr  Zr936  1  0.21312250  0.10294450  0.30883350  1.0
  Zr  Zr937  1  0.21312250  0.43627783  0.30883350  1.0
  Zr  Zr938  1  0.21312250  0.76961117  0.30883350  1.0
  Zr  Zr939  1  0.54645583  0.10294450  0.30883350  1.0
  Zr  Zr940  1  0.54645583  0.43627783  0.30883350  1.0
  Zr  Zr941  1  0.54645583  0.76961117  0.30883350  1.0
  Zr  Zr942  1  0.87978917  0.10294450  0.30883350  1.0
  Zr  Zr943  1  0.87978917  0.43627783  0.30883350  1.0
  Zr  Zr944  1  0.87978917  0.76961117  0.30883350  1.0
  Zr  Zr945  1  0.11312250  0.23627783  0.20883350  1.0
  Zr  Zr946  1  0.11312250  0.56961117  0.20883350  1.0
  Zr  Zr947  1  0.11312250  0.90294450  0.20883350  1.0
  Zr  Zr948  1  0.44645583  0.23627783  0.20883350  1.0
  Zr  Zr949  1  0.44645583  0.56961117  0.20883350  1.0
  Zr  Zr950  1  0.44645583  0.90294450  0.20883350  1.0
  Zr  Zr951  1  0.77978917  0.23627783  0.20883350  1.0
  Zr  Zr952  1  0.77978917  0.56961117  0.20883350  1.0
  Zr  Zr953  1  0.77978917  0.90294450  0.20883350  1.0
  Zr  Zr954  1  0.29826930  0.13132677  0.39398030  1.0
  Zr  Zr955  1  0.29826930  0.46466010  0.39398030  1.0
  Zr  Zr956  1  0.29826930  0.79799343  0.39398030  1.0
  Zr  Zr957  1  0.63160263  0.13132677  0.39398030  1.0
  Zr  Zr958  1  0.63160263  0.46466010  0.39398030  1.0
  Zr  Zr959  1  0.63160263  0.79799343  0.39398030  1.0
  Zr  Zr960  1  0.96493597  0.13132677  0.39398030  1.0
  Zr  Zr961  1  0.96493597  0.46466010  0.39398030  1.0
  Zr  Zr962  1  0.96493597  0.79799343  0.39398030  1.0
  Zr  Zr963  1  0.19826930  0.26466010  0.29398030  1.0
  Zr  Zr964  1  0.19826930  0.59799343  0.29398030  1.0
  Zr  Zr965  1  0.19826930  0.93132677  0.29398030  1.0
  Zr  Zr966  1  0.53160263  0.26466010  0.29398030  1.0
  Zr  Zr967  1  0.53160263  0.59799343  0.29398030  1.0
  Zr  Zr968  1  0.53160263  0.93132677  0.29398030  1.0
  Zr  Zr969  1  0.86493597  0.26466010  0.29398030  1.0
  Zr  Zr970  1  0.86493597  0.59799343  0.29398030  1.0
  Zr  Zr971  1  0.86493597  0.93132677  0.29398030  1.0
  Zr  Zr972  1  0.25569590  0.18809130  0.35140690  1.0
  Zr  Zr973  1  0.25569590  0.52142463  0.35140690  1.0
  Zr  Zr974  1  0.25569590  0.85475797  0.35140690  1.0
  Zr  Zr975  1  0.58902923  0.18809130  0.35140690  1.0
  Zr  Zr976  1  0.58902923  0.52142463  0.35140690  1.0
  Zr  Zr977  1  0.58902923  0.85475797  0.35140690  1.0
  Zr  Zr978  1  0.92236257  0.18809130  0.35140690  1.0
  Zr  Zr979  1  0.92236257  0.52142463  0.35140690  1.0
  Zr  Zr980  1  0.92236257  0.85475797  0.35140690  1.0
  Zr  Zr981  1  0.15569590  0.32142463  0.25140690  1.0
  Zr  Zr982  1  0.15569590  0.65475797  0.25140690  1.0
  Zr  Zr983  1  0.15569590  0.98809130  0.25140690  1.0
  Zr  Zr984  1  0.48902923  0.32142463  0.25140690  1.0
  Zr  Zr985  1  0.48902923  0.65475797  0.25140690  1.0
  Zr  Zr986  1  0.48902923  0.98809130  0.25140690  1.0
  Zr  Zr987  1  0.82236257  0.32142463  0.25140690  1.0
  Zr  Zr988  1  0.82236257  0.65475797  0.25140690  1.0
  Zr  Zr989  1  0.82236257  0.98809130  0.25140690  1.0
  Zr  Zr990  1  0.04150477  0.09304237  0.27912710  1.0
  Zr  Zr991  1  0.04150477  0.42637570  0.27912710  1.0
  Zr  Zr992  1  0.04150477  0.75970903  0.27912710  1.0
  Zr  Zr993  1  0.37483810  0.09304237  0.27912710  1.0
  Zr  Zr994  1  0.37483810  0.42637570  0.27912710  1.0
  Zr  Zr995  1  0.37483810  0.75970903  0.27912710  1.0
  Zr  Zr996  1  0.70817143  0.09304237  0.27912710  1.0
  Zr  Zr997  1  0.70817143  0.42637570  0.27912710  1.0
  Zr  Zr998  1  0.70817143  0.75970903  0.27912710  1.0
  Zr  Zr999  1  0.14150477  0.29304237  0.37912710  1.0
  Zr  Zr1000  1  0.14150477  0.62637570  0.37912710  1.0
  Zr  Zr1001  1  0.14150477  0.95970903  0.37912710  1.0
  Zr  Zr1002  1  0.47483810  0.29304237  0.37912710  1.0
  Zr  Zr1003  1  0.47483810  0.62637570  0.37912710  1.0
  Zr  Zr1004  1  0.47483810  0.95970903  0.37912710  1.0
  Zr  Zr1005  1  0.80817143  0.29304237  0.37912710  1.0
  Zr  Zr1006  1  0.80817143  0.62637570  0.37912710  1.0
  Zr  Zr1007  1  0.80817143  0.95970903  0.37912710  1.0
  Zr  Zr1008  1  0.15635797  0.13132677  0.39398030  1.0
  Zr  Zr1009  1  0.15635797  0.46466010  0.39398030  1.0
  Zr  Zr1010  1  0.15635797  0.79799343  0.39398030  1.0
  Zr  Zr1011  1  0.48969130  0.13132677  0.39398030  1.0
  Zr  Zr1012  1  0.48969130  0.46466010  0.39398030  1.0
  Zr  Zr1013  1  0.48969130  0.79799343  0.39398030  1.0
  Zr  Zr1014  1  0.82302463  0.13132677  0.39398030  1.0
  Zr  Zr1015  1  0.82302463  0.46466010  0.39398030  1.0
  Zr  Zr1016  1  0.82302463  0.79799343  0.39398030  1.0
  Zr  Zr1017  1  0.05635797  0.26466010  0.29398030  1.0
  Zr  Zr1018  1  0.05635797  0.59799343  0.29398030  1.0
  Zr  Zr1019  1  0.05635797  0.93132677  0.29398030  1.0
  Zr  Zr1020  1  0.38969130  0.26466010  0.29398030  1.0
  Zr  Zr1021  1  0.38969130  0.59799343  0.29398030  1.0
  Zr  Zr1022  1  0.38969130  0.93132677  0.29398030  1.0
  Zr  Zr1023  1  0.72302463  0.26466010  0.29398030  1.0
  Zr  Zr1024  1  0.72302463  0.59799343  0.29398030  1.0
  Zr  Zr1025  1  0.72302463  0.93132677  0.29398030  1.0
  Zr  Zr1026  1  0.33226470  0.00789557  0.23655370  1.0
  Zr  Zr1027  1  0.33226470  0.34122890  0.23655370  1.0
  Zr  Zr1028  1  0.33226470  0.67456223  0.23655370  1.0
  Zr  Zr1029  1  0.66559803  0.00789557  0.23655370  1.0
  Zr  Zr1030  1  0.66559803  0.34122890  0.23655370  1.0
  Zr  Zr1031  1  0.66559803  0.67456223  0.23655370  1.0
  Zr  Zr1032  1  0.99893137  0.00789557  0.23655370  1.0
  Zr  Zr1033  1  0.99893137  0.34122890  0.23655370  1.0
  Zr  Zr1034  1  0.99893137  0.67456223  0.23655370  1.0
  Zr  Zr1035  1  0.09893137  0.20789557  0.33655370  1.0
  Zr  Zr1036  1  0.09893137  0.54122890  0.33655370  1.0
  Zr  Zr1037  1  0.09893137  0.87456223  0.33655370  1.0
  Zr  Zr1038  1  0.43226470  0.20789557  0.33655370  1.0
  Zr  Zr1039  1  0.43226470  0.54122890  0.33655370  1.0
  Zr  Zr1040  1  0.43226470  0.87456223  0.33655370  1.0
  Zr  Zr1041  1  0.76559803  0.20789557  0.33655370  1.0
  Zr  Zr1042  1  0.76559803  0.54122890  0.33655370  1.0
  Zr  Zr1043  1  0.76559803  0.87456223  0.33655370  1.0
