# generated using pymatgen
data_Zr7Ni10
_symmetry_space_group_name_H-M   'P 1'
_cell_length_a   38.77886919
_cell_length_b   66.18185008
_cell_length_c   49.46892800
_cell_angle_alpha   55.90254039
_cell_angle_beta   90.00000000
_cell_angle_gamma   54.18673667
_symmetry_Int_Tables_number   1
_chemical_formula_structural   Zr7Ni10
_chemical_formula_sum   'Zr1008 Ni1440'
_cell_volume   74391.33921068
_cell_formula_units_Z   144
loop_
 _symmetry_equiv_pos_site_id
 _symmetry_equiv_pos_as_xyz
  1  'x, y, z'
loop_
 _atom_site_type_symbol
 _atom_site_label
 _atom_site_symmetry_multiplicity
 _atom_site_fract_x
 _atom_site_fract_y
 _atom_site_fract_z
 _atom_site_occupancy
  Zr  Zr0  1  0.27130900  0.00008450  0.11826694  1.0
  Zr  Zr1  1  0.27130900  0.33341783  0.11826694  1.0
  Zr  Zr2  1  0.27130900  0.66675117  0.11826694  1.0
  Zr  Zr3  1  0.60464233  0.00008450  0.11826694  1.0
  Zr  Zr4  1  0.60464233  0.33341783  0.11826694  1.0
  Zr  Zr5  1  0.60464233  0.66675117  0.11826694  1.0
  Zr  Zr6  1  0.93797567  0.00008450  0.11826694  1.0
  Zr  Zr7  1  0.93797567  0.33341783  0.11826694  1.0
  Zr  Zr8  1  0.93797567  0.66675117  0.11826694  1.0
  Zr  Zr9  1  0.27130900  0.16675117  0.24326694  1.0
  Zr  Zr10  1  0.27130900  0.50008450  0.24326694  1.0
  Zr  Zr11  1  0.27130900  0.83341783  0.24326694  1.0
  Zr  Zr12  1  0.60464233  0.16675117  0.24326694  1.0
  Zr  Zr13  1  0.60464233  0.50008450  0.24326694  1.0
  Zr  Zr14  1  0.60464233  0.83341783  0.24326694  1.0
  Zr  Zr15  1  0.93797567  0.16675117  0.24326694  1.0
  Zr  Zr16  1  0.93797567  0.50008450  0.24326694  1.0
  Zr  Zr17  1  0.93797567  0.83341783  0.24326694  1.0
  Zr  Zr18  1  0.16703200  0.33318267  0.16702831  1.0
  Zr  Zr19  1  0.16703200  0.66651600  0.16702831  1.0
  Zr  Zr20  1  0.16703200  0.99984933  0.16702831  1.0
  Zr  Zr21  1  0.50036533  0.33318267  0.16702831  1.0
  Zr  Zr22  1  0.50036533  0.66651600  0.16702831  1.0
  Zr  Zr23  1  0.50036533  0.99984933  0.16702831  1.0
  Zr  Zr24  1  0.83369867  0.33318267  0.16702831  1.0
  Zr  Zr25  1  0.83369867  0.66651600  0.16702831  1.0
  Zr  Zr26  1  0.83369867  0.99984933  0.16702831  1.0
  Zr  Zr27  1  0.16703200  0.16651600  0.04202831  1.0
  Zr  Zr28  1  0.16703200  0.49984933  0.04202831  1.0
  Zr  Zr29  1  0.16703200  0.83318267  0.04202831  1.0
  Zr  Zr30  1  0.50036533  0.16651600  0.04202831  1.0
  Zr  Zr31  1  0.50036533  0.49984933  0.04202831  1.0
  Zr  Zr32  1  0.50036533  0.83318267  0.04202831  1.0
  Zr  Zr33  1  0.83369867  0.16651600  0.04202831  1.0
  Zr  Zr34  1  0.83369867  0.49984933  0.04202831  1.0
  Zr  Zr35  1  0.83369867  0.83318267  0.04202831  1.0
  Zr  Zr36  1  0.16666667  0.08333333  0.05659056  1.0
  Zr  Zr37  1  0.16666667  0.41666667  0.05659056  1.0
  Zr  Zr38  1  0.16666667  0.75000000  0.05659056  1.0
  Zr  Zr39  1  0.50000000  0.08333333  0.05659056  1.0
  Zr  Zr40  1  0.50000000  0.41666667  0.05659056  1.0
  Zr  Zr41  1  0.50000000  0.75000000  0.05659056  1.0
  Zr  Zr42  1  0.83333333  0.08333333  0.05659056  1.0
  Zr  Zr43  1  0.83333333  0.41666667  0.05659056  1.0
  Zr  Zr44  1  0.83333333  0.75000000  0.05659056  1.0
  Zr  Zr45  1  0.16666667  0.25000000  0.18159056  1.0
  Zr  Zr46  1  0.16666667  0.58333333  0.18159056  1.0
  Zr  Zr47  1  0.16666667  0.91666667  0.18159056  1.0
  Zr  Zr48  1  0.50000000  0.25000000  0.18159056  1.0
  Zr  Zr49  1  0.50000000  0.58333333  0.18159056  1.0
  Zr  Zr50  1  0.50000000  0.91666667  0.18159056  1.0
  Zr  Zr51  1  0.83333333  0.25000000  0.18159056  1.0
  Zr  Zr52  1  0.83333333  0.58333333  0.18159056  1.0
  Zr  Zr53  1  0.83333333  0.91666667  0.18159056  1.0
  Zr  Zr54  1  0.10464233  0.06193983  0.07187544  1.0
  Zr  Zr55  1  0.10464233  0.39527317  0.07187544  1.0
  Zr  Zr56  1  0.10464233  0.72860650  0.07187544  1.0
  Zr  Zr57  1  0.43797567  0.06193983  0.07187544  1.0
  Zr  Zr58  1  0.43797567  0.39527317  0.07187544  1.0
  Zr  Zr59  1  0.43797567  0.72860650  0.07187544  1.0
  Zr  Zr60  1  0.77130900  0.06193983  0.07187544  1.0
  Zr  Zr61  1  0.77130900  0.39527317  0.07187544  1.0
  Zr  Zr62  1  0.77130900  0.72860650  0.07187544  1.0
  Zr  Zr63  1  0.10464233  0.22860650  0.19687544  1.0
  Zr  Zr64  1  0.10464233  0.56193983  0.19687544  1.0
  Zr  Zr65  1  0.10464233  0.89527317  0.19687544  1.0
  Zr  Zr66  1  0.43797567  0.22860650  0.19687544  1.0
  Zr  Zr67  1  0.43797567  0.56193983  0.19687544  1.0
  Zr  Zr68  1  0.43797567  0.89527317  0.19687544  1.0
  Zr  Zr69  1  0.77130900  0.22860650  0.19687544  1.0
  Zr  Zr70  1  0.77130900  0.56193983  0.19687544  1.0
  Zr  Zr71  1  0.77130900  0.89527317  0.19687544  1.0
  Zr  Zr72  1  0.00036533  0.08311867  0.13392681  1.0
  Zr  Zr73  1  0.00036533  0.41645200  0.13392681  1.0
  Zr  Zr74  1  0.00036533  0.74978533  0.13392681  1.0
  Zr  Zr75  1  0.33369867  0.08311867  0.13392681  1.0
  Zr  Zr76  1  0.33369867  0.41645200  0.13392681  1.0
  Zr  Zr77  1  0.33369867  0.74978533  0.13392681  1.0
  Zr  Zr78  1  0.66703200  0.08311867  0.13392681  1.0
  Zr  Zr79  1  0.66703200  0.41645200  0.13392681  1.0
  Zr  Zr80  1  0.66703200  0.74978533  0.13392681  1.0
  Zr  Zr81  1  0.00036533  0.24978533  0.00892681  1.0
  Zr  Zr82  1  0.00036533  0.58311867  0.00892681  1.0
  Zr  Zr83  1  0.00036533  0.91645200  0.00892681  1.0
  Zr  Zr84  1  0.33369867  0.24978533  0.00892681  1.0
  Zr  Zr85  1  0.33369867  0.58311867  0.00892681  1.0
  Zr  Zr86  1  0.33369867  0.91645200  0.00892681  1.0
  Zr  Zr87  1  0.66703200  0.24978533  0.00892681  1.0
  Zr  Zr88  1  0.66703200  0.58311867  0.00892681  1.0
  Zr  Zr89  1  0.66703200  0.91645200  0.00892681  1.0
  Zr  Zr90  1  0.22869100  0.02139350  0.22728519  1.0
  Zr  Zr91  1  0.22869100  0.35472683  0.22728519  1.0
  Zr  Zr92  1  0.22869100  0.68806017  0.22728519  1.0
  Zr  Zr93  1  0.56202433  0.02139350  0.22728519  1.0
  Zr  Zr94  1  0.56202433  0.35472683  0.22728519  1.0
  Zr  Zr95  1  0.56202433  0.68806017  0.22728519  1.0
  Zr  Zr96  1  0.89535767  0.02139350  0.22728519  1.0
  Zr  Zr97  1  0.89535767  0.35472683  0.22728519  1.0
  Zr  Zr98  1  0.89535767  0.68806017  0.22728519  1.0
  Zr  Zr99  1  0.22869100  0.18806017  0.10228519  1.0
  Zr  Zr100  1  0.22869100  0.52139350  0.10228519  1.0
  Zr  Zr101  1  0.22869100  0.85472683  0.10228519  1.0
  Zr  Zr102  1  0.56202433  0.18806017  0.10228519  1.0
  Zr  Zr103  1  0.56202433  0.52139350  0.10228519  1.0
  Zr  Zr104  1  0.56202433  0.85472683  0.10228519  1.0
  Zr  Zr105  1  0.89535767  0.18806017  0.10228519  1.0
  Zr  Zr106  1  0.89535767  0.52139350  0.10228519  1.0
  Zr  Zr107  1  0.89535767  0.85472683  0.10228519  1.0
  Zr  Zr108  1  0.08295600  0.08308983  0.11834469  1.0
  Zr  Zr109  1  0.08295600  0.41642317  0.11834469  1.0
  Zr  Zr110  1  0.08295600  0.74975650  0.11834469  1.0
  Zr  Zr111  1  0.41628933  0.08308983  0.11834469  1.0
  Zr  Zr112  1  0.41628933  0.41642317  0.11834469  1.0
  Zr  Zr113  1  0.41628933  0.74975650  0.11834469  1.0
  Zr  Zr114  1  0.74962267  0.08308983  0.11834469  1.0
  Zr  Zr115  1  0.74962267  0.41642317  0.11834469  1.0
  Zr  Zr116  1  0.74962267  0.74975650  0.11834469  1.0
  Zr  Zr117  1  0.08295600  0.24975650  0.24334469  1.0
  Zr  Zr118  1  0.08295600  0.58308983  0.24334469  1.0
  Zr  Zr119  1  0.08295600  0.91642317  0.24334469  1.0
  Zr  Zr120  1  0.41628933  0.24975650  0.24334469  1.0
  Zr  Zr121  1  0.41628933  0.58308983  0.24334469  1.0
  Zr  Zr122  1  0.41628933  0.91642317  0.24334469  1.0
  Zr  Zr123  1  0.74962267  0.24975650  0.24334469  1.0
  Zr  Zr124  1  0.74962267  0.58308983  0.24334469  1.0
  Zr  Zr125  1  0.74962267  0.91642317  0.24334469  1.0
  Zr  Zr126  1  0.33296800  0.25021467  0.10425431  1.0
  Zr  Zr127  1  0.33296800  0.58354800  0.10425431  1.0
  Zr  Zr128  1  0.33296800  0.91688133  0.10425431  1.0
  Zr  Zr129  1  0.66630133  0.25021467  0.10425431  1.0
  Zr  Zr130  1  0.66630133  0.58354800  0.10425431  1.0
  Zr  Zr131  1  0.66630133  0.91688133  0.10425431  1.0
  Zr  Zr132  1  0.99963467  0.25021467  0.10425431  1.0
  Zr  Zr133  1  0.99963467  0.58354800  0.10425431  1.0
  Zr  Zr134  1  0.99963467  0.91688133  0.10425431  1.0
  Zr  Zr135  1  0.33296800  0.08354800  0.22925431  1.0
  Zr  Zr136  1  0.33296800  0.41688133  0.22925431  1.0
  Zr  Zr137  1  0.33296800  0.75021467  0.22925431  1.0
  Zr  Zr138  1  0.66630133  0.08354800  0.22925431  1.0
  Zr  Zr139  1  0.66630133  0.41688133  0.22925431  1.0
  Zr  Zr140  1  0.66630133  0.75021467  0.22925431  1.0
  Zr  Zr141  1  0.99963467  0.08354800  0.22925431  1.0
  Zr  Zr142  1  0.99963467  0.41688133  0.22925431  1.0
  Zr  Zr143  1  0.99963467  0.75021467  0.22925431  1.0
  Zr  Zr144  1  0.08371067  0.33271250  0.05798469  1.0
  Zr  Zr145  1  0.08371067  0.66604583  0.05798469  1.0
  Zr  Zr146  1  0.08371067  0.99937917  0.05798469  1.0
  Zr  Zr147  1  0.41704400  0.33271250  0.05798469  1.0
  Zr  Zr148  1  0.41704400  0.66604583  0.05798469  1.0
  Zr  Zr149  1  0.41704400  0.99937917  0.05798469  1.0
  Zr  Zr150  1  0.75037733  0.33271250  0.05798469  1.0
  Zr  Zr151  1  0.75037733  0.66604583  0.05798469  1.0
  Zr  Zr152  1  0.75037733  0.99937917  0.05798469  1.0
  Zr  Zr153  1  0.08371067  0.16604583  0.18298469  1.0
  Zr  Zr154  1  0.08371067  0.49937917  0.18298469  1.0
  Zr  Zr155  1  0.08371067  0.83271250  0.18298469  1.0
  Zr  Zr156  1  0.41704400  0.16604583  0.18298469  1.0
  Zr  Zr157  1  0.41704400  0.49937917  0.18298469  1.0
  Zr  Zr158  1  0.41704400  0.83271250  0.18298469  1.0
  Zr  Zr159  1  0.75037733  0.16604583  0.18298469  1.0
  Zr  Zr160  1  0.75037733  0.49937917  0.18298469  1.0
  Zr  Zr161  1  0.75037733  0.83271250  0.18298469  1.0
  Zr  Zr162  1  0.10464233  0.31193983  0.01089594  1.0
  Zr  Zr163  1  0.10464233  0.64527317  0.01089594  1.0
  Zr  Zr164  1  0.10464233  0.97860650  0.01089594  1.0
  Zr  Zr165  1  0.43797567  0.31193983  0.01089594  1.0
  Zr  Zr166  1  0.43797567  0.64527317  0.01089594  1.0
  Zr  Zr167  1  0.43797567  0.97860650  0.01089594  1.0
  Zr  Zr168  1  0.77130900  0.31193983  0.01089594  1.0
  Zr  Zr169  1  0.77130900  0.64527317  0.01089594  1.0
  Zr  Zr170  1  0.77130900  0.97860650  0.01089594  1.0
  Zr  Zr171  1  0.10464233  0.14527317  0.13589594  1.0
  Zr  Zr172  1  0.10464233  0.47860650  0.13589594  1.0
  Zr  Zr173  1  0.10464233  0.81193983  0.13589594  1.0
  Zr  Zr174  1  0.43797567  0.14527317  0.13589594  1.0
  Zr  Zr175  1  0.43797567  0.47860650  0.13589594  1.0
  Zr  Zr176  1  0.43797567  0.81193983  0.13589594  1.0
  Zr  Zr177  1  0.77130900  0.14527317  0.13589594  1.0
  Zr  Zr178  1  0.77130900  0.47860650  0.13589594  1.0
  Zr  Zr179  1  0.77130900  0.81193983  0.13589594  1.0
  Zr  Zr180  1  0.22869100  0.27139350  0.16630569  1.0
  Zr  Zr181  1  0.22869100  0.60472683  0.16630569  1.0
  Zr  Zr182  1  0.22869100  0.93806017  0.16630569  1.0
  Zr  Zr183  1  0.56202433  0.27139350  0.16630569  1.0
  Zr  Zr184  1  0.56202433  0.60472683  0.16630569  1.0
  Zr  Zr185  1  0.56202433  0.93806017  0.16630569  1.0
  Zr  Zr186  1  0.89535767  0.27139350  0.16630569  1.0
  Zr  Zr187  1  0.89535767  0.60472683  0.16630569  1.0
  Zr  Zr188  1  0.89535767  0.93806017  0.16630569  1.0
  Zr  Zr189  1  0.22869100  0.10472683  0.04130569  1.0
  Zr  Zr190  1  0.22869100  0.43806017  0.04130569  1.0
  Zr  Zr191  1  0.22869100  0.77139350  0.04130569  1.0
  Zr  Zr192  1  0.56202433  0.10472683  0.04130569  1.0
  Zr  Zr193  1  0.56202433  0.43806017  0.04130569  1.0
  Zr  Zr194  1  0.56202433  0.77139350  0.04130569  1.0
  Zr  Zr195  1  0.89535767  0.10472683  0.04130569  1.0
  Zr  Zr196  1  0.89535767  0.43806017  0.04130569  1.0
  Zr  Zr197  1  0.89535767  0.77139350  0.04130569  1.0
  Zr  Zr198  1  0.16630133  0.00015067  0.07115281  1.0
  Zr  Zr199  1  0.16630133  0.33348400  0.07115281  1.0
  Zr  Zr200  1  0.16630133  0.66681733  0.07115281  1.0
  Zr  Zr201  1  0.49963467  0.00015067  0.07115281  1.0
  Zr  Zr202  1  0.49963467  0.33348400  0.07115281  1.0
  Zr  Zr203  1  0.49963467  0.66681733  0.07115281  1.0
  Zr  Zr204  1  0.83296800  0.00015067  0.07115281  1.0
  Zr  Zr205  1  0.83296800  0.33348400  0.07115281  1.0
  Zr  Zr206  1  0.83296800  0.66681733  0.07115281  1.0
  Zr  Zr207  1  0.16630133  0.16681733  0.19615281  1.0
  Zr  Zr208  1  0.16630133  0.50015067  0.19615281  1.0
  Zr  Zr209  1  0.16630133  0.83348400  0.19615281  1.0
  Zr  Zr210  1  0.49963467  0.16681733  0.19615281  1.0
  Zr  Zr211  1  0.49963467  0.50015067  0.19615281  1.0
  Zr  Zr212  1  0.49963467  0.83348400  0.19615281  1.0
  Zr  Zr213  1  0.83296800  0.16681733  0.19615281  1.0
  Zr  Zr214  1  0.83296800  0.50015067  0.19615281  1.0
  Zr  Zr215  1  0.83296800  0.83348400  0.19615281  1.0
  Zr  Zr216  1  0.27130900  0.25008450  0.05728744  1.0
  Zr  Zr217  1  0.27130900  0.58341783  0.05728744  1.0
  Zr  Zr218  1  0.27130900  0.91675117  0.05728744  1.0
  Zr  Zr219  1  0.60464233  0.25008450  0.05728744  1.0
  Zr  Zr220  1  0.60464233  0.58341783  0.05728744  1.0
  Zr  Zr221  1  0.60464233  0.91675117  0.05728744  1.0
  Zr  Zr222  1  0.93797567  0.25008450  0.05728744  1.0
  Zr  Zr223  1  0.93797567  0.58341783  0.05728744  1.0
  Zr  Zr224  1  0.93797567  0.91675117  0.05728744  1.0
  Zr  Zr225  1  0.27130900  0.08341783  0.18228744  1.0
  Zr  Zr226  1  0.27130900  0.41675117  0.18228744  1.0
  Zr  Zr227  1  0.27130900  0.75008450  0.18228744  1.0
  Zr  Zr228  1  0.60464233  0.08341783  0.18228744  1.0
  Zr  Zr229  1  0.60464233  0.41675117  0.18228744  1.0
  Zr  Zr230  1  0.60464233  0.75008450  0.18228744  1.0
  Zr  Zr231  1  0.93797567  0.08341783  0.18228744  1.0
  Zr  Zr232  1  0.93797567  0.41675117  0.18228744  1.0
  Zr  Zr233  1  0.93797567  0.75008450  0.18228744  1.0
  Zr  Zr234  1  0.06202433  0.33324883  0.11991419  1.0
  Zr  Zr235  1  0.06202433  0.66658217  0.11991419  1.0
  Zr  Zr236  1  0.06202433  0.99991550  0.11991419  1.0
  Zr  Zr237  1  0.39535767  0.33324883  0.11991419  1.0
  Zr  Zr238  1  0.39535767  0.66658217  0.11991419  1.0
  Zr  Zr239  1  0.39535767  0.99991550  0.11991419  1.0
  Zr  Zr240  1  0.72869100  0.33324883  0.11991419  1.0
  Zr  Zr241  1  0.72869100  0.66658217  0.11991419  1.0
  Zr  Zr242  1  0.72869100  0.99991550  0.11991419  1.0
  Zr  Zr243  1  0.06202433  0.16658217  0.24491419  1.0
  Zr  Zr244  1  0.06202433  0.49991550  0.24491419  1.0
  Zr  Zr245  1  0.06202433  0.83324883  0.24491419  1.0
  Zr  Zr246  1  0.39535767  0.16658217  0.24491419  1.0
  Zr  Zr247  1  0.39535767  0.49991550  0.24491419  1.0
  Zr  Zr248  1  0.39535767  0.83324883  0.24491419  1.0
  Zr  Zr249  1  0.72869100  0.16658217  0.24491419  1.0
  Zr  Zr250  1  0.72869100  0.49991550  0.24491419  1.0
  Zr  Zr251  1  0.72869100  0.83324883  0.24491419  1.0
  Zr  Zr252  1  0.16703200  0.24984933  0.00887881  1.0
  Zr  Zr253  1  0.16703200  0.58318267  0.00887881  1.0
  Zr  Zr254  1  0.16703200  0.91651600  0.00887881  1.0
  Zr  Zr255  1  0.50036533  0.24984933  0.00887881  1.0
  Zr  Zr256  1  0.50036533  0.58318267  0.00887881  1.0
  Zr  Zr257  1  0.50036533  0.91651600  0.00887881  1.0
  Zr  Zr258  1  0.83369867  0.24984933  0.00887881  1.0
  Zr  Zr259  1  0.83369867  0.58318267  0.00887881  1.0
  Zr  Zr260  1  0.83369867  0.91651600  0.00887881  1.0
  Zr  Zr261  1  0.16703200  0.08318267  0.13387881  1.0
  Zr  Zr262  1  0.16703200  0.41651600  0.13387881  1.0
  Zr  Zr263  1  0.16703200  0.74984933  0.13387881  1.0
  Zr  Zr264  1  0.50036533  0.08318267  0.13387881  1.0
  Zr  Zr265  1  0.50036533  0.41651600  0.13387881  1.0
  Zr  Zr266  1  0.50036533  0.74984933  0.13387881  1.0
  Zr  Zr267  1  0.83369867  0.08318267  0.13387881  1.0
  Zr  Zr268  1  0.83369867  0.41651600  0.13387881  1.0
  Zr  Zr269  1  0.83369867  0.74984933  0.13387881  1.0
  Zr  Zr270  1  0.06202433  0.08324883  0.18089369  1.0
  Zr  Zr271  1  0.06202433  0.41658217  0.18089369  1.0
  Zr  Zr272  1  0.06202433  0.74991550  0.18089369  1.0
  Zr  Zr273  1  0.39535767  0.08324883  0.18089369  1.0
  Zr  Zr274  1  0.39535767  0.41658217  0.18089369  1.0
  Zr  Zr275  1  0.39535767  0.74991550  0.18089369  1.0
  Zr  Zr276  1  0.72869100  0.08324883  0.18089369  1.0
  Zr  Zr277  1  0.72869100  0.41658217  0.18089369  1.0
  Zr  Zr278  1  0.72869100  0.74991550  0.18089369  1.0
  Zr  Zr279  1  0.06202433  0.24991550  0.05589369  1.0
  Zr  Zr280  1  0.06202433  0.58324883  0.05589369  1.0
  Zr  Zr281  1  0.06202433  0.91658217  0.05589369  1.0
  Zr  Zr282  1  0.39535767  0.24991550  0.05589369  1.0
  Zr  Zr283  1  0.39535767  0.58324883  0.05589369  1.0
  Zr  Zr284  1  0.39535767  0.91658217  0.05589369  1.0
  Zr  Zr285  1  0.72869100  0.24991550  0.05589369  1.0
  Zr  Zr286  1  0.72869100  0.58324883  0.05589369  1.0
  Zr  Zr287  1  0.72869100  0.91658217  0.05589369  1.0
  Zr  Zr288  1  0.00000000  0.16666667  0.11909056  1.0
  Zr  Zr289  1  0.00000000  0.50000000  0.11909056  1.0
  Zr  Zr290  1  0.00000000  0.83333333  0.11909056  1.0
  Zr  Zr291  1  0.33333333  0.16666667  0.11909056  1.0
  Zr  Zr292  1  0.33333333  0.50000000  0.11909056  1.0
  Zr  Zr293  1  0.33333333  0.83333333  0.11909056  1.0
  Zr  Zr294  1  0.66666667  0.16666667  0.11909056  1.0
  Zr  Zr295  1  0.66666667  0.50000000  0.11909056  1.0
  Zr  Zr296  1  0.66666667  0.83333333  0.11909056  1.0
  Zr  Zr297  1  0.00000000  0.00000000  0.24409056  1.0
  Zr  Zr298  1  0.00000000  0.33333333  0.24409056  1.0
  Zr  Zr299  1  0.00000000  0.66666667  0.24409056  1.0
  Zr  Zr300  1  0.33333333  0.00000000  0.24409056  1.0
  Zr  Zr301  1  0.33333333  0.33333333  0.24409056  1.0
  Zr  Zr302  1  0.33333333  0.66666667  0.24409056  1.0
  Zr  Zr303  1  0.66666667  0.00000000  0.24409056  1.0
  Zr  Zr304  1  0.66666667  0.33333333  0.24409056  1.0
  Zr  Zr305  1  0.66666667  0.66666667  0.24409056  1.0
  Zr  Zr306  1  0.24962267  0.00062083  0.18019644  1.0
  Zr  Zr307  1  0.24962267  0.33395417  0.18019644  1.0
  Zr  Zr308  1  0.24962267  0.66728750  0.18019644  1.0
  Zr  Zr309  1  0.58295600  0.00062083  0.18019644  1.0
  Zr  Zr310  1  0.58295600  0.33395417  0.18019644  1.0
  Zr  Zr311  1  0.58295600  0.66728750  0.18019644  1.0
  Zr  Zr312  1  0.91628933  0.00062083  0.18019644  1.0
  Zr  Zr313  1  0.91628933  0.33395417  0.18019644  1.0
  Zr  Zr314  1  0.91628933  0.66728750  0.18019644  1.0
  Zr  Zr315  1  0.24962267  0.16728750  0.05519644  1.0
  Zr  Zr316  1  0.24962267  0.50062083  0.05519644  1.0
  Zr  Zr317  1  0.24962267  0.83395417  0.05519644  1.0
  Zr  Zr318  1  0.58295600  0.16728750  0.05519644  1.0
  Zr  Zr319  1  0.58295600  0.50062083  0.05519644  1.0
  Zr  Zr320  1  0.58295600  0.83395417  0.05519644  1.0
  Zr  Zr321  1  0.91628933  0.16728750  0.05519644  1.0
  Zr  Zr322  1  0.91628933  0.50062083  0.05519644  1.0
  Zr  Zr323  1  0.91628933  0.83395417  0.05519644  1.0
  Zr  Zr324  1  0.25037733  0.00024350  0.05547944  1.0
  Zr  Zr325  1  0.25037733  0.33357683  0.05547944  1.0
  Zr  Zr326  1  0.25037733  0.66691017  0.05547944  1.0
  Zr  Zr327  1  0.58371067  0.00024350  0.05547944  1.0
  Zr  Zr328  1  0.58371067  0.33357683  0.05547944  1.0
  Zr  Zr329  1  0.58371067  0.66691017  0.05547944  1.0
  Zr  Zr330  1  0.91704400  0.00024350  0.05547944  1.0
  Zr  Zr331  1  0.91704400  0.33357683  0.05547944  1.0
  Zr  Zr332  1  0.91704400  0.66691017  0.05547944  1.0
  Zr  Zr333  1  0.25037733  0.16691017  0.18047944  1.0
  Zr  Zr334  1  0.25037733  0.50024350  0.18047944  1.0
  Zr  Zr335  1  0.25037733  0.83357683  0.18047944  1.0
  Zr  Zr336  1  0.58371067  0.16691017  0.18047944  1.0
  Zr  Zr337  1  0.58371067  0.50024350  0.18047944  1.0
  Zr  Zr338  1  0.58371067  0.83357683  0.18047944  1.0
  Zr  Zr339  1  0.91704400  0.16691017  0.18047944  1.0
  Zr  Zr340  1  0.91704400  0.50024350  0.18047944  1.0
  Zr  Zr341  1  0.91704400  0.83357683  0.18047944  1.0
  Zr  Zr342  1  0.08295600  0.33308983  0.18270169  1.0
  Zr  Zr343  1  0.08295600  0.66642317  0.18270169  1.0
  Zr  Zr344  1  0.08295600  0.99975650  0.18270169  1.0
  Zr  Zr345  1  0.41628933  0.33308983  0.18270169  1.0
  Zr  Zr346  1  0.41628933  0.66642317  0.18270169  1.0
  Zr  Zr347  1  0.41628933  0.99975650  0.18270169  1.0
  Zr  Zr348  1  0.74962267  0.33308983  0.18270169  1.0
  Zr  Zr349  1  0.74962267  0.66642317  0.18270169  1.0
  Zr  Zr350  1  0.74962267  0.99975650  0.18270169  1.0
  Zr  Zr351  1  0.08295600  0.16642317  0.05770169  1.0
  Zr  Zr352  1  0.08295600  0.49975650  0.05770169  1.0
  Zr  Zr353  1  0.08295600  0.83308983  0.05770169  1.0
  Zr  Zr354  1  0.41628933  0.16642317  0.05770169  1.0
  Zr  Zr355  1  0.41628933  0.49975650  0.05770169  1.0
  Zr  Zr356  1  0.41628933  0.83308983  0.05770169  1.0
  Zr  Zr357  1  0.74962267  0.16642317  0.05770169  1.0
  Zr  Zr358  1  0.74962267  0.49975650  0.05770169  1.0
  Zr  Zr359  1  0.74962267  0.83308983  0.05770169  1.0
  Zr  Zr360  1  0.33296800  0.16688133  0.19610481  1.0
  Zr  Zr361  1  0.33296800  0.50021467  0.19610481  1.0
  Zr  Zr362  1  0.33296800  0.83354800  0.19610481  1.0
  Zr  Zr363  1  0.66630133  0.16688133  0.19610481  1.0
  Zr  Zr364  1  0.66630133  0.50021467  0.19610481  1.0
  Zr  Zr365  1  0.66630133  0.83354800  0.19610481  1.0
  Zr  Zr366  1  0.99963467  0.16688133  0.19610481  1.0
  Zr  Zr367  1  0.99963467  0.50021467  0.19610481  1.0
  Zr  Zr368  1  0.99963467  0.83354800  0.19610481  1.0
  Zr  Zr369  1  0.33296800  0.00021467  0.07110481  1.0
  Zr  Zr370  1  0.33296800  0.33354800  0.07110481  1.0
  Zr  Zr371  1  0.33296800  0.66688133  0.07110481  1.0
  Zr  Zr372  1  0.66630133  0.00021467  0.07110481  1.0
  Zr  Zr373  1  0.66630133  0.33354800  0.07110481  1.0
  Zr  Zr374  1  0.66630133  0.66688133  0.07110481  1.0
  Zr  Zr375  1  0.99963467  0.00021467  0.07110481  1.0
  Zr  Zr376  1  0.99963467  0.33354800  0.07110481  1.0
  Zr  Zr377  1  0.99963467  0.66688133  0.07110481  1.0
  Zr  Zr378  1  0.00000000  0.08333333  0.05659056  1.0
  Zr  Zr379  1  0.00000000  0.41666667  0.05659056  1.0
  Zr  Zr380  1  0.00000000  0.75000000  0.05659056  1.0
  Zr  Zr381  1  0.33333333  0.08333333  0.05659056  1.0
  Zr  Zr382  1  0.33333333  0.41666667  0.05659056  1.0
  Zr  Zr383  1  0.33333333  0.75000000  0.05659056  1.0
  Zr  Zr384  1  0.66666667  0.08333333  0.05659056  1.0
  Zr  Zr385  1  0.66666667  0.41666667  0.05659056  1.0
  Zr  Zr386  1  0.66666667  0.75000000  0.05659056  1.0
  Zr  Zr387  1  0.00000000  0.25000000  0.18159056  1.0
  Zr  Zr388  1  0.00000000  0.58333333  0.18159056  1.0
  Zr  Zr389  1  1.00000000  0.91666667  0.18159056  1.0
  Zr  Zr390  1  0.33333333  0.25000000  0.18159056  1.0
  Zr  Zr391  1  0.33333333  0.58333333  0.18159056  1.0
  Zr  Zr392  1  0.33333333  0.91666667  0.18159056  1.0
  Zr  Zr393  1  0.66666667  0.25000000  0.18159056  1.0
  Zr  Zr394  1  0.66666667  0.58333333  0.18159056  1.0
  Zr  Zr395  1  0.66666667  0.91666667  0.18159056  1.0
  Zr  Zr396  1  0.24962267  0.25062083  0.24455344  1.0
  Zr  Zr397  1  0.24962267  0.58395417  0.24455344  1.0
  Zr  Zr398  1  0.24962267  0.91728750  0.24455344  1.0
  Zr  Zr399  1  0.58295600  0.25062083  0.24455344  1.0
  Zr  Zr400  1  0.58295600  0.58395417  0.24455344  1.0
  Zr  Zr401  1  0.58295600  0.91728750  0.24455344  1.0
  Zr  Zr402  1  0.91628933  0.25062083  0.24455344  1.0
  Zr  Zr403  1  0.91628933  0.58395417  0.24455344  1.0
  Zr  Zr404  1  0.91628933  0.91728750  0.24455344  1.0
  Zr  Zr405  1  0.24962267  0.08395417  0.11955344  1.0
  Zr  Zr406  1  0.24962267  0.41728750  0.11955344  1.0
  Zr  Zr407  1  0.24962267  0.75062083  0.11955344  1.0
  Zr  Zr408  1  0.58295600  0.08395417  0.11955344  1.0
  Zr  Zr409  1  0.58295600  0.41728750  0.11955344  1.0
  Zr  Zr410  1  0.58295600  0.75062083  0.11955344  1.0
  Zr  Zr411  1  0.91628933  0.08395417  0.11955344  1.0
  Zr  Zr412  1  0.91628933  0.41728750  0.11955344  1.0
  Zr  Zr413  1  0.91628933  0.75062083  0.11955344  1.0
  Zr  Zr414  1  0.25037733  0.25024350  0.11983644  1.0
  Zr  Zr415  1  0.25037733  0.58357683  0.11983644  1.0
  Zr  Zr416  1  0.25037733  0.91691017  0.11983644  1.0
  Zr  Zr417  1  0.58371067  0.25024350  0.11983644  1.0
  Zr  Zr418  1  0.58371067  0.58357683  0.11983644  1.0
  Zr  Zr419  1  0.58371067  0.91691017  0.11983644  1.0
  Zr  Zr420  1  0.91704400  0.25024350  0.11983644  1.0
  Zr  Zr421  1  0.91704400  0.58357683  0.11983644  1.0
  Zr  Zr422  1  0.91704400  0.91691017  0.11983644  1.0
  Zr  Zr423  1  0.25037733  0.08357683  0.24483644  1.0
  Zr  Zr424  1  0.25037733  0.41691017  0.24483644  1.0
  Zr  Zr425  1  0.25037733  0.75024350  0.24483644  1.0
  Zr  Zr426  1  0.58371067  0.08357683  0.24483644  1.0
  Zr  Zr427  1  0.58371067  0.41691017  0.24483644  1.0
  Zr  Zr428  1  0.58371067  0.75024350  0.24483644  1.0
  Zr  Zr429  1  0.91704400  0.08357683  0.24483644  1.0
  Zr  Zr430  1  0.91704400  0.41691017  0.24483644  1.0
  Zr  Zr431  1  0.91704400  0.75024350  0.24483644  1.0
  Zr  Zr432  1  0.08371067  0.08271250  0.24362769  1.0
  Zr  Zr433  1  0.08371067  0.41604583  0.24362769  1.0
  Zr  Zr434  1  0.08371067  0.74937917  0.24362769  1.0
  Zr  Zr435  1  0.41704400  0.08271250  0.24362769  1.0
  Zr  Zr436  1  0.41704400  0.41604583  0.24362769  1.0
  Zr  Zr437  1  0.41704400  0.74937917  0.24362769  1.0
  Zr  Zr438  1  0.75037733  0.08271250  0.24362769  1.0
  Zr  Zr439  1  0.75037733  0.41604583  0.24362769  1.0
  Zr  Zr440  1  0.75037733  0.74937917  0.24362769  1.0
  Zr  Zr441  1  0.08371067  0.24937917  0.11862769  1.0
  Zr  Zr442  1  0.08371067  0.58271250  0.11862769  1.0
  Zr  Zr443  1  0.08371067  0.91604583  0.11862769  1.0
  Zr  Zr444  1  0.41704400  0.24937917  0.11862769  1.0
  Zr  Zr445  1  0.41704400  0.58271250  0.11862769  1.0
  Zr  Zr446  1  0.41704400  0.91604583  0.11862769  1.0
  Zr  Zr447  1  0.75037733  0.24937917  0.11862769  1.0
  Zr  Zr448  1  0.75037733  0.58271250  0.11862769  1.0
  Zr  Zr449  1  0.75037733  0.91604583  0.11862769  1.0
  Zr  Zr450  1  0.00036533  0.16645200  0.04207631  1.0
  Zr  Zr451  1  0.00036533  0.49978533  0.04207631  1.0
  Zr  Zr452  1  0.00036533  0.83311867  0.04207631  1.0
  Zr  Zr453  1  0.33369867  0.16645200  0.04207631  1.0
  Zr  Zr454  1  0.33369867  0.49978533  0.04207631  1.0
  Zr  Zr455  1  0.33369867  0.83311867  0.04207631  1.0
  Zr  Zr456  1  0.66703200  0.16645200  0.04207631  1.0
  Zr  Zr457  1  0.66703200  0.49978533  0.04207631  1.0
  Zr  Zr458  1  0.66703200  0.83311867  0.04207631  1.0
  Zr  Zr459  1  0.00036533  0.33311867  0.16707631  1.0
  Zr  Zr460  1  0.00036533  0.66645200  0.16707631  1.0
  Zr  Zr461  1  0.00036533  0.99978533  0.16707631  1.0
  Zr  Zr462  1  0.33369867  0.33311867  0.16707631  1.0
  Zr  Zr463  1  0.33369867  0.66645200  0.16707631  1.0
  Zr  Zr464  1  0.33369867  0.99978533  0.16707631  1.0
  Zr  Zr465  1  0.66703200  0.33311867  0.16707631  1.0
  Zr  Zr466  1  0.66703200  0.66645200  0.16707631  1.0
  Zr  Zr467  1  0.66703200  0.99978533  0.16707631  1.0
  Zr  Zr468  1  0.16666667  0.00000000  0.24409056  1.0
  Zr  Zr469  1  0.16666667  0.33333333  0.24409056  1.0
  Zr  Zr470  1  0.16666667  0.66666667  0.24409056  1.0
  Zr  Zr471  1  0.50000000  0.00000000  0.24409056  1.0
  Zr  Zr472  1  0.50000000  0.33333333  0.24409056  1.0
  Zr  Zr473  1  0.50000000  0.66666667  0.24409056  1.0
  Zr  Zr474  1  0.83333333  0.00000000  0.24409056  1.0
  Zr  Zr475  1  0.83333333  0.33333333  0.24409056  1.0
  Zr  Zr476  1  0.83333333  0.66666667  0.24409056  1.0
  Zr  Zr477  1  0.16666667  0.16666667  0.11909056  1.0
  Zr  Zr478  1  0.16666667  0.50000000  0.11909056  1.0
  Zr  Zr479  1  0.16666667  0.83333333  0.11909056  1.0
  Zr  Zr480  1  0.50000000  0.16666667  0.11909056  1.0
  Zr  Zr481  1  0.50000000  0.50000000  0.11909056  1.0
  Zr  Zr482  1  0.50000000  0.83333333  0.11909056  1.0
  Zr  Zr483  1  0.83333333  0.16666667  0.11909056  1.0
  Zr  Zr484  1  0.83333333  0.50000000  0.11909056  1.0
  Zr  Zr485  1  0.83333333  0.83333333  0.11909056  1.0
  Zr  Zr486  1  0.16630133  0.08348400  0.22930231  1.0
  Zr  Zr487  1  0.16630133  0.41681733  0.22930231  1.0
  Zr  Zr488  1  0.16630133  0.75015067  0.22930231  1.0
  Zr  Zr489  1  0.49963467  0.08348400  0.22930231  1.0
  Zr  Zr490  1  0.49963467  0.41681733  0.22930231  1.0
  Zr  Zr491  1  0.49963467  0.75015067  0.22930231  1.0
  Zr  Zr492  1  0.83296800  0.08348400  0.22930231  1.0
  Zr  Zr493  1  0.83296800  0.41681733  0.22930231  1.0
  Zr  Zr494  1  0.83296800  0.75015067  0.22930231  1.0
  Zr  Zr495  1  0.16630133  0.25015067  0.10430231  1.0
  Zr  Zr496  1  0.16630133  0.58348400  0.10430231  1.0
  Zr  Zr497  1  0.16630133  0.91681733  0.10430231  1.0
  Zr  Zr498  1  0.49963467  0.25015067  0.10430231  1.0
  Zr  Zr499  1  0.49963467  0.58348400  0.10430231  1.0
  Zr  Zr500  1  0.49963467  0.91681733  0.10430231  1.0
  Zr  Zr501  1  0.83296800  0.25015067  0.10430231  1.0
  Zr  Zr502  1  0.83296800  0.58348400  0.10430231  1.0
  Zr  Zr503  1  0.83296800  0.91681733  0.10430231  1.0
  Ni  Ni504  1  0.26453167  0.28532117  0.19195694  1.0
  Ni  Ni505  1  0.26453167  0.61865450  0.19195694  1.0
  Ni  Ni506  1  0.26453167  0.95198783  0.19195694  1.0
  Ni  Ni507  1  0.59786500  0.28532117  0.19195694  1.0
  Ni  Ni508  1  0.59786500  0.61865450  0.19195694  1.0
  Ni  Ni509  1  0.59786500  0.95198783  0.19195694  1.0
  Ni  Ni510  1  0.93119833  0.28532117  0.19195694  1.0
  Ni  Ni511  1  0.93119833  0.61865450  0.19195694  1.0
  Ni  Ni512  1  0.93119833  0.95198783  0.19195694  1.0
  Ni  Ni513  1  0.26453167  0.11865450  0.06695694  1.0
  Ni  Ni514  1  0.26453167  0.45198783  0.06695694  1.0
  Ni  Ni515  1  0.26453167  0.78532117  0.06695694  1.0
  Ni  Ni516  1  0.59786500  0.11865450  0.06695694  1.0
  Ni  Ni517  1  0.59786500  0.45198783  0.06695694  1.0
  Ni  Ni518  1  0.59786500  0.78532117  0.06695694  1.0
  Ni  Ni519  1  0.93119833  0.11865450  0.06695694  1.0
  Ni  Ni520  1  0.93119833  0.45198783  0.06695694  1.0
  Ni  Ni521  1  0.93119833  0.78532117  0.06695694  1.0
  Ni  Ni522  1  0.03504433  0.04807483  0.20759244  1.0
  Ni  Ni523  1  0.03504433  0.38140817  0.20759244  1.0
  Ni  Ni524  1  0.03504433  0.71474150  0.20759244  1.0
  Ni  Ni525  1  0.36837767  0.04807483  0.20759244  1.0
  Ni  Ni526  1  0.36837767  0.38140817  0.20759244  1.0
  Ni  Ni527  1  0.36837767  0.71474150  0.20759244  1.0
  Ni  Ni528  1  0.70171100  0.04807483  0.20759244  1.0
  Ni  Ni529  1  0.70171100  0.38140817  0.20759244  1.0
  Ni  Ni530  1  0.70171100  0.71474150  0.20759244  1.0
  Ni  Ni531  1  0.03504433  0.21474150  0.08259244  1.0
  Ni  Ni532  1  0.03504433  0.54807483  0.08259244  1.0
  Ni  Ni533  1  0.03504433  0.88140817  0.08259244  1.0
  Ni  Ni534  1  0.36837767  0.21474150  0.08259244  1.0
  Ni  Ni535  1  0.36837767  0.54807483  0.08259244  1.0
  Ni  Ni536  1  0.36837767  0.88140817  0.08259244  1.0
  Ni  Ni537  1  0.70171100  0.21474150  0.08259244  1.0
  Ni  Ni538  1  0.70171100  0.54807483  0.08259244  1.0
  Ni  Ni539  1  0.70171100  0.88140817  0.08259244  1.0
  Ni  Ni540  1  0.13162233  0.33311917  0.11880919  1.0
  Ni  Ni541  1  0.13162233  0.66645250  0.11880919  1.0
  Ni  Ni542  1  0.13162233  0.99978583  0.11880919  1.0
  Ni  Ni543  1  0.46495567  0.33311917  0.11880919  1.0
  Ni  Ni544  1  0.46495567  0.66645250  0.11880919  1.0
  Ni  Ni545  1  0.46495567  0.99978583  0.11880919  1.0
  Ni  Ni546  1  0.79828900  0.33311917  0.11880919  1.0
  Ni  Ni547  1  0.79828900  0.66645250  0.11880919  1.0
  Ni  Ni548  1  0.79828900  0.99978583  0.11880919  1.0
  Ni  Ni549  1  0.13162233  0.16645250  0.24380919  1.0
  Ni  Ni550  1  0.13162233  0.49978583  0.24380919  1.0
  Ni  Ni551  1  0.13162233  0.83311917  0.24380919  1.0
  Ni  Ni552  1  0.46495567  0.16645250  0.24380919  1.0
  Ni  Ni553  1  0.46495567  0.49978583  0.24380919  1.0
  Ni  Ni554  1  0.46495567  0.83311917  0.24380919  1.0
  Ni  Ni555  1  0.79828900  0.16645250  0.24380919  1.0
  Ni  Ni556  1  0.79828900  0.49978583  0.24380919  1.0
  Ni  Ni557  1  0.79828900  0.83311917  0.24380919  1.0
  Ni  Ni558  1  0.23607400  0.21753033  0.24183256  1.0
  Ni  Ni559  1  0.23607400  0.55086367  0.24183256  1.0
  Ni  Ni560  1  0.23607400  0.88419700  0.24183256  1.0
  Ni  Ni561  1  0.56940733  0.21753033  0.24183256  1.0
  Ni  Ni562  1  0.56940733  0.55086367  0.24183256  1.0
  Ni  Ni563  1  0.56940733  0.88419700  0.24183256  1.0
  Ni  Ni564  1  0.90274067  0.21753033  0.24183256  1.0
  Ni  Ni565  1  0.90274067  0.55086367  0.24183256  1.0
  Ni  Ni566  1  0.90274067  0.88419700  0.24183256  1.0
  Ni  Ni567  1  0.23607400  0.05086367  0.11683256  1.0
  Ni  Ni568  1  0.23607400  0.38419700  0.11683256  1.0
  Ni  Ni569  1  0.23607400  0.71753033  0.11683256  1.0
  Ni  Ni570  1  0.56940733  0.05086367  0.11683256  1.0
  Ni  Ni571  1  0.56940733  0.38419700  0.11683256  1.0
  Ni  Ni572  1  0.56940733  0.71753033  0.11683256  1.0
  Ni  Ni573  1  0.90274067  0.05086367  0.11683256  1.0
  Ni  Ni574  1  0.90274067  0.38419700  0.11683256  1.0
  Ni  Ni575  1  0.90274067  0.71753033  0.11683256  1.0
  Ni  Ni576  1  0.06940733  0.12972900  0.11090406  1.0
  Ni  Ni577  1  0.06940733  0.46306233  0.11090406  1.0
  Ni  Ni578  1  0.06940733  0.79639567  0.11090406  1.0
  Ni  Ni579  1  0.40274067  0.12972900  0.11090406  1.0
  Ni  Ni580  1  0.40274067  0.46306233  0.11090406  1.0
  Ni  Ni581  1  0.40274067  0.79639567  0.11090406  1.0
  Ni  Ni582  1  0.73607400  0.12972900  0.11090406  1.0
  Ni  Ni583  1  0.73607400  0.46306233  0.11090406  1.0
  Ni  Ni584  1  0.73607400  0.79639567  0.11090406  1.0
  Ni  Ni585  1  0.06940733  0.29639567  0.23590406  1.0
  Ni  Ni586  1  0.06940733  0.62972900  0.23590406  1.0
  Ni  Ni587  1  0.06940733  0.96306233  0.23590406  1.0
  Ni  Ni588  1  0.40274067  0.29639567  0.23590406  1.0
  Ni  Ni589  1  0.40274067  0.62972900  0.23590406  1.0
  Ni  Ni590  1  0.40274067  0.96306233  0.23590406  1.0
  Ni  Ni591  1  0.73607400  0.29639567  0.23590406  1.0
  Ni  Ni592  1  0.73607400  0.62972900  0.23590406  1.0
  Ni  Ni593  1  0.73607400  0.96306233  0.23590406  1.0
  Ni  Ni594  1  0.16414600  0.28619717  0.19110819  1.0
  Ni  Ni595  1  0.16414600  0.61953050  0.19110819  1.0
  Ni  Ni596  1  0.16414600  0.95286383  0.19110819  1.0
  Ni  Ni597  1  0.49747933  0.28619717  0.19110819  1.0
  Ni  Ni598  1  0.49747933  0.61953050  0.19110819  1.0
  Ni  Ni599  1  0.49747933  0.95286383  0.19110819  1.0
  Ni  Ni600  1  0.83081267  0.28619717  0.19110819  1.0
  Ni  Ni601  1  0.83081267  0.61953050  0.19110819  1.0
  Ni  Ni602  1  0.83081267  0.95286383  0.19110819  1.0
  Ni  Ni603  1  0.16414600  0.11953050  0.06610819  1.0
  Ni  Ni604  1  0.16414600  0.45286383  0.06610819  1.0
  Ni  Ni605  1  0.16414600  0.78619717  0.06610819  1.0
  Ni  Ni606  1  0.49747933  0.11953050  0.06610819  1.0
  Ni  Ni607  1  0.49747933  0.45286383  0.06610819  1.0
  Ni  Ni608  1  0.49747933  0.78619717  0.06610819  1.0
  Ni  Ni609  1  0.83081267  0.11953050  0.06610819  1.0
  Ni  Ni610  1  0.83081267  0.45286383  0.06610819  1.0
  Ni  Ni611  1  0.83081267  0.78619717  0.06610819  1.0
  Ni  Ni612  1  0.03504433  0.13140817  0.02097644  1.0
  Ni  Ni613  1  0.03504433  0.46474150  0.02097644  1.0
  Ni  Ni614  1  0.03504433  0.79807483  0.02097644  1.0
  Ni  Ni615  1  0.36837767  0.13140817  0.02097644  1.0
  Ni  Ni616  1  0.36837767  0.46474150  0.02097644  1.0
  Ni  Ni617  1  0.36837767  0.79807483  0.02097644  1.0
  Ni  Ni618  1  0.70171100  0.13140817  0.02097644  1.0
  Ni  Ni619  1  0.70171100  0.46474150  0.02097644  1.0
  Ni  Ni620  1  0.70171100  0.79807483  0.02097644  1.0
  Ni  Ni621  1  0.03504433  0.29807483  0.14597644  1.0
  Ni  Ni622  1  0.03504433  0.63140817  0.14597644  1.0
  Ni  Ni623  1  0.03504433  0.96474150  0.14597644  1.0
  Ni  Ni624  1  0.36837767  0.29807483  0.14597644  1.0
  Ni  Ni625  1  0.36837767  0.63140817  0.14597644  1.0
  Ni  Ni626  1  0.36837767  0.96474150  0.14597644  1.0
  Ni  Ni627  1  0.70171100  0.29807483  0.14597644  1.0
  Ni  Ni628  1  0.70171100  0.63140817  0.14597644  1.0
  Ni  Ni629  1  0.70171100  0.96474150  0.14597644  1.0
  Ni  Ni630  1  0.26453167  0.20198783  0.05574244  1.0
  Ni  Ni631  1  0.26453167  0.53532117  0.05574244  1.0
  Ni  Ni632  1  0.26453167  0.86865450  0.05574244  1.0
  Ni  Ni633  1  0.59786500  0.20198783  0.05574244  1.0
  Ni  Ni634  1  0.59786500  0.53532117  0.05574244  1.0
  Ni  Ni635  1  0.59786500  0.86865450  0.05574244  1.0
  Ni  Ni636  1  0.93119833  0.20198783  0.05574244  1.0
  Ni  Ni637  1  0.93119833  0.53532117  0.05574244  1.0
  Ni  Ni638  1  0.93119833  0.86865450  0.05574244  1.0
  Ni  Ni639  1  0.26453167  0.03532117  0.18074244  1.0
  Ni  Ni640  1  0.26453167  0.36865450  0.18074244  1.0
  Ni  Ni641  1  0.26453167  0.70198783  0.18074244  1.0
  Ni  Ni642  1  0.59786500  0.03532117  0.18074244  1.0
  Ni  Ni643  1  0.59786500  0.36865450  0.18074244  1.0
  Ni  Ni644  1  0.59786500  0.70198783  0.18074244  1.0
  Ni  Ni645  1  0.93119833  0.03532117  0.18074244  1.0
  Ni  Ni646  1  0.93119833  0.36865450  0.18074244  1.0
  Ni  Ni647  1  0.93119833  0.70198783  0.18074244  1.0
  Ni  Ni648  1  0.20171100  0.25021417  0.05598794  1.0
  Ni  Ni649  1  0.20171100  0.58354750  0.05598794  1.0
  Ni  Ni650  1  0.20171100  0.91688083  0.05598794  1.0
  Ni  Ni651  1  0.53504433  0.25021417  0.05598794  1.0
  Ni  Ni652  1  0.53504433  0.58354750  0.05598794  1.0
  Ni  Ni653  1  0.53504433  0.91688083  0.05598794  1.0
  Ni  Ni654  1  0.86837767  0.25021417  0.05598794  1.0
  Ni  Ni655  1  0.86837767  0.58354750  0.05598794  1.0
  Ni  Ni656  1  0.86837767  0.91688083  0.05598794  1.0
  Ni  Ni657  1  0.20171100  0.08354750  0.18098794  1.0
  Ni  Ni658  1  0.20171100  0.41688083  0.18098794  1.0
  Ni  Ni659  1  0.20171100  0.75021417  0.18098794  1.0
  Ni  Ni660  1  0.53504433  0.08354750  0.18098794  1.0
  Ni  Ni661  1  0.53504433  0.41688083  0.18098794  1.0
  Ni  Ni662  1  0.53504433  0.75021417  0.18098794  1.0
  Ni  Ni663  1  0.86837767  0.08354750  0.18098794  1.0
  Ni  Ni664  1  0.86837767  0.41688083  0.18098794  1.0
  Ni  Ni665  1  0.86837767  0.75021417  0.18098794  1.0
  Ni  Ni666  1  0.00225267  0.03335683  0.18315794  1.0
  Ni  Ni667  1  0.00225267  0.36669017  0.18315794  1.0
  Ni  Ni668  1  0.00225267  0.70002350  0.18315794  1.0
  Ni  Ni669  1  0.33558600  0.03335683  0.18315794  1.0
  Ni  Ni670  1  0.33558600  0.36669017  0.18315794  1.0
  Ni  Ni671  1  0.33558600  0.70002350  0.18315794  1.0
  Ni  Ni672  1  0.66891933  0.03335683  0.18315794  1.0
  Ni  Ni673  1  0.66891933  0.36669017  0.18315794  1.0
  Ni  Ni674  1  0.66891933  0.70002350  0.18315794  1.0
  Ni  Ni675  1  0.00225267  0.20002350  0.05815794  1.0
  Ni  Ni676  1  0.00225267  0.53335683  0.05815794  1.0
  Ni  Ni677  1  0.00225267  0.86669017  0.05815794  1.0
  Ni  Ni678  1  0.33558600  0.20002350  0.05815794  1.0
  Ni  Ni679  1  0.33558600  0.53335683  0.05815794  1.0
  Ni  Ni680  1  0.33558600  0.86669017  0.05815794  1.0
  Ni  Ni681  1  0.66891933  0.20002350  0.05815794  1.0
  Ni  Ni682  1  0.66891933  0.53335683  0.05815794  1.0
  Ni  Ni683  1  0.66891933  0.86669017  0.05815794  1.0
  Ni  Ni684  1  0.16891933  0.04772383  0.11921269  1.0
  Ni  Ni685  1  0.16891933  0.38105717  0.11921269  1.0
  Ni  Ni686  1  0.16891933  0.71439050  0.11921269  1.0
  Ni  Ni687  1  0.50225267  0.04772383  0.11921269  1.0
  Ni  Ni688  1  0.50225267  0.38105717  0.11921269  1.0
  Ni  Ni689  1  0.50225267  0.71439050  0.11921269  1.0
  Ni  Ni690  1  0.83558600  0.04772383  0.11921269  1.0
  Ni  Ni691  1  0.83558600  0.38105717  0.11921269  1.0
  Ni  Ni692  1  0.83558600  0.71439050  0.11921269  1.0
  Ni  Ni693  1  0.16891933  0.21439050  0.24421269  1.0
  Ni  Ni694  1  0.16891933  0.54772383  0.24421269  1.0
  Ni  Ni695  1  0.16891933  0.88105717  0.24421269  1.0
  Ni  Ni696  1  0.50225267  0.21439050  0.24421269  1.0
  Ni  Ni697  1  0.50225267  0.54772383  0.24421269  1.0
  Ni  Ni698  1  0.50225267  0.88105717  0.24421269  1.0
  Ni  Ni699  1  0.83558600  0.21439050  0.24421269  1.0
  Ni  Ni700  1  0.83558600  0.54772383  0.24421269  1.0
  Ni  Ni701  1  0.83558600  0.88105717  0.24421269  1.0
  Ni  Ni702  1  0.06940733  0.04639567  0.12018356  1.0
  Ni  Ni703  1  0.06940733  0.37972900  0.12018356  1.0
  Ni  Ni704  1  0.06940733  0.71306233  0.12018356  1.0
  Ni  Ni705  1  0.40274067  0.04639567  0.12018356  1.0
  Ni  Ni706  1  0.40274067  0.37972900  0.12018356  1.0
  Ni  Ni707  1  0.40274067  0.71306233  0.12018356  1.0
  Ni  Ni708  1  0.73607400  0.04639567  0.12018356  1.0
  Ni  Ni709  1  0.73607400  0.37972900  0.12018356  1.0
  Ni  Ni710  1  0.73607400  0.71306233  0.12018356  1.0
  Ni  Ni711  1  0.06940733  0.21306233  0.24518356  1.0
  Ni  Ni712  1  0.06940733  0.54639567  0.24518356  1.0
  Ni  Ni713  1  0.06940733  0.87972900  0.24518356  1.0
  Ni  Ni714  1  0.40274067  0.21306233  0.24518356  1.0
  Ni  Ni715  1  0.40274067  0.54639567  0.24518356  1.0
  Ni  Ni716  1  0.40274067  0.87972900  0.24518356  1.0
  Ni  Ni717  1  0.73607400  0.21306233  0.24518356  1.0
  Ni  Ni718  1  0.73607400  0.54639567  0.24518356  1.0
  Ni  Ni719  1  0.73607400  0.87972900  0.24518356  1.0
  Ni  Ni720  1  0.13162233  0.08311917  0.18219319  1.0
  Ni  Ni721  1  0.13162233  0.41645250  0.18219319  1.0
  Ni  Ni722  1  0.13162233  0.74978583  0.18219319  1.0
  Ni  Ni723  1  0.46495567  0.08311917  0.18219319  1.0
  Ni  Ni724  1  0.46495567  0.41645250  0.18219319  1.0
  Ni  Ni725  1  0.46495567  0.74978583  0.18219319  1.0
  Ni  Ni726  1  0.79828900  0.08311917  0.18219319  1.0
  Ni  Ni727  1  0.79828900  0.41645250  0.18219319  1.0
  Ni  Ni728  1  0.79828900  0.74978583  0.18219319  1.0
  Ni  Ni729  1  0.13162233  0.24978583  0.05719319  1.0
  Ni  Ni730  1  0.13162233  0.58311917  0.05719319  1.0
  Ni  Ni731  1  0.13162233  0.91645250  0.05719319  1.0
  Ni  Ni732  1  0.46495567  0.24978583  0.05719319  1.0
  Ni  Ni733  1  0.46495567  0.58311917  0.05719319  1.0
  Ni  Ni734  1  0.46495567  0.91645250  0.05719319  1.0
  Ni  Ni735  1  0.79828900  0.24978583  0.05719319  1.0
  Ni  Ni736  1  0.79828900  0.58311917  0.05719319  1.0
  Ni  Ni737  1  0.79828900  0.91645250  0.05719319  1.0
  Ni  Ni738  1  0.26392600  0.20360433  0.12727706  1.0
  Ni  Ni739  1  0.26392600  0.53693767  0.12727706  1.0
  Ni  Ni740  1  0.26392600  0.87027100  0.12727706  1.0
  Ni  Ni741  1  0.59725933  0.20360433  0.12727706  1.0
  Ni  Ni742  1  0.59725933  0.53693767  0.12727706  1.0
  Ni  Ni743  1  0.59725933  0.87027100  0.12727706  1.0
  Ni  Ni744  1  0.93059267  0.20360433  0.12727706  1.0
  Ni  Ni745  1  0.93059267  0.53693767  0.12727706  1.0
  Ni  Ni746  1  0.93059267  0.87027100  0.12727706  1.0
  Ni  Ni747  1  0.26392600  0.03693767  0.00227706  1.0
  Ni  Ni748  1  0.26392600  0.37027100  0.00227706  1.0
  Ni  Ni749  1  0.26392600  0.70360433  0.00227706  1.0
  Ni  Ni750  1  0.59725933  0.03693767  0.00227706  1.0
  Ni  Ni751  1  0.59725933  0.37027100  0.00227706  1.0
  Ni  Ni752  1  0.59725933  0.70360433  0.00227706  1.0
  Ni  Ni753  1  0.93059267  0.03693767  0.00227706  1.0
  Ni  Ni754  1  0.93059267  0.37027100  0.00227706  1.0
  Ni  Ni755  1  0.93059267  0.70360433  0.00227706  1.0
  Ni  Ni756  1  0.09786500  0.11681383  0.06833744  1.0
  Ni  Ni757  1  0.09786500  0.45014717  0.06833744  1.0
  Ni  Ni758  1  0.09786500  0.78348050  0.06833744  1.0
  Ni  Ni759  1  0.43119833  0.11681383  0.06833744  1.0
  Ni  Ni760  1  0.43119833  0.45014717  0.06833744  1.0
  Ni  Ni761  1  0.43119833  0.78348050  0.06833744  1.0
  Ni  Ni762  1  0.76453167  0.11681383  0.06833744  1.0
  Ni  Ni763  1  0.76453167  0.45014717  0.06833744  1.0
  Ni  Ni764  1  0.76453167  0.78348050  0.06833744  1.0
  Ni  Ni765  1  0.09786500  0.28348050  0.19333744  1.0
  Ni  Ni766  1  0.09786500  0.61681383  0.19333744  1.0
  Ni  Ni767  1  0.09786500  0.95014717  0.19333744  1.0
  Ni  Ni768  1  0.43119833  0.28348050  0.19333744  1.0
  Ni  Ni769  1  0.43119833  0.61681383  0.19333744  1.0
  Ni  Ni770  1  0.43119833  0.95014717  0.19333744  1.0
  Ni  Ni771  1  0.76453167  0.28348050  0.19333744  1.0
  Ni  Ni772  1  0.76453167  0.61681383  0.19333744  1.0
  Ni  Ni773  1  0.76453167  0.95014717  0.19333744  1.0
  Ni  Ni774  1  0.00252067  0.11700983  0.24466769  1.0
  Ni  Ni775  1  0.00252067  0.45034317  0.24466769  1.0
  Ni  Ni776  1  0.00252067  0.78367650  0.24466769  1.0
  Ni  Ni777  1  0.33585400  0.11700983  0.24466769  1.0
  Ni  Ni778  1  0.33585400  0.45034317  0.24466769  1.0
  Ni  Ni779  1  0.33585400  0.78367650  0.24466769  1.0
  Ni  Ni780  1  0.66918733  0.11700983  0.24466769  1.0
  Ni  Ni781  1  0.66918733  0.45034317  0.24466769  1.0
  Ni  Ni782  1  0.66918733  0.78367650  0.24466769  1.0
  Ni  Ni783  1  0.00252067  0.28367650  0.11966769  1.0
  Ni  Ni784  1  0.00252067  0.61700983  0.11966769  1.0
  Ni  Ni785  1  0.00252067  0.95034317  0.11966769  1.0
  Ni  Ni786  1  0.33585400  0.28367650  0.11966769  1.0
  Ni  Ni787  1  0.33585400  0.61700983  0.11966769  1.0
  Ni  Ni788  1  0.33585400  0.95034317  0.11966769  1.0
  Ni  Ni789  1  0.66918733  0.28367650  0.11966769  1.0
  Ni  Ni790  1  0.66918733  0.61700983  0.11966769  1.0
  Ni  Ni791  1  0.66918733  0.95034317  0.11966769  1.0
  Ni  Ni792  1  0.16414600  0.03619717  0.18027719  1.0
  Ni  Ni793  1  0.16414600  0.36953050  0.18027719  1.0
  Ni  Ni794  1  0.16414600  0.70286383  0.18027719  1.0
  Ni  Ni795  1  0.49747933  0.03619717  0.18027719  1.0
  Ni  Ni796  1  0.49747933  0.36953050  0.18027719  1.0
  Ni  Ni797  1  0.49747933  0.70286383  0.18027719  1.0
  Ni  Ni798  1  0.83081267  0.03619717  0.18027719  1.0
  Ni  Ni799  1  0.83081267  0.36953050  0.18027719  1.0
  Ni  Ni800  1  0.83081267  0.70286383  0.18027719  1.0
  Ni  Ni801  1  0.16414600  0.20286383  0.05527719  1.0
  Ni  Ni802  1  0.16414600  0.53619717  0.05527719  1.0
  Ni  Ni803  1  0.16414600  0.86953050  0.05527719  1.0
  Ni  Ni804  1  0.49747933  0.20286383  0.05527719  1.0
  Ni  Ni805  1  0.49747933  0.53619717  0.05527719  1.0
  Ni  Ni806  1  0.49747933  0.86953050  0.05527719  1.0
  Ni  Ni807  1  0.83081267  0.20286383  0.05527719  1.0
  Ni  Ni808  1  0.83081267  0.53619717  0.05527719  1.0
  Ni  Ni809  1  0.83081267  0.86953050  0.05527719  1.0
  Ni  Ni810  1  0.33108067  0.21664317  0.17069319  1.0
  Ni  Ni811  1  0.33108067  0.54997650  0.17069319  1.0
  Ni  Ni812  1  0.33108067  0.88330983  0.17069319  1.0
  Ni  Ni813  1  0.66441400  0.21664317  0.17069319  1.0
  Ni  Ni814  1  0.66441400  0.54997650  0.17069319  1.0
  Ni  Ni815  1  0.66441400  0.88330983  0.17069319  1.0
  Ni  Ni816  1  0.99774733  0.21664317  0.17069319  1.0
  Ni  Ni817  1  0.99774733  0.54997650  0.17069319  1.0
  Ni  Ni818  1  0.99774733  0.88330983  0.17069319  1.0
  Ni  Ni819  1  0.33108067  0.04997650  0.04569319  1.0
  Ni  Ni820  1  0.33108067  0.38330983  0.04569319  1.0
  Ni  Ni821  1  0.33108067  0.71664317  0.04569319  1.0
  Ni  Ni822  1  0.66441400  0.04997650  0.04569319  1.0
  Ni  Ni823  1  0.66441400  0.38330983  0.04569319  1.0
  Ni  Ni824  1  0.66441400  0.71664317  0.04569319  1.0
  Ni  Ni825  1  0.99774733  0.04997650  0.04569319  1.0
  Ni  Ni826  1  0.99774733  0.38330983  0.04569319  1.0
  Ni  Ni827  1  0.99774733  0.71664317  0.04569319  1.0
  Ni  Ni828  1  0.26392600  0.28693767  0.11799756  1.0
  Ni  Ni829  1  0.26392600  0.62027100  0.11799756  1.0
  Ni  Ni830  1  0.26392600  0.95360433  0.11799756  1.0
  Ni  Ni831  1  0.59725933  0.28693767  0.11799756  1.0
  Ni  Ni832  1  0.59725933  0.62027100  0.11799756  1.0
  Ni  Ni833  1  0.59725933  0.95360433  0.11799756  1.0
  Ni  Ni834  1  0.93059267  0.28693767  0.11799756  1.0
  Ni  Ni835  1  0.93059267  0.62027100  0.11799756  1.0
  Ni  Ni836  1  0.93059267  0.95360433  0.11799756  1.0
  Ni  Ni837  1  0.26392600  0.12027100  0.24299756  1.0
  Ni  Ni838  1  0.26392600  0.45360433  0.24299756  1.0
  Ni  Ni839  1  0.26392600  0.78693767  0.24299756  1.0
  Ni  Ni840  1  0.59725933  0.12027100  0.24299756  1.0
  Ni  Ni841  1  0.59725933  0.45360433  0.24299756  1.0
  Ni  Ni842  1  0.59725933  0.78693767  0.24299756  1.0
  Ni  Ni843  1  0.93059267  0.12027100  0.24299756  1.0
  Ni  Ni844  1  0.93059267  0.45360433  0.24299756  1.0
  Ni  Ni845  1  0.93059267  0.78693767  0.24299756  1.0
  Ni  Ni846  1  0.06880167  0.13134550  0.18243869  1.0
  Ni  Ni847  1  0.06880167  0.46467883  0.18243869  1.0
  Ni  Ni848  1  0.06880167  0.79801217  0.18243869  1.0
  Ni  Ni849  1  0.40213500  0.13134550  0.18243869  1.0
  Ni  Ni850  1  0.40213500  0.46467883  0.18243869  1.0
  Ni  Ni851  1  0.40213500  0.79801217  0.18243869  1.0
  Ni  Ni852  1  0.73546833  0.13134550  0.18243869  1.0
  Ni  Ni853  1  0.73546833  0.46467883  0.18243869  1.0
  Ni  Ni854  1  0.73546833  0.79801217  0.18243869  1.0
  Ni  Ni855  1  0.06880167  0.29801217  0.05743869  1.0
  Ni  Ni856  1  0.06880167  0.63134550  0.05743869  1.0
  Ni  Ni857  1  0.06880167  0.96467883  0.05743869  1.0
  Ni  Ni858  1  0.40213500  0.29801217  0.05743869  1.0
  Ni  Ni859  1  0.40213500  0.63134550  0.05743869  1.0
  Ni  Ni860  1  0.40213500  0.96467883  0.05743869  1.0
  Ni  Ni861  1  0.73546833  0.29801217  0.05743869  1.0
  Ni  Ni862  1  0.73546833  0.63134550  0.05743869  1.0
  Ni  Ni863  1  0.73546833  0.96467883  0.05743869  1.0
  Ni  Ni864  1  0.23607400  0.30086367  0.23255306  1.0
  Ni  Ni865  1  0.23607400  0.63419700  0.23255306  1.0
  Ni  Ni866  1  0.23607400  0.96753033  0.23255306  1.0
  Ni  Ni867  1  0.56940733  0.30086367  0.23255306  1.0
  Ni  Ni868  1  0.56940733  0.63419700  0.23255306  1.0
  Ni  Ni869  1  0.56940733  0.96753033  0.23255306  1.0
  Ni  Ni870  1  0.90274067  0.30086367  0.23255306  1.0
  Ni  Ni871  1  0.90274067  0.63419700  0.23255306  1.0
  Ni  Ni872  1  0.90274067  0.96753033  0.23255306  1.0
  Ni  Ni873  1  0.23607400  0.13419700  0.10755306  1.0
  Ni  Ni874  1  0.23607400  0.46753033  0.10755306  1.0
  Ni  Ni875  1  0.23607400  0.80086367  0.10755306  1.0
  Ni  Ni876  1  0.56940733  0.13419700  0.10755306  1.0
  Ni  Ni877  1  0.56940733  0.46753033  0.10755306  1.0
  Ni  Ni878  1  0.56940733  0.80086367  0.10755306  1.0
  Ni  Ni879  1  0.90274067  0.13419700  0.10755306  1.0
  Ni  Ni880  1  0.90274067  0.46753033  0.10755306  1.0
  Ni  Ni881  1  0.90274067  0.80086367  0.10755306  1.0
  Ni  Ni882  1  0.33081267  0.21632350  0.24351344  1.0
  Ni  Ni883  1  0.33081267  0.54965683  0.24351344  1.0
  Ni  Ni884  1  0.33081267  0.88299017  0.24351344  1.0
  Ni  Ni885  1  0.66414600  0.21632350  0.24351344  1.0
  Ni  Ni886  1  0.66414600  0.54965683  0.24351344  1.0
  Ni  Ni887  1  0.66414600  0.88299017  0.24351344  1.0
  Ni  Ni888  1  0.99747933  0.21632350  0.24351344  1.0
  Ni  Ni889  1  0.99747933  0.54965683  0.24351344  1.0
  Ni  Ni890  1  0.99747933  0.88299017  0.24351344  1.0
  Ni  Ni891  1  0.33081267  0.04965683  0.11851344  1.0
  Ni  Ni892  1  0.33081267  0.38299017  0.11851344  1.0
  Ni  Ni893  1  0.33081267  0.71632350  0.11851344  1.0
  Ni  Ni894  1  0.66414600  0.04965683  0.11851344  1.0
  Ni  Ni895  1  0.66414600  0.38299017  0.11851344  1.0
  Ni  Ni896  1  0.66414600  0.71632350  0.11851344  1.0
  Ni  Ni897  1  0.99747933  0.04965683  0.11851344  1.0
  Ni  Ni898  1  0.99747933  0.38299017  0.11851344  1.0
  Ni  Ni899  1  0.99747933  0.71632350  0.11851344  1.0
  Ni  Ni900  1  0.09786500  0.03348050  0.18212294  1.0
  Ni  Ni901  1  0.09786500  0.36681383  0.18212294  1.0
  Ni  Ni902  1  0.09786500  0.70014717  0.18212294  1.0
  Ni  Ni903  1  0.43119833  0.03348050  0.18212294  1.0
  Ni  Ni904  1  0.43119833  0.36681383  0.18212294  1.0
  Ni  Ni905  1  0.43119833  0.70014717  0.18212294  1.0
  Ni  Ni906  1  0.76453167  0.03348050  0.18212294  1.0
  Ni  Ni907  1  0.76453167  0.36681383  0.18212294  1.0
  Ni  Ni908  1  0.76453167  0.70014717  0.18212294  1.0
  Ni  Ni909  1  0.09786500  0.20014717  0.05712294  1.0
  Ni  Ni910  1  0.09786500  0.53348050  0.05712294  1.0
  Ni  Ni911  1  0.09786500  0.86681383  0.05712294  1.0
  Ni  Ni912  1  0.43119833  0.20014717  0.05712294  1.0
  Ni  Ni913  1  0.43119833  0.53348050  0.05712294  1.0
  Ni  Ni914  1  0.43119833  0.86681383  0.05712294  1.0
  Ni  Ni915  1  0.76453167  0.20014717  0.05712294  1.0
  Ni  Ni916  1  0.76453167  0.53348050  0.05712294  1.0
  Ni  Ni917  1  0.76453167  0.86681383  0.05712294  1.0
  Ni  Ni918  1  0.29828900  0.28525850  0.03058869  1.0
  Ni  Ni919  1  0.29828900  0.61859183  0.03058869  1.0
  Ni  Ni920  1  0.29828900  0.95192517  0.03058869  1.0
  Ni  Ni921  1  0.63162233  0.28525850  0.03058869  1.0
  Ni  Ni922  1  0.63162233  0.61859183  0.03058869  1.0
  Ni  Ni923  1  0.63162233  0.95192517  0.03058869  1.0
  Ni  Ni924  1  0.96495567  0.28525850  0.03058869  1.0
  Ni  Ni925  1  0.96495567  0.61859183  0.03058869  1.0
  Ni  Ni926  1  0.96495567  0.95192517  0.03058869  1.0
  Ni  Ni927  1  0.29828900  0.11859183  0.15558869  1.0
  Ni  Ni928  1  0.29828900  0.45192517  0.15558869  1.0
  Ni  Ni929  1  0.29828900  0.78525850  0.15558869  1.0
  Ni  Ni930  1  0.63162233  0.11859183  0.15558869  1.0
  Ni  Ni931  1  0.63162233  0.45192517  0.15558869  1.0
  Ni  Ni932  1  0.63162233  0.78525850  0.15558869  1.0
  Ni  Ni933  1  0.96495567  0.11859183  0.15558869  1.0
  Ni  Ni934  1  0.96495567  0.45192517  0.15558869  1.0
  Ni  Ni935  1  0.96495567  0.78525850  0.15558869  1.0
  Ni  Ni936  1  0.16441400  0.03560950  0.00329844  1.0
  Ni  Ni937  1  0.16441400  0.36894283  0.00329844  1.0
  Ni  Ni938  1  0.16441400  0.70227617  0.00329844  1.0
  Ni  Ni939  1  0.49774733  0.03560950  0.00329844  1.0
  Ni  Ni940  1  0.49774733  0.36894283  0.00329844  1.0
  Ni  Ni941  1  0.49774733  0.70227617  0.00329844  1.0
  Ni  Ni942  1  0.83108067  0.03560950  0.00329844  1.0
  Ni  Ni943  1  0.83108067  0.36894283  0.00329844  1.0
  Ni  Ni944  1  0.83108067  0.70227617  0.00329844  1.0
  Ni  Ni945  1  0.16441400  0.20227617  0.12829844  1.0
  Ni  Ni946  1  0.16441400  0.53560950  0.12829844  1.0
  Ni  Ni947  1  0.16441400  0.86894283  0.12829844  1.0
  Ni  Ni948  1  0.49774733  0.20227617  0.12829844  1.0
  Ni  Ni949  1  0.49774733  0.53560950  0.12829844  1.0
  Ni  Ni950  1  0.49774733  0.86894283  0.12829844  1.0
  Ni  Ni951  1  0.83108067  0.20227617  0.12829844  1.0
  Ni  Ni952  1  0.83108067  0.53560950  0.12829844  1.0
  Ni  Ni953  1  0.83108067  0.86894283  0.12829844  1.0
  Ni  Ni954  1  0.16891933  0.29772383  0.23488269  1.0
  Ni  Ni955  1  0.16891933  0.63105717  0.23488269  1.0
  Ni  Ni956  1  0.16891933  0.96439050  0.23488269  1.0
  Ni  Ni957  1  0.50225267  0.29772383  0.23488269  1.0
  Ni  Ni958  1  0.50225267  0.63105717  0.23488269  1.0
  Ni  Ni959  1  0.50225267  0.96439050  0.23488269  1.0
  Ni  Ni960  1  0.83558600  0.29772383  0.23488269  1.0
  Ni  Ni961  1  0.83558600  0.63105717  0.23488269  1.0
  Ni  Ni962  1  0.83558600  0.96439050  0.23488269  1.0
  Ni  Ni963  1  0.16891933  0.13105717  0.10988269  1.0
  Ni  Ni964  1  0.16891933  0.46439050  0.10988269  1.0
  Ni  Ni965  1  0.16891933  0.79772383  0.10988269  1.0
  Ni  Ni966  1  0.50225267  0.13105717  0.10988269  1.0
  Ni  Ni967  1  0.50225267  0.46439050  0.10988269  1.0
  Ni  Ni968  1  0.50225267  0.79772383  0.10988269  1.0
  Ni  Ni969  1  0.83558600  0.13105717  0.10988269  1.0
  Ni  Ni970  1  0.83558600  0.46439050  0.10988269  1.0
  Ni  Ni971  1  0.83558600  0.79772383  0.10988269  1.0
  Ni  Ni972  1  0.06880167  0.04801217  0.04622419  1.0
  Ni  Ni973  1  0.06880167  0.38134550  0.04622419  1.0
  Ni  Ni974  1  0.06880167  0.71467883  0.04622419  1.0
  Ni  Ni975  1  0.40213500  0.04801217  0.04622419  1.0
  Ni  Ni976  1  0.40213500  0.38134550  0.04622419  1.0
  Ni  Ni977  1  0.40213500  0.71467883  0.04622419  1.0
  Ni  Ni978  1  0.73546833  0.04801217  0.04622419  1.0
  Ni  Ni979  1  0.73546833  0.38134550  0.04622419  1.0
  Ni  Ni980  1  0.73546833  0.71467883  0.04622419  1.0
  Ni  Ni981  1  0.06880167  0.21467883  0.17122419  1.0
  Ni  Ni982  1  0.06880167  0.54801217  0.17122419  1.0
  Ni  Ni983  1  0.06880167  0.88134550  0.17122419  1.0
  Ni  Ni984  1  0.40213500  0.21467883  0.17122419  1.0
  Ni  Ni985  1  0.40213500  0.54801217  0.17122419  1.0
  Ni  Ni986  1  0.40213500  0.88134550  0.17122419  1.0
  Ni  Ni987  1  0.73546833  0.21467883  0.17122419  1.0
  Ni  Ni988  1  0.73546833  0.54801217  0.17122419  1.0
  Ni  Ni989  1  0.73546833  0.88134550  0.17122419  1.0
  Ni  Ni990  1  0.00225267  0.11669017  0.06748794  1.0
  Ni  Ni991  1  0.00225267  0.45002350  0.06748794  1.0
  Ni  Ni992  1  0.00225267  0.78335683  0.06748794  1.0
  Ni  Ni993  1  0.33558600  0.11669017  0.06748794  1.0
  Ni  Ni994  1  0.33558600  0.45002350  0.06748794  1.0
  Ni  Ni995  1  0.33558600  0.78335683  0.06748794  1.0
  Ni  Ni996  1  0.66891933  0.11669017  0.06748794  1.0
  Ni  Ni997  1  0.66891933  0.45002350  0.06748794  1.0
  Ni  Ni998  1  0.66891933  0.78335683  0.06748794  1.0
  Ni  Ni999  1  0.00225267  0.28335683  0.19248794  1.0
  Ni  Ni1000  1  0.00225267  0.61669017  0.19248794  1.0
  Ni  Ni1001  1  0.00225267  0.95002350  0.19248794  1.0
  Ni  Ni1002  1  0.33558600  0.28335683  0.19248794  1.0
  Ni  Ni1003  1  0.33558600  0.61669017  0.19248794  1.0
  Ni  Ni1004  1  0.33558600  0.95002350  0.19248794  1.0
  Ni  Ni1005  1  0.66891933  0.28335683  0.19248794  1.0
  Ni  Ni1006  1  0.66891933  0.61669017  0.19248794  1.0
  Ni  Ni1007  1  0.66891933  0.95002350  0.19248794  1.0
  Ni  Ni1008  1  0.16441400  0.28560950  0.11896844  1.0
  Ni  Ni1009  1  0.16441400  0.61894283  0.11896844  1.0
  Ni  Ni1010  1  0.16441400  0.95227617  0.11896844  1.0
  Ni  Ni1011  1  0.49774733  0.28560950  0.11896844  1.0
  Ni  Ni1012  1  0.49774733  0.61894283  0.11896844  1.0
  Ni  Ni1013  1  0.49774733  0.95227617  0.11896844  1.0
  Ni  Ni1014  1  0.83108067  0.28560950  0.11896844  1.0
  Ni  Ni1015  1  0.83108067  0.61894283  0.11896844  1.0
  Ni  Ni1016  1  0.83108067  0.95227617  0.11896844  1.0
  Ni  Ni1017  1  0.16441400  0.11894283  0.24396844  1.0
  Ni  Ni1018  1  0.16441400  0.45227617  0.24396844  1.0
  Ni  Ni1019  1  0.16441400  0.78560950  0.24396844  1.0
  Ni  Ni1020  1  0.49774733  0.11894283  0.24396844  1.0
  Ni  Ni1021  1  0.49774733  0.45227617  0.24396844  1.0
  Ni  Ni1022  1  0.49774733  0.78560950  0.24396844  1.0
  Ni  Ni1023  1  0.83108067  0.11894283  0.24396844  1.0
  Ni  Ni1024  1  0.83108067  0.45227617  0.24396844  1.0
  Ni  Ni1025  1  0.83108067  0.78560950  0.24396844  1.0
  Ni  Ni1026  1  0.33108067  0.29997650  0.05502319  1.0
  Ni  Ni1027  1  0.33108067  0.63330983  0.05502319  1.0
  Ni  Ni1028  1  0.33108067  0.96664317  0.05502319  1.0
  Ni  Ni1029  1  0.66441400  0.29997650  0.05502319  1.0
  Ni  Ni1030  1  0.66441400  0.63330983  0.05502319  1.0
  Ni  Ni1031  1  0.66441400  0.96664317  0.05502319  1.0
  Ni  Ni1032  1  0.99774733  0.29997650  0.05502319  1.0
  Ni  Ni1033  1  0.99774733  0.63330983  0.05502319  1.0
  Ni  Ni1034  1  0.99774733  0.96664317  0.05502319  1.0
  Ni  Ni1035  1  0.33108067  0.13330983  0.18002319  1.0
  Ni  Ni1036  1  0.33108067  0.46664317  0.18002319  1.0
  Ni  Ni1037  1  0.33108067  0.79997650  0.18002319  1.0
  Ni  Ni1038  1  0.66441400  0.13330983  0.18002319  1.0
  Ni  Ni1039  1  0.66441400  0.46664317  0.18002319  1.0
  Ni  Ni1040  1  0.66441400  0.79997650  0.18002319  1.0
  Ni  Ni1041  1  0.99774733  0.13330983  0.18002319  1.0
  Ni  Ni1042  1  0.99774733  0.46664317  0.18002319  1.0
  Ni  Ni1043  1  0.99774733  0.79997650  0.18002319  1.0
  Ni  Ni1044  1  0.16918733  0.29713617  0.05790394  1.0
  Ni  Ni1045  1  0.16918733  0.63046950  0.05790394  1.0
  Ni  Ni1046  1  0.16918733  0.96380283  0.05790394  1.0
  Ni  Ni1047  1  0.50252067  0.29713617  0.05790394  1.0
  Ni  Ni1048  1  0.50252067  0.63046950  0.05790394  1.0
  Ni  Ni1049  1  0.50252067  0.96380283  0.05790394  1.0
  Ni  Ni1050  1  0.83585400  0.29713617  0.05790394  1.0
  Ni  Ni1051  1  0.83585400  0.63046950  0.05790394  1.0
  Ni  Ni1052  1  0.83585400  0.96380283  0.05790394  1.0
  Ni  Ni1053  1  0.16918733  0.13046950  0.18290394  1.0
  Ni  Ni1054  1  0.16918733  0.46380283  0.18290394  1.0
  Ni  Ni1055  1  0.16918733  0.79713617  0.18290394  1.0
  Ni  Ni1056  1  0.50252067  0.13046950  0.18290394  1.0
  Ni  Ni1057  1  0.50252067  0.46380283  0.18290394  1.0
  Ni  Ni1058  1  0.50252067  0.79713617  0.18290394  1.0
  Ni  Ni1059  1  0.83585400  0.13046950  0.18290394  1.0
  Ni  Ni1060  1  0.83585400  0.46380283  0.18290394  1.0
  Ni  Ni1061  1  0.83585400  0.79713617  0.18290394  1.0
  Ni  Ni1062  1  0.23546833  0.29985283  0.05605819  1.0
  Ni  Ni1063  1  0.23546833  0.63318617  0.05605819  1.0
  Ni  Ni1064  1  0.23546833  0.96651950  0.05605819  1.0
  Ni  Ni1065  1  0.56880167  0.29985283  0.05605819  1.0
  Ni  Ni1066  1  0.56880167  0.63318617  0.05605819  1.0
  Ni  Ni1067  1  0.56880167  0.96651950  0.05605819  1.0
  Ni  Ni1068  1  0.90213500  0.29985283  0.05605819  1.0
  Ni  Ni1069  1  0.90213500  0.63318617  0.05605819  1.0
  Ni  Ni1070  1  0.90213500  0.96651950  0.05605819  1.0
  Ni  Ni1071  1  0.23546833  0.13318617  0.18105819  1.0
  Ni  Ni1072  1  0.23546833  0.46651950  0.18105819  1.0
  Ni  Ni1073  1  0.23546833  0.79985283  0.18105819  1.0
  Ni  Ni1074  1  0.56880167  0.13318617  0.18105819  1.0
  Ni  Ni1075  1  0.56880167  0.46651950  0.18105819  1.0
  Ni  Ni1076  1  0.56880167  0.79985283  0.18105819  1.0
  Ni  Ni1077  1  0.90213500  0.13318617  0.18105819  1.0
  Ni  Ni1078  1  0.90213500  0.46651950  0.18105819  1.0
  Ni  Ni1079  1  0.90213500  0.79985283  0.18105819  1.0
  Ni  Ni1080  1  0.16918733  0.04713617  0.04707294  1.0
  Ni  Ni1081  1  0.16918733  0.38046950  0.04707294  1.0
  Ni  Ni1082  1  0.16918733  0.71380283  0.04707294  1.0
  Ni  Ni1083  1  0.50252067  0.04713617  0.04707294  1.0
  Ni  Ni1084  1  0.50252067  0.38046950  0.04707294  1.0
  Ni  Ni1085  1  0.50252067  0.71380283  0.04707294  1.0
  Ni  Ni1086  1  0.83585400  0.04713617  0.04707294  1.0
  Ni  Ni1087  1  0.83585400  0.38046950  0.04707294  1.0
  Ni  Ni1088  1  0.83585400  0.71380283  0.04707294  1.0
  Ni  Ni1089  1  0.16918733  0.21380283  0.17207294  1.0
  Ni  Ni1090  1  0.16918733  0.54713617  0.17207294  1.0
  Ni  Ni1091  1  0.16918733  0.88046950  0.17207294  1.0
  Ni  Ni1092  1  0.50252067  0.21380283  0.17207294  1.0
  Ni  Ni1093  1  0.50252067  0.54713617  0.17207294  1.0
  Ni  Ni1094  1  0.50252067  0.88046950  0.17207294  1.0
  Ni  Ni1095  1  0.83585400  0.21380283  0.17207294  1.0
  Ni  Ni1096  1  0.83585400  0.54713617  0.17207294  1.0
  Ni  Ni1097  1  0.83585400  0.88046950  0.17207294  1.0
  Ni  Ni1098  1  0.23546833  0.21651950  0.16984369  1.0
  Ni  Ni1099  1  0.23546833  0.54985283  0.16984369  1.0
  Ni  Ni1100  1  0.23546833  0.88318617  0.16984369  1.0
  Ni  Ni1101  1  0.56880167  0.21651950  0.16984369  1.0
  Ni  Ni1102  1  0.56880167  0.54985283  0.16984369  1.0
  Ni  Ni1103  1  0.56880167  0.88318617  0.16984369  1.0
  Ni  Ni1104  1  0.90213500  0.21651950  0.16984369  1.0
  Ni  Ni1105  1  0.90213500  0.54985283  0.16984369  1.0
  Ni  Ni1106  1  0.90213500  0.88318617  0.16984369  1.0
  Ni  Ni1107  1  0.23546833  0.04985283  0.04484369  1.0
  Ni  Ni1108  1  0.23546833  0.38318617  0.04484369  1.0
  Ni  Ni1109  1  0.23546833  0.71651950  0.04484369  1.0
  Ni  Ni1110  1  0.56880167  0.04985283  0.04484369  1.0
  Ni  Ni1111  1  0.56880167  0.38318617  0.04484369  1.0
  Ni  Ni1112  1  0.56880167  0.71651950  0.04484369  1.0
  Ni  Ni1113  1  0.90213500  0.04985283  0.04484369  1.0
  Ni  Ni1114  1  0.90213500  0.38318617  0.04484369  1.0
  Ni  Ni1115  1  0.90213500  0.71651950  0.04484369  1.0
  Ni  Ni1116  1  0.09725933  0.11580300  0.24634856  1.0
  Ni  Ni1117  1  0.09725933  0.44913633  0.24634856  1.0
  Ni  Ni1118  1  0.09725933  0.78246967  0.24634856  1.0
  Ni  Ni1119  1  0.43059267  0.11580300  0.24634856  1.0
  Ni  Ni1120  1  0.43059267  0.44913633  0.24634856  1.0
  Ni  Ni1121  1  0.43059267  0.78246967  0.24634856  1.0
  Ni  Ni1122  1  0.76392600  0.11580300  0.24634856  1.0
  Ni  Ni1123  1  0.76392600  0.44913633  0.24634856  1.0
  Ni  Ni1124  1  0.76392600  0.78246967  0.24634856  1.0
  Ni  Ni1125  1  0.09725933  0.28246967  0.12134856  1.0
  Ni  Ni1126  1  0.09725933  0.61580300  0.12134856  1.0
  Ni  Ni1127  1  0.09725933  0.94913633  0.12134856  1.0
  Ni  Ni1128  1  0.43059267  0.28246967  0.12134856  1.0
  Ni  Ni1129  1  0.43059267  0.61580300  0.12134856  1.0
  Ni  Ni1130  1  0.43059267  0.94913633  0.12134856  1.0
  Ni  Ni1131  1  0.76392600  0.28246967  0.12134856  1.0
  Ni  Ni1132  1  0.76392600  0.61580300  0.12134856  1.0
  Ni  Ni1133  1  0.76392600  0.94913633  0.12134856  1.0
  Ni  Ni1134  1  0.20171100  0.00021417  0.11937194  1.0
  Ni  Ni1135  1  0.20171100  0.33354750  0.11937194  1.0
  Ni  Ni1136  1  0.20171100  0.66688083  0.11937194  1.0
  Ni  Ni1137  1  0.53504433  0.00021417  0.11937194  1.0
  Ni  Ni1138  1  0.53504433  0.33354750  0.11937194  1.0
  Ni  Ni1139  1  0.53504433  0.66688083  0.11937194  1.0
  Ni  Ni1140  1  0.86837767  0.00021417  0.11937194  1.0
  Ni  Ni1141  1  0.86837767  0.33354750  0.11937194  1.0
  Ni  Ni1142  1  0.86837767  0.66688083  0.11937194  1.0
  Ni  Ni1143  1  0.20171100  0.16688083  0.24437194  1.0
  Ni  Ni1144  1  0.20171100  0.50021417  0.24437194  1.0
  Ni  Ni1145  1  0.20171100  0.83354750  0.24437194  1.0
  Ni  Ni1146  1  0.53504433  0.16688083  0.24437194  1.0
  Ni  Ni1147  1  0.53504433  0.50021417  0.24437194  1.0
  Ni  Ni1148  1  0.53504433  0.83354750  0.24437194  1.0
  Ni  Ni1149  1  0.86837767  0.16688083  0.24437194  1.0
  Ni  Ni1150  1  0.86837767  0.50021417  0.24437194  1.0
  Ni  Ni1151  1  0.86837767  0.83354750  0.24437194  1.0
  Ni  Ni1152  1  0.29828900  0.20192517  0.21720469  1.0
  Ni  Ni1153  1  0.29828900  0.53525850  0.21720469  1.0
  Ni  Ni1154  1  0.29828900  0.86859183  0.21720469  1.0
  Ni  Ni1155  1  0.63162233  0.20192517  0.21720469  1.0
  Ni  Ni1156  1  0.63162233  0.53525850  0.21720469  1.0
  Ni  Ni1157  1  0.63162233  0.86859183  0.21720469  1.0
  Ni  Ni1158  1  0.96495567  0.20192517  0.21720469  1.0
  Ni  Ni1159  1  0.96495567  0.53525850  0.21720469  1.0
  Ni  Ni1160  1  0.96495567  0.86859183  0.21720469  1.0
  Ni  Ni1161  1  0.29828900  0.03525850  0.09220469  1.0
  Ni  Ni1162  1  0.29828900  0.36859183  0.09220469  1.0
  Ni  Ni1163  1  0.29828900  0.70192517  0.09220469  1.0
  Ni  Ni1164  1  0.63162233  0.03525850  0.09220469  1.0
  Ni  Ni1165  1  0.63162233  0.36859183  0.09220469  1.0
  Ni  Ni1166  1  0.63162233  0.70192517  0.09220469  1.0
  Ni  Ni1167  1  0.96495567  0.03525850  0.09220469  1.0
  Ni  Ni1168  1  0.96495567  0.36859183  0.09220469  1.0
  Ni  Ni1169  1  0.96495567  0.70192517  0.09220469  1.0
  Ni  Ni1170  1  0.33081267  0.29965683  0.23268244  1.0
  Ni  Ni1171  1  0.33081267  0.63299017  0.23268244  1.0
  Ni  Ni1172  1  0.33081267  0.96632350  0.23268244  1.0
  Ni  Ni1173  1  0.66414600  0.29965683  0.23268244  1.0
  Ni  Ni1174  1  0.66414600  0.63299017  0.23268244  1.0
  Ni  Ni1175  1  0.66414600  0.96632350  0.23268244  1.0
  Ni  Ni1176  1  0.99747933  0.29965683  0.23268244  1.0
  Ni  Ni1177  1  0.99747933  0.63299017  0.23268244  1.0
  Ni  Ni1178  1  0.99747933  0.96632350  0.23268244  1.0
  Ni  Ni1179  1  0.33081267  0.13299017  0.10768244  1.0
  Ni  Ni1180  1  0.33081267  0.46632350  0.10768244  1.0
  Ni  Ni1181  1  0.33081267  0.79965683  0.10768244  1.0
  Ni  Ni1182  1  0.66414600  0.13299017  0.10768244  1.0
  Ni  Ni1183  1  0.66414600  0.46632350  0.10768244  1.0
  Ni  Ni1184  1  0.66414600  0.79965683  0.10768244  1.0
  Ni  Ni1185  1  0.99747933  0.13299017  0.10768244  1.0
  Ni  Ni1186  1  0.99747933  0.46632350  0.10768244  1.0
  Ni  Ni1187  1  0.99747933  0.79965683  0.10768244  1.0
  Ni  Ni1188  1  0.00252067  0.03367650  0.00549869  1.0
  Ni  Ni1189  1  0.00252067  0.36700983  0.00549869  1.0
  Ni  Ni1190  1  0.00252067  0.70034317  0.00549869  1.0
  Ni  Ni1191  1  0.33585400  0.03367650  0.00549869  1.0
  Ni  Ni1192  1  0.33585400  0.36700983  0.00549869  1.0
  Ni  Ni1193  1  0.33585400  0.70034317  0.00549869  1.0
  Ni  Ni1194  1  0.66918733  0.03367650  0.00549869  1.0
  Ni  Ni1195  1  0.66918733  0.36700983  0.00549869  1.0
  Ni  Ni1196  1  0.66918733  0.70034317  0.00549869  1.0
  Ni  Ni1197  1  0.00252067  0.20034317  0.13049869  1.0
  Ni  Ni1198  1  0.00252067  0.53367650  0.13049869  1.0
  Ni  Ni1199  1  0.00252067  0.86700983  0.13049869  1.0
  Ni  Ni1200  1  0.33585400  0.20034317  0.13049869  1.0
  Ni  Ni1201  1  0.33585400  0.53367650  0.13049869  1.0
  Ni  Ni1202  1  0.33585400  0.86700983  0.13049869  1.0
  Ni  Ni1203  1  0.66918733  0.20034317  0.13049869  1.0
  Ni  Ni1204  1  0.66918733  0.53367650  0.13049869  1.0
  Ni  Ni1205  1  0.66918733  0.86700983  0.13049869  1.0
  Ni  Ni1206  1  0.09725933  0.03246967  0.00562806  1.0
  Ni  Ni1207  1  0.09725933  0.36580300  0.00562806  1.0
  Ni  Ni1208  1  0.09725933  0.69913633  0.00562806  1.0
  Ni  Ni1209  1  0.43059267  0.03246967  0.00562806  1.0
  Ni  Ni1210  1  0.43059267  0.36580300  0.00562806  1.0
  Ni  Ni1211  1  0.43059267  0.69913633  0.00562806  1.0
  Ni  Ni1212  1  0.76392600  0.03246967  0.00562806  1.0
  Ni  Ni1213  1  0.76392600  0.36580300  0.00562806  1.0
  Ni  Ni1214  1  0.76392600  0.69913633  0.00562806  1.0
  Ni  Ni1215  1  0.09725933  0.19913633  0.13062806  1.0
  Ni  Ni1216  1  0.09725933  0.53246967  0.13062806  1.0
  Ni  Ni1217  1  0.09725933  0.86580300  0.13062806  1.0
  Ni  Ni1218  1  0.43059267  0.19913633  0.13062806  1.0
  Ni  Ni1219  1  0.43059267  0.53246967  0.13062806  1.0
  Ni  Ni1220  1  0.43059267  0.86580300  0.13062806  1.0
  Ni  Ni1221  1  0.76392600  0.19913633  0.13062806  1.0
  Ni  Ni1222  1  0.76392600  0.53246967  0.13062806  1.0
  Ni  Ni1223  1  0.76392600  0.86580300  0.13062806  1.0
  Zr  Zr1224  1  0.27130900  0.00008450  0.36826694  1.0
  Zr  Zr1225  1  0.27130900  0.33341783  0.36826694  1.0
  Zr  Zr1226  1  0.27130900  0.66675117  0.36826694  1.0
  Zr  Zr1227  1  0.60464233  0.00008450  0.36826694  1.0
  Zr  Zr1228  1  0.60464233  0.33341783  0.36826694  1.0
  Zr  Zr1229  1  0.60464233  0.66675117  0.36826694  1.0
  Zr  Zr1230  1  0.93797567  0.00008450  0.36826694  1.0
  Zr  Zr1231  1  0.93797567  0.33341783  0.36826694  1.0
  Zr  Zr1232  1  0.93797567  0.66675117  0.36826694  1.0
  Zr  Zr1233  1  0.27130900  0.16675117  0.49326694  1.0
  Zr  Zr1234  1  0.27130900  0.50008450  0.49326694  1.0
  Zr  Zr1235  1  0.27130900  0.83341783  0.49326694  1.0
  Zr  Zr1236  1  0.60464233  0.16675117  0.49326694  1.0
  Zr  Zr1237  1  0.60464233  0.50008450  0.49326694  1.0
  Zr  Zr1238  1  0.60464233  0.83341783  0.49326694  1.0
  Zr  Zr1239  1  0.93797567  0.16675117  0.49326694  1.0
  Zr  Zr1240  1  0.93797567  0.50008450  0.49326694  1.0
  Zr  Zr1241  1  0.93797567  0.83341783  0.49326694  1.0
  Zr  Zr1242  1  0.16703200  0.33318267  0.41702831  1.0
  Zr  Zr1243  1  0.16703200  0.66651600  0.41702831  1.0
  Zr  Zr1244  1  0.16703200  0.99984933  0.41702831  1.0
  Zr  Zr1245  1  0.50036533  0.33318267  0.41702831  1.0
  Zr  Zr1246  1  0.50036533  0.66651600  0.41702831  1.0
  Zr  Zr1247  1  0.50036533  0.99984933  0.41702831  1.0
  Zr  Zr1248  1  0.83369867  0.33318267  0.41702831  1.0
  Zr  Zr1249  1  0.83369867  0.66651600  0.41702831  1.0
  Zr  Zr1250  1  0.83369867  0.99984933  0.41702831  1.0
  Zr  Zr1251  1  0.16703200  0.16651600  0.29202831  1.0
  Zr  Zr1252  1  0.16703200  0.49984933  0.29202831  1.0
  Zr  Zr1253  1  0.16703200  0.83318267  0.29202831  1.0
  Zr  Zr1254  1  0.50036533  0.16651600  0.29202831  1.0
  Zr  Zr1255  1  0.50036533  0.49984933  0.29202831  1.0
  Zr  Zr1256  1  0.50036533  0.83318267  0.29202831  1.0
  Zr  Zr1257  1  0.83369867  0.16651600  0.29202831  1.0
  Zr  Zr1258  1  0.83369867  0.49984933  0.29202831  1.0
  Zr  Zr1259  1  0.83369867  0.83318267  0.29202831  1.0
  Zr  Zr1260  1  0.16666667  0.08333333  0.30659056  1.0
  Zr  Zr1261  1  0.16666667  0.41666667  0.30659056  1.0
  Zr  Zr1262  1  0.16666667  0.75000000  0.30659056  1.0
  Zr  Zr1263  1  0.50000000  0.08333333  0.30659056  1.0
  Zr  Zr1264  1  0.50000000  0.41666667  0.30659056  1.0
  Zr  Zr1265  1  0.50000000  0.75000000  0.30659056  1.0
  Zr  Zr1266  1  0.83333333  0.08333333  0.30659056  1.0
  Zr  Zr1267  1  0.83333333  0.41666667  0.30659056  1.0
  Zr  Zr1268  1  0.83333333  0.75000000  0.30659056  1.0
  Zr  Zr1269  1  0.16666667  0.25000000  0.43159056  1.0
  Zr  Zr1270  1  0.16666667  0.58333333  0.43159056  1.0
  Zr  Zr1271  1  0.16666667  0.91666667  0.43159056  1.0
  Zr  Zr1272  1  0.50000000  0.25000000  0.43159056  1.0
  Zr  Zr1273  1  0.50000000  0.58333333  0.43159056  1.0
  Zr  Zr1274  1  0.50000000  0.91666667  0.43159056  1.0
  Zr  Zr1275  1  0.83333333  0.25000000  0.43159056  1.0
  Zr  Zr1276  1  0.83333333  0.58333333  0.43159056  1.0
  Zr  Zr1277  1  0.83333333  0.91666667  0.43159056  1.0
  Zr  Zr1278  1  0.10464233  0.06193983  0.32187544  1.0
  Zr  Zr1279  1  0.10464233  0.39527317  0.32187544  1.0
  Zr  Zr1280  1  0.10464233  0.72860650  0.32187544  1.0
  Zr  Zr1281  1  0.43797567  0.06193983  0.32187544  1.0
  Zr  Zr1282  1  0.43797567  0.39527317  0.32187544  1.0
  Zr  Zr1283  1  0.43797567  0.72860650  0.32187544  1.0
  Zr  Zr1284  1  0.77130900  0.06193983  0.32187544  1.0
  Zr  Zr1285  1  0.77130900  0.39527317  0.32187544  1.0
  Zr  Zr1286  1  0.77130900  0.72860650  0.32187544  1.0
  Zr  Zr1287  1  0.10464233  0.22860650  0.44687544  1.0
  Zr  Zr1288  1  0.10464233  0.56193983  0.44687544  1.0
  Zr  Zr1289  1  0.10464233  0.89527317  0.44687544  1.0
  Zr  Zr1290  1  0.43797567  0.22860650  0.44687544  1.0
  Zr  Zr1291  1  0.43797567  0.56193983  0.44687544  1.0
  Zr  Zr1292  1  0.43797567  0.89527317  0.44687544  1.0
  Zr  Zr1293  1  0.77130900  0.22860650  0.44687544  1.0
  Zr  Zr1294  1  0.77130900  0.56193983  0.44687544  1.0
  Zr  Zr1295  1  0.77130900  0.89527317  0.44687544  1.0
  Zr  Zr1296  1  0.00036533  0.08311867  0.38392681  1.0
  Zr  Zr1297  1  0.00036533  0.41645200  0.38392681  1.0
  Zr  Zr1298  1  0.00036533  0.74978533  0.38392681  1.0
  Zr  Zr1299  1  0.33369867  0.08311867  0.38392681  1.0
  Zr  Zr1300  1  0.33369867  0.41645200  0.38392681  1.0
  Zr  Zr1301  1  0.33369867  0.74978533  0.38392681  1.0
  Zr  Zr1302  1  0.66703200  0.08311867  0.38392681  1.0
  Zr  Zr1303  1  0.66703200  0.41645200  0.38392681  1.0
  Zr  Zr1304  1  0.66703200  0.74978533  0.38392681  1.0
  Zr  Zr1305  1  0.00036533  0.24978533  0.25892681  1.0
  Zr  Zr1306  1  0.00036533  0.58311867  0.25892681  1.0
  Zr  Zr1307  1  0.00036533  0.91645200  0.25892681  1.0
  Zr  Zr1308  1  0.33369867  0.24978533  0.25892681  1.0
  Zr  Zr1309  1  0.33369867  0.58311867  0.25892681  1.0
  Zr  Zr1310  1  0.33369867  0.91645200  0.25892681  1.0
  Zr  Zr1311  1  0.66703200  0.24978533  0.25892681  1.0
  Zr  Zr1312  1  0.66703200  0.58311867  0.25892681  1.0
  Zr  Zr1313  1  0.66703200  0.91645200  0.25892681  1.0
  Zr  Zr1314  1  0.22869100  0.02139350  0.47728519  1.0
  Zr  Zr1315  1  0.22869100  0.35472683  0.47728519  1.0
  Zr  Zr1316  1  0.22869100  0.68806017  0.47728519  1.0
  Zr  Zr1317  1  0.56202433  0.02139350  0.47728519  1.0
  Zr  Zr1318  1  0.56202433  0.35472683  0.47728519  1.0
  Zr  Zr1319  1  0.56202433  0.68806017  0.47728519  1.0
  Zr  Zr1320  1  0.89535767  0.02139350  0.47728519  1.0
  Zr  Zr1321  1  0.89535767  0.35472683  0.47728519  1.0
  Zr  Zr1322  1  0.89535767  0.68806017  0.47728519  1.0
  Zr  Zr1323  1  0.22869100  0.18806017  0.35228519  1.0
  Zr  Zr1324  1  0.22869100  0.52139350  0.35228519  1.0
  Zr  Zr1325  1  0.22869100  0.85472683  0.35228519  1.0
  Zr  Zr1326  1  0.56202433  0.18806017  0.35228519  1.0
  Zr  Zr1327  1  0.56202433  0.52139350  0.35228519  1.0
  Zr  Zr1328  1  0.56202433  0.85472683  0.35228519  1.0
  Zr  Zr1329  1  0.89535767  0.18806017  0.35228519  1.0
  Zr  Zr1330  1  0.89535767  0.52139350  0.35228519  1.0
  Zr  Zr1331  1  0.89535767  0.85472683  0.35228519  1.0
  Zr  Zr1332  1  0.08295600  0.08308983  0.36834469  1.0
  Zr  Zr1333  1  0.08295600  0.41642317  0.36834469  1.0
  Zr  Zr1334  1  0.08295600  0.74975650  0.36834469  1.0
  Zr  Zr1335  1  0.41628933  0.08308983  0.36834469  1.0
  Zr  Zr1336  1  0.41628933  0.41642317  0.36834469  1.0
  Zr  Zr1337  1  0.41628933  0.74975650  0.36834469  1.0
  Zr  Zr1338  1  0.74962267  0.08308983  0.36834469  1.0
  Zr  Zr1339  1  0.74962267  0.41642317  0.36834469  1.0
  Zr  Zr1340  1  0.74962267  0.74975650  0.36834469  1.0
  Zr  Zr1341  1  0.08295600  0.24975650  0.49334469  1.0
  Zr  Zr1342  1  0.08295600  0.58308983  0.49334469  1.0
  Zr  Zr1343  1  0.08295600  0.91642317  0.49334469  1.0
  Zr  Zr1344  1  0.41628933  0.24975650  0.49334469  1.0
  Zr  Zr1345  1  0.41628933  0.58308983  0.49334469  1.0
  Zr  Zr1346  1  0.41628933  0.91642317  0.49334469  1.0
  Zr  Zr1347  1  0.74962267  0.24975650  0.49334469  1.0
  Zr  Zr1348  1  0.74962267  0.58308983  0.49334469  1.0
  Zr  Zr1349  1  0.74962267  0.91642317  0.49334469  1.0
  Zr  Zr1350  1  0.33296800  0.25021467  0.35425431  1.0
  Zr  Zr1351  1  0.33296800  0.58354800  0.35425431  1.0
  Zr  Zr1352  1  0.33296800  0.91688133  0.35425431  1.0
  Zr  Zr1353  1  0.66630133  0.25021467  0.35425431  1.0
  Zr  Zr1354  1  0.66630133  0.58354800  0.35425431  1.0
  Zr  Zr1355  1  0.66630133  0.91688133  0.35425431  1.0
  Zr  Zr1356  1  0.99963467  0.25021467  0.35425431  1.0
  Zr  Zr1357  1  0.99963467  0.58354800  0.35425431  1.0
  Zr  Zr1358  1  0.99963467  0.91688133  0.35425431  1.0
  Zr  Zr1359  1  0.33296800  0.08354800  0.47925431  1.0
  Zr  Zr1360  1  0.33296800  0.41688133  0.47925431  1.0
  Zr  Zr1361  1  0.33296800  0.75021467  0.47925431  1.0
  Zr  Zr1362  1  0.66630133  0.08354800  0.47925431  1.0
  Zr  Zr1363  1  0.66630133  0.41688133  0.47925431  1.0
  Zr  Zr1364  1  0.66630133  0.75021467  0.47925431  1.0
  Zr  Zr1365  1  0.99963467  0.08354800  0.47925431  1.0
  Zr  Zr1366  1  0.99963467  0.41688133  0.47925431  1.0
  Zr  Zr1367  1  0.99963467  0.75021467  0.47925431  1.0
  Zr  Zr1368  1  0.08371067  0.33271250  0.30798469  1.0
  Zr  Zr1369  1  0.08371067  0.66604583  0.30798469  1.0
  Zr  Zr1370  1  0.08371067  0.99937917  0.30798469  1.0
  Zr  Zr1371  1  0.41704400  0.33271250  0.30798469  1.0
  Zr  Zr1372  1  0.41704400  0.66604583  0.30798469  1.0
  Zr  Zr1373  1  0.41704400  0.99937917  0.30798469  1.0
  Zr  Zr1374  1  0.75037733  0.33271250  0.30798469  1.0
  Zr  Zr1375  1  0.75037733  0.66604583  0.30798469  1.0
  Zr  Zr1376  1  0.75037733  0.99937917  0.30798469  1.0
  Zr  Zr1377  1  0.08371067  0.16604583  0.43298469  1.0
  Zr  Zr1378  1  0.08371067  0.49937917  0.43298469  1.0
  Zr  Zr1379  1  0.08371067  0.83271250  0.43298469  1.0
  Zr  Zr1380  1  0.41704400  0.16604583  0.43298469  1.0
  Zr  Zr1381  1  0.41704400  0.49937917  0.43298469  1.0
  Zr  Zr1382  1  0.41704400  0.83271250  0.43298469  1.0
  Zr  Zr1383  1  0.75037733  0.16604583  0.43298469  1.0
  Zr  Zr1384  1  0.75037733  0.49937917  0.43298469  1.0
  Zr  Zr1385  1  0.75037733  0.83271250  0.43298469  1.0
  Zr  Zr1386  1  0.10464233  0.31193983  0.26089594  1.0
  Zr  Zr1387  1  0.10464233  0.64527317  0.26089594  1.0
  Zr  Zr1388  1  0.10464233  0.97860650  0.26089594  1.0
  Zr  Zr1389  1  0.43797567  0.31193983  0.26089594  1.0
  Zr  Zr1390  1  0.43797567  0.64527317  0.26089594  1.0
  Zr  Zr1391  1  0.43797567  0.97860650  0.26089594  1.0
  Zr  Zr1392  1  0.77130900  0.31193983  0.26089594  1.0
  Zr  Zr1393  1  0.77130900  0.64527317  0.26089594  1.0
  Zr  Zr1394  1  0.77130900  0.97860650  0.26089594  1.0
  Zr  Zr1395  1  0.10464233  0.14527317  0.38589594  1.0
  Zr  Zr1396  1  0.10464233  0.47860650  0.38589594  1.0
  Zr  Zr1397  1  0.10464233  0.81193983  0.38589594  1.0
  Zr  Zr1398  1  0.43797567  0.14527317  0.38589594  1.0
  Zr  Zr1399  1  0.43797567  0.47860650  0.38589594  1.0
  Zr  Zr1400  1  0.43797567  0.81193983  0.38589594  1.0
  Zr  Zr1401  1  0.77130900  0.14527317  0.38589594  1.0
  Zr  Zr1402  1  0.77130900  0.47860650  0.38589594  1.0
  Zr  Zr1403  1  0.77130900  0.81193983  0.38589594  1.0
  Zr  Zr1404  1  0.22869100  0.27139350  0.41630569  1.0
  Zr  Zr1405  1  0.22869100  0.60472683  0.41630569  1.0
  Zr  Zr1406  1  0.22869100  0.93806017  0.41630569  1.0
  Zr  Zr1407  1  0.56202433  0.27139350  0.41630569  1.0
  Zr  Zr1408  1  0.56202433  0.60472683  0.41630569  1.0
  Zr  Zr1409  1  0.56202433  0.93806017  0.41630569  1.0
  Zr  Zr1410  1  0.89535767  0.27139350  0.41630569  1.0
  Zr  Zr1411  1  0.89535767  0.60472683  0.41630569  1.0
  Zr  Zr1412  1  0.89535767  0.93806017  0.41630569  1.0
  Zr  Zr1413  1  0.22869100  0.10472683  0.29130569  1.0
  Zr  Zr1414  1  0.22869100  0.43806017  0.29130569  1.0
  Zr  Zr1415  1  0.22869100  0.77139350  0.29130569  1.0
  Zr  Zr1416  1  0.56202433  0.10472683  0.29130569  1.0
  Zr  Zr1417  1  0.56202433  0.43806017  0.29130569  1.0
  Zr  Zr1418  1  0.56202433  0.77139350  0.29130569  1.0
  Zr  Zr1419  1  0.89535767  0.10472683  0.29130569  1.0
  Zr  Zr1420  1  0.89535767  0.43806017  0.29130569  1.0
  Zr  Zr1421  1  0.89535767  0.77139350  0.29130569  1.0
  Zr  Zr1422  1  0.16630133  0.00015067  0.32115281  1.0
  Zr  Zr1423  1  0.16630133  0.33348400  0.32115281  1.0
  Zr  Zr1424  1  0.16630133  0.66681733  0.32115281  1.0
  Zr  Zr1425  1  0.49963467  0.00015067  0.32115281  1.0
  Zr  Zr1426  1  0.49963467  0.33348400  0.32115281  1.0
  Zr  Zr1427  1  0.49963467  0.66681733  0.32115281  1.0
  Zr  Zr1428  1  0.83296800  0.00015067  0.32115281  1.0
  Zr  Zr1429  1  0.83296800  0.33348400  0.32115281  1.0
  Zr  Zr1430  1  0.83296800  0.66681733  0.32115281  1.0
  Zr  Zr1431  1  0.16630133  0.16681733  0.44615281  1.0
  Zr  Zr1432  1  0.16630133  0.50015067  0.44615281  1.0
  Zr  Zr1433  1  0.16630133  0.83348400  0.44615281  1.0
  Zr  Zr1434  1  0.49963467  0.16681733  0.44615281  1.0
  Zr  Zr1435  1  0.49963467  0.50015067  0.44615281  1.0
  Zr  Zr1436  1  0.49963467  0.83348400  0.44615281  1.0
  Zr  Zr1437  1  0.83296800  0.16681733  0.44615281  1.0
  Zr  Zr1438  1  0.83296800  0.50015067  0.44615281  1.0
  Zr  Zr1439  1  0.83296800  0.83348400  0.44615281  1.0
  Zr  Zr1440  1  0.27130900  0.25008450  0.30728744  1.0
  Zr  Zr1441  1  0.27130900  0.58341783  0.30728744  1.0
  Zr  Zr1442  1  0.27130900  0.91675117  0.30728744  1.0
  Zr  Zr1443  1  0.60464233  0.25008450  0.30728744  1.0
  Zr  Zr1444  1  0.60464233  0.58341783  0.30728744  1.0
  Zr  Zr1445  1  0.60464233  0.91675117  0.30728744  1.0
  Zr  Zr1446  1  0.93797567  0.25008450  0.30728744  1.0
  Zr  Zr1447  1  0.93797567  0.58341783  0.30728744  1.0
  Zr  Zr1448  1  0.93797567  0.91675117  0.30728744  1.0
  Zr  Zr1449  1  0.27130900  0.08341783  0.43228744  1.0
  Zr  Zr1450  1  0.27130900  0.41675117  0.43228744  1.0
  Zr  Zr1451  1  0.27130900  0.75008450  0.43228744  1.0
  Zr  Zr1452  1  0.60464233  0.08341783  0.43228744  1.0
  Zr  Zr1453  1  0.60464233  0.41675117  0.43228744  1.0
  Zr  Zr1454  1  0.60464233  0.75008450  0.43228744  1.0
  Zr  Zr1455  1  0.93797567  0.08341783  0.43228744  1.0
  Zr  Zr1456  1  0.93797567  0.41675117  0.43228744  1.0
  Zr  Zr1457  1  0.93797567  0.75008450  0.43228744  1.0
  Zr  Zr1458  1  0.06202433  0.33324883  0.36991419  1.0
  Zr  Zr1459  1  0.06202433  0.66658217  0.36991419  1.0
  Zr  Zr1460  1  0.06202433  0.99991550  0.36991419  1.0
  Zr  Zr1461  1  0.39535767  0.33324883  0.36991419  1.0
  Zr  Zr1462  1  0.39535767  0.66658217  0.36991419  1.0
  Zr  Zr1463  1  0.39535767  0.99991550  0.36991419  1.0
  Zr  Zr1464  1  0.72869100  0.33324883  0.36991419  1.0
  Zr  Zr1465  1  0.72869100  0.66658217  0.36991419  1.0
  Zr  Zr1466  1  0.72869100  0.99991550  0.36991419  1.0
  Zr  Zr1467  1  0.06202433  0.16658217  0.49491419  1.0
  Zr  Zr1468  1  0.06202433  0.49991550  0.49491419  1.0
  Zr  Zr1469  1  0.06202433  0.83324883  0.49491419  1.0
  Zr  Zr1470  1  0.39535767  0.16658217  0.49491419  1.0
  Zr  Zr1471  1  0.39535767  0.49991550  0.49491419  1.0
  Zr  Zr1472  1  0.39535767  0.83324883  0.49491419  1.0
  Zr  Zr1473  1  0.72869100  0.16658217  0.49491419  1.0
  Zr  Zr1474  1  0.72869100  0.49991550  0.49491419  1.0
  Zr  Zr1475  1  0.72869100  0.83324883  0.49491419  1.0
  Zr  Zr1476  1  0.16703200  0.24984933  0.25887881  1.0
  Zr  Zr1477  1  0.16703200  0.58318267  0.25887881  1.0
  Zr  Zr1478  1  0.16703200  0.91651600  0.25887881  1.0
  Zr  Zr1479  1  0.50036533  0.24984933  0.25887881  1.0
  Zr  Zr1480  1  0.50036533  0.58318267  0.25887881  1.0
  Zr  Zr1481  1  0.50036533  0.91651600  0.25887881  1.0
  Zr  Zr1482  1  0.83369867  0.24984933  0.25887881  1.0
  Zr  Zr1483  1  0.83369867  0.58318267  0.25887881  1.0
  Zr  Zr1484  1  0.83369867  0.91651600  0.25887881  1.0
  Zr  Zr1485  1  0.16703200  0.08318267  0.38387881  1.0
  Zr  Zr1486  1  0.16703200  0.41651600  0.38387881  1.0
  Zr  Zr1487  1  0.16703200  0.74984933  0.38387881  1.0
  Zr  Zr1488  1  0.50036533  0.08318267  0.38387881  1.0
  Zr  Zr1489  1  0.50036533  0.41651600  0.38387881  1.0
  Zr  Zr1490  1  0.50036533  0.74984933  0.38387881  1.0
  Zr  Zr1491  1  0.83369867  0.08318267  0.38387881  1.0
  Zr  Zr1492  1  0.83369867  0.41651600  0.38387881  1.0
  Zr  Zr1493  1  0.83369867  0.74984933  0.38387881  1.0
  Zr  Zr1494  1  0.06202433  0.08324883  0.43089369  1.0
  Zr  Zr1495  1  0.06202433  0.41658217  0.43089369  1.0
  Zr  Zr1496  1  0.06202433  0.74991550  0.43089369  1.0
  Zr  Zr1497  1  0.39535767  0.08324883  0.43089369  1.0
  Zr  Zr1498  1  0.39535767  0.41658217  0.43089369  1.0
  Zr  Zr1499  1  0.39535767  0.74991550  0.43089369  1.0
  Zr  Zr1500  1  0.72869100  0.08324883  0.43089369  1.0
  Zr  Zr1501  1  0.72869100  0.41658217  0.43089369  1.0
  Zr  Zr1502  1  0.72869100  0.74991550  0.43089369  1.0
  Zr  Zr1503  1  0.06202433  0.24991550  0.30589369  1.0
  Zr  Zr1504  1  0.06202433  0.58324883  0.30589369  1.0
  Zr  Zr1505  1  0.06202433  0.91658217  0.30589369  1.0
  Zr  Zr1506  1  0.39535767  0.24991550  0.30589369  1.0
  Zr  Zr1507  1  0.39535767  0.58324883  0.30589369  1.0
  Zr  Zr1508  1  0.39535767  0.91658217  0.30589369  1.0
  Zr  Zr1509  1  0.72869100  0.24991550  0.30589369  1.0
  Zr  Zr1510  1  0.72869100  0.58324883  0.30589369  1.0
  Zr  Zr1511  1  0.72869100  0.91658217  0.30589369  1.0
  Zr  Zr1512  1  0.00000000  0.16666667  0.36909056  1.0
  Zr  Zr1513  1  0.00000000  0.50000000  0.36909056  1.0
  Zr  Zr1514  1  0.00000000  0.83333333  0.36909056  1.0
  Zr  Zr1515  1  0.33333333  0.16666667  0.36909056  1.0
  Zr  Zr1516  1  0.33333333  0.50000000  0.36909056  1.0
  Zr  Zr1517  1  0.33333333  0.83333333  0.36909056  1.0
  Zr  Zr1518  1  0.66666667  0.16666667  0.36909056  1.0
  Zr  Zr1519  1  0.66666667  0.50000000  0.36909056  1.0
  Zr  Zr1520  1  0.66666667  0.83333333  0.36909056  1.0
  Zr  Zr1521  1  0.00000000  0.00000000  0.49409056  1.0
  Zr  Zr1522  1  0.00000000  0.33333333  0.49409056  1.0
  Zr  Zr1523  1  0.00000000  0.66666667  0.49409056  1.0
  Zr  Zr1524  1  0.33333333  0.00000000  0.49409056  1.0
  Zr  Zr1525  1  0.33333333  0.33333333  0.49409056  1.0
  Zr  Zr1526  1  0.33333333  0.66666667  0.49409056  1.0
  Zr  Zr1527  1  0.66666667  0.00000000  0.49409056  1.0
  Zr  Zr1528  1  0.66666667  0.33333333  0.49409056  1.0
  Zr  Zr1529  1  0.66666667  0.66666667  0.49409056  1.0
  Zr  Zr1530  1  0.24962267  0.00062083  0.43019644  1.0
  Zr  Zr1531  1  0.24962267  0.33395417  0.43019644  1.0
  Zr  Zr1532  1  0.24962267  0.66728750  0.43019644  1.0
  Zr  Zr1533  1  0.58295600  0.00062083  0.43019644  1.0
  Zr  Zr1534  1  0.58295600  0.33395417  0.43019644  1.0
  Zr  Zr1535  1  0.58295600  0.66728750  0.43019644  1.0
  Zr  Zr1536  1  0.91628933  0.00062083  0.43019644  1.0
  Zr  Zr1537  1  0.91628933  0.33395417  0.43019644  1.0
  Zr  Zr1538  1  0.91628933  0.66728750  0.43019644  1.0
  Zr  Zr1539  1  0.24962267  0.16728750  0.30519644  1.0
  Zr  Zr1540  1  0.24962267  0.50062083  0.30519644  1.0
  Zr  Zr1541  1  0.24962267  0.83395417  0.30519644  1.0
  Zr  Zr1542  1  0.58295600  0.16728750  0.30519644  1.0
  Zr  Zr1543  1  0.58295600  0.50062083  0.30519644  1.0
  Zr  Zr1544  1  0.58295600  0.83395417  0.30519644  1.0
  Zr  Zr1545  1  0.91628933  0.16728750  0.30519644  1.0
  Zr  Zr1546  1  0.91628933  0.50062083  0.30519644  1.0
  Zr  Zr1547  1  0.91628933  0.83395417  0.30519644  1.0
  Zr  Zr1548  1  0.25037733  0.00024350  0.30547944  1.0
  Zr  Zr1549  1  0.25037733  0.33357683  0.30547944  1.0
  Zr  Zr1550  1  0.25037733  0.66691017  0.30547944  1.0
  Zr  Zr1551  1  0.58371067  0.00024350  0.30547944  1.0
  Zr  Zr1552  1  0.58371067  0.33357683  0.30547944  1.0
  Zr  Zr1553  1  0.58371067  0.66691017  0.30547944  1.0
  Zr  Zr1554  1  0.91704400  0.00024350  0.30547944  1.0
  Zr  Zr1555  1  0.91704400  0.33357683  0.30547944  1.0
  Zr  Zr1556  1  0.91704400  0.66691017  0.30547944  1.0
  Zr  Zr1557  1  0.25037733  0.16691017  0.43047944  1.0
  Zr  Zr1558  1  0.25037733  0.50024350  0.43047944  1.0
  Zr  Zr1559  1  0.25037733  0.83357683  0.43047944  1.0
  Zr  Zr1560  1  0.58371067  0.16691017  0.43047944  1.0
  Zr  Zr1561  1  0.58371067  0.50024350  0.43047944  1.0
  Zr  Zr1562  1  0.58371067  0.83357683  0.43047944  1.0
  Zr  Zr1563  1  0.91704400  0.16691017  0.43047944  1.0
  Zr  Zr1564  1  0.91704400  0.50024350  0.43047944  1.0
  Zr  Zr1565  1  0.91704400  0.83357683  0.43047944  1.0
  Zr  Zr1566  1  0.08295600  0.33308983  0.43270169  1.0
  Zr  Zr1567  1  0.08295600  0.66642317  0.43270169  1.0
  Zr  Zr1568  1  0.08295600  0.99975650  0.43270169  1.0
  Zr  Zr1569  1  0.41628933  0.33308983  0.43270169  1.0
  Zr  Zr1570  1  0.41628933  0.66642317  0.43270169  1.0
  Zr  Zr1571  1  0.41628933  0.99975650  0.43270169  1.0
  Zr  Zr1572  1  0.74962267  0.33308983  0.43270169  1.0
  Zr  Zr1573  1  0.74962267  0.66642317  0.43270169  1.0
  Zr  Zr1574  1  0.74962267  0.99975650  0.43270169  1.0
  Zr  Zr1575  1  0.08295600  0.16642317  0.30770169  1.0
  Zr  Zr1576  1  0.08295600  0.49975650  0.30770169  1.0
  Zr  Zr1577  1  0.08295600  0.83308983  0.30770169  1.0
  Zr  Zr1578  1  0.41628933  0.16642317  0.30770169  1.0
  Zr  Zr1579  1  0.41628933  0.49975650  0.30770169  1.0
  Zr  Zr1580  1  0.41628933  0.83308983  0.30770169  1.0
  Zr  Zr1581  1  0.74962267  0.16642317  0.30770169  1.0
  Zr  Zr1582  1  0.74962267  0.49975650  0.30770169  1.0
  Zr  Zr1583  1  0.74962267  0.83308983  0.30770169  1.0
  Zr  Zr1584  1  0.33296800  0.16688133  0.44610481  1.0
  Zr  Zr1585  1  0.33296800  0.50021467  0.44610481  1.0
  Zr  Zr1586  1  0.33296800  0.83354800  0.44610481  1.0
  Zr  Zr1587  1  0.66630133  0.16688133  0.44610481  1.0
  Zr  Zr1588  1  0.66630133  0.50021467  0.44610481  1.0
  Zr  Zr1589  1  0.66630133  0.83354800  0.44610481  1.0
  Zr  Zr1590  1  0.99963467  0.16688133  0.44610481  1.0
  Zr  Zr1591  1  0.99963467  0.50021467  0.44610481  1.0
  Zr  Zr1592  1  0.99963467  0.83354800  0.44610481  1.0
  Zr  Zr1593  1  0.33296800  0.00021467  0.32110481  1.0
  Zr  Zr1594  1  0.33296800  0.33354800  0.32110481  1.0
  Zr  Zr1595  1  0.33296800  0.66688133  0.32110481  1.0
  Zr  Zr1596  1  0.66630133  0.00021467  0.32110481  1.0
  Zr  Zr1597  1  0.66630133  0.33354800  0.32110481  1.0
  Zr  Zr1598  1  0.66630133  0.66688133  0.32110481  1.0
  Zr  Zr1599  1  0.99963467  0.00021467  0.32110481  1.0
  Zr  Zr1600  1  0.99963467  0.33354800  0.32110481  1.0
  Zr  Zr1601  1  0.99963467  0.66688133  0.32110481  1.0
  Zr  Zr1602  1  0.00000000  0.08333333  0.30659056  1.0
  Zr  Zr1603  1  0.00000000  0.41666667  0.30659056  1.0
  Zr  Zr1604  1  0.00000000  0.75000000  0.30659056  1.0
  Zr  Zr1605  1  0.33333333  0.08333333  0.30659056  1.0
  Zr  Zr1606  1  0.33333333  0.41666667  0.30659056  1.0
  Zr  Zr1607  1  0.33333333  0.75000000  0.30659056  1.0
  Zr  Zr1608  1  0.66666667  0.08333333  0.30659056  1.0
  Zr  Zr1609  1  0.66666667  0.41666667  0.30659056  1.0
  Zr  Zr1610  1  0.66666667  0.75000000  0.30659056  1.0
  Zr  Zr1611  1  0.00000000  0.25000000  0.43159056  1.0
  Zr  Zr1612  1  0.00000000  0.58333333  0.43159056  1.0
  Zr  Zr1613  1  1.00000000  0.91666667  0.43159056  1.0
  Zr  Zr1614  1  0.33333333  0.25000000  0.43159056  1.0
  Zr  Zr1615  1  0.33333333  0.58333333  0.43159056  1.0
  Zr  Zr1616  1  0.33333333  0.91666667  0.43159056  1.0
  Zr  Zr1617  1  0.66666667  0.25000000  0.43159056  1.0
  Zr  Zr1618  1  0.66666667  0.58333333  0.43159056  1.0
  Zr  Zr1619  1  0.66666667  0.91666667  0.43159056  1.0
  Zr  Zr1620  1  0.24962267  0.25062083  0.49455344  1.0
  Zr  Zr1621  1  0.24962267  0.58395417  0.49455344  1.0
  Zr  Zr1622  1  0.24962267  0.91728750  0.49455344  1.0
  Zr  Zr1623  1  0.58295600  0.25062083  0.49455344  1.0
  Zr  Zr1624  1  0.58295600  0.58395417  0.49455344  1.0
  Zr  Zr1625  1  0.58295600  0.91728750  0.49455344  1.0
  Zr  Zr1626  1  0.91628933  0.25062083  0.49455344  1.0
  Zr  Zr1627  1  0.91628933  0.58395417  0.49455344  1.0
  Zr  Zr1628  1  0.91628933  0.91728750  0.49455344  1.0
  Zr  Zr1629  1  0.24962267  0.08395417  0.36955344  1.0
  Zr  Zr1630  1  0.24962267  0.41728750  0.36955344  1.0
  Zr  Zr1631  1  0.24962267  0.75062083  0.36955344  1.0
  Zr  Zr1632  1  0.58295600  0.08395417  0.36955344  1.0
  Zr  Zr1633  1  0.58295600  0.41728750  0.36955344  1.0
  Zr  Zr1634  1  0.58295600  0.75062083  0.36955344  1.0
  Zr  Zr1635  1  0.91628933  0.08395417  0.36955344  1.0
  Zr  Zr1636  1  0.91628933  0.41728750  0.36955344  1.0
  Zr  Zr1637  1  0.91628933  0.75062083  0.36955344  1.0
  Zr  Zr1638  1  0.25037733  0.25024350  0.36983644  1.0
  Zr  Zr1639  1  0.25037733  0.58357683  0.36983644  1.0
  Zr  Zr1640  1  0.25037733  0.91691017  0.36983644  1.0
  Zr  Zr1641  1  0.58371067  0.25024350  0.36983644  1.0
  Zr  Zr1642  1  0.58371067  0.58357683  0.36983644  1.0
  Zr  Zr1643  1  0.58371067  0.91691017  0.36983644  1.0
  Zr  Zr1644  1  0.91704400  0.25024350  0.36983644  1.0
  Zr  Zr1645  1  0.91704400  0.58357683  0.36983644  1.0
  Zr  Zr1646  1  0.91704400  0.91691017  0.36983644  1.0
  Zr  Zr1647  1  0.25037733  0.08357683  0.49483644  1.0
  Zr  Zr1648  1  0.25037733  0.41691017  0.49483644  1.0
  Zr  Zr1649  1  0.25037733  0.75024350  0.49483644  1.0
  Zr  Zr1650  1  0.58371067  0.08357683  0.49483644  1.0
  Zr  Zr1651  1  0.58371067  0.41691017  0.49483644  1.0
  Zr  Zr1652  1  0.58371067  0.75024350  0.49483644  1.0
  Zr  Zr1653  1  0.91704400  0.08357683  0.49483644  1.0
  Zr  Zr1654  1  0.91704400  0.41691017  0.49483644  1.0
  Zr  Zr1655  1  0.91704400  0.75024350  0.49483644  1.0
  Zr  Zr1656  1  0.08371067  0.08271250  0.49362769  1.0
  Zr  Zr1657  1  0.08371067  0.41604583  0.49362769  1.0
  Zr  Zr1658  1  0.08371067  0.74937917  0.49362769  1.0
  Zr  Zr1659  1  0.41704400  0.08271250  0.49362769  1.0
  Zr  Zr1660  1  0.41704400  0.41604583  0.49362769  1.0
  Zr  Zr1661  1  0.41704400  0.74937917  0.49362769  1.0
  Zr  Zr1662  1  0.75037733  0.08271250  0.49362769  1.0
  Zr  Zr1663  1  0.75037733  0.41604583  0.49362769  1.0
  Zr  Zr1664  1  0.75037733  0.74937917  0.49362769  1.0
  Zr  Zr1665  1  0.08371067  0.24937917  0.36862769  1.0
  Zr  Zr1666  1  0.08371067  0.58271250  0.36862769  1.0
  Zr  Zr1667  1  0.08371067  0.91604583  0.36862769  1.0
  Zr  Zr1668  1  0.41704400  0.24937917  0.36862769  1.0
  Zr  Zr1669  1  0.41704400  0.58271250  0.36862769  1.0
  Zr  Zr1670  1  0.41704400  0.91604583  0.36862769  1.0
  Zr  Zr1671  1  0.75037733  0.24937917  0.36862769  1.0
  Zr  Zr1672  1  0.75037733  0.58271250  0.36862769  1.0
  Zr  Zr1673  1  0.75037733  0.91604583  0.36862769  1.0
  Zr  Zr1674  1  0.00036533  0.16645200  0.29207631  1.0
  Zr  Zr1675  1  0.00036533  0.49978533  0.29207631  1.0
  Zr  Zr1676  1  0.00036533  0.83311867  0.29207631  1.0
  Zr  Zr1677  1  0.33369867  0.16645200  0.29207631  1.0
  Zr  Zr1678  1  0.33369867  0.49978533  0.29207631  1.0
  Zr  Zr1679  1  0.33369867  0.83311867  0.29207631  1.0
  Zr  Zr1680  1  0.66703200  0.16645200  0.29207631  1.0
  Zr  Zr1681  1  0.66703200  0.49978533  0.29207631  1.0
  Zr  Zr1682  1  0.66703200  0.83311867  0.29207631  1.0
  Zr  Zr1683  1  0.00036533  0.33311867  0.41707631  1.0
  Zr  Zr1684  1  0.00036533  0.66645200  0.41707631  1.0
  Zr  Zr1685  1  0.00036533  0.99978533  0.41707631  1.0
  Zr  Zr1686  1  0.33369867  0.33311867  0.41707631  1.0
  Zr  Zr1687  1  0.33369867  0.66645200  0.41707631  1.0
  Zr  Zr1688  1  0.33369867  0.99978533  0.41707631  1.0
  Zr  Zr1689  1  0.66703200  0.33311867  0.41707631  1.0
  Zr  Zr1690  1  0.66703200  0.66645200  0.41707631  1.0
  Zr  Zr1691  1  0.66703200  0.99978533  0.41707631  1.0
  Zr  Zr1692  1  0.16666667  0.00000000  0.49409056  1.0
  Zr  Zr1693  1  0.16666667  0.33333333  0.49409056  1.0
  Zr  Zr1694  1  0.16666667  0.66666667  0.49409056  1.0
  Zr  Zr1695  1  0.50000000  0.00000000  0.49409056  1.0
  Zr  Zr1696  1  0.50000000  0.33333333  0.49409056  1.0
  Zr  Zr1697  1  0.50000000  0.66666667  0.49409056  1.0
  Zr  Zr1698  1  0.83333333  0.00000000  0.49409056  1.0
  Zr  Zr1699  1  0.83333333  0.33333333  0.49409056  1.0
  Zr  Zr1700  1  0.83333333  0.66666667  0.49409056  1.0
  Zr  Zr1701  1  0.16666667  0.16666667  0.36909056  1.0
  Zr  Zr1702  1  0.16666667  0.50000000  0.36909056  1.0
  Zr  Zr1703  1  0.16666667  0.83333333  0.36909056  1.0
  Zr  Zr1704  1  0.50000000  0.16666667  0.36909056  1.0
  Zr  Zr1705  1  0.50000000  0.50000000  0.36909056  1.0
  Zr  Zr1706  1  0.50000000  0.83333333  0.36909056  1.0
  Zr  Zr1707  1  0.83333333  0.16666667  0.36909056  1.0
  Zr  Zr1708  1  0.83333333  0.50000000  0.36909056  1.0
  Zr  Zr1709  1  0.83333333  0.83333333  0.36909056  1.0
  Zr  Zr1710  1  0.16630133  0.08348400  0.47930231  1.0
  Zr  Zr1711  1  0.16630133  0.41681733  0.47930231  1.0
  Zr  Zr1712  1  0.16630133  0.75015067  0.47930231  1.0
  Zr  Zr1713  1  0.49963467  0.08348400  0.47930231  1.0
  Zr  Zr1714  1  0.49963467  0.41681733  0.47930231  1.0
  Zr  Zr1715  1  0.49963467  0.75015067  0.47930231  1.0
  Zr  Zr1716  1  0.83296800  0.08348400  0.47930231  1.0
  Zr  Zr1717  1  0.83296800  0.41681733  0.47930231  1.0
  Zr  Zr1718  1  0.83296800  0.75015067  0.47930231  1.0
  Zr  Zr1719  1  0.16630133  0.25015067  0.35430231  1.0
  Zr  Zr1720  1  0.16630133  0.58348400  0.35430231  1.0
  Zr  Zr1721  1  0.16630133  0.91681733  0.35430231  1.0
  Zr  Zr1722  1  0.49963467  0.25015067  0.35430231  1.0
  Zr  Zr1723  1  0.49963467  0.58348400  0.35430231  1.0
  Zr  Zr1724  1  0.49963467  0.91681733  0.35430231  1.0
  Zr  Zr1725  1  0.83296800  0.25015067  0.35430231  1.0
  Zr  Zr1726  1  0.83296800  0.58348400  0.35430231  1.0
  Zr  Zr1727  1  0.83296800  0.91681733  0.35430231  1.0
  Ni  Ni1728  1  0.26453167  0.28532117  0.44195694  1.0
  Ni  Ni1729  1  0.26453167  0.61865450  0.44195694  1.0
  Ni  Ni1730  1  0.26453167  0.95198783  0.44195694  1.0
  Ni  Ni1731  1  0.59786500  0.28532117  0.44195694  1.0
  Ni  Ni1732  1  0.59786500  0.61865450  0.44195694  1.0
  Ni  Ni1733  1  0.59786500  0.95198783  0.44195694  1.0
  Ni  Ni1734  1  0.93119833  0.28532117  0.44195694  1.0
  Ni  Ni1735  1  0.93119833  0.61865450  0.44195694  1.0
  Ni  Ni1736  1  0.93119833  0.95198783  0.44195694  1.0
  Ni  Ni1737  1  0.26453167  0.11865450  0.31695694  1.0
  Ni  Ni1738  1  0.26453167  0.45198783  0.31695694  1.0
  Ni  Ni1739  1  0.26453167  0.78532117  0.31695694  1.0
  Ni  Ni1740  1  0.59786500  0.11865450  0.31695694  1.0
  Ni  Ni1741  1  0.59786500  0.45198783  0.31695694  1.0
  Ni  Ni1742  1  0.59786500  0.78532117  0.31695694  1.0
  Ni  Ni1743  1  0.93119833  0.11865450  0.31695694  1.0
  Ni  Ni1744  1  0.93119833  0.45198783  0.31695694  1.0
  Ni  Ni1745  1  0.93119833  0.78532117  0.31695694  1.0
  Ni  Ni1746  1  0.03504433  0.04807483  0.45759244  1.0
  Ni  Ni1747  1  0.03504433  0.38140817  0.45759244  1.0
  Ni  Ni1748  1  0.03504433  0.71474150  0.45759244  1.0
  Ni  Ni1749  1  0.36837767  0.04807483  0.45759244  1.0
  Ni  Ni1750  1  0.36837767  0.38140817  0.45759244  1.0
  Ni  Ni1751  1  0.36837767  0.71474150  0.45759244  1.0
  Ni  Ni1752  1  0.70171100  0.04807483  0.45759244  1.0
  Ni  Ni1753  1  0.70171100  0.38140817  0.45759244  1.0
  Ni  Ni1754  1  0.70171100  0.71474150  0.45759244  1.0
  Ni  Ni1755  1  0.03504433  0.21474150  0.33259244  1.0
  Ni  Ni1756  1  0.03504433  0.54807483  0.33259244  1.0
  Ni  Ni1757  1  0.03504433  0.88140817  0.33259244  1.0
  Ni  Ni1758  1  0.36837767  0.21474150  0.33259244  1.0
  Ni  Ni1759  1  0.36837767  0.54807483  0.33259244  1.0
  Ni  Ni1760  1  0.36837767  0.88140817  0.33259244  1.0
  Ni  Ni1761  1  0.70171100  0.21474150  0.33259244  1.0
  Ni  Ni1762  1  0.70171100  0.54807483  0.33259244  1.0
  Ni  Ni1763  1  0.70171100  0.88140817  0.33259244  1.0
  Ni  Ni1764  1  0.13162233  0.33311917  0.36880919  1.0
  Ni  Ni1765  1  0.13162233  0.66645250  0.36880919  1.0
  Ni  Ni1766  1  0.13162233  0.99978583  0.36880919  1.0
  Ni  Ni1767  1  0.46495567  0.33311917  0.36880919  1.0
  Ni  Ni1768  1  0.46495567  0.66645250  0.36880919  1.0
  Ni  Ni1769  1  0.46495567  0.99978583  0.36880919  1.0
  Ni  Ni1770  1  0.79828900  0.33311917  0.36880919  1.0
  Ni  Ni1771  1  0.79828900  0.66645250  0.36880919  1.0
  Ni  Ni1772  1  0.79828900  0.99978583  0.36880919  1.0
  Ni  Ni1773  1  0.13162233  0.16645250  0.49380919  1.0
  Ni  Ni1774  1  0.13162233  0.49978583  0.49380919  1.0
  Ni  Ni1775  1  0.13162233  0.83311917  0.49380919  1.0
  Ni  Ni1776  1  0.46495567  0.16645250  0.49380919  1.0
  Ni  Ni1777  1  0.46495567  0.49978583  0.49380919  1.0
  Ni  Ni1778  1  0.46495567  0.83311917  0.49380919  1.0
  Ni  Ni1779  1  0.79828900  0.16645250  0.49380919  1.0
  Ni  Ni1780  1  0.79828900  0.49978583  0.49380919  1.0
  Ni  Ni1781  1  0.79828900  0.83311917  0.49380919  1.0
  Ni  Ni1782  1  0.23607400  0.21753033  0.49183256  1.0
  Ni  Ni1783  1  0.23607400  0.55086367  0.49183256  1.0
  Ni  Ni1784  1  0.23607400  0.88419700  0.49183256  1.0
  Ni  Ni1785  1  0.56940733  0.21753033  0.49183256  1.0
  Ni  Ni1786  1  0.56940733  0.55086367  0.49183256  1.0
  Ni  Ni1787  1  0.56940733  0.88419700  0.49183256  1.0
  Ni  Ni1788  1  0.90274067  0.21753033  0.49183256  1.0
  Ni  Ni1789  1  0.90274067  0.55086367  0.49183256  1.0
  Ni  Ni1790  1  0.90274067  0.88419700  0.49183256  1.0
  Ni  Ni1791  1  0.23607400  0.05086367  0.36683256  1.0
  Ni  Ni1792  1  0.23607400  0.38419700  0.36683256  1.0
  Ni  Ni1793  1  0.23607400  0.71753033  0.36683256  1.0
  Ni  Ni1794  1  0.56940733  0.05086367  0.36683256  1.0
  Ni  Ni1795  1  0.56940733  0.38419700  0.36683256  1.0
  Ni  Ni1796  1  0.56940733  0.71753033  0.36683256  1.0
  Ni  Ni1797  1  0.90274067  0.05086367  0.36683256  1.0
  Ni  Ni1798  1  0.90274067  0.38419700  0.36683256  1.0
  Ni  Ni1799  1  0.90274067  0.71753033  0.36683256  1.0
  Ni  Ni1800  1  0.06940733  0.12972900  0.36090406  1.0
  Ni  Ni1801  1  0.06940733  0.46306233  0.36090406  1.0
  Ni  Ni1802  1  0.06940733  0.79639567  0.36090406  1.0
  Ni  Ni1803  1  0.40274067  0.12972900  0.36090406  1.0
  Ni  Ni1804  1  0.40274067  0.46306233  0.36090406  1.0
  Ni  Ni1805  1  0.40274067  0.79639567  0.36090406  1.0
  Ni  Ni1806  1  0.73607400  0.12972900  0.36090406  1.0
  Ni  Ni1807  1  0.73607400  0.46306233  0.36090406  1.0
  Ni  Ni1808  1  0.73607400  0.79639567  0.36090406  1.0
  Ni  Ni1809  1  0.06940733  0.29639567  0.48590406  1.0
  Ni  Ni1810  1  0.06940733  0.62972900  0.48590406  1.0
  Ni  Ni1811  1  0.06940733  0.96306233  0.48590406  1.0
  Ni  Ni1812  1  0.40274067  0.29639567  0.48590406  1.0
  Ni  Ni1813  1  0.40274067  0.62972900  0.48590406  1.0
  Ni  Ni1814  1  0.40274067  0.96306233  0.48590406  1.0
  Ni  Ni1815  1  0.73607400  0.29639567  0.48590406  1.0
  Ni  Ni1816  1  0.73607400  0.62972900  0.48590406  1.0
  Ni  Ni1817  1  0.73607400  0.96306233  0.48590406  1.0
  Ni  Ni1818  1  0.16414600  0.28619717  0.44110819  1.0
  Ni  Ni1819  1  0.16414600  0.61953050  0.44110819  1.0
  Ni  Ni1820  1  0.16414600  0.95286383  0.44110819  1.0
  Ni  Ni1821  1  0.49747933  0.28619717  0.44110819  1.0
  Ni  Ni1822  1  0.49747933  0.61953050  0.44110819  1.0
  Ni  Ni1823  1  0.49747933  0.95286383  0.44110819  1.0
  Ni  Ni1824  1  0.83081267  0.28619717  0.44110819  1.0
  Ni  Ni1825  1  0.83081267  0.61953050  0.44110819  1.0
  Ni  Ni1826  1  0.83081267  0.95286383  0.44110819  1.0
  Ni  Ni1827  1  0.16414600  0.11953050  0.31610819  1.0
  Ni  Ni1828  1  0.16414600  0.45286383  0.31610819  1.0
  Ni  Ni1829  1  0.16414600  0.78619717  0.31610819  1.0
  Ni  Ni1830  1  0.49747933  0.11953050  0.31610819  1.0
  Ni  Ni1831  1  0.49747933  0.45286383  0.31610819  1.0
  Ni  Ni1832  1  0.49747933  0.78619717  0.31610819  1.0
  Ni  Ni1833  1  0.83081267  0.11953050  0.31610819  1.0
  Ni  Ni1834  1  0.83081267  0.45286383  0.31610819  1.0
  Ni  Ni1835  1  0.83081267  0.78619717  0.31610819  1.0
  Ni  Ni1836  1  0.03504433  0.13140817  0.27097644  1.0
  Ni  Ni1837  1  0.03504433  0.46474150  0.27097644  1.0
  Ni  Ni1838  1  0.03504433  0.79807483  0.27097644  1.0
  Ni  Ni1839  1  0.36837767  0.13140817  0.27097644  1.0
  Ni  Ni1840  1  0.36837767  0.46474150  0.27097644  1.0
  Ni  Ni1841  1  0.36837767  0.79807483  0.27097644  1.0
  Ni  Ni1842  1  0.70171100  0.13140817  0.27097644  1.0
  Ni  Ni1843  1  0.70171100  0.46474150  0.27097644  1.0
  Ni  Ni1844  1  0.70171100  0.79807483  0.27097644  1.0
  Ni  Ni1845  1  0.03504433  0.29807483  0.39597644  1.0
  Ni  Ni1846  1  0.03504433  0.63140817  0.39597644  1.0
  Ni  Ni1847  1  0.03504433  0.96474150  0.39597644  1.0
  Ni  Ni1848  1  0.36837767  0.29807483  0.39597644  1.0
  Ni  Ni1849  1  0.36837767  0.63140817  0.39597644  1.0
  Ni  Ni1850  1  0.36837767  0.96474150  0.39597644  1.0
  Ni  Ni1851  1  0.70171100  0.29807483  0.39597644  1.0
  Ni  Ni1852  1  0.70171100  0.63140817  0.39597644  1.0
  Ni  Ni1853  1  0.70171100  0.96474150  0.39597644  1.0
  Ni  Ni1854  1  0.26453167  0.20198783  0.30574244  1.0
  Ni  Ni1855  1  0.26453167  0.53532117  0.30574244  1.0
  Ni  Ni1856  1  0.26453167  0.86865450  0.30574244  1.0
  Ni  Ni1857  1  0.59786500  0.20198783  0.30574244  1.0
  Ni  Ni1858  1  0.59786500  0.53532117  0.30574244  1.0
  Ni  Ni1859  1  0.59786500  0.86865450  0.30574244  1.0
  Ni  Ni1860  1  0.93119833  0.20198783  0.30574244  1.0
  Ni  Ni1861  1  0.93119833  0.53532117  0.30574244  1.0
  Ni  Ni1862  1  0.93119833  0.86865450  0.30574244  1.0
  Ni  Ni1863  1  0.26453167  0.03532117  0.43074244  1.0
  Ni  Ni1864  1  0.26453167  0.36865450  0.43074244  1.0
  Ni  Ni1865  1  0.26453167  0.70198783  0.43074244  1.0
  Ni  Ni1866  1  0.59786500  0.03532117  0.43074244  1.0
  Ni  Ni1867  1  0.59786500  0.36865450  0.43074244  1.0
  Ni  Ni1868  1  0.59786500  0.70198783  0.43074244  1.0
  Ni  Ni1869  1  0.93119833  0.03532117  0.43074244  1.0
  Ni  Ni1870  1  0.93119833  0.36865450  0.43074244  1.0
  Ni  Ni1871  1  0.93119833  0.70198783  0.43074244  1.0
  Ni  Ni1872  1  0.20171100  0.25021417  0.30598794  1.0
  Ni  Ni1873  1  0.20171100  0.58354750  0.30598794  1.0
  Ni  Ni1874  1  0.20171100  0.91688083  0.30598794  1.0
  Ni  Ni1875  1  0.53504433  0.25021417  0.30598794  1.0
  Ni  Ni1876  1  0.53504433  0.58354750  0.30598794  1.0
  Ni  Ni1877  1  0.53504433  0.91688083  0.30598794  1.0
  Ni  Ni1878  1  0.86837767  0.25021417  0.30598794  1.0
  Ni  Ni1879  1  0.86837767  0.58354750  0.30598794  1.0
  Ni  Ni1880  1  0.86837767  0.91688083  0.30598794  1.0
  Ni  Ni1881  1  0.20171100  0.08354750  0.43098794  1.0
  Ni  Ni1882  1  0.20171100  0.41688083  0.43098794  1.0
  Ni  Ni1883  1  0.20171100  0.75021417  0.43098794  1.0
  Ni  Ni1884  1  0.53504433  0.08354750  0.43098794  1.0
  Ni  Ni1885  1  0.53504433  0.41688083  0.43098794  1.0
  Ni  Ni1886  1  0.53504433  0.75021417  0.43098794  1.0
  Ni  Ni1887  1  0.86837767  0.08354750  0.43098794  1.0
  Ni  Ni1888  1  0.86837767  0.41688083  0.43098794  1.0
  Ni  Ni1889  1  0.86837767  0.75021417  0.43098794  1.0
  Ni  Ni1890  1  0.00225267  0.03335683  0.43315794  1.0
  Ni  Ni1891  1  0.00225267  0.36669017  0.43315794  1.0
  Ni  Ni1892  1  0.00225267  0.70002350  0.43315794  1.0
  Ni  Ni1893  1  0.33558600  0.03335683  0.43315794  1.0
  Ni  Ni1894  1  0.33558600  0.36669017  0.43315794  1.0
  Ni  Ni1895  1  0.33558600  0.70002350  0.43315794  1.0
  Ni  Ni1896  1  0.66891933  0.03335683  0.43315794  1.0
  Ni  Ni1897  1  0.66891933  0.36669017  0.43315794  1.0
  Ni  Ni1898  1  0.66891933  0.70002350  0.43315794  1.0
  Ni  Ni1899  1  0.00225267  0.20002350  0.30815794  1.0
  Ni  Ni1900  1  0.00225267  0.53335683  0.30815794  1.0
  Ni  Ni1901  1  0.00225267  0.86669017  0.30815794  1.0
  Ni  Ni1902  1  0.33558600  0.20002350  0.30815794  1.0
  Ni  Ni1903  1  0.33558600  0.53335683  0.30815794  1.0
  Ni  Ni1904  1  0.33558600  0.86669017  0.30815794  1.0
  Ni  Ni1905  1  0.66891933  0.20002350  0.30815794  1.0
  Ni  Ni1906  1  0.66891933  0.53335683  0.30815794  1.0
  Ni  Ni1907  1  0.66891933  0.86669017  0.30815794  1.0
  Ni  Ni1908  1  0.16891933  0.04772383  0.36921269  1.0
  Ni  Ni1909  1  0.16891933  0.38105717  0.36921269  1.0
  Ni  Ni1910  1  0.16891933  0.71439050  0.36921269  1.0
  Ni  Ni1911  1  0.50225267  0.04772383  0.36921269  1.0
  Ni  Ni1912  1  0.50225267  0.38105717  0.36921269  1.0
  Ni  Ni1913  1  0.50225267  0.71439050  0.36921269  1.0
  Ni  Ni1914  1  0.83558600  0.04772383  0.36921269  1.0
  Ni  Ni1915  1  0.83558600  0.38105717  0.36921269  1.0
  Ni  Ni1916  1  0.83558600  0.71439050  0.36921269  1.0
  Ni  Ni1917  1  0.16891933  0.21439050  0.49421269  1.0
  Ni  Ni1918  1  0.16891933  0.54772383  0.49421269  1.0
  Ni  Ni1919  1  0.16891933  0.88105717  0.49421269  1.0
  Ni  Ni1920  1  0.50225267  0.21439050  0.49421269  1.0
  Ni  Ni1921  1  0.50225267  0.54772383  0.49421269  1.0
  Ni  Ni1922  1  0.50225267  0.88105717  0.49421269  1.0
  Ni  Ni1923  1  0.83558600  0.21439050  0.49421269  1.0
  Ni  Ni1924  1  0.83558600  0.54772383  0.49421269  1.0
  Ni  Ni1925  1  0.83558600  0.88105717  0.49421269  1.0
  Ni  Ni1926  1  0.06940733  0.04639567  0.37018356  1.0
  Ni  Ni1927  1  0.06940733  0.37972900  0.37018356  1.0
  Ni  Ni1928  1  0.06940733  0.71306233  0.37018356  1.0
  Ni  Ni1929  1  0.40274067  0.04639567  0.37018356  1.0
  Ni  Ni1930  1  0.40274067  0.37972900  0.37018356  1.0
  Ni  Ni1931  1  0.40274067  0.71306233  0.37018356  1.0
  Ni  Ni1932  1  0.73607400  0.04639567  0.37018356  1.0
  Ni  Ni1933  1  0.73607400  0.37972900  0.37018356  1.0
  Ni  Ni1934  1  0.73607400  0.71306233  0.37018356  1.0
  Ni  Ni1935  1  0.06940733  0.21306233  0.49518356  1.0
  Ni  Ni1936  1  0.06940733  0.54639567  0.49518356  1.0
  Ni  Ni1937  1  0.06940733  0.87972900  0.49518356  1.0
  Ni  Ni1938  1  0.40274067  0.21306233  0.49518356  1.0
  Ni  Ni1939  1  0.40274067  0.54639567  0.49518356  1.0
  Ni  Ni1940  1  0.40274067  0.87972900  0.49518356  1.0
  Ni  Ni1941  1  0.73607400  0.21306233  0.49518356  1.0
  Ni  Ni1942  1  0.73607400  0.54639567  0.49518356  1.0
  Ni  Ni1943  1  0.73607400  0.87972900  0.49518356  1.0
  Ni  Ni1944  1  0.13162233  0.08311917  0.43219319  1.0
  Ni  Ni1945  1  0.13162233  0.41645250  0.43219319  1.0
  Ni  Ni1946  1  0.13162233  0.74978583  0.43219319  1.0
  Ni  Ni1947  1  0.46495567  0.08311917  0.43219319  1.0
  Ni  Ni1948  1  0.46495567  0.41645250  0.43219319  1.0
  Ni  Ni1949  1  0.46495567  0.74978583  0.43219319  1.0
  Ni  Ni1950  1  0.79828900  0.08311917  0.43219319  1.0
  Ni  Ni1951  1  0.79828900  0.41645250  0.43219319  1.0
  Ni  Ni1952  1  0.79828900  0.74978583  0.43219319  1.0
  Ni  Ni1953  1  0.13162233  0.24978583  0.30719319  1.0
  Ni  Ni1954  1  0.13162233  0.58311917  0.30719319  1.0
  Ni  Ni1955  1  0.13162233  0.91645250  0.30719319  1.0
  Ni  Ni1956  1  0.46495567  0.24978583  0.30719319  1.0
  Ni  Ni1957  1  0.46495567  0.58311917  0.30719319  1.0
  Ni  Ni1958  1  0.46495567  0.91645250  0.30719319  1.0
  Ni  Ni1959  1  0.79828900  0.24978583  0.30719319  1.0
  Ni  Ni1960  1  0.79828900  0.58311917  0.30719319  1.0
  Ni  Ni1961  1  0.79828900  0.91645250  0.30719319  1.0
  Ni  Ni1962  1  0.26392600  0.20360433  0.37727706  1.0
  Ni  Ni1963  1  0.26392600  0.53693767  0.37727706  1.0
  Ni  Ni1964  1  0.26392600  0.87027100  0.37727706  1.0
  Ni  Ni1965  1  0.59725933  0.20360433  0.37727706  1.0
  Ni  Ni1966  1  0.59725933  0.53693767  0.37727706  1.0
  Ni  Ni1967  1  0.59725933  0.87027100  0.37727706  1.0
  Ni  Ni1968  1  0.93059267  0.20360433  0.37727706  1.0
  Ni  Ni1969  1  0.93059267  0.53693767  0.37727706  1.0
  Ni  Ni1970  1  0.93059267  0.87027100  0.37727706  1.0
  Ni  Ni1971  1  0.26392600  0.03693767  0.25227706  1.0
  Ni  Ni1972  1  0.26392600  0.37027100  0.25227706  1.0
  Ni  Ni1973  1  0.26392600  0.70360433  0.25227706  1.0
  Ni  Ni1974  1  0.59725933  0.03693767  0.25227706  1.0
  Ni  Ni1975  1  0.59725933  0.37027100  0.25227706  1.0
  Ni  Ni1976  1  0.59725933  0.70360433  0.25227706  1.0
  Ni  Ni1977  1  0.93059267  0.03693767  0.25227706  1.0
  Ni  Ni1978  1  0.93059267  0.37027100  0.25227706  1.0
  Ni  Ni1979  1  0.93059267  0.70360433  0.25227706  1.0
  Ni  Ni1980  1  0.09786500  0.11681383  0.31833744  1.0
  Ni  Ni1981  1  0.09786500  0.45014717  0.31833744  1.0
  Ni  Ni1982  1  0.09786500  0.78348050  0.31833744  1.0
  Ni  Ni1983  1  0.43119833  0.11681383  0.31833744  1.0
  Ni  Ni1984  1  0.43119833  0.45014717  0.31833744  1.0
  Ni  Ni1985  1  0.43119833  0.78348050  0.31833744  1.0
  Ni  Ni1986  1  0.76453167  0.11681383  0.31833744  1.0
  Ni  Ni1987  1  0.76453167  0.45014717  0.31833744  1.0
  Ni  Ni1988  1  0.76453167  0.78348050  0.31833744  1.0
  Ni  Ni1989  1  0.09786500  0.28348050  0.44333744  1.0
  Ni  Ni1990  1  0.09786500  0.61681383  0.44333744  1.0
  Ni  Ni1991  1  0.09786500  0.95014717  0.44333744  1.0
  Ni  Ni1992  1  0.43119833  0.28348050  0.44333744  1.0
  Ni  Ni1993  1  0.43119833  0.61681383  0.44333744  1.0
  Ni  Ni1994  1  0.43119833  0.95014717  0.44333744  1.0
  Ni  Ni1995  1  0.76453167  0.28348050  0.44333744  1.0
  Ni  Ni1996  1  0.76453167  0.61681383  0.44333744  1.0
  Ni  Ni1997  1  0.76453167  0.95014717  0.44333744  1.0
  Ni  Ni1998  1  0.00252067  0.11700983  0.49466769  1.0
  Ni  Ni1999  1  0.00252067  0.45034317  0.49466769  1.0
  Ni  Ni2000  1  0.00252067  0.78367650  0.49466769  1.0
  Ni  Ni2001  1  0.33585400  0.11700983  0.49466769  1.0
  Ni  Ni2002  1  0.33585400  0.45034317  0.49466769  1.0
  Ni  Ni2003  1  0.33585400  0.78367650  0.49466769  1.0
  Ni  Ni2004  1  0.66918733  0.11700983  0.49466769  1.0
  Ni  Ni2005  1  0.66918733  0.45034317  0.49466769  1.0
  Ni  Ni2006  1  0.66918733  0.78367650  0.49466769  1.0
  Ni  Ni2007  1  0.00252067  0.28367650  0.36966769  1.0
  Ni  Ni2008  1  0.00252067  0.61700983  0.36966769  1.0
  Ni  Ni2009  1  0.00252067  0.95034317  0.36966769  1.0
  Ni  Ni2010  1  0.33585400  0.28367650  0.36966769  1.0
  Ni  Ni2011  1  0.33585400  0.61700983  0.36966769  1.0
  Ni  Ni2012  1  0.33585400  0.95034317  0.36966769  1.0
  Ni  Ni2013  1  0.66918733  0.28367650  0.36966769  1.0
  Ni  Ni2014  1  0.66918733  0.61700983  0.36966769  1.0
  Ni  Ni2015  1  0.66918733  0.95034317  0.36966769  1.0
  Ni  Ni2016  1  0.16414600  0.03619717  0.43027719  1.0
  Ni  Ni2017  1  0.16414600  0.36953050  0.43027719  1.0
  Ni  Ni2018  1  0.16414600  0.70286383  0.43027719  1.0
  Ni  Ni2019  1  0.49747933  0.03619717  0.43027719  1.0
  Ni  Ni2020  1  0.49747933  0.36953050  0.43027719  1.0
  Ni  Ni2021  1  0.49747933  0.70286383  0.43027719  1.0
  Ni  Ni2022  1  0.83081267  0.03619717  0.43027719  1.0
  Ni  Ni2023  1  0.83081267  0.36953050  0.43027719  1.0
  Ni  Ni2024  1  0.83081267  0.70286383  0.43027719  1.0
  Ni  Ni2025  1  0.16414600  0.20286383  0.30527719  1.0
  Ni  Ni2026  1  0.16414600  0.53619717  0.30527719  1.0
  Ni  Ni2027  1  0.16414600  0.86953050  0.30527719  1.0
  Ni  Ni2028  1  0.49747933  0.20286383  0.30527719  1.0
  Ni  Ni2029  1  0.49747933  0.53619717  0.30527719  1.0
  Ni  Ni2030  1  0.49747933  0.86953050  0.30527719  1.0
  Ni  Ni2031  1  0.83081267  0.20286383  0.30527719  1.0
  Ni  Ni2032  1  0.83081267  0.53619717  0.30527719  1.0
  Ni  Ni2033  1  0.83081267  0.86953050  0.30527719  1.0
  Ni  Ni2034  1  0.33108067  0.21664317  0.42069319  1.0
  Ni  Ni2035  1  0.33108067  0.54997650  0.42069319  1.0
  Ni  Ni2036  1  0.33108067  0.88330983  0.42069319  1.0
  Ni  Ni2037  1  0.66441400  0.21664317  0.42069319  1.0
  Ni  Ni2038  1  0.66441400  0.54997650  0.42069319  1.0
  Ni  Ni2039  1  0.66441400  0.88330983  0.42069319  1.0
  Ni  Ni2040  1  0.99774733  0.21664317  0.42069319  1.0
  Ni  Ni2041  1  0.99774733  0.54997650  0.42069319  1.0
  Ni  Ni2042  1  0.99774733  0.88330983  0.42069319  1.0
  Ni  Ni2043  1  0.33108067  0.04997650  0.29569319  1.0
  Ni  Ni2044  1  0.33108067  0.38330983  0.29569319  1.0
  Ni  Ni2045  1  0.33108067  0.71664317  0.29569319  1.0
  Ni  Ni2046  1  0.66441400  0.04997650  0.29569319  1.0
  Ni  Ni2047  1  0.66441400  0.38330983  0.29569319  1.0
  Ni  Ni2048  1  0.66441400  0.71664317  0.29569319  1.0
  Ni  Ni2049  1  0.99774733  0.04997650  0.29569319  1.0
  Ni  Ni2050  1  0.99774733  0.38330983  0.29569319  1.0
  Ni  Ni2051  1  0.99774733  0.71664317  0.29569319  1.0
  Ni  Ni2052  1  0.26392600  0.28693767  0.36799756  1.0
  Ni  Ni2053  1  0.26392600  0.62027100  0.36799756  1.0
  Ni  Ni2054  1  0.26392600  0.95360433  0.36799756  1.0
  Ni  Ni2055  1  0.59725933  0.28693767  0.36799756  1.0
  Ni  Ni2056  1  0.59725933  0.62027100  0.36799756  1.0
  Ni  Ni2057  1  0.59725933  0.95360433  0.36799756  1.0
  Ni  Ni2058  1  0.93059267  0.28693767  0.36799756  1.0
  Ni  Ni2059  1  0.93059267  0.62027100  0.36799756  1.0
  Ni  Ni2060  1  0.93059267  0.95360433  0.36799756  1.0
  Ni  Ni2061  1  0.26392600  0.12027100  0.49299756  1.0
  Ni  Ni2062  1  0.26392600  0.45360433  0.49299756  1.0
  Ni  Ni2063  1  0.26392600  0.78693767  0.49299756  1.0
  Ni  Ni2064  1  0.59725933  0.12027100  0.49299756  1.0
  Ni  Ni2065  1  0.59725933  0.45360433  0.49299756  1.0
  Ni  Ni2066  1  0.59725933  0.78693767  0.49299756  1.0
  Ni  Ni2067  1  0.93059267  0.12027100  0.49299756  1.0
  Ni  Ni2068  1  0.93059267  0.45360433  0.49299756  1.0
  Ni  Ni2069  1  0.93059267  0.78693767  0.49299756  1.0
  Ni  Ni2070  1  0.06880167  0.13134550  0.43243869  1.0
  Ni  Ni2071  1  0.06880167  0.46467883  0.43243869  1.0
  Ni  Ni2072  1  0.06880167  0.79801217  0.43243869  1.0
  Ni  Ni2073  1  0.40213500  0.13134550  0.43243869  1.0
  Ni  Ni2074  1  0.40213500  0.46467883  0.43243869  1.0
  Ni  Ni2075  1  0.40213500  0.79801217  0.43243869  1.0
  Ni  Ni2076  1  0.73546833  0.13134550  0.43243869  1.0
  Ni  Ni2077  1  0.73546833  0.46467883  0.43243869  1.0
  Ni  Ni2078  1  0.73546833  0.79801217  0.43243869  1.0
  Ni  Ni2079  1  0.06880167  0.29801217  0.30743869  1.0
  Ni  Ni2080  1  0.06880167  0.63134550  0.30743869  1.0
  Ni  Ni2081  1  0.06880167  0.96467883  0.30743869  1.0
  Ni  Ni2082  1  0.40213500  0.29801217  0.30743869  1.0
  Ni  Ni2083  1  0.40213500  0.63134550  0.30743869  1.0
  Ni  Ni2084  1  0.40213500  0.96467883  0.30743869  1.0
  Ni  Ni2085  1  0.73546833  0.29801217  0.30743869  1.0
  Ni  Ni2086  1  0.73546833  0.63134550  0.30743869  1.0
  Ni  Ni2087  1  0.73546833  0.96467883  0.30743869  1.0
  Ni  Ni2088  1  0.23607400  0.30086367  0.48255306  1.0
  Ni  Ni2089  1  0.23607400  0.63419700  0.48255306  1.0
  Ni  Ni2090  1  0.23607400  0.96753033  0.48255306  1.0
  Ni  Ni2091  1  0.56940733  0.30086367  0.48255306  1.0
  Ni  Ni2092  1  0.56940733  0.63419700  0.48255306  1.0
  Ni  Ni2093  1  0.56940733  0.96753033  0.48255306  1.0
  Ni  Ni2094  1  0.90274067  0.30086367  0.48255306  1.0
  Ni  Ni2095  1  0.90274067  0.63419700  0.48255306  1.0
  Ni  Ni2096  1  0.90274067  0.96753033  0.48255306  1.0
  Ni  Ni2097  1  0.23607400  0.13419700  0.35755306  1.0
  Ni  Ni2098  1  0.23607400  0.46753033  0.35755306  1.0
  Ni  Ni2099  1  0.23607400  0.80086367  0.35755306  1.0
  Ni  Ni2100  1  0.56940733  0.13419700  0.35755306  1.0
  Ni  Ni2101  1  0.56940733  0.46753033  0.35755306  1.0
  Ni  Ni2102  1  0.56940733  0.80086367  0.35755306  1.0
  Ni  Ni2103  1  0.90274067  0.13419700  0.35755306  1.0
  Ni  Ni2104  1  0.90274067  0.46753033  0.35755306  1.0
  Ni  Ni2105  1  0.90274067  0.80086367  0.35755306  1.0
  Ni  Ni2106  1  0.33081267  0.21632350  0.49351344  1.0
  Ni  Ni2107  1  0.33081267  0.54965683  0.49351344  1.0
  Ni  Ni2108  1  0.33081267  0.88299017  0.49351344  1.0
  Ni  Ni2109  1  0.66414600  0.21632350  0.49351344  1.0
  Ni  Ni2110  1  0.66414600  0.54965683  0.49351344  1.0
  Ni  Ni2111  1  0.66414600  0.88299017  0.49351344  1.0
  Ni  Ni2112  1  0.99747933  0.21632350  0.49351344  1.0
  Ni  Ni2113  1  0.99747933  0.54965683  0.49351344  1.0
  Ni  Ni2114  1  0.99747933  0.88299017  0.49351344  1.0
  Ni  Ni2115  1  0.33081267  0.04965683  0.36851344  1.0
  Ni  Ni2116  1  0.33081267  0.38299017  0.36851344  1.0
  Ni  Ni2117  1  0.33081267  0.71632350  0.36851344  1.0
  Ni  Ni2118  1  0.66414600  0.04965683  0.36851344  1.0
  Ni  Ni2119  1  0.66414600  0.38299017  0.36851344  1.0
  Ni  Ni2120  1  0.66414600  0.71632350  0.36851344  1.0
  Ni  Ni2121  1  0.99747933  0.04965683  0.36851344  1.0
  Ni  Ni2122  1  0.99747933  0.38299017  0.36851344  1.0
  Ni  Ni2123  1  0.99747933  0.71632350  0.36851344  1.0
  Ni  Ni2124  1  0.09786500  0.03348050  0.43212294  1.0
  Ni  Ni2125  1  0.09786500  0.36681383  0.43212294  1.0
  Ni  Ni2126  1  0.09786500  0.70014717  0.43212294  1.0
  Ni  Ni2127  1  0.43119833  0.03348050  0.43212294  1.0
  Ni  Ni2128  1  0.43119833  0.36681383  0.43212294  1.0
  Ni  Ni2129  1  0.43119833  0.70014717  0.43212294  1.0
  Ni  Ni2130  1  0.76453167  0.03348050  0.43212294  1.0
  Ni  Ni2131  1  0.76453167  0.36681383  0.43212294  1.0
  Ni  Ni2132  1  0.76453167  0.70014717  0.43212294  1.0
  Ni  Ni2133  1  0.09786500  0.20014717  0.30712294  1.0
  Ni  Ni2134  1  0.09786500  0.53348050  0.30712294  1.0
  Ni  Ni2135  1  0.09786500  0.86681383  0.30712294  1.0
  Ni  Ni2136  1  0.43119833  0.20014717  0.30712294  1.0
  Ni  Ni2137  1  0.43119833  0.53348050  0.30712294  1.0
  Ni  Ni2138  1  0.43119833  0.86681383  0.30712294  1.0
  Ni  Ni2139  1  0.76453167  0.20014717  0.30712294  1.0
  Ni  Ni2140  1  0.76453167  0.53348050  0.30712294  1.0
  Ni  Ni2141  1  0.76453167  0.86681383  0.30712294  1.0
  Ni  Ni2142  1  0.29828900  0.28525850  0.28058869  1.0
  Ni  Ni2143  1  0.29828900  0.61859183  0.28058869  1.0
  Ni  Ni2144  1  0.29828900  0.95192517  0.28058869  1.0
  Ni  Ni2145  1  0.63162233  0.28525850  0.28058869  1.0
  Ni  Ni2146  1  0.63162233  0.61859183  0.28058869  1.0
  Ni  Ni2147  1  0.63162233  0.95192517  0.28058869  1.0
  Ni  Ni2148  1  0.96495567  0.28525850  0.28058869  1.0
  Ni  Ni2149  1  0.96495567  0.61859183  0.28058869  1.0
  Ni  Ni2150  1  0.96495567  0.95192517  0.28058869  1.0
  Ni  Ni2151  1  0.29828900  0.11859183  0.40558869  1.0
  Ni  Ni2152  1  0.29828900  0.45192517  0.40558869  1.0
  Ni  Ni2153  1  0.29828900  0.78525850  0.40558869  1.0
  Ni  Ni2154  1  0.63162233  0.11859183  0.40558869  1.0
  Ni  Ni2155  1  0.63162233  0.45192517  0.40558869  1.0
  Ni  Ni2156  1  0.63162233  0.78525850  0.40558869  1.0
  Ni  Ni2157  1  0.96495567  0.11859183  0.40558869  1.0
  Ni  Ni2158  1  0.96495567  0.45192517  0.40558869  1.0
  Ni  Ni2159  1  0.96495567  0.78525850  0.40558869  1.0
  Ni  Ni2160  1  0.16441400  0.03560950  0.25329844  1.0
  Ni  Ni2161  1  0.16441400  0.36894283  0.25329844  1.0
  Ni  Ni2162  1  0.16441400  0.70227617  0.25329844  1.0
  Ni  Ni2163  1  0.49774733  0.03560950  0.25329844  1.0
  Ni  Ni2164  1  0.49774733  0.36894283  0.25329844  1.0
  Ni  Ni2165  1  0.49774733  0.70227617  0.25329844  1.0
  Ni  Ni2166  1  0.83108067  0.03560950  0.25329844  1.0
  Ni  Ni2167  1  0.83108067  0.36894283  0.25329844  1.0
  Ni  Ni2168  1  0.83108067  0.70227617  0.25329844  1.0
  Ni  Ni2169  1  0.16441400  0.20227617  0.37829844  1.0
  Ni  Ni2170  1  0.16441400  0.53560950  0.37829844  1.0
  Ni  Ni2171  1  0.16441400  0.86894283  0.37829844  1.0
  Ni  Ni2172  1  0.49774733  0.20227617  0.37829844  1.0
  Ni  Ni2173  1  0.49774733  0.53560950  0.37829844  1.0
  Ni  Ni2174  1  0.49774733  0.86894283  0.37829844  1.0
  Ni  Ni2175  1  0.83108067  0.20227617  0.37829844  1.0
  Ni  Ni2176  1  0.83108067  0.53560950  0.37829844  1.0
  Ni  Ni2177  1  0.83108067  0.86894283  0.37829844  1.0
  Ni  Ni2178  1  0.16891933  0.29772383  0.48488269  1.0
  Ni  Ni2179  1  0.16891933  0.63105717  0.48488269  1.0
  Ni  Ni2180  1  0.16891933  0.96439050  0.48488269  1.0
  Ni  Ni2181  1  0.50225267  0.29772383  0.48488269  1.0
  Ni  Ni2182  1  0.50225267  0.63105717  0.48488269  1.0
  Ni  Ni2183  1  0.50225267  0.96439050  0.48488269  1.0
  Ni  Ni2184  1  0.83558600  0.29772383  0.48488269  1.0
  Ni  Ni2185  1  0.83558600  0.63105717  0.48488269  1.0
  Ni  Ni2186  1  0.83558600  0.96439050  0.48488269  1.0
  Ni  Ni2187  1  0.16891933  0.13105717  0.35988269  1.0
  Ni  Ni2188  1  0.16891933  0.46439050  0.35988269  1.0
  Ni  Ni2189  1  0.16891933  0.79772383  0.35988269  1.0
  Ni  Ni2190  1  0.50225267  0.13105717  0.35988269  1.0
  Ni  Ni2191  1  0.50225267  0.46439050  0.35988269  1.0
  Ni  Ni2192  1  0.50225267  0.79772383  0.35988269  1.0
  Ni  Ni2193  1  0.83558600  0.13105717  0.35988269  1.0
  Ni  Ni2194  1  0.83558600  0.46439050  0.35988269  1.0
  Ni  Ni2195  1  0.83558600  0.79772383  0.35988269  1.0
  Ni  Ni2196  1  0.06880167  0.04801217  0.29622419  1.0
  Ni  Ni2197  1  0.06880167  0.38134550  0.29622419  1.0
  Ni  Ni2198  1  0.06880167  0.71467883  0.29622419  1.0
  Ni  Ni2199  1  0.40213500  0.04801217  0.29622419  1.0
  Ni  Ni2200  1  0.40213500  0.38134550  0.29622419  1.0
  Ni  Ni2201  1  0.40213500  0.71467883  0.29622419  1.0
  Ni  Ni2202  1  0.73546833  0.04801217  0.29622419  1.0
  Ni  Ni2203  1  0.73546833  0.38134550  0.29622419  1.0
  Ni  Ni2204  1  0.73546833  0.71467883  0.29622419  1.0
  Ni  Ni2205  1  0.06880167  0.21467883  0.42122419  1.0
  Ni  Ni2206  1  0.06880167  0.54801217  0.42122419  1.0
  Ni  Ni2207  1  0.06880167  0.88134550  0.42122419  1.0
  Ni  Ni2208  1  0.40213500  0.21467883  0.42122419  1.0
  Ni  Ni2209  1  0.40213500  0.54801217  0.42122419  1.0
  Ni  Ni2210  1  0.40213500  0.88134550  0.42122419  1.0
  Ni  Ni2211  1  0.73546833  0.21467883  0.42122419  1.0
  Ni  Ni2212  1  0.73546833  0.54801217  0.42122419  1.0
  Ni  Ni2213  1  0.73546833  0.88134550  0.42122419  1.0
  Ni  Ni2214  1  0.00225267  0.11669017  0.31748794  1.0
  Ni  Ni2215  1  0.00225267  0.45002350  0.31748794  1.0
  Ni  Ni2216  1  0.00225267  0.78335683  0.31748794  1.0
  Ni  Ni2217  1  0.33558600  0.11669017  0.31748794  1.0
  Ni  Ni2218  1  0.33558600  0.45002350  0.31748794  1.0
  Ni  Ni2219  1  0.33558600  0.78335683  0.31748794  1.0
  Ni  Ni2220  1  0.66891933  0.11669017  0.31748794  1.0
  Ni  Ni2221  1  0.66891933  0.45002350  0.31748794  1.0
  Ni  Ni2222  1  0.66891933  0.78335683  0.31748794  1.0
  Ni  Ni2223  1  0.00225267  0.28335683  0.44248794  1.0
  Ni  Ni2224  1  0.00225267  0.61669017  0.44248794  1.0
  Ni  Ni2225  1  0.00225267  0.95002350  0.44248794  1.0
  Ni  Ni2226  1  0.33558600  0.28335683  0.44248794  1.0
  Ni  Ni2227  1  0.33558600  0.61669017  0.44248794  1.0
  Ni  Ni2228  1  0.33558600  0.95002350  0.44248794  1.0
  Ni  Ni2229  1  0.66891933  0.28335683  0.44248794  1.0
  Ni  Ni2230  1  0.66891933  0.61669017  0.44248794  1.0
  Ni  Ni2231  1  0.66891933  0.95002350  0.44248794  1.0
  Ni  Ni2232  1  0.16441400  0.28560950  0.36896844  1.0
  Ni  Ni2233  1  0.16441400  0.61894283  0.36896844  1.0
  Ni  Ni2234  1  0.16441400  0.95227617  0.36896844  1.0
  Ni  Ni2235  1  0.49774733  0.28560950  0.36896844  1.0
  Ni  Ni2236  1  0.49774733  0.61894283  0.36896844  1.0
  Ni  Ni2237  1  0.49774733  0.95227617  0.36896844  1.0
  Ni  Ni2238  1  0.83108067  0.28560950  0.36896844  1.0
  Ni  Ni2239  1  0.83108067  0.61894283  0.36896844  1.0
  Ni  Ni2240  1  0.83108067  0.95227617  0.36896844  1.0
  Ni  Ni2241  1  0.16441400  0.11894283  0.49396844  1.0
  Ni  Ni2242  1  0.16441400  0.45227617  0.49396844  1.0
  Ni  Ni2243  1  0.16441400  0.78560950  0.49396844  1.0
  Ni  Ni2244  1  0.49774733  0.11894283  0.49396844  1.0
  Ni  Ni2245  1  0.49774733  0.45227617  0.49396844  1.0
  Ni  Ni2246  1  0.49774733  0.78560950  0.49396844  1.0
  Ni  Ni2247  1  0.83108067  0.11894283  0.49396844  1.0
  Ni  Ni2248  1  0.83108067  0.45227617  0.49396844  1.0
  Ni  Ni2249  1  0.83108067  0.78560950  0.49396844  1.0
  Ni  Ni2250  1  0.33108067  0.29997650  0.30502319  1.0
  Ni  Ni2251  1  0.33108067  0.63330983  0.30502319  1.0
  Ni  Ni2252  1  0.33108067  0.96664317  0.30502319  1.0
  Ni  Ni2253  1  0.66441400  0.29997650  0.30502319  1.0
  Ni  Ni2254  1  0.66441400  0.63330983  0.30502319  1.0
  Ni  Ni2255  1  0.66441400  0.96664317  0.30502319  1.0
  Ni  Ni2256  1  0.99774733  0.29997650  0.30502319  1.0
  Ni  Ni2257  1  0.99774733  0.63330983  0.30502319  1.0
  Ni  Ni2258  1  0.99774733  0.96664317  0.30502319  1.0
  Ni  Ni2259  1  0.33108067  0.13330983  0.43002319  1.0
  Ni  Ni2260  1  0.33108067  0.46664317  0.43002319  1.0
  Ni  Ni2261  1  0.33108067  0.79997650  0.43002319  1.0
  Ni  Ni2262  1  0.66441400  0.13330983  0.43002319  1.0
  Ni  Ni2263  1  0.66441400  0.46664317  0.43002319  1.0
  Ni  Ni2264  1  0.66441400  0.79997650  0.43002319  1.0
  Ni  Ni2265  1  0.99774733  0.13330983  0.43002319  1.0
  Ni  Ni2266  1  0.99774733  0.46664317  0.43002319  1.0
  Ni  Ni2267  1  0.99774733  0.79997650  0.43002319  1.0
  Ni  Ni2268  1  0.16918733  0.29713617  0.30790394  1.0
  Ni  Ni2269  1  0.16918733  0.63046950  0.30790394  1.0
  Ni  Ni2270  1  0.16918733  0.96380283  0.30790394  1.0
  Ni  Ni2271  1  0.50252067  0.29713617  0.30790394  1.0
  Ni  Ni2272  1  0.50252067  0.63046950  0.30790394  1.0
  Ni  Ni2273  1  0.50252067  0.96380283  0.30790394  1.0
  Ni  Ni2274  1  0.83585400  0.29713617  0.30790394  1.0
  Ni  Ni2275  1  0.83585400  0.63046950  0.30790394  1.0
  Ni  Ni2276  1  0.83585400  0.96380283  0.30790394  1.0
  Ni  Ni2277  1  0.16918733  0.13046950  0.43290394  1.0
  Ni  Ni2278  1  0.16918733  0.46380283  0.43290394  1.0
  Ni  Ni2279  1  0.16918733  0.79713617  0.43290394  1.0
  Ni  Ni2280  1  0.50252067  0.13046950  0.43290394  1.0
  Ni  Ni2281  1  0.50252067  0.46380283  0.43290394  1.0
  Ni  Ni2282  1  0.50252067  0.79713617  0.43290394  1.0
  Ni  Ni2283  1  0.83585400  0.13046950  0.43290394  1.0
  Ni  Ni2284  1  0.83585400  0.46380283  0.43290394  1.0
  Ni  Ni2285  1  0.83585400  0.79713617  0.43290394  1.0
  Ni  Ni2286  1  0.23546833  0.29985283  0.30605819  1.0
  Ni  Ni2287  1  0.23546833  0.63318617  0.30605819  1.0
  Ni  Ni2288  1  0.23546833  0.96651950  0.30605819  1.0
  Ni  Ni2289  1  0.56880167  0.29985283  0.30605819  1.0
  Ni  Ni2290  1  0.56880167  0.63318617  0.30605819  1.0
  Ni  Ni2291  1  0.56880167  0.96651950  0.30605819  1.0
  Ni  Ni2292  1  0.90213500  0.29985283  0.30605819  1.0
  Ni  Ni2293  1  0.90213500  0.63318617  0.30605819  1.0
  Ni  Ni2294  1  0.90213500  0.96651950  0.30605819  1.0
  Ni  Ni2295  1  0.23546833  0.13318617  0.43105819  1.0
  Ni  Ni2296  1  0.23546833  0.46651950  0.43105819  1.0
  Ni  Ni2297  1  0.23546833  0.79985283  0.43105819  1.0
  Ni  Ni2298  1  0.56880167  0.13318617  0.43105819  1.0
  Ni  Ni2299  1  0.56880167  0.46651950  0.43105819  1.0
  Ni  Ni2300  1  0.56880167  0.79985283  0.43105819  1.0
  Ni  Ni2301  1  0.90213500  0.13318617  0.43105819  1.0
  Ni  Ni2302  1  0.90213500  0.46651950  0.43105819  1.0
  Ni  Ni2303  1  0.90213500  0.79985283  0.43105819  1.0
  Ni  Ni2304  1  0.16918733  0.04713617  0.29707294  1.0
  Ni  Ni2305  1  0.16918733  0.38046950  0.29707294  1.0
  Ni  Ni2306  1  0.16918733  0.71380283  0.29707294  1.0
  Ni  Ni2307  1  0.50252067  0.04713617  0.29707294  1.0
  Ni  Ni2308  1  0.50252067  0.38046950  0.29707294  1.0
  Ni  Ni2309  1  0.50252067  0.71380283  0.29707294  1.0
  Ni  Ni2310  1  0.83585400  0.04713617  0.29707294  1.0
  Ni  Ni2311  1  0.83585400  0.38046950  0.29707294  1.0
  Ni  Ni2312  1  0.83585400  0.71380283  0.29707294  1.0
  Ni  Ni2313  1  0.16918733  0.21380283  0.42207294  1.0
  Ni  Ni2314  1  0.16918733  0.54713617  0.42207294  1.0
  Ni  Ni2315  1  0.16918733  0.88046950  0.42207294  1.0
  Ni  Ni2316  1  0.50252067  0.21380283  0.42207294  1.0
  Ni  Ni2317  1  0.50252067  0.54713617  0.42207294  1.0
  Ni  Ni2318  1  0.50252067  0.88046950  0.42207294  1.0
  Ni  Ni2319  1  0.83585400  0.21380283  0.42207294  1.0
  Ni  Ni2320  1  0.83585400  0.54713617  0.42207294  1.0
  Ni  Ni2321  1  0.83585400  0.88046950  0.42207294  1.0
  Ni  Ni2322  1  0.23546833  0.21651950  0.41984369  1.0
  Ni  Ni2323  1  0.23546833  0.54985283  0.41984369  1.0
  Ni  Ni2324  1  0.23546833  0.88318617  0.41984369  1.0
  Ni  Ni2325  1  0.56880167  0.21651950  0.41984369  1.0
  Ni  Ni2326  1  0.56880167  0.54985283  0.41984369  1.0
  Ni  Ni2327  1  0.56880167  0.88318617  0.41984369  1.0
  Ni  Ni2328  1  0.90213500  0.21651950  0.41984369  1.0
  Ni  Ni2329  1  0.90213500  0.54985283  0.41984369  1.0
  Ni  Ni2330  1  0.90213500  0.88318617  0.41984369  1.0
  Ni  Ni2331  1  0.23546833  0.04985283  0.29484369  1.0
  Ni  Ni2332  1  0.23546833  0.38318617  0.29484369  1.0
  Ni  Ni2333  1  0.23546833  0.71651950  0.29484369  1.0
  Ni  Ni2334  1  0.56880167  0.04985283  0.29484369  1.0
  Ni  Ni2335  1  0.56880167  0.38318617  0.29484369  1.0
  Ni  Ni2336  1  0.56880167  0.71651950  0.29484369  1.0
  Ni  Ni2337  1  0.90213500  0.04985283  0.29484369  1.0
  Ni  Ni2338  1  0.90213500  0.38318617  0.29484369  1.0
  Ni  Ni2339  1  0.90213500  0.71651950  0.29484369  1.0
  Ni  Ni2340  1  0.09725933  0.11580300  0.49634856  1.0
  Ni  Ni2341  1  0.09725933  0.44913633  0.49634856  1.0
  Ni  Ni2342  1  0.09725933  0.78246967  0.49634856  1.0
  Ni  Ni2343  1  0.43059267  0.11580300  0.49634856  1.0
  Ni  Ni2344  1  0.43059267  0.44913633  0.49634856  1.0
  Ni  Ni2345  1  0.43059267  0.78246967  0.49634856  1.0
  Ni  Ni2346  1  0.76392600  0.11580300  0.49634856  1.0
  Ni  Ni2347  1  0.76392600  0.44913633  0.49634856  1.0
  Ni  Ni2348  1  0.76392600  0.78246967  0.49634856  1.0
  Ni  Ni2349  1  0.09725933  0.28246967  0.37134856  1.0
  Ni  Ni2350  1  0.09725933  0.61580300  0.37134856  1.0
  Ni  Ni2351  1  0.09725933  0.94913633  0.37134856  1.0
  Ni  Ni2352  1  0.43059267  0.28246967  0.37134856  1.0
  Ni  Ni2353  1  0.43059267  0.61580300  0.37134856  1.0
  Ni  Ni2354  1  0.43059267  0.94913633  0.37134856  1.0
  Ni  Ni2355  1  0.76392600  0.28246967  0.37134856  1.0
  Ni  Ni2356  1  0.76392600  0.61580300  0.37134856  1.0
  Ni  Ni2357  1  0.76392600  0.94913633  0.37134856  1.0
  Ni  Ni2358  1  0.20171100  0.00021417  0.36937194  1.0
  Ni  Ni2359  1  0.20171100  0.33354750  0.36937194  1.0
  Ni  Ni2360  1  0.20171100  0.66688083  0.36937194  1.0
  Ni  Ni2361  1  0.53504433  0.00021417  0.36937194  1.0
  Ni  Ni2362  1  0.53504433  0.33354750  0.36937194  1.0
  Ni  Ni2363  1  0.53504433  0.66688083  0.36937194  1.0
  Ni  Ni2364  1  0.86837767  0.00021417  0.36937194  1.0
  Ni  Ni2365  1  0.86837767  0.33354750  0.36937194  1.0
  Ni  Ni2366  1  0.86837767  0.66688083  0.36937194  1.0
  Ni  Ni2367  1  0.20171100  0.16688083  0.49437194  1.0
  Ni  Ni2368  1  0.20171100  0.50021417  0.49437194  1.0
  Ni  Ni2369  1  0.20171100  0.83354750  0.49437194  1.0
  Ni  Ni2370  1  0.53504433  0.16688083  0.49437194  1.0
  Ni  Ni2371  1  0.53504433  0.50021417  0.49437194  1.0
  Ni  Ni2372  1  0.53504433  0.83354750  0.49437194  1.0
  Ni  Ni2373  1  0.86837767  0.16688083  0.49437194  1.0
  Ni  Ni2374  1  0.86837767  0.50021417  0.49437194  1.0
  Ni  Ni2375  1  0.86837767  0.83354750  0.49437194  1.0
  Ni  Ni2376  1  0.29828900  0.20192517  0.46720469  1.0
  Ni  Ni2377  1  0.29828900  0.53525850  0.46720469  1.0
  Ni  Ni2378  1  0.29828900  0.86859183  0.46720469  1.0
  Ni  Ni2379  1  0.63162233  0.20192517  0.46720469  1.0
  Ni  Ni2380  1  0.63162233  0.53525850  0.46720469  1.0
  Ni  Ni2381  1  0.63162233  0.86859183  0.46720469  1.0
  Ni  Ni2382  1  0.96495567  0.20192517  0.46720469  1.0
  Ni  Ni2383  1  0.96495567  0.53525850  0.46720469  1.0
  Ni  Ni2384  1  0.96495567  0.86859183  0.46720469  1.0
  Ni  Ni2385  1  0.29828900  0.03525850  0.34220469  1.0
  Ni  Ni2386  1  0.29828900  0.36859183  0.34220469  1.0
  Ni  Ni2387  1  0.29828900  0.70192517  0.34220469  1.0
  Ni  Ni2388  1  0.63162233  0.03525850  0.34220469  1.0
  Ni  Ni2389  1  0.63162233  0.36859183  0.34220469  1.0
  Ni  Ni2390  1  0.63162233  0.70192517  0.34220469  1.0
  Ni  Ni2391  1  0.96495567  0.03525850  0.34220469  1.0
  Ni  Ni2392  1  0.96495567  0.36859183  0.34220469  1.0
  Ni  Ni2393  1  0.96495567  0.70192517  0.34220469  1.0
  Ni  Ni2394  1  0.33081267  0.29965683  0.48268244  1.0
  Ni  Ni2395  1  0.33081267  0.63299017  0.48268244  1.0
  Ni  Ni2396  1  0.33081267  0.96632350  0.48268244  1.0
  Ni  Ni2397  1  0.66414600  0.29965683  0.48268244  1.0
  Ni  Ni2398  1  0.66414600  0.63299017  0.48268244  1.0
  Ni  Ni2399  1  0.66414600  0.96632350  0.48268244  1.0
  Ni  Ni2400  1  0.99747933  0.29965683  0.48268244  1.0
  Ni  Ni2401  1  0.99747933  0.63299017  0.48268244  1.0
  Ni  Ni2402  1  0.99747933  0.96632350  0.48268244  1.0
  Ni  Ni2403  1  0.33081267  0.13299017  0.35768244  1.0
  Ni  Ni2404  1  0.33081267  0.46632350  0.35768244  1.0
  Ni  Ni2405  1  0.33081267  0.79965683  0.35768244  1.0
  Ni  Ni2406  1  0.66414600  0.13299017  0.35768244  1.0
  Ni  Ni2407  1  0.66414600  0.46632350  0.35768244  1.0
  Ni  Ni2408  1  0.66414600  0.79965683  0.35768244  1.0
  Ni  Ni2409  1  0.99747933  0.13299017  0.35768244  1.0
  Ni  Ni2410  1  0.99747933  0.46632350  0.35768244  1.0
  Ni  Ni2411  1  0.99747933  0.79965683  0.35768244  1.0
  Ni  Ni2412  1  0.00252067  0.03367650  0.25549869  1.0
  Ni  Ni2413  1  0.00252067  0.36700983  0.25549869  1.0
  Ni  Ni2414  1  0.00252067  0.70034317  0.25549869  1.0
  Ni  Ni2415  1  0.33585400  0.03367650  0.25549869  1.0
  Ni  Ni2416  1  0.33585400  0.36700983  0.25549869  1.0
  Ni  Ni2417  1  0.33585400  0.70034317  0.25549869  1.0
  Ni  Ni2418  1  0.66918733  0.03367650  0.25549869  1.0
  Ni  Ni2419  1  0.66918733  0.36700983  0.25549869  1.0
  Ni  Ni2420  1  0.66918733  0.70034317  0.25549869  1.0
  Ni  Ni2421  1  0.00252067  0.20034317  0.38049869  1.0
  Ni  Ni2422  1  0.00252067  0.53367650  0.38049869  1.0
  Ni  Ni2423  1  0.00252067  0.86700983  0.38049869  1.0
  Ni  Ni2424  1  0.33585400  0.20034317  0.38049869  1.0
  Ni  Ni2425  1  0.33585400  0.53367650  0.38049869  1.0
  Ni  Ni2426  1  0.33585400  0.86700983  0.38049869  1.0
  Ni  Ni2427  1  0.66918733  0.20034317  0.38049869  1.0
  Ni  Ni2428  1  0.66918733  0.53367650  0.38049869  1.0
  Ni  Ni2429  1  0.66918733  0.86700983  0.38049869  1.0
  Ni  Ni2430  1  0.09725933  0.03246967  0.25562806  1.0
  Ni  Ni2431  1  0.09725933  0.36580300  0.25562806  1.0
  Ni  Ni2432  1  0.09725933  0.69913633  0.25562806  1.0
  Ni  Ni2433  1  0.43059267  0.03246967  0.25562806  1.0
  Ni  Ni2434  1  0.43059267  0.36580300  0.25562806  1.0
  Ni  Ni2435  1  0.43059267  0.69913633  0.25562806  1.0
  Ni  Ni2436  1  0.76392600  0.03246967  0.25562806  1.0
  Ni  Ni2437  1  0.76392600  0.36580300  0.25562806  1.0
  Ni  Ni2438  1  0.76392600  0.69913633  0.25562806  1.0
  Ni  Ni2439  1  0.09725933  0.19913633  0.38062806  1.0
  Ni  Ni2440  1  0.09725933  0.53246967  0.38062806  1.0
  Ni  Ni2441  1  0.09725933  0.86580300  0.38062806  1.0
  Ni  Ni2442  1  0.43059267  0.19913633  0.38062806  1.0
  Ni  Ni2443  1  0.43059267  0.53246967  0.38062806  1.0
  Ni  Ni2444  1  0.43059267  0.86580300  0.38062806  1.0
  Ni  Ni2445  1  0.76392600  0.19913633  0.38062806  1.0
  Ni  Ni2446  1  0.76392600  0.53246967  0.38062806  1.0
  Ni  Ni2447  1  0.76392600  0.86580300  0.38062806  1.0
