# generated using pymatgen
data_Zr7Ni10
_symmetry_space_group_name_H-M   'P 1'
_cell_length_a   27.70113300
_cell_length_b   57.47076178
_cell_length_c   38.56151250
_cell_angle_alpha   129.64976467
_cell_angle_beta   90.00000000
_cell_angle_gamma   90.00000000
_symmetry_Int_Tables_number   1
_chemical_formula_structural   Zr7Ni10
_chemical_formula_sum   'Zr504 Ni720'
_cell_volume   47267.90156434
_cell_formula_units_Z   72
loop_
 _symmetry_equiv_pos_site_id
 _symmetry_equiv_pos_as_xyz
  1  'x, y, z'
loop_
 _atom_site_type_symbol
 _atom_site_label
 _atom_site_symmetry_multiplicity
 _atom_site_fract_x
 _atom_site_fract_y
 _atom_site_fract_z
 _atom_site_occupancy
  Zr  Zr0  1  0.00000000  0.13475300  0.11471535  1.0
  Zr  Zr1  1  0.00000000  0.46808633  0.11471535  1.0
  Zr  Zr2  1  0.00000000  0.80141967  0.11471535  1.0
  Zr  Zr3  1  0.33333333  0.13475300  0.11471535  1.0
  Zr  Zr4  1  0.33333333  0.46808633  0.11471535  1.0
  Zr  Zr5  1  0.33333333  0.80141967  0.11471535  1.0
  Zr  Zr6  1  0.66666667  0.13475300  0.11471535  1.0
  Zr  Zr7  1  0.66666667  0.46808633  0.11471535  1.0
  Zr  Zr8  1  0.66666667  0.80141967  0.11471535  1.0
  Zr  Zr9  1  0.00000000  0.30141967  0.01471535  1.0
  Zr  Zr10  1  0.00000000  0.63475300  0.01471535  1.0
  Zr  Zr11  1  0.00000000  0.96808633  0.01471535  1.0
  Zr  Zr12  1  0.33333333  0.30141967  0.01471535  1.0
  Zr  Zr13  1  0.33333333  0.63475300  0.01471535  1.0
  Zr  Zr14  1  0.33333333  0.96808633  0.01471535  1.0
  Zr  Zr15  1  0.66666667  0.30141967  0.01471535  1.0
  Zr  Zr16  1  0.66666667  0.63475300  0.01471535  1.0
  Zr  Zr17  1  0.66666667  0.96808633  0.01471535  1.0
  Zr  Zr18  1  0.16666667  0.05141967  0.16471535  1.0
  Zr  Zr19  1  0.16666667  0.38475300  0.16471535  1.0
  Zr  Zr20  1  0.16666667  0.71808633  0.16471535  1.0
  Zr  Zr21  1  0.50000000  0.05141967  0.16471535  1.0
  Zr  Zr22  1  0.50000000  0.38475300  0.16471535  1.0
  Zr  Zr23  1  0.50000000  0.71808633  0.16471535  1.0
  Zr  Zr24  1  0.83333333  0.05141967  0.16471535  1.0
  Zr  Zr25  1  0.83333333  0.38475300  0.16471535  1.0
  Zr  Zr26  1  0.83333333  0.71808633  0.16471535  1.0
  Zr  Zr27  1  0.16666667  0.21808633  0.06471535  1.0
  Zr  Zr28  1  0.16666667  0.55141967  0.06471535  1.0
  Zr  Zr29  1  0.16666667  0.88475300  0.06471535  1.0
  Zr  Zr30  1  0.50000000  0.21808633  0.06471535  1.0
  Zr  Zr31  1  0.50000000  0.55141967  0.06471535  1.0
  Zr  Zr32  1  0.50000000  0.88475300  0.06471535  1.0
  Zr  Zr33  1  0.83333333  0.21808633  0.06471535  1.0
  Zr  Zr34  1  0.83333333  0.55141967  0.06471535  1.0
  Zr  Zr35  1  0.83333333  0.88475300  0.06471535  1.0
  Zr  Zr36  1  0.10415100  0.11458933  0.00182795  1.0
  Zr  Zr37  1  0.10415100  0.44792267  0.00182795  1.0
  Zr  Zr38  1  0.10415100  0.78125600  0.00182795  1.0
  Zr  Zr39  1  0.43748433  0.11458933  0.00182795  1.0
  Zr  Zr40  1  0.43748433  0.44792267  0.00182795  1.0
  Zr  Zr41  1  0.43748433  0.78125600  0.00182795  1.0
  Zr  Zr42  1  0.77081767  0.11458933  0.00182795  1.0
  Zr  Zr43  1  0.77081767  0.44792267  0.00182795  1.0
  Zr  Zr44  1  0.77081767  0.78125600  0.00182795  1.0
  Zr  Zr45  1  0.10415100  0.28125600  0.10182795  1.0
  Zr  Zr46  1  0.10415100  0.61458933  0.10182795  1.0
  Zr  Zr47  1  0.10415100  0.94792267  0.10182795  1.0
  Zr  Zr48  1  0.43748433  0.28125600  0.10182795  1.0
  Zr  Zr49  1  0.43748433  0.61458933  0.10182795  1.0
  Zr  Zr50  1  0.43748433  0.94792267  0.10182795  1.0
  Zr  Zr51  1  0.77081767  0.28125600  0.10182795  1.0
  Zr  Zr52  1  0.77081767  0.61458933  0.10182795  1.0
  Zr  Zr53  1  0.77081767  0.94792267  0.10182795  1.0
  Zr  Zr54  1  0.22918233  0.05207733  0.08930635  1.0
  Zr  Zr55  1  0.22918233  0.38541067  0.08930635  1.0
  Zr  Zr56  1  0.22918233  0.71874400  0.08930635  1.0
  Zr  Zr57  1  0.56251567  0.05207733  0.08930635  1.0
  Zr  Zr58  1  0.56251567  0.38541067  0.08930635  1.0
  Zr  Zr59  1  0.56251567  0.71874400  0.08930635  1.0
  Zr  Zr60  1  0.89584900  0.05207733  0.08930635  1.0
  Zr  Zr61  1  0.89584900  0.38541067  0.08930635  1.0
  Zr  Zr62  1  0.89584900  0.71874400  0.08930635  1.0
  Zr  Zr63  1  0.22918233  0.21874400  0.18930635  1.0
  Zr  Zr64  1  0.22918233  0.55207733  0.18930635  1.0
  Zr  Zr65  1  0.22918233  0.88541067  0.18930635  1.0
  Zr  Zr66  1  0.56251567  0.21874400  0.18930635  1.0
  Zr  Zr67  1  0.56251567  0.55207733  0.18930635  1.0
  Zr  Zr68  1  0.56251567  0.88541067  0.18930635  1.0
  Zr  Zr69  1  0.89584900  0.21874400  0.18930635  1.0
  Zr  Zr70  1  0.89584900  0.55207733  0.18930635  1.0
  Zr  Zr71  1  0.89584900  0.88541067  0.18930635  1.0
  Zr  Zr72  1  0.00000000  0.03191367  0.17641895  1.0
  Zr  Zr73  1  0.00000000  0.36524700  0.17641895  1.0
  Zr  Zr74  1  0.00000000  0.69858033  0.17641895  1.0
  Zr  Zr75  1  0.33333333  0.03191367  0.17641895  1.0
  Zr  Zr76  1  0.33333333  0.36524700  0.17641895  1.0
  Zr  Zr77  1  0.33333333  0.69858033  0.17641895  1.0
  Zr  Zr78  1  0.66666667  0.03191367  0.17641895  1.0
  Zr  Zr79  1  0.66666667  0.36524700  0.17641895  1.0
  Zr  Zr80  1  0.66666667  0.69858033  0.17641895  1.0
  Zr  Zr81  1  0.00000000  0.19858033  0.07641895  1.0
  Zr  Zr82  1  0.00000000  0.53191367  0.07641895  1.0
  Zr  Zr83  1  0.00000000  0.86524700  0.07641895  1.0
  Zr  Zr84  1  0.33333333  0.19858033  0.07641895  1.0
  Zr  Zr85  1  0.33333333  0.53191367  0.07641895  1.0
  Zr  Zr86  1  0.33333333  0.86524700  0.07641895  1.0
  Zr  Zr87  1  0.66666667  0.19858033  0.07641895  1.0
  Zr  Zr88  1  0.66666667  0.53191367  0.07641895  1.0
  Zr  Zr89  1  0.66666667  0.86524700  0.07641895  1.0
  Zr  Zr90  1  0.08333333  0.16639183  0.19507245  1.0
  Zr  Zr91  1  0.08333333  0.49972517  0.19507245  1.0
  Zr  Zr92  1  0.08333333  0.83305850  0.19507245  1.0
  Zr  Zr93  1  0.41666667  0.16639183  0.19507245  1.0
  Zr  Zr94  1  0.41666667  0.49972517  0.19507245  1.0
  Zr  Zr95  1  0.41666667  0.83305850  0.19507245  1.0
  Zr  Zr96  1  0.75000000  0.16639183  0.19507245  1.0
  Zr  Zr97  1  0.75000000  0.49972517  0.19507245  1.0
  Zr  Zr98  1  0.75000000  0.83305850  0.19507245  1.0
  Zr  Zr99  1  0.08333333  0.33305850  0.09507245  1.0
  Zr  Zr100  1  0.08333333  0.66639183  0.09507245  1.0
  Zr  Zr101  1  0.08333333  0.99972517  0.09507245  1.0
  Zr  Zr102  1  0.41666667  0.33305850  0.09507245  1.0
  Zr  Zr103  1  0.41666667  0.66639183  0.09507245  1.0
  Zr  Zr104  1  0.41666667  0.99972517  0.09507245  1.0
  Zr  Zr105  1  0.75000000  0.33305850  0.09507245  1.0
  Zr  Zr106  1  0.75000000  0.66639183  0.09507245  1.0
  Zr  Zr107  1  0.75000000  0.99972517  0.09507245  1.0
  Zr  Zr108  1  0.25000000  0.00027483  0.09606185  1.0
  Zr  Zr109  1  0.25000000  0.33360817  0.09606185  1.0
  Zr  Zr110  1  0.25000000  0.66694150  0.09606185  1.0
  Zr  Zr111  1  0.58333333  0.00027483  0.09606185  1.0
  Zr  Zr112  1  0.58333333  0.33360817  0.09606185  1.0
  Zr  Zr113  1  0.58333333  0.66694150  0.09606185  1.0
  Zr  Zr114  1  0.91666667  0.00027483  0.09606185  1.0
  Zr  Zr115  1  0.91666667  0.33360817  0.09606185  1.0
  Zr  Zr116  1  0.91666667  0.66694150  0.09606185  1.0
  Zr  Zr117  1  0.25000000  0.16694150  0.19606185  1.0
  Zr  Zr118  1  0.25000000  0.50027483  0.19606185  1.0
  Zr  Zr119  1  0.25000000  0.83360817  0.19606185  1.0
  Zr  Zr120  1  0.58333333  0.16694150  0.19606185  1.0
  Zr  Zr121  1  0.58333333  0.50027483  0.19606185  1.0
  Zr  Zr122  1  0.58333333  0.83360817  0.19606185  1.0
  Zr  Zr123  1  0.91666667  0.16694150  0.19606185  1.0
  Zr  Zr124  1  0.91666667  0.50027483  0.19606185  1.0
  Zr  Zr125  1  0.91666667  0.83360817  0.19606185  1.0
  Zr  Zr126  1  0.06251567  0.03125600  0.05182795  1.0
  Zr  Zr127  1  0.06251567  0.36458933  0.05182795  1.0
  Zr  Zr128  1  0.06251567  0.69792267  0.05182795  1.0
  Zr  Zr129  1  0.39584900  0.03125600  0.05182795  1.0
  Zr  Zr130  1  0.39584900  0.36458933  0.05182795  1.0
  Zr  Zr131  1  0.39584900  0.69792267  0.05182795  1.0
  Zr  Zr132  1  0.72918233  0.03125600  0.05182795  1.0
  Zr  Zr133  1  0.72918233  0.36458933  0.05182795  1.0
  Zr  Zr134  1  0.72918233  0.69792267  0.05182795  1.0
  Zr  Zr135  1  0.06251567  0.19792267  0.15182795  1.0
  Zr  Zr136  1  0.06251567  0.53125600  0.15182795  1.0
  Zr  Zr137  1  0.06251567  0.86458933  0.15182795  1.0
  Zr  Zr138  1  0.39584900  0.19792267  0.15182795  1.0
  Zr  Zr139  1  0.39584900  0.53125600  0.15182795  1.0
  Zr  Zr140  1  0.39584900  0.86458933  0.15182795  1.0
  Zr  Zr141  1  0.72918233  0.19792267  0.15182795  1.0
  Zr  Zr142  1  0.72918233  0.53125600  0.15182795  1.0
  Zr  Zr143  1  0.72918233  0.86458933  0.15182795  1.0
  Zr  Zr144  1  0.00000000  0.08333333  0.14556715  1.0
  Zr  Zr145  1  0.00000000  0.41666667  0.14556715  1.0
  Zr  Zr146  1  0.00000000  0.75000000  0.14556715  1.0
  Zr  Zr147  1  0.33333333  0.08333333  0.14556715  1.0
  Zr  Zr148  1  0.33333333  0.41666667  0.14556715  1.0
  Zr  Zr149  1  0.33333333  0.75000000  0.14556715  1.0
  Zr  Zr150  1  0.66666667  0.08333333  0.14556715  1.0
  Zr  Zr151  1  0.66666667  0.41666667  0.14556715  1.0
  Zr  Zr152  1  0.66666667  0.75000000  0.14556715  1.0
  Zr  Zr153  1  0.00000000  0.25000000  0.04556715  1.0
  Zr  Zr154  1  0.00000000  0.58333333  0.04556715  1.0
  Zr  Zr155  1  0.00000000  0.91666667  0.04556715  1.0
  Zr  Zr156  1  0.33333333  0.25000000  0.04556715  1.0
  Zr  Zr157  1  0.33333333  0.58333333  0.04556715  1.0
  Zr  Zr158  1  0.33333333  0.91666667  0.04556715  1.0
  Zr  Zr159  1  0.66666667  0.25000000  0.04556715  1.0
  Zr  Zr160  1  0.66666667  0.58333333  0.04556715  1.0
  Zr  Zr161  1  0.66666667  0.91666667  0.04556715  1.0
  Zr  Zr162  1  0.25000000  0.08360817  0.04606185  1.0
  Zr  Zr163  1  0.25000000  0.41694150  0.04606185  1.0
  Zr  Zr164  1  0.25000000  0.75027483  0.04606185  1.0
  Zr  Zr165  1  0.58333333  0.08360817  0.04606185  1.0
  Zr  Zr166  1  0.58333333  0.41694150  0.04606185  1.0
  Zr  Zr167  1  0.58333333  0.75027483  0.04606185  1.0
  Zr  Zr168  1  0.91666667  0.08360817  0.04606185  1.0
  Zr  Zr169  1  0.91666667  0.41694150  0.04606185  1.0
  Zr  Zr170  1  0.91666667  0.75027483  0.04606185  1.0
  Zr  Zr171  1  0.25000000  0.25027483  0.14606185  1.0
  Zr  Zr172  1  0.25000000  0.58360817  0.14606185  1.0
  Zr  Zr173  1  0.25000000  0.91694150  0.14606185  1.0
  Zr  Zr174  1  0.58333333  0.25027483  0.14606185  1.0
  Zr  Zr175  1  0.58333333  0.58360817  0.14606185  1.0
  Zr  Zr176  1  0.58333333  0.91694150  0.14606185  1.0
  Zr  Zr177  1  0.91666667  0.25027483  0.14606185  1.0
  Zr  Zr178  1  0.91666667  0.58360817  0.14606185  1.0
  Zr  Zr179  1  0.91666667  0.91694150  0.14606185  1.0
  Zr  Zr180  1  0.16666667  0.11524700  0.12641895  1.0
  Zr  Zr181  1  0.16666667  0.44858033  0.12641895  1.0
  Zr  Zr182  1  0.16666667  0.78191367  0.12641895  1.0
  Zr  Zr183  1  0.50000000  0.11524700  0.12641895  1.0
  Zr  Zr184  1  0.50000000  0.44858033  0.12641895  1.0
  Zr  Zr185  1  0.50000000  0.78191367  0.12641895  1.0
  Zr  Zr186  1  0.83333333  0.11524700  0.12641895  1.0
  Zr  Zr187  1  0.83333333  0.44858033  0.12641895  1.0
  Zr  Zr188  1  0.83333333  0.78191367  0.12641895  1.0
  Zr  Zr189  1  0.16666667  0.28191367  0.02641895  1.0
  Zr  Zr190  1  0.16666667  0.61524700  0.02641895  1.0
  Zr  Zr191  1  0.16666667  0.94858033  0.02641895  1.0
  Zr  Zr192  1  0.50000000  0.28191367  0.02641895  1.0
  Zr  Zr193  1  0.50000000  0.61524700  0.02641895  1.0
  Zr  Zr194  1  0.50000000  0.94858033  0.02641895  1.0
  Zr  Zr195  1  0.83333333  0.28191367  0.02641895  1.0
  Zr  Zr196  1  0.83333333  0.61524700  0.02641895  1.0
  Zr  Zr197  1  0.83333333  0.94858033  0.02641895  1.0
  Zr  Zr198  1  0.08333333  0.08305850  0.04507245  1.0
  Zr  Zr199  1  0.08333333  0.41639183  0.04507245  1.0
  Zr  Zr200  1  0.08333333  0.74972517  0.04507245  1.0
  Zr  Zr201  1  0.41666667  0.08305850  0.04507245  1.0
  Zr  Zr202  1  0.41666667  0.41639183  0.04507245  1.0
  Zr  Zr203  1  0.41666667  0.74972517  0.04507245  1.0
  Zr  Zr204  1  0.75000000  0.08305850  0.04507245  1.0
  Zr  Zr205  1  0.75000000  0.41639183  0.04507245  1.0
  Zr  Zr206  1  0.75000000  0.74972517  0.04507245  1.0
  Zr  Zr207  1  0.08333333  0.24972517  0.14507245  1.0
  Zr  Zr208  1  0.08333333  0.58305850  0.14507245  1.0
  Zr  Zr209  1  0.08333333  0.91639183  0.14507245  1.0
  Zr  Zr210  1  0.41666667  0.24972517  0.14507245  1.0
  Zr  Zr211  1  0.41666667  0.58305850  0.14507245  1.0
  Zr  Zr212  1  0.41666667  0.91639183  0.14507245  1.0
  Zr  Zr213  1  0.75000000  0.24972517  0.14507245  1.0
  Zr  Zr214  1  0.75000000  0.58305850  0.14507245  1.0
  Zr  Zr215  1  0.75000000  0.91639183  0.14507245  1.0
  Zr  Zr216  1  0.27081767  0.13541067  0.03930635  1.0
  Zr  Zr217  1  0.27081767  0.46874400  0.03930635  1.0
  Zr  Zr218  1  0.27081767  0.80207733  0.03930635  1.0
  Zr  Zr219  1  0.60415100  0.13541067  0.03930635  1.0
  Zr  Zr220  1  0.60415100  0.46874400  0.03930635  1.0
  Zr  Zr221  1  0.60415100  0.80207733  0.03930635  1.0
  Zr  Zr222  1  0.93748433  0.13541067  0.03930635  1.0
  Zr  Zr223  1  0.93748433  0.46874400  0.03930635  1.0
  Zr  Zr224  1  0.93748433  0.80207733  0.03930635  1.0
  Zr  Zr225  1  0.27081767  0.30207733  0.13930635  1.0
  Zr  Zr226  1  0.27081767  0.63541067  0.13930635  1.0
  Zr  Zr227  1  0.27081767  0.96874400  0.13930635  1.0
  Zr  Zr228  1  0.60415100  0.30207733  0.13930635  1.0
  Zr  Zr229  1  0.60415100  0.63541067  0.13930635  1.0
  Zr  Zr230  1  0.60415100  0.96874400  0.13930635  1.0
  Zr  Zr231  1  0.93748433  0.30207733  0.13930635  1.0
  Zr  Zr232  1  0.93748433  0.63541067  0.13930635  1.0
  Zr  Zr233  1  0.93748433  0.96874400  0.13930635  1.0
  Zr  Zr234  1  0.16666667  0.16666667  0.09556715  1.0
  Zr  Zr235  1  0.16666667  0.50000000  0.09556715  1.0
  Zr  Zr236  1  0.16666667  0.83333333  0.09556715  1.0
  Zr  Zr237  1  0.50000000  0.16666667  0.09556715  1.0
  Zr  Zr238  1  0.50000000  0.50000000  0.09556715  1.0
  Zr  Zr239  1  0.50000000  0.83333333  0.09556715  1.0
  Zr  Zr240  1  0.83333333  0.16666667  0.09556715  1.0
  Zr  Zr241  1  0.83333333  0.50000000  0.09556715  1.0
  Zr  Zr242  1  0.83333333  0.83333333  0.09556715  1.0
  Zr  Zr243  1  0.16666667  0.00000000  0.19556715  1.0
  Zr  Zr244  1  0.16666667  0.33333333  0.19556715  1.0
  Zr  Zr245  1  0.16666667  0.66666667  0.19556715  1.0
  Zr  Zr246  1  0.50000000  0.00000000  0.19556715  1.0
  Zr  Zr247  1  0.50000000  0.33333333  0.19556715  1.0
  Zr  Zr248  1  0.50000000  0.66666667  0.19556715  1.0
  Zr  Zr249  1  0.83333333  0.00000000  0.19556715  1.0
  Zr  Zr250  1  0.83333333  0.33333333  0.19556715  1.0
  Zr  Zr251  1  0.83333333  0.66666667  0.19556715  1.0
  Ni  Ni252  1  0.29814133  0.01765717  0.02735005  1.0
  Ni  Ni253  1  0.29814133  0.35099050  0.02735005  1.0
  Ni  Ni254  1  0.29814133  0.68432383  0.02735005  1.0
  Ni  Ni255  1  0.63147467  0.01765717  0.02735005  1.0
  Ni  Ni256  1  0.63147467  0.35099050  0.02735005  1.0
  Ni  Ni257  1  0.63147467  0.68432383  0.02735005  1.0
  Ni  Ni258  1  0.96480800  0.01765717  0.02735005  1.0
  Ni  Ni259  1  0.96480800  0.35099050  0.02735005  1.0
  Ni  Ni260  1  0.96480800  0.68432383  0.02735005  1.0
  Ni  Ni261  1  0.29814133  0.18432383  0.12735005  1.0
  Ni  Ni262  1  0.29814133  0.51765717  0.12735005  1.0
  Ni  Ni263  1  0.29814133  0.85099050  0.12735005  1.0
  Ni  Ni264  1  0.63147467  0.18432383  0.12735005  1.0
  Ni  Ni265  1  0.63147467  0.51765717  0.12735005  1.0
  Ni  Ni266  1  0.63147467  0.85099050  0.12735005  1.0
  Ni  Ni267  1  0.96480800  0.18432383  0.12735005  1.0
  Ni  Ni268  1  0.96480800  0.51765717  0.12735005  1.0
  Ni  Ni269  1  0.96480800  0.85099050  0.12735005  1.0
  Ni  Ni270  1  0.26429133  0.05995400  0.16199895  1.0
  Ni  Ni271  1  0.26429133  0.39328733  0.16199895  1.0
  Ni  Ni272  1  0.26429133  0.72662067  0.16199895  1.0
  Ni  Ni273  1  0.59762467  0.05995400  0.16199895  1.0
  Ni  Ni274  1  0.59762467  0.39328733  0.16199895  1.0
  Ni  Ni275  1  0.59762467  0.72662067  0.16199895  1.0
  Ni  Ni276  1  0.93095800  0.05995400  0.16199895  1.0
  Ni  Ni277  1  0.93095800  0.39328733  0.16199895  1.0
  Ni  Ni278  1  0.93095800  0.72662067  0.16199895  1.0
  Ni  Ni279  1  0.26429133  0.22662067  0.06199895  1.0
  Ni  Ni280  1  0.26429133  0.55995400  0.06199895  1.0
  Ni  Ni281  1  0.26429133  0.89328733  0.06199895  1.0
  Ni  Ni282  1  0.59762467  0.22662067  0.06199895  1.0
  Ni  Ni283  1  0.59762467  0.55995400  0.06199895  1.0
  Ni  Ni284  1  0.59762467  0.89328733  0.06199895  1.0
  Ni  Ni285  1  0.93095800  0.22662067  0.06199895  1.0
  Ni  Ni286  1  0.93095800  0.55995400  0.06199895  1.0
  Ni  Ni287  1  0.93095800  0.89328733  0.06199895  1.0
  Ni  Ni288  1  0.16889500  0.15642567  0.01921075  1.0
  Ni  Ni289  1  0.16889500  0.48975900  0.01921075  1.0
  Ni  Ni290  1  0.16889500  0.82309233  0.01921075  1.0
  Ni  Ni291  1  0.50222833  0.15642567  0.01921075  1.0
  Ni  Ni292  1  0.50222833  0.48975900  0.01921075  1.0
  Ni  Ni293  1  0.50222833  0.82309233  0.01921075  1.0
  Ni  Ni294  1  0.83556167  0.15642567  0.01921075  1.0
  Ni  Ni295  1  0.83556167  0.48975900  0.01921075  1.0
  Ni  Ni296  1  0.83556167  0.82309233  0.01921075  1.0
  Ni  Ni297  1  0.16889500  0.32309233  0.11921075  1.0
  Ni  Ni298  1  0.16889500  0.65642567  0.11921075  1.0
  Ni  Ni299  1  0.16889500  0.98975900  0.11921075  1.0
  Ni  Ni300  1  0.50222833  0.32309233  0.11921075  1.0
  Ni  Ni301  1  0.50222833  0.65642567  0.11921075  1.0
  Ni  Ni302  1  0.50222833  0.98975900  0.11921075  1.0
  Ni  Ni303  1  0.83556167  0.32309233  0.11921075  1.0
  Ni  Ni304  1  0.83556167  0.65642567  0.11921075  1.0
  Ni  Ni305  1  0.83556167  0.98975900  0.11921075  1.0
  Ni  Ni306  1  0.06904200  0.05795050  0.15839265  1.0
  Ni  Ni307  1  0.06904200  0.39128383  0.15839265  1.0
  Ni  Ni308  1  0.06904200  0.72461717  0.15839265  1.0
  Ni  Ni309  1  0.40237533  0.05795050  0.15839265  1.0
  Ni  Ni310  1  0.40237533  0.39128383  0.15839265  1.0
  Ni  Ni311  1  0.40237533  0.72461717  0.15839265  1.0
  Ni  Ni312  1  0.73570867  0.05795050  0.15839265  1.0
  Ni  Ni313  1  0.73570867  0.39128383  0.15839265  1.0
  Ni  Ni314  1  0.73570867  0.72461717  0.15839265  1.0
  Ni  Ni315  1  0.06904200  0.22461717  0.05839265  1.0
  Ni  Ni316  1  0.06904200  0.55795050  0.05839265  1.0
  Ni  Ni317  1  0.06904200  0.89128383  0.05839265  1.0
  Ni  Ni318  1  0.40237533  0.22461717  0.05839265  1.0
  Ni  Ni319  1  0.40237533  0.55795050  0.05839265  1.0
  Ni  Ni320  1  0.40237533  0.89128383  0.05839265  1.0
  Ni  Ni321  1  0.73570867  0.22461717  0.05839265  1.0
  Ni  Ni322  1  0.73570867  0.55795050  0.05839265  1.0
  Ni  Ni323  1  0.73570867  0.89128383  0.05839265  1.0
  Ni  Ni324  1  0.23570867  0.02538283  0.18274165  1.0
  Ni  Ni325  1  0.23570867  0.35871617  0.18274165  1.0
  Ni  Ni326  1  0.23570867  0.69204950  0.18274165  1.0
  Ni  Ni327  1  0.56904200  0.02538283  0.18274165  1.0
  Ni  Ni328  1  0.56904200  0.35871617  0.18274165  1.0
  Ni  Ni329  1  0.56904200  0.69204950  0.18274165  1.0
  Ni  Ni330  1  0.90237533  0.02538283  0.18274165  1.0
  Ni  Ni331  1  0.90237533  0.35871617  0.18274165  1.0
  Ni  Ni332  1  0.90237533  0.69204950  0.18274165  1.0
  Ni  Ni333  1  0.23570867  0.19204950  0.08274165  1.0
  Ni  Ni334  1  0.23570867  0.52538283  0.08274165  1.0
  Ni  Ni335  1  0.23570867  0.85871617  0.08274165  1.0
  Ni  Ni336  1  0.56904200  0.19204950  0.08274165  1.0
  Ni  Ni337  1  0.56904200  0.52538283  0.08274165  1.0
  Ni  Ni338  1  0.56904200  0.85871617  0.08274165  1.0
  Ni  Ni339  1  0.90237533  0.19204950  0.08274165  1.0
  Ni  Ni340  1  0.90237533  0.52538283  0.08274165  1.0
  Ni  Ni341  1  0.90237533  0.85871617  0.08274165  1.0
  Ni  Ni342  1  0.23570867  0.14328733  0.11199895  1.0
  Ni  Ni343  1  0.23570867  0.47662067  0.11199895  1.0
  Ni  Ni344  1  0.23570867  0.80995400  0.11199895  1.0
  Ni  Ni345  1  0.56904200  0.14328733  0.11199895  1.0
  Ni  Ni346  1  0.56904200  0.47662067  0.11199895  1.0
  Ni  Ni347  1  0.56904200  0.80995400  0.11199895  1.0
  Ni  Ni348  1  0.90237533  0.14328733  0.11199895  1.0
  Ni  Ni349  1  0.90237533  0.47662067  0.11199895  1.0
  Ni  Ni350  1  0.90237533  0.80995400  0.11199895  1.0
  Ni  Ni351  1  0.23570867  0.30995400  0.01199895  1.0
  Ni  Ni352  1  0.23570867  0.64328733  0.01199895  1.0
  Ni  Ni353  1  0.23570867  0.97662067  0.01199895  1.0
  Ni  Ni354  1  0.56904200  0.30995400  0.01199895  1.0
  Ni  Ni355  1  0.56904200  0.64328733  0.01199895  1.0
  Ni  Ni356  1  0.56904200  0.97662067  0.01199895  1.0
  Ni  Ni357  1  0.90237533  0.30995400  0.01199895  1.0
  Ni  Ni358  1  0.90237533  0.64328733  0.01199895  1.0
  Ni  Ni359  1  0.90237533  0.97662067  0.01199895  1.0
  Ni  Ni360  1  0.13147467  0.06567617  0.11378425  1.0
  Ni  Ni361  1  0.13147467  0.39900950  0.11378425  1.0
  Ni  Ni362  1  0.13147467  0.73234283  0.11378425  1.0
  Ni  Ni363  1  0.46480800  0.06567617  0.11378425  1.0
  Ni  Ni364  1  0.46480800  0.39900950  0.11378425  1.0
  Ni  Ni365  1  0.46480800  0.73234283  0.11378425  1.0
  Ni  Ni366  1  0.79814133  0.06567617  0.11378425  1.0
  Ni  Ni367  1  0.79814133  0.39900950  0.11378425  1.0
  Ni  Ni368  1  0.79814133  0.73234283  0.11378425  1.0
  Ni  Ni369  1  0.13147467  0.23234283  0.01378425  1.0
  Ni  Ni370  1  0.13147467  0.56567617  0.01378425  1.0
  Ni  Ni371  1  0.13147467  0.89900950  0.01378425  1.0
  Ni  Ni372  1  0.46480800  0.23234283  0.01378425  1.0
  Ni  Ni373  1  0.46480800  0.56567617  0.01378425  1.0
  Ni  Ni374  1  0.46480800  0.89900950  0.01378425  1.0
  Ni  Ni375  1  0.79814133  0.23234283  0.01378425  1.0
  Ni  Ni376  1  0.79814133  0.56567617  0.01378425  1.0
  Ni  Ni377  1  0.79814133  0.89900950  0.01378425  1.0
  Ni  Ni378  1  0.00222833  0.09357433  0.02192355  1.0
  Ni  Ni379  1  0.00222833  0.42690767  0.02192355  1.0
  Ni  Ni380  1  0.00222833  0.76024100  0.02192355  1.0
  Ni  Ni381  1  0.33556167  0.09357433  0.02192355  1.0
  Ni  Ni382  1  0.33556167  0.42690767  0.02192355  1.0
  Ni  Ni383  1  0.33556167  0.76024100  0.02192355  1.0
  Ni  Ni384  1  0.66889500  0.09357433  0.02192355  1.0
  Ni  Ni385  1  0.66889500  0.42690767  0.02192355  1.0
  Ni  Ni386  1  0.66889500  0.76024100  0.02192355  1.0
  Ni  Ni387  1  0.00222833  0.26024100  0.12192355  1.0
  Ni  Ni388  1  0.00222833  0.59357433  0.12192355  1.0
  Ni  Ni389  1  0.00222833  0.92690767  0.12192355  1.0
  Ni  Ni390  1  0.33556167  0.26024100  0.12192355  1.0
  Ni  Ni391  1  0.33556167  0.59357433  0.12192355  1.0
  Ni  Ni392  1  0.33556167  0.92690767  0.12192355  1.0
  Ni  Ni393  1  0.66889500  0.26024100  0.12192355  1.0
  Ni  Ni394  1  0.66889500  0.59357433  0.12192355  1.0
  Ni  Ni395  1  0.66889500  0.92690767  0.12192355  1.0
  Ni  Ni396  1  0.06904200  0.10671267  0.12913535  1.0
  Ni  Ni397  1  0.06904200  0.44004600  0.12913535  1.0
  Ni  Ni398  1  0.06904200  0.77337933  0.12913535  1.0
  Ni  Ni399  1  0.40237533  0.10671267  0.12913535  1.0
  Ni  Ni400  1  0.40237533  0.44004600  0.12913535  1.0
  Ni  Ni401  1  0.40237533  0.77337933  0.12913535  1.0
  Ni  Ni402  1  0.73570867  0.10671267  0.12913535  1.0
  Ni  Ni403  1  0.73570867  0.44004600  0.12913535  1.0
  Ni  Ni404  1  0.73570867  0.77337933  0.12913535  1.0
  Ni  Ni405  1  0.06904200  0.27337933  0.02913535  1.0
  Ni  Ni406  1  0.06904200  0.60671267  0.02913535  1.0
  Ni  Ni407  1  0.06904200  0.94004600  0.02913535  1.0
  Ni  Ni408  1  0.40237533  0.27337933  0.02913535  1.0
  Ni  Ni409  1  0.40237533  0.60671267  0.02913535  1.0
  Ni  Ni410  1  0.40237533  0.94004600  0.02913535  1.0
  Ni  Ni411  1  0.73570867  0.27337933  0.02913535  1.0
  Ni  Ni412  1  0.73570867  0.60671267  0.02913535  1.0
  Ni  Ni413  1  0.73570867  0.94004600  0.02913535  1.0
  Ni  Ni414  1  0.09762467  0.14128383  0.10839265  1.0
  Ni  Ni415  1  0.09762467  0.47461717  0.10839265  1.0
  Ni  Ni416  1  0.09762467  0.80795050  0.10839265  1.0
  Ni  Ni417  1  0.43095800  0.14128383  0.10839265  1.0
  Ni  Ni418  1  0.43095800  0.47461717  0.10839265  1.0
  Ni  Ni419  1  0.43095800  0.80795050  0.10839265  1.0
  Ni  Ni420  1  0.76429133  0.14128383  0.10839265  1.0
  Ni  Ni421  1  0.76429133  0.47461717  0.10839265  1.0
  Ni  Ni422  1  0.76429133  0.80795050  0.10839265  1.0
  Ni  Ni423  1  0.09762467  0.30795050  0.00839265  1.0
  Ni  Ni424  1  0.09762467  0.64128383  0.00839265  1.0
  Ni  Ni425  1  0.09762467  0.97461717  0.00839265  1.0
  Ni  Ni426  1  0.43095800  0.30795050  0.00839265  1.0
  Ni  Ni427  1  0.43095800  0.64128383  0.00839265  1.0
  Ni  Ni428  1  0.43095800  0.97461717  0.00839265  1.0
  Ni  Ni429  1  0.76429133  0.30795050  0.00839265  1.0
  Ni  Ni430  1  0.76429133  0.64128383  0.00839265  1.0
  Ni  Ni431  1  0.76429133  0.97461717  0.00839265  1.0
  Ni  Ni432  1  0.00222833  0.14184317  0.19296225  1.0
  Ni  Ni433  1  0.00222833  0.47517650  0.19296225  1.0
  Ni  Ni434  1  0.00222833  0.80850983  0.19296225  1.0
  Ni  Ni435  1  0.33556167  0.14184317  0.19296225  1.0
  Ni  Ni436  1  0.33556167  0.47517650  0.19296225  1.0
  Ni  Ni437  1  0.33556167  0.80850983  0.19296225  1.0
  Ni  Ni438  1  0.66889500  0.14184317  0.19296225  1.0
  Ni  Ni439  1  0.66889500  0.47517650  0.19296225  1.0
  Ni  Ni440  1  0.66889500  0.80850983  0.19296225  1.0
  Ni  Ni441  1  0.00222833  0.30850983  0.09296225  1.0
  Ni  Ni442  1  0.00222833  0.64184317  0.09296225  1.0
  Ni  Ni443  1  0.00222833  0.97517650  0.09296225  1.0
  Ni  Ni444  1  0.33556167  0.30850983  0.09296225  1.0
  Ni  Ni445  1  0.33556167  0.64184317  0.09296225  1.0
  Ni  Ni446  1  0.33556167  0.97517650  0.09296225  1.0
  Ni  Ni447  1  0.66889500  0.30850983  0.09296225  1.0
  Ni  Ni448  1  0.66889500  0.64184317  0.09296225  1.0
  Ni  Ni449  1  0.66889500  0.97517650  0.09296225  1.0
  Ni  Ni450  1  0.33110500  0.07309233  0.06921075  1.0
  Ni  Ni451  1  0.33110500  0.40642567  0.06921075  1.0
  Ni  Ni452  1  0.33110500  0.73975900  0.06921075  1.0
  Ni  Ni453  1  0.66443833  0.07309233  0.06921075  1.0
  Ni  Ni454  1  0.66443833  0.40642567  0.06921075  1.0
  Ni  Ni455  1  0.66443833  0.73975900  0.06921075  1.0
  Ni  Ni456  1  0.99777167  0.07309233  0.06921075  1.0
  Ni  Ni457  1  0.99777167  0.40642567  0.06921075  1.0
  Ni  Ni458  1  0.99777167  0.73975900  0.06921075  1.0
  Ni  Ni459  1  0.33110500  0.23975900  0.16921075  1.0
  Ni  Ni460  1  0.33110500  0.57309233  0.16921075  1.0
  Ni  Ni461  1  0.33110500  0.90642567  0.16921075  1.0
  Ni  Ni462  1  0.66443833  0.23975900  0.16921075  1.0
  Ni  Ni463  1  0.66443833  0.57309233  0.16921075  1.0
  Ni  Ni464  1  0.66443833  0.90642567  0.16921075  1.0
  Ni  Ni465  1  0.99777167  0.23975900  0.16921075  1.0
  Ni  Ni466  1  0.99777167  0.57309233  0.16921075  1.0
  Ni  Ni467  1  0.99777167  0.90642567  0.16921075  1.0
  Ni  Ni468  1  0.16443833  0.01024100  0.07192355  1.0
  Ni  Ni469  1  0.16443833  0.34357433  0.07192355  1.0
  Ni  Ni470  1  0.16443833  0.67690767  0.07192355  1.0
  Ni  Ni471  1  0.49777167  0.01024100  0.07192355  1.0
  Ni  Ni472  1  0.49777167  0.34357433  0.07192355  1.0
  Ni  Ni473  1  0.49777167  0.67690767  0.07192355  1.0
  Ni  Ni474  1  0.83110500  0.01024100  0.07192355  1.0
  Ni  Ni475  1  0.83110500  0.34357433  0.07192355  1.0
  Ni  Ni476  1  0.83110500  0.67690767  0.07192355  1.0
  Ni  Ni477  1  0.16443833  0.17690767  0.17192355  1.0
  Ni  Ni478  1  0.16443833  0.51024100  0.17192355  1.0
  Ni  Ni479  1  0.16443833  0.84357433  0.17192355  1.0
  Ni  Ni480  1  0.49777167  0.17690767  0.17192355  1.0
  Ni  Ni481  1  0.49777167  0.51024100  0.17192355  1.0
  Ni  Ni482  1  0.49777167  0.84357433  0.17192355  1.0
  Ni  Ni483  1  0.83110500  0.17690767  0.17192355  1.0
  Ni  Ni484  1  0.83110500  0.51024100  0.17192355  1.0
  Ni  Ni485  1  0.83110500  0.84357433  0.17192355  1.0
  Ni  Ni486  1  0.16443833  0.05850983  0.04296225  1.0
  Ni  Ni487  1  0.16443833  0.39184317  0.04296225  1.0
  Ni  Ni488  1  0.16443833  0.72517650  0.04296225  1.0
  Ni  Ni489  1  0.49777167  0.05850983  0.04296225  1.0
  Ni  Ni490  1  0.49777167  0.39184317  0.04296225  1.0
  Ni  Ni491  1  0.49777167  0.72517650  0.04296225  1.0
  Ni  Ni492  1  0.83110500  0.05850983  0.04296225  1.0
  Ni  Ni493  1  0.83110500  0.39184317  0.04296225  1.0
  Ni  Ni494  1  0.83110500  0.72517650  0.04296225  1.0
  Ni  Ni495  1  0.16443833  0.22517650  0.14296225  1.0
  Ni  Ni496  1  0.16443833  0.55850983  0.14296225  1.0
  Ni  Ni497  1  0.16443833  0.89184317  0.14296225  1.0
  Ni  Ni498  1  0.49777167  0.22517650  0.14296225  1.0
  Ni  Ni499  1  0.49777167  0.55850983  0.14296225  1.0
  Ni  Ni500  1  0.49777167  0.89184317  0.14296225  1.0
  Ni  Ni501  1  0.83110500  0.22517650  0.14296225  1.0
  Ni  Ni502  1  0.83110500  0.55850983  0.14296225  1.0
  Ni  Ni503  1  0.83110500  0.89184317  0.14296225  1.0
  Ni  Ni504  1  0.03519200  0.14900950  0.06378425  1.0
  Ni  Ni505  1  0.03519200  0.48234283  0.06378425  1.0
  Ni  Ni506  1  0.03519200  0.81567617  0.06378425  1.0
  Ni  Ni507  1  0.36852533  0.14900950  0.06378425  1.0
  Ni  Ni508  1  0.36852533  0.48234283  0.06378425  1.0
  Ni  Ni509  1  0.36852533  0.81567617  0.06378425  1.0
  Ni  Ni510  1  0.70185867  0.14900950  0.06378425  1.0
  Ni  Ni511  1  0.70185867  0.48234283  0.06378425  1.0
  Ni  Ni512  1  0.70185867  0.81567617  0.06378425  1.0
  Ni  Ni513  1  0.03519200  0.31567617  0.16378425  1.0
  Ni  Ni514  1  0.03519200  0.64900950  0.16378425  1.0
  Ni  Ni515  1  0.03519200  0.98234283  0.16378425  1.0
  Ni  Ni516  1  0.36852533  0.31567617  0.16378425  1.0
  Ni  Ni517  1  0.36852533  0.64900950  0.16378425  1.0
  Ni  Ni518  1  0.36852533  0.98234283  0.16378425  1.0
  Ni  Ni519  1  0.70185867  0.31567617  0.16378425  1.0
  Ni  Ni520  1  0.70185867  0.64900950  0.16378425  1.0
  Ni  Ni521  1  0.70185867  0.98234283  0.16378425  1.0
  Ni  Ni522  1  0.20185867  0.10099050  0.17735005  1.0
  Ni  Ni523  1  0.20185867  0.43432383  0.17735005  1.0
  Ni  Ni524  1  0.20185867  0.76765717  0.17735005  1.0
  Ni  Ni525  1  0.53519200  0.10099050  0.17735005  1.0
  Ni  Ni526  1  0.53519200  0.43432383  0.17735005  1.0
  Ni  Ni527  1  0.53519200  0.76765717  0.17735005  1.0
  Ni  Ni528  1  0.86852533  0.10099050  0.17735005  1.0
  Ni  Ni529  1  0.86852533  0.43432383  0.17735005  1.0
  Ni  Ni530  1  0.86852533  0.76765717  0.17735005  1.0
  Ni  Ni531  1  0.20185867  0.26765717  0.07735005  1.0
  Ni  Ni532  1  0.20185867  0.60099050  0.07735005  1.0
  Ni  Ni533  1  0.20185867  0.93432383  0.07735005  1.0
  Ni  Ni534  1  0.53519200  0.26765717  0.07735005  1.0
  Ni  Ni535  1  0.53519200  0.60099050  0.07735005  1.0
  Ni  Ni536  1  0.53519200  0.93432383  0.07735005  1.0
  Ni  Ni537  1  0.86852533  0.26765717  0.07735005  1.0
  Ni  Ni538  1  0.86852533  0.60099050  0.07735005  1.0
  Ni  Ni539  1  0.86852533  0.93432383  0.07735005  1.0
  Ni  Ni540  1  0.33110500  0.02482350  0.09817205  1.0
  Ni  Ni541  1  0.33110500  0.35815683  0.09817205  1.0
  Ni  Ni542  1  0.33110500  0.69149017  0.09817205  1.0
  Ni  Ni543  1  0.66443833  0.02482350  0.09817205  1.0
  Ni  Ni544  1  0.66443833  0.35815683  0.09817205  1.0
  Ni  Ni545  1  0.66443833  0.69149017  0.09817205  1.0
  Ni  Ni546  1  0.99777167  0.02482350  0.09817205  1.0
  Ni  Ni547  1  0.99777167  0.35815683  0.09817205  1.0
  Ni  Ni548  1  0.99777167  0.69149017  0.09817205  1.0
  Ni  Ni549  1  0.33110500  0.19149017  0.19817205  1.0
  Ni  Ni550  1  0.33110500  0.52482350  0.19817205  1.0
  Ni  Ni551  1  0.33110500  0.85815683  0.19817205  1.0
  Ni  Ni552  1  0.66443833  0.19149017  0.19817205  1.0
  Ni  Ni553  1  0.66443833  0.52482350  0.19817205  1.0
  Ni  Ni554  1  0.66443833  0.85815683  0.19817205  1.0
  Ni  Ni555  1  0.99777167  0.19149017  0.19817205  1.0
  Ni  Ni556  1  0.99777167  0.52482350  0.19817205  1.0
  Ni  Ni557  1  0.99777167  0.85815683  0.19817205  1.0
  Ni  Ni558  1  0.16889500  0.10815683  0.04817205  1.0
  Ni  Ni559  1  0.16889500  0.44149017  0.04817205  1.0
  Ni  Ni560  1  0.16889500  0.77482350  0.04817205  1.0
  Ni  Ni561  1  0.50222833  0.10815683  0.04817205  1.0
  Ni  Ni562  1  0.50222833  0.44149017  0.04817205  1.0
  Ni  Ni563  1  0.50222833  0.77482350  0.04817205  1.0
  Ni  Ni564  1  0.83556167  0.10815683  0.04817205  1.0
  Ni  Ni565  1  0.83556167  0.44149017  0.04817205  1.0
  Ni  Ni566  1  0.83556167  0.77482350  0.04817205  1.0
  Ni  Ni567  1  0.16889500  0.27482350  0.14817205  1.0
  Ni  Ni568  1  0.16889500  0.60815683  0.14817205  1.0
  Ni  Ni569  1  0.16889500  0.94149017  0.14817205  1.0
  Ni  Ni570  1  0.50222833  0.27482350  0.14817205  1.0
  Ni  Ni571  1  0.50222833  0.60815683  0.14817205  1.0
  Ni  Ni572  1  0.50222833  0.94149017  0.14817205  1.0
  Ni  Ni573  1  0.83556167  0.27482350  0.14817205  1.0
  Ni  Ni574  1  0.83556167  0.60815683  0.14817205  1.0
  Ni  Ni575  1  0.83556167  0.94149017  0.14817205  1.0
  Ni  Ni576  1  0.09762467  0.02337933  0.17913535  1.0
  Ni  Ni577  1  0.09762467  0.35671267  0.17913535  1.0
  Ni  Ni578  1  0.09762467  0.69004600  0.17913535  1.0
  Ni  Ni579  1  0.43095800  0.02337933  0.17913535  1.0
  Ni  Ni580  1  0.43095800  0.35671267  0.17913535  1.0
  Ni  Ni581  1  0.43095800  0.69004600  0.17913535  1.0
  Ni  Ni582  1  0.76429133  0.02337933  0.17913535  1.0
  Ni  Ni583  1  0.76429133  0.35671267  0.17913535  1.0
  Ni  Ni584  1  0.76429133  0.69004600  0.17913535  1.0
  Ni  Ni585  1  0.09762467  0.19004600  0.07913535  1.0
  Ni  Ni586  1  0.09762467  0.52337933  0.07913535  1.0
  Ni  Ni587  1  0.09762467  0.85671267  0.07913535  1.0
  Ni  Ni588  1  0.43095800  0.19004600  0.07913535  1.0
  Ni  Ni589  1  0.43095800  0.52337933  0.07913535  1.0
  Ni  Ni590  1  0.43095800  0.85671267  0.07913535  1.0
  Ni  Ni591  1  0.76429133  0.19004600  0.07913535  1.0
  Ni  Ni592  1  0.76429133  0.52337933  0.07913535  1.0
  Ni  Ni593  1  0.76429133  0.85671267  0.07913535  1.0
  Ni  Ni594  1  0.26429133  0.10871617  0.13274165  1.0
  Ni  Ni595  1  0.26429133  0.44204950  0.13274165  1.0
  Ni  Ni596  1  0.26429133  0.77538283  0.13274165  1.0
  Ni  Ni597  1  0.59762467  0.10871617  0.13274165  1.0
  Ni  Ni598  1  0.59762467  0.44204950  0.13274165  1.0
  Ni  Ni599  1  0.59762467  0.77538283  0.13274165  1.0
  Ni  Ni600  1  0.93095800  0.10871617  0.13274165  1.0
  Ni  Ni601  1  0.93095800  0.44204950  0.13274165  1.0
  Ni  Ni602  1  0.93095800  0.77538283  0.13274165  1.0
  Ni  Ni603  1  0.26429133  0.27538283  0.03274165  1.0
  Ni  Ni604  1  0.26429133  0.60871617  0.03274165  1.0
  Ni  Ni605  1  0.26429133  0.94204950  0.03274165  1.0
  Ni  Ni606  1  0.59762467  0.27538283  0.03274165  1.0
  Ni  Ni607  1  0.59762467  0.60871617  0.03274165  1.0
  Ni  Ni608  1  0.59762467  0.94204950  0.03274165  1.0
  Ni  Ni609  1  0.93095800  0.27538283  0.03274165  1.0
  Ni  Ni610  1  0.93095800  0.60871617  0.03274165  1.0
  Ni  Ni611  1  0.93095800  0.94204950  0.03274165  1.0
  Zr  Zr612  1  0.00000000  0.13475300  0.31471535  1.0
  Zr  Zr613  1  0.00000000  0.46808633  0.31471535  1.0
  Zr  Zr614  1  0.00000000  0.80141967  0.31471535  1.0
  Zr  Zr615  1  0.33333333  0.13475300  0.31471535  1.0
  Zr  Zr616  1  0.33333333  0.46808633  0.31471535  1.0
  Zr  Zr617  1  0.33333333  0.80141967  0.31471535  1.0
  Zr  Zr618  1  0.66666667  0.13475300  0.31471535  1.0
  Zr  Zr619  1  0.66666667  0.46808633  0.31471535  1.0
  Zr  Zr620  1  0.66666667  0.80141967  0.31471535  1.0
  Zr  Zr621  1  0.00000000  0.30141967  0.21471535  1.0
  Zr  Zr622  1  0.00000000  0.63475300  0.21471535  1.0
  Zr  Zr623  1  0.00000000  0.96808633  0.21471535  1.0
  Zr  Zr624  1  0.33333333  0.30141967  0.21471535  1.0
  Zr  Zr625  1  0.33333333  0.63475300  0.21471535  1.0
  Zr  Zr626  1  0.33333333  0.96808633  0.21471535  1.0
  Zr  Zr627  1  0.66666667  0.30141967  0.21471535  1.0
  Zr  Zr628  1  0.66666667  0.63475300  0.21471535  1.0
  Zr  Zr629  1  0.66666667  0.96808633  0.21471535  1.0
  Zr  Zr630  1  0.16666667  0.05141967  0.36471535  1.0
  Zr  Zr631  1  0.16666667  0.38475300  0.36471535  1.0
  Zr  Zr632  1  0.16666667  0.71808633  0.36471535  1.0
  Zr  Zr633  1  0.50000000  0.05141967  0.36471535  1.0
  Zr  Zr634  1  0.50000000  0.38475300  0.36471535  1.0
  Zr  Zr635  1  0.50000000  0.71808633  0.36471535  1.0
  Zr  Zr636  1  0.83333333  0.05141967  0.36471535  1.0
  Zr  Zr637  1  0.83333333  0.38475300  0.36471535  1.0
  Zr  Zr638  1  0.83333333  0.71808633  0.36471535  1.0
  Zr  Zr639  1  0.16666667  0.21808633  0.26471535  1.0
  Zr  Zr640  1  0.16666667  0.55141967  0.26471535  1.0
  Zr  Zr641  1  0.16666667  0.88475300  0.26471535  1.0
  Zr  Zr642  1  0.50000000  0.21808633  0.26471535  1.0
  Zr  Zr643  1  0.50000000  0.55141967  0.26471535  1.0
  Zr  Zr644  1  0.50000000  0.88475300  0.26471535  1.0
  Zr  Zr645  1  0.83333333  0.21808633  0.26471535  1.0
  Zr  Zr646  1  0.83333333  0.55141967  0.26471535  1.0
  Zr  Zr647  1  0.83333333  0.88475300  0.26471535  1.0
  Zr  Zr648  1  0.10415100  0.11458933  0.20182795  1.0
  Zr  Zr649  1  0.10415100  0.44792267  0.20182795  1.0
  Zr  Zr650  1  0.10415100  0.78125600  0.20182795  1.0
  Zr  Zr651  1  0.43748433  0.11458933  0.20182795  1.0
  Zr  Zr652  1  0.43748433  0.44792267  0.20182795  1.0
  Zr  Zr653  1  0.43748433  0.78125600  0.20182795  1.0
  Zr  Zr654  1  0.77081767  0.11458933  0.20182795  1.0
  Zr  Zr655  1  0.77081767  0.44792267  0.20182795  1.0
  Zr  Zr656  1  0.77081767  0.78125600  0.20182795  1.0
  Zr  Zr657  1  0.10415100  0.28125600  0.30182795  1.0
  Zr  Zr658  1  0.10415100  0.61458933  0.30182795  1.0
  Zr  Zr659  1  0.10415100  0.94792267  0.30182795  1.0
  Zr  Zr660  1  0.43748433  0.28125600  0.30182795  1.0
  Zr  Zr661  1  0.43748433  0.61458933  0.30182795  1.0
  Zr  Zr662  1  0.43748433  0.94792267  0.30182795  1.0
  Zr  Zr663  1  0.77081767  0.28125600  0.30182795  1.0
  Zr  Zr664  1  0.77081767  0.61458933  0.30182795  1.0
  Zr  Zr665  1  0.77081767  0.94792267  0.30182795  1.0
  Zr  Zr666  1  0.22918233  0.05207733  0.28930635  1.0
  Zr  Zr667  1  0.22918233  0.38541067  0.28930635  1.0
  Zr  Zr668  1  0.22918233  0.71874400  0.28930635  1.0
  Zr  Zr669  1  0.56251567  0.05207733  0.28930635  1.0
  Zr  Zr670  1  0.56251567  0.38541067  0.28930635  1.0
  Zr  Zr671  1  0.56251567  0.71874400  0.28930635  1.0
  Zr  Zr672  1  0.89584900  0.05207733  0.28930635  1.0
  Zr  Zr673  1  0.89584900  0.38541067  0.28930635  1.0
  Zr  Zr674  1  0.89584900  0.71874400  0.28930635  1.0
  Zr  Zr675  1  0.22918233  0.21874400  0.38930635  1.0
  Zr  Zr676  1  0.22918233  0.55207733  0.38930635  1.0
  Zr  Zr677  1  0.22918233  0.88541067  0.38930635  1.0
  Zr  Zr678  1  0.56251567  0.21874400  0.38930635  1.0
  Zr  Zr679  1  0.56251567  0.55207733  0.38930635  1.0
  Zr  Zr680  1  0.56251567  0.88541067  0.38930635  1.0
  Zr  Zr681  1  0.89584900  0.21874400  0.38930635  1.0
  Zr  Zr682  1  0.89584900  0.55207733  0.38930635  1.0
  Zr  Zr683  1  0.89584900  0.88541067  0.38930635  1.0
  Zr  Zr684  1  0.00000000  0.03191367  0.37641895  1.0
  Zr  Zr685  1  0.00000000  0.36524700  0.37641895  1.0
  Zr  Zr686  1  0.00000000  0.69858033  0.37641895  1.0
  Zr  Zr687  1  0.33333333  0.03191367  0.37641895  1.0
  Zr  Zr688  1  0.33333333  0.36524700  0.37641895  1.0
  Zr  Zr689  1  0.33333333  0.69858033  0.37641895  1.0
  Zr  Zr690  1  0.66666667  0.03191367  0.37641895  1.0
  Zr  Zr691  1  0.66666667  0.36524700  0.37641895  1.0
  Zr  Zr692  1  0.66666667  0.69858033  0.37641895  1.0
  Zr  Zr693  1  0.00000000  0.19858033  0.27641895  1.0
  Zr  Zr694  1  0.00000000  0.53191367  0.27641895  1.0
  Zr  Zr695  1  0.00000000  0.86524700  0.27641895  1.0
  Zr  Zr696  1  0.33333333  0.19858033  0.27641895  1.0
  Zr  Zr697  1  0.33333333  0.53191367  0.27641895  1.0
  Zr  Zr698  1  0.33333333  0.86524700  0.27641895  1.0
  Zr  Zr699  1  0.66666667  0.19858033  0.27641895  1.0
  Zr  Zr700  1  0.66666667  0.53191367  0.27641895  1.0
  Zr  Zr701  1  0.66666667  0.86524700  0.27641895  1.0
  Zr  Zr702  1  0.08333333  0.16639183  0.39507245  1.0
  Zr  Zr703  1  0.08333333  0.49972517  0.39507245  1.0
  Zr  Zr704  1  0.08333333  0.83305850  0.39507245  1.0
  Zr  Zr705  1  0.41666667  0.16639183  0.39507245  1.0
  Zr  Zr706  1  0.41666667  0.49972517  0.39507245  1.0
  Zr  Zr707  1  0.41666667  0.83305850  0.39507245  1.0
  Zr  Zr708  1  0.75000000  0.16639183  0.39507245  1.0
  Zr  Zr709  1  0.75000000  0.49972517  0.39507245  1.0
  Zr  Zr710  1  0.75000000  0.83305850  0.39507245  1.0
  Zr  Zr711  1  0.08333333  0.33305850  0.29507245  1.0
  Zr  Zr712  1  0.08333333  0.66639183  0.29507245  1.0
  Zr  Zr713  1  0.08333333  0.99972517  0.29507245  1.0
  Zr  Zr714  1  0.41666667  0.33305850  0.29507245  1.0
  Zr  Zr715  1  0.41666667  0.66639183  0.29507245  1.0
  Zr  Zr716  1  0.41666667  0.99972517  0.29507245  1.0
  Zr  Zr717  1  0.75000000  0.33305850  0.29507245  1.0
  Zr  Zr718  1  0.75000000  0.66639183  0.29507245  1.0
  Zr  Zr719  1  0.75000000  0.99972517  0.29507245  1.0
  Zr  Zr720  1  0.25000000  0.00027483  0.29606185  1.0
  Zr  Zr721  1  0.25000000  0.33360817  0.29606185  1.0
  Zr  Zr722  1  0.25000000  0.66694150  0.29606185  1.0
  Zr  Zr723  1  0.58333333  0.00027483  0.29606185  1.0
  Zr  Zr724  1  0.58333333  0.33360817  0.29606185  1.0
  Zr  Zr725  1  0.58333333  0.66694150  0.29606185  1.0
  Zr  Zr726  1  0.91666667  0.00027483  0.29606185  1.0
  Zr  Zr727  1  0.91666667  0.33360817  0.29606185  1.0
  Zr  Zr728  1  0.91666667  0.66694150  0.29606185  1.0
  Zr  Zr729  1  0.25000000  0.16694150  0.39606185  1.0
  Zr  Zr730  1  0.25000000  0.50027483  0.39606185  1.0
  Zr  Zr731  1  0.25000000  0.83360817  0.39606185  1.0
  Zr  Zr732  1  0.58333333  0.16694150  0.39606185  1.0
  Zr  Zr733  1  0.58333333  0.50027483  0.39606185  1.0
  Zr  Zr734  1  0.58333333  0.83360817  0.39606185  1.0
  Zr  Zr735  1  0.91666667  0.16694150  0.39606185  1.0
  Zr  Zr736  1  0.91666667  0.50027483  0.39606185  1.0
  Zr  Zr737  1  0.91666667  0.83360817  0.39606185  1.0
  Zr  Zr738  1  0.06251567  0.03125600  0.25182795  1.0
  Zr  Zr739  1  0.06251567  0.36458933  0.25182795  1.0
  Zr  Zr740  1  0.06251567  0.69792267  0.25182795  1.0
  Zr  Zr741  1  0.39584900  0.03125600  0.25182795  1.0
  Zr  Zr742  1  0.39584900  0.36458933  0.25182795  1.0
  Zr  Zr743  1  0.39584900  0.69792267  0.25182795  1.0
  Zr  Zr744  1  0.72918233  0.03125600  0.25182795  1.0
  Zr  Zr745  1  0.72918233  0.36458933  0.25182795  1.0
  Zr  Zr746  1  0.72918233  0.69792267  0.25182795  1.0
  Zr  Zr747  1  0.06251567  0.19792267  0.35182795  1.0
  Zr  Zr748  1  0.06251567  0.53125600  0.35182795  1.0
  Zr  Zr749  1  0.06251567  0.86458933  0.35182795  1.0
  Zr  Zr750  1  0.39584900  0.19792267  0.35182795  1.0
  Zr  Zr751  1  0.39584900  0.53125600  0.35182795  1.0
  Zr  Zr752  1  0.39584900  0.86458933  0.35182795  1.0
  Zr  Zr753  1  0.72918233  0.19792267  0.35182795  1.0
  Zr  Zr754  1  0.72918233  0.53125600  0.35182795  1.0
  Zr  Zr755  1  0.72918233  0.86458933  0.35182795  1.0
  Zr  Zr756  1  0.00000000  0.08333333  0.34556715  1.0
  Zr  Zr757  1  0.00000000  0.41666667  0.34556715  1.0
  Zr  Zr758  1  0.00000000  0.75000000  0.34556715  1.0
  Zr  Zr759  1  0.33333333  0.08333333  0.34556715  1.0
  Zr  Zr760  1  0.33333333  0.41666667  0.34556715  1.0
  Zr  Zr761  1  0.33333333  0.75000000  0.34556715  1.0
  Zr  Zr762  1  0.66666667  0.08333333  0.34556715  1.0
  Zr  Zr763  1  0.66666667  0.41666667  0.34556715  1.0
  Zr  Zr764  1  0.66666667  0.75000000  0.34556715  1.0
  Zr  Zr765  1  0.00000000  0.25000000  0.24556715  1.0
  Zr  Zr766  1  0.00000000  0.58333333  0.24556715  1.0
  Zr  Zr767  1  0.00000000  0.91666667  0.24556715  1.0
  Zr  Zr768  1  0.33333333  0.25000000  0.24556715  1.0
  Zr  Zr769  1  0.33333333  0.58333333  0.24556715  1.0
  Zr  Zr770  1  0.33333333  0.91666667  0.24556715  1.0
  Zr  Zr771  1  0.66666667  0.25000000  0.24556715  1.0
  Zr  Zr772  1  0.66666667  0.58333333  0.24556715  1.0
  Zr  Zr773  1  0.66666667  0.91666667  0.24556715  1.0
  Zr  Zr774  1  0.25000000  0.08360817  0.24606185  1.0
  Zr  Zr775  1  0.25000000  0.41694150  0.24606185  1.0
  Zr  Zr776  1  0.25000000  0.75027483  0.24606185  1.0
  Zr  Zr777  1  0.58333333  0.08360817  0.24606185  1.0
  Zr  Zr778  1  0.58333333  0.41694150  0.24606185  1.0
  Zr  Zr779  1  0.58333333  0.75027483  0.24606185  1.0
  Zr  Zr780  1  0.91666667  0.08360817  0.24606185  1.0
  Zr  Zr781  1  0.91666667  0.41694150  0.24606185  1.0
  Zr  Zr782  1  0.91666667  0.75027483  0.24606185  1.0
  Zr  Zr783  1  0.25000000  0.25027483  0.34606185  1.0
  Zr  Zr784  1  0.25000000  0.58360817  0.34606185  1.0
  Zr  Zr785  1  0.25000000  0.91694150  0.34606185  1.0
  Zr  Zr786  1  0.58333333  0.25027483  0.34606185  1.0
  Zr  Zr787  1  0.58333333  0.58360817  0.34606185  1.0
  Zr  Zr788  1  0.58333333  0.91694150  0.34606185  1.0
  Zr  Zr789  1  0.91666667  0.25027483  0.34606185  1.0
  Zr  Zr790  1  0.91666667  0.58360817  0.34606185  1.0
  Zr  Zr791  1  0.91666667  0.91694150  0.34606185  1.0
  Zr  Zr792  1  0.16666667  0.11524700  0.32641895  1.0
  Zr  Zr793  1  0.16666667  0.44858033  0.32641895  1.0
  Zr  Zr794  1  0.16666667  0.78191367  0.32641895  1.0
  Zr  Zr795  1  0.50000000  0.11524700  0.32641895  1.0
  Zr  Zr796  1  0.50000000  0.44858033  0.32641895  1.0
  Zr  Zr797  1  0.50000000  0.78191367  0.32641895  1.0
  Zr  Zr798  1  0.83333333  0.11524700  0.32641895  1.0
  Zr  Zr799  1  0.83333333  0.44858033  0.32641895  1.0
  Zr  Zr800  1  0.83333333  0.78191367  0.32641895  1.0
  Zr  Zr801  1  0.16666667  0.28191367  0.22641895  1.0
  Zr  Zr802  1  0.16666667  0.61524700  0.22641895  1.0
  Zr  Zr803  1  0.16666667  0.94858033  0.22641895  1.0
  Zr  Zr804  1  0.50000000  0.28191367  0.22641895  1.0
  Zr  Zr805  1  0.50000000  0.61524700  0.22641895  1.0
  Zr  Zr806  1  0.50000000  0.94858033  0.22641895  1.0
  Zr  Zr807  1  0.83333333  0.28191367  0.22641895  1.0
  Zr  Zr808  1  0.83333333  0.61524700  0.22641895  1.0
  Zr  Zr809  1  0.83333333  0.94858033  0.22641895  1.0
  Zr  Zr810  1  0.08333333  0.08305850  0.24507245  1.0
  Zr  Zr811  1  0.08333333  0.41639183  0.24507245  1.0
  Zr  Zr812  1  0.08333333  0.74972517  0.24507245  1.0
  Zr  Zr813  1  0.41666667  0.08305850  0.24507245  1.0
  Zr  Zr814  1  0.41666667  0.41639183  0.24507245  1.0
  Zr  Zr815  1  0.41666667  0.74972517  0.24507245  1.0
  Zr  Zr816  1  0.75000000  0.08305850  0.24507245  1.0
  Zr  Zr817  1  0.75000000  0.41639183  0.24507245  1.0
  Zr  Zr818  1  0.75000000  0.74972517  0.24507245  1.0
  Zr  Zr819  1  0.08333333  0.24972517  0.34507245  1.0
  Zr  Zr820  1  0.08333333  0.58305850  0.34507245  1.0
  Zr  Zr821  1  0.08333333  0.91639183  0.34507245  1.0
  Zr  Zr822  1  0.41666667  0.24972517  0.34507245  1.0
  Zr  Zr823  1  0.41666667  0.58305850  0.34507245  1.0
  Zr  Zr824  1  0.41666667  0.91639183  0.34507245  1.0
  Zr  Zr825  1  0.75000000  0.24972517  0.34507245  1.0
  Zr  Zr826  1  0.75000000  0.58305850  0.34507245  1.0
  Zr  Zr827  1  0.75000000  0.91639183  0.34507245  1.0
  Zr  Zr828  1  0.27081767  0.13541067  0.23930635  1.0
  Zr  Zr829  1  0.27081767  0.46874400  0.23930635  1.0
  Zr  Zr830  1  0.27081767  0.80207733  0.23930635  1.0
  Zr  Zr831  1  0.60415100  0.13541067  0.23930635  1.0
  Zr  Zr832  1  0.60415100  0.46874400  0.23930635  1.0
  Zr  Zr833  1  0.60415100  0.80207733  0.23930635  1.0
  Zr  Zr834  1  0.93748433  0.13541067  0.23930635  1.0
  Zr  Zr835  1  0.93748433  0.46874400  0.23930635  1.0
  Zr  Zr836  1  0.93748433  0.80207733  0.23930635  1.0
  Zr  Zr837  1  0.27081767  0.30207733  0.33930635  1.0
  Zr  Zr838  1  0.27081767  0.63541067  0.33930635  1.0
  Zr  Zr839  1  0.27081767  0.96874400  0.33930635  1.0
  Zr  Zr840  1  0.60415100  0.30207733  0.33930635  1.0
  Zr  Zr841  1  0.60415100  0.63541067  0.33930635  1.0
  Zr  Zr842  1  0.60415100  0.96874400  0.33930635  1.0
  Zr  Zr843  1  0.93748433  0.30207733  0.33930635  1.0
  Zr  Zr844  1  0.93748433  0.63541067  0.33930635  1.0
  Zr  Zr845  1  0.93748433  0.96874400  0.33930635  1.0
  Zr  Zr846  1  0.16666667  0.16666667  0.29556715  1.0
  Zr  Zr847  1  0.16666667  0.50000000  0.29556715  1.0
  Zr  Zr848  1  0.16666667  0.83333333  0.29556715  1.0
  Zr  Zr849  1  0.50000000  0.16666667  0.29556715  1.0
  Zr  Zr850  1  0.50000000  0.50000000  0.29556715  1.0
  Zr  Zr851  1  0.50000000  0.83333333  0.29556715  1.0
  Zr  Zr852  1  0.83333333  0.16666667  0.29556715  1.0
  Zr  Zr853  1  0.83333333  0.50000000  0.29556715  1.0
  Zr  Zr854  1  0.83333333  0.83333333  0.29556715  1.0
  Zr  Zr855  1  0.16666667  0.00000000  0.39556715  1.0
  Zr  Zr856  1  0.16666667  0.33333333  0.39556715  1.0
  Zr  Zr857  1  0.16666667  0.66666667  0.39556715  1.0
  Zr  Zr858  1  0.50000000  0.00000000  0.39556715  1.0
  Zr  Zr859  1  0.50000000  0.33333333  0.39556715  1.0
  Zr  Zr860  1  0.50000000  0.66666667  0.39556715  1.0
  Zr  Zr861  1  0.83333333  0.00000000  0.39556715  1.0
  Zr  Zr862  1  0.83333333  0.33333333  0.39556715  1.0
  Zr  Zr863  1  0.83333333  0.66666667  0.39556715  1.0
  Ni  Ni864  1  0.29814133  0.01765717  0.22735005  1.0
  Ni  Ni865  1  0.29814133  0.35099050  0.22735005  1.0
  Ni  Ni866  1  0.29814133  0.68432383  0.22735005  1.0
  Ni  Ni867  1  0.63147467  0.01765717  0.22735005  1.0
  Ni  Ni868  1  0.63147467  0.35099050  0.22735005  1.0
  Ni  Ni869  1  0.63147467  0.68432383  0.22735005  1.0
  Ni  Ni870  1  0.96480800  0.01765717  0.22735005  1.0
  Ni  Ni871  1  0.96480800  0.35099050  0.22735005  1.0
  Ni  Ni872  1  0.96480800  0.68432383  0.22735005  1.0
  Ni  Ni873  1  0.29814133  0.18432383  0.32735005  1.0
  Ni  Ni874  1  0.29814133  0.51765717  0.32735005  1.0
  Ni  Ni875  1  0.29814133  0.85099050  0.32735005  1.0
  Ni  Ni876  1  0.63147467  0.18432383  0.32735005  1.0
  Ni  Ni877  1  0.63147467  0.51765717  0.32735005  1.0
  Ni  Ni878  1  0.63147467  0.85099050  0.32735005  1.0
  Ni  Ni879  1  0.96480800  0.18432383  0.32735005  1.0
  Ni  Ni880  1  0.96480800  0.51765717  0.32735005  1.0
  Ni  Ni881  1  0.96480800  0.85099050  0.32735005  1.0
  Ni  Ni882  1  0.26429133  0.05995400  0.36199895  1.0
  Ni  Ni883  1  0.26429133  0.39328733  0.36199895  1.0
  Ni  Ni884  1  0.26429133  0.72662067  0.36199895  1.0
  Ni  Ni885  1  0.59762467  0.05995400  0.36199895  1.0
  Ni  Ni886  1  0.59762467  0.39328733  0.36199895  1.0
  Ni  Ni887  1  0.59762467  0.72662067  0.36199895  1.0
  Ni  Ni888  1  0.93095800  0.05995400  0.36199895  1.0
  Ni  Ni889  1  0.93095800  0.39328733  0.36199895  1.0
  Ni  Ni890  1  0.93095800  0.72662067  0.36199895  1.0
  Ni  Ni891  1  0.26429133  0.22662067  0.26199895  1.0
  Ni  Ni892  1  0.26429133  0.55995400  0.26199895  1.0
  Ni  Ni893  1  0.26429133  0.89328733  0.26199895  1.0
  Ni  Ni894  1  0.59762467  0.22662067  0.26199895  1.0
  Ni  Ni895  1  0.59762467  0.55995400  0.26199895  1.0
  Ni  Ni896  1  0.59762467  0.89328733  0.26199895  1.0
  Ni  Ni897  1  0.93095800  0.22662067  0.26199895  1.0
  Ni  Ni898  1  0.93095800  0.55995400  0.26199895  1.0
  Ni  Ni899  1  0.93095800  0.89328733  0.26199895  1.0
  Ni  Ni900  1  0.16889500  0.15642567  0.21921075  1.0
  Ni  Ni901  1  0.16889500  0.48975900  0.21921075  1.0
  Ni  Ni902  1  0.16889500  0.82309233  0.21921075  1.0
  Ni  Ni903  1  0.50222833  0.15642567  0.21921075  1.0
  Ni  Ni904  1  0.50222833  0.48975900  0.21921075  1.0
  Ni  Ni905  1  0.50222833  0.82309233  0.21921075  1.0
  Ni  Ni906  1  0.83556167  0.15642567  0.21921075  1.0
  Ni  Ni907  1  0.83556167  0.48975900  0.21921075  1.0
  Ni  Ni908  1  0.83556167  0.82309233  0.21921075  1.0
  Ni  Ni909  1  0.16889500  0.32309233  0.31921075  1.0
  Ni  Ni910  1  0.16889500  0.65642567  0.31921075  1.0
  Ni  Ni911  1  0.16889500  0.98975900  0.31921075  1.0
  Ni  Ni912  1  0.50222833  0.32309233  0.31921075  1.0
  Ni  Ni913  1  0.50222833  0.65642567  0.31921075  1.0
  Ni  Ni914  1  0.50222833  0.98975900  0.31921075  1.0
  Ni  Ni915  1  0.83556167  0.32309233  0.31921075  1.0
  Ni  Ni916  1  0.83556167  0.65642567  0.31921075  1.0
  Ni  Ni917  1  0.83556167  0.98975900  0.31921075  1.0
  Ni  Ni918  1  0.06904200  0.05795050  0.35839265  1.0
  Ni  Ni919  1  0.06904200  0.39128383  0.35839265  1.0
  Ni  Ni920  1  0.06904200  0.72461717  0.35839265  1.0
  Ni  Ni921  1  0.40237533  0.05795050  0.35839265  1.0
  Ni  Ni922  1  0.40237533  0.39128383  0.35839265  1.0
  Ni  Ni923  1  0.40237533  0.72461717  0.35839265  1.0
  Ni  Ni924  1  0.73570867  0.05795050  0.35839265  1.0
  Ni  Ni925  1  0.73570867  0.39128383  0.35839265  1.0
  Ni  Ni926  1  0.73570867  0.72461717  0.35839265  1.0
  Ni  Ni927  1  0.06904200  0.22461717  0.25839265  1.0
  Ni  Ni928  1  0.06904200  0.55795050  0.25839265  1.0
  Ni  Ni929  1  0.06904200  0.89128383  0.25839265  1.0
  Ni  Ni930  1  0.40237533  0.22461717  0.25839265  1.0
  Ni  Ni931  1  0.40237533  0.55795050  0.25839265  1.0
  Ni  Ni932  1  0.40237533  0.89128383  0.25839265  1.0
  Ni  Ni933  1  0.73570867  0.22461717  0.25839265  1.0
  Ni  Ni934  1  0.73570867  0.55795050  0.25839265  1.0
  Ni  Ni935  1  0.73570867  0.89128383  0.25839265  1.0
  Ni  Ni936  1  0.23570867  0.02538283  0.38274165  1.0
  Ni  Ni937  1  0.23570867  0.35871617  0.38274165  1.0
  Ni  Ni938  1  0.23570867  0.69204950  0.38274165  1.0
  Ni  Ni939  1  0.56904200  0.02538283  0.38274165  1.0
  Ni  Ni940  1  0.56904200  0.35871617  0.38274165  1.0
  Ni  Ni941  1  0.56904200  0.69204950  0.38274165  1.0
  Ni  Ni942  1  0.90237533  0.02538283  0.38274165  1.0
  Ni  Ni943  1  0.90237533  0.35871617  0.38274165  1.0
  Ni  Ni944  1  0.90237533  0.69204950  0.38274165  1.0
  Ni  Ni945  1  0.23570867  0.19204950  0.28274165  1.0
  Ni  Ni946  1  0.23570867  0.52538283  0.28274165  1.0
  Ni  Ni947  1  0.23570867  0.85871617  0.28274165  1.0
  Ni  Ni948  1  0.56904200  0.19204950  0.28274165  1.0
  Ni  Ni949  1  0.56904200  0.52538283  0.28274165  1.0
  Ni  Ni950  1  0.56904200  0.85871617  0.28274165  1.0
  Ni  Ni951  1  0.90237533  0.19204950  0.28274165  1.0
  Ni  Ni952  1  0.90237533  0.52538283  0.28274165  1.0
  Ni  Ni953  1  0.90237533  0.85871617  0.28274165  1.0
  Ni  Ni954  1  0.23570867  0.14328733  0.31199895  1.0
  Ni  Ni955  1  0.23570867  0.47662067  0.31199895  1.0
  Ni  Ni956  1  0.23570867  0.80995400  0.31199895  1.0
  Ni  Ni957  1  0.56904200  0.14328733  0.31199895  1.0
  Ni  Ni958  1  0.56904200  0.47662067  0.31199895  1.0
  Ni  Ni959  1  0.56904200  0.80995400  0.31199895  1.0
  Ni  Ni960  1  0.90237533  0.14328733  0.31199895  1.0
  Ni  Ni961  1  0.90237533  0.47662067  0.31199895  1.0
  Ni  Ni962  1  0.90237533  0.80995400  0.31199895  1.0
  Ni  Ni963  1  0.23570867  0.30995400  0.21199895  1.0
  Ni  Ni964  1  0.23570867  0.64328733  0.21199895  1.0
  Ni  Ni965  1  0.23570867  0.97662067  0.21199895  1.0
  Ni  Ni966  1  0.56904200  0.30995400  0.21199895  1.0
  Ni  Ni967  1  0.56904200  0.64328733  0.21199895  1.0
  Ni  Ni968  1  0.56904200  0.97662067  0.21199895  1.0
  Ni  Ni969  1  0.90237533  0.30995400  0.21199895  1.0
  Ni  Ni970  1  0.90237533  0.64328733  0.21199895  1.0
  Ni  Ni971  1  0.90237533  0.97662067  0.21199895  1.0
  Ni  Ni972  1  0.13147467  0.06567617  0.31378425  1.0
  Ni  Ni973  1  0.13147467  0.39900950  0.31378425  1.0
  Ni  Ni974  1  0.13147467  0.73234283  0.31378425  1.0
  Ni  Ni975  1  0.46480800  0.06567617  0.31378425  1.0
  Ni  Ni976  1  0.46480800  0.39900950  0.31378425  1.0
  Ni  Ni977  1  0.46480800  0.73234283  0.31378425  1.0
  Ni  Ni978  1  0.79814133  0.06567617  0.31378425  1.0
  Ni  Ni979  1  0.79814133  0.39900950  0.31378425  1.0
  Ni  Ni980  1  0.79814133  0.73234283  0.31378425  1.0
  Ni  Ni981  1  0.13147467  0.23234283  0.21378425  1.0
  Ni  Ni982  1  0.13147467  0.56567617  0.21378425  1.0
  Ni  Ni983  1  0.13147467  0.89900950  0.21378425  1.0
  Ni  Ni984  1  0.46480800  0.23234283  0.21378425  1.0
  Ni  Ni985  1  0.46480800  0.56567617  0.21378425  1.0
  Ni  Ni986  1  0.46480800  0.89900950  0.21378425  1.0
  Ni  Ni987  1  0.79814133  0.23234283  0.21378425  1.0
  Ni  Ni988  1  0.79814133  0.56567617  0.21378425  1.0
  Ni  Ni989  1  0.79814133  0.89900950  0.21378425  1.0
  Ni  Ni990  1  0.00222833  0.09357433  0.22192355  1.0
  Ni  Ni991  1  0.00222833  0.42690767  0.22192355  1.0
  Ni  Ni992  1  0.00222833  0.76024100  0.22192355  1.0
  Ni  Ni993  1  0.33556167  0.09357433  0.22192355  1.0
  Ni  Ni994  1  0.33556167  0.42690767  0.22192355  1.0
  Ni  Ni995  1  0.33556167  0.76024100  0.22192355  1.0
  Ni  Ni996  1  0.66889500  0.09357433  0.22192355  1.0
  Ni  Ni997  1  0.66889500  0.42690767  0.22192355  1.0
  Ni  Ni998  1  0.66889500  0.76024100  0.22192355  1.0
  Ni  Ni999  1  0.00222833  0.26024100  0.32192355  1.0
  Ni  Ni1000  1  0.00222833  0.59357433  0.32192355  1.0
  Ni  Ni1001  1  0.00222833  0.92690767  0.32192355  1.0
  Ni  Ni1002  1  0.33556167  0.26024100  0.32192355  1.0
  Ni  Ni1003  1  0.33556167  0.59357433  0.32192355  1.0
  Ni  Ni1004  1  0.33556167  0.92690767  0.32192355  1.0
  Ni  Ni1005  1  0.66889500  0.26024100  0.32192355  1.0
  Ni  Ni1006  1  0.66889500  0.59357433  0.32192355  1.0
  Ni  Ni1007  1  0.66889500  0.92690767  0.32192355  1.0
  Ni  Ni1008  1  0.06904200  0.10671267  0.32913535  1.0
  Ni  Ni1009  1  0.06904200  0.44004600  0.32913535  1.0
  Ni  Ni1010  1  0.06904200  0.77337933  0.32913535  1.0
  Ni  Ni1011  1  0.40237533  0.10671267  0.32913535  1.0
  Ni  Ni1012  1  0.40237533  0.44004600  0.32913535  1.0
  Ni  Ni1013  1  0.40237533  0.77337933  0.32913535  1.0
  Ni  Ni1014  1  0.73570867  0.10671267  0.32913535  1.0
  Ni  Ni1015  1  0.73570867  0.44004600  0.32913535  1.0
  Ni  Ni1016  1  0.73570867  0.77337933  0.32913535  1.0
  Ni  Ni1017  1  0.06904200  0.27337933  0.22913535  1.0
  Ni  Ni1018  1  0.06904200  0.60671267  0.22913535  1.0
  Ni  Ni1019  1  0.06904200  0.94004600  0.22913535  1.0
  Ni  Ni1020  1  0.40237533  0.27337933  0.22913535  1.0
  Ni  Ni1021  1  0.40237533  0.60671267  0.22913535  1.0
  Ni  Ni1022  1  0.40237533  0.94004600  0.22913535  1.0
  Ni  Ni1023  1  0.73570867  0.27337933  0.22913535  1.0
  Ni  Ni1024  1  0.73570867  0.60671267  0.22913535  1.0
  Ni  Ni1025  1  0.73570867  0.94004600  0.22913535  1.0
  Ni  Ni1026  1  0.09762467  0.14128383  0.30839265  1.0
  Ni  Ni1027  1  0.09762467  0.47461717  0.30839265  1.0
  Ni  Ni1028  1  0.09762467  0.80795050  0.30839265  1.0
  Ni  Ni1029  1  0.43095800  0.14128383  0.30839265  1.0
  Ni  Ni1030  1  0.43095800  0.47461717  0.30839265  1.0
  Ni  Ni1031  1  0.43095800  0.80795050  0.30839265  1.0
  Ni  Ni1032  1  0.76429133  0.14128383  0.30839265  1.0
  Ni  Ni1033  1  0.76429133  0.47461717  0.30839265  1.0
  Ni  Ni1034  1  0.76429133  0.80795050  0.30839265  1.0
  Ni  Ni1035  1  0.09762467  0.30795050  0.20839265  1.0
  Ni  Ni1036  1  0.09762467  0.64128383  0.20839265  1.0
  Ni  Ni1037  1  0.09762467  0.97461717  0.20839265  1.0
  Ni  Ni1038  1  0.43095800  0.30795050  0.20839265  1.0
  Ni  Ni1039  1  0.43095800  0.64128383  0.20839265  1.0
  Ni  Ni1040  1  0.43095800  0.97461717  0.20839265  1.0
  Ni  Ni1041  1  0.76429133  0.30795050  0.20839265  1.0
  Ni  Ni1042  1  0.76429133  0.64128383  0.20839265  1.0
  Ni  Ni1043  1  0.76429133  0.97461717  0.20839265  1.0
  Ni  Ni1044  1  0.00222833  0.14184317  0.39296225  1.0
  Ni  Ni1045  1  0.00222833  0.47517650  0.39296225  1.0
  Ni  Ni1046  1  0.00222833  0.80850983  0.39296225  1.0
  Ni  Ni1047  1  0.33556167  0.14184317  0.39296225  1.0
  Ni  Ni1048  1  0.33556167  0.47517650  0.39296225  1.0
  Ni  Ni1049  1  0.33556167  0.80850983  0.39296225  1.0
  Ni  Ni1050  1  0.66889500  0.14184317  0.39296225  1.0
  Ni  Ni1051  1  0.66889500  0.47517650  0.39296225  1.0
  Ni  Ni1052  1  0.66889500  0.80850983  0.39296225  1.0
  Ni  Ni1053  1  0.00222833  0.30850983  0.29296225  1.0
  Ni  Ni1054  1  0.00222833  0.64184317  0.29296225  1.0
  Ni  Ni1055  1  0.00222833  0.97517650  0.29296225  1.0
  Ni  Ni1056  1  0.33556167  0.30850983  0.29296225  1.0
  Ni  Ni1057  1  0.33556167  0.64184317  0.29296225  1.0
  Ni  Ni1058  1  0.33556167  0.97517650  0.29296225  1.0
  Ni  Ni1059  1  0.66889500  0.30850983  0.29296225  1.0
  Ni  Ni1060  1  0.66889500  0.64184317  0.29296225  1.0
  Ni  Ni1061  1  0.66889500  0.97517650  0.29296225  1.0
  Ni  Ni1062  1  0.33110500  0.07309233  0.26921075  1.0
  Ni  Ni1063  1  0.33110500  0.40642567  0.26921075  1.0
  Ni  Ni1064  1  0.33110500  0.73975900  0.26921075  1.0
  Ni  Ni1065  1  0.66443833  0.07309233  0.26921075  1.0
  Ni  Ni1066  1  0.66443833  0.40642567  0.26921075  1.0
  Ni  Ni1067  1  0.66443833  0.73975900  0.26921075  1.0
  Ni  Ni1068  1  0.99777167  0.07309233  0.26921075  1.0
  Ni  Ni1069  1  0.99777167  0.40642567  0.26921075  1.0
  Ni  Ni1070  1  0.99777167  0.73975900  0.26921075  1.0
  Ni  Ni1071  1  0.33110500  0.23975900  0.36921075  1.0
  Ni  Ni1072  1  0.33110500  0.57309233  0.36921075  1.0
  Ni  Ni1073  1  0.33110500  0.90642567  0.36921075  1.0
  Ni  Ni1074  1  0.66443833  0.23975900  0.36921075  1.0
  Ni  Ni1075  1  0.66443833  0.57309233  0.36921075  1.0
  Ni  Ni1076  1  0.66443833  0.90642567  0.36921075  1.0
  Ni  Ni1077  1  0.99777167  0.23975900  0.36921075  1.0
  Ni  Ni1078  1  0.99777167  0.57309233  0.36921075  1.0
  Ni  Ni1079  1  0.99777167  0.90642567  0.36921075  1.0
  Ni  Ni1080  1  0.16443833  0.01024100  0.27192355  1.0
  Ni  Ni1081  1  0.16443833  0.34357433  0.27192355  1.0
  Ni  Ni1082  1  0.16443833  0.67690767  0.27192355  1.0
  Ni  Ni1083  1  0.49777167  0.01024100  0.27192355  1.0
  Ni  Ni1084  1  0.49777167  0.34357433  0.27192355  1.0
  Ni  Ni1085  1  0.49777167  0.67690767  0.27192355  1.0
  Ni  Ni1086  1  0.83110500  0.01024100  0.27192355  1.0
  Ni  Ni1087  1  0.83110500  0.34357433  0.27192355  1.0
  Ni  Ni1088  1  0.83110500  0.67690767  0.27192355  1.0
  Ni  Ni1089  1  0.16443833  0.17690767  0.37192355  1.0
  Ni  Ni1090  1  0.16443833  0.51024100  0.37192355  1.0
  Ni  Ni1091  1  0.16443833  0.84357433  0.37192355  1.0
  Ni  Ni1092  1  0.49777167  0.17690767  0.37192355  1.0
  Ni  Ni1093  1  0.49777167  0.51024100  0.37192355  1.0
  Ni  Ni1094  1  0.49777167  0.84357433  0.37192355  1.0
  Ni  Ni1095  1  0.83110500  0.17690767  0.37192355  1.0
  Ni  Ni1096  1  0.83110500  0.51024100  0.37192355  1.0
  Ni  Ni1097  1  0.83110500  0.84357433  0.37192355  1.0
  Ni  Ni1098  1  0.16443833  0.05850983  0.24296225  1.0
  Ni  Ni1099  1  0.16443833  0.39184317  0.24296225  1.0
  Ni  Ni1100  1  0.16443833  0.72517650  0.24296225  1.0
  Ni  Ni1101  1  0.49777167  0.05850983  0.24296225  1.0
  Ni  Ni1102  1  0.49777167  0.39184317  0.24296225  1.0
  Ni  Ni1103  1  0.49777167  0.72517650  0.24296225  1.0
  Ni  Ni1104  1  0.83110500  0.05850983  0.24296225  1.0
  Ni  Ni1105  1  0.83110500  0.39184317  0.24296225  1.0
  Ni  Ni1106  1  0.83110500  0.72517650  0.24296225  1.0
  Ni  Ni1107  1  0.16443833  0.22517650  0.34296225  1.0
  Ni  Ni1108  1  0.16443833  0.55850983  0.34296225  1.0
  Ni  Ni1109  1  0.16443833  0.89184317  0.34296225  1.0
  Ni  Ni1110  1  0.49777167  0.22517650  0.34296225  1.0
  Ni  Ni1111  1  0.49777167  0.55850983  0.34296225  1.0
  Ni  Ni1112  1  0.49777167  0.89184317  0.34296225  1.0
  Ni  Ni1113  1  0.83110500  0.22517650  0.34296225  1.0
  Ni  Ni1114  1  0.83110500  0.55850983  0.34296225  1.0
  Ni  Ni1115  1  0.83110500  0.89184317  0.34296225  1.0
  Ni  Ni1116  1  0.03519200  0.14900950  0.26378425  1.0
  Ni  Ni1117  1  0.03519200  0.48234283  0.26378425  1.0
  Ni  Ni1118  1  0.03519200  0.81567617  0.26378425  1.0
  Ni  Ni1119  1  0.36852533  0.14900950  0.26378425  1.0
  Ni  Ni1120  1  0.36852533  0.48234283  0.26378425  1.0
  Ni  Ni1121  1  0.36852533  0.81567617  0.26378425  1.0
  Ni  Ni1122  1  0.70185867  0.14900950  0.26378425  1.0
  Ni  Ni1123  1  0.70185867  0.48234283  0.26378425  1.0
  Ni  Ni1124  1  0.70185867  0.81567617  0.26378425  1.0
  Ni  Ni1125  1  0.03519200  0.31567617  0.36378425  1.0
  Ni  Ni1126  1  0.03519200  0.64900950  0.36378425  1.0
  Ni  Ni1127  1  0.03519200  0.98234283  0.36378425  1.0
  Ni  Ni1128  1  0.36852533  0.31567617  0.36378425  1.0
  Ni  Ni1129  1  0.36852533  0.64900950  0.36378425  1.0
  Ni  Ni1130  1  0.36852533  0.98234283  0.36378425  1.0
  Ni  Ni1131  1  0.70185867  0.31567617  0.36378425  1.0
  Ni  Ni1132  1  0.70185867  0.64900950  0.36378425  1.0
  Ni  Ni1133  1  0.70185867  0.98234283  0.36378425  1.0
  Ni  Ni1134  1  0.20185867  0.10099050  0.37735005  1.0
  Ni  Ni1135  1  0.20185867  0.43432383  0.37735005  1.0
  Ni  Ni1136  1  0.20185867  0.76765717  0.37735005  1.0
  Ni  Ni1137  1  0.53519200  0.10099050  0.37735005  1.0
  Ni  Ni1138  1  0.53519200  0.43432383  0.37735005  1.0
  Ni  Ni1139  1  0.53519200  0.76765717  0.37735005  1.0
  Ni  Ni1140  1  0.86852533  0.10099050  0.37735005  1.0
  Ni  Ni1141  1  0.86852533  0.43432383  0.37735005  1.0
  Ni  Ni1142  1  0.86852533  0.76765717  0.37735005  1.0
  Ni  Ni1143  1  0.20185867  0.26765717  0.27735005  1.0
  Ni  Ni1144  1  0.20185867  0.60099050  0.27735005  1.0
  Ni  Ni1145  1  0.20185867  0.93432383  0.27735005  1.0
  Ni  Ni1146  1  0.53519200  0.26765717  0.27735005  1.0
  Ni  Ni1147  1  0.53519200  0.60099050  0.27735005  1.0
  Ni  Ni1148  1  0.53519200  0.93432383  0.27735005  1.0
  Ni  Ni1149  1  0.86852533  0.26765717  0.27735005  1.0
  Ni  Ni1150  1  0.86852533  0.60099050  0.27735005  1.0
  Ni  Ni1151  1  0.86852533  0.93432383  0.27735005  1.0
  Ni  Ni1152  1  0.33110500  0.02482350  0.29817205  1.0
  Ni  Ni1153  1  0.33110500  0.35815683  0.29817205  1.0
  Ni  Ni1154  1  0.33110500  0.69149017  0.29817205  1.0
  Ni  Ni1155  1  0.66443833  0.02482350  0.29817205  1.0
  Ni  Ni1156  1  0.66443833  0.35815683  0.29817205  1.0
  Ni  Ni1157  1  0.66443833  0.69149017  0.29817205  1.0
  Ni  Ni1158  1  0.99777167  0.02482350  0.29817205  1.0
  Ni  Ni1159  1  0.99777167  0.35815683  0.29817205  1.0
  Ni  Ni1160  1  0.99777167  0.69149017  0.29817205  1.0
  Ni  Ni1161  1  0.33110500  0.19149017  0.39817205  1.0
  Ni  Ni1162  1  0.33110500  0.52482350  0.39817205  1.0
  Ni  Ni1163  1  0.33110500  0.85815683  0.39817205  1.0
  Ni  Ni1164  1  0.66443833  0.19149017  0.39817205  1.0
  Ni  Ni1165  1  0.66443833  0.52482350  0.39817205  1.0
  Ni  Ni1166  1  0.66443833  0.85815683  0.39817205  1.0
  Ni  Ni1167  1  0.99777167  0.19149017  0.39817205  1.0
  Ni  Ni1168  1  0.99777167  0.52482350  0.39817205  1.0
  Ni  Ni1169  1  0.99777167  0.85815683  0.39817205  1.0
  Ni  Ni1170  1  0.16889500  0.10815683  0.24817205  1.0
  Ni  Ni1171  1  0.16889500  0.44149017  0.24817205  1.0
  Ni  Ni1172  1  0.16889500  0.77482350  0.24817205  1.0
  Ni  Ni1173  1  0.50222833  0.10815683  0.24817205  1.0
  Ni  Ni1174  1  0.50222833  0.44149017  0.24817205  1.0
  Ni  Ni1175  1  0.50222833  0.77482350  0.24817205  1.0
  Ni  Ni1176  1  0.83556167  0.10815683  0.24817205  1.0
  Ni  Ni1177  1  0.83556167  0.44149017  0.24817205  1.0
  Ni  Ni1178  1  0.83556167  0.77482350  0.24817205  1.0
  Ni  Ni1179  1  0.16889500  0.27482350  0.34817205  1.0
  Ni  Ni1180  1  0.16889500  0.60815683  0.34817205  1.0
  Ni  Ni1181  1  0.16889500  0.94149017  0.34817205  1.0
  Ni  Ni1182  1  0.50222833  0.27482350  0.34817205  1.0
  Ni  Ni1183  1  0.50222833  0.60815683  0.34817205  1.0
  Ni  Ni1184  1  0.50222833  0.94149017  0.34817205  1.0
  Ni  Ni1185  1  0.83556167  0.27482350  0.34817205  1.0
  Ni  Ni1186  1  0.83556167  0.60815683  0.34817205  1.0
  Ni  Ni1187  1  0.83556167  0.94149017  0.34817205  1.0
  Ni  Ni1188  1  0.09762467  0.02337933  0.37913535  1.0
  Ni  Ni1189  1  0.09762467  0.35671267  0.37913535  1.0
  Ni  Ni1190  1  0.09762467  0.69004600  0.37913535  1.0
  Ni  Ni1191  1  0.43095800  0.02337933  0.37913535  1.0
  Ni  Ni1192  1  0.43095800  0.35671267  0.37913535  1.0
  Ni  Ni1193  1  0.43095800  0.69004600  0.37913535  1.0
  Ni  Ni1194  1  0.76429133  0.02337933  0.37913535  1.0
  Ni  Ni1195  1  0.76429133  0.35671267  0.37913535  1.0
  Ni  Ni1196  1  0.76429133  0.69004600  0.37913535  1.0
  Ni  Ni1197  1  0.09762467  0.19004600  0.27913535  1.0
  Ni  Ni1198  1  0.09762467  0.52337933  0.27913535  1.0
  Ni  Ni1199  1  0.09762467  0.85671267  0.27913535  1.0
  Ni  Ni1200  1  0.43095800  0.19004600  0.27913535  1.0
  Ni  Ni1201  1  0.43095800  0.52337933  0.27913535  1.0
  Ni  Ni1202  1  0.43095800  0.85671267  0.27913535  1.0
  Ni  Ni1203  1  0.76429133  0.19004600  0.27913535  1.0
  Ni  Ni1204  1  0.76429133  0.52337933  0.27913535  1.0
  Ni  Ni1205  1  0.76429133  0.85671267  0.27913535  1.0
  Ni  Ni1206  1  0.26429133  0.10871617  0.33274165  1.0
  Ni  Ni1207  1  0.26429133  0.44204950  0.33274165  1.0
  Ni  Ni1208  1  0.26429133  0.77538283  0.33274165  1.0
  Ni  Ni1209  1  0.59762467  0.10871617  0.33274165  1.0
  Ni  Ni1210  1  0.59762467  0.44204950  0.33274165  1.0
  Ni  Ni1211  1  0.59762467  0.77538283  0.33274165  1.0
  Ni  Ni1212  1  0.93095800  0.10871617  0.33274165  1.0
  Ni  Ni1213  1  0.93095800  0.44204950  0.33274165  1.0
  Ni  Ni1214  1  0.93095800  0.77538283  0.33274165  1.0
  Ni  Ni1215  1  0.26429133  0.27538283  0.23274165  1.0
  Ni  Ni1216  1  0.26429133  0.60871617  0.23274165  1.0
  Ni  Ni1217  1  0.26429133  0.94204950  0.23274165  1.0
  Ni  Ni1218  1  0.59762467  0.27538283  0.23274165  1.0
  Ni  Ni1219  1  0.59762467  0.60871617  0.23274165  1.0
  Ni  Ni1220  1  0.59762467  0.94204950  0.23274165  1.0
  Ni  Ni1221  1  0.93095800  0.27538283  0.23274165  1.0
  Ni  Ni1222  1  0.93095800  0.60871617  0.23274165  1.0
  Ni  Ni1223  1  0.93095800  0.94204950  0.23274165  1.0
