# generated using pymatgen
data_Zr7Ni10
_symmetry_space_group_name_H-M   'P 1'
_cell_length_a   27.43948500
_cell_length_b   66.18185008
_cell_length_c   37.10169600
_cell_angle_alpha   55.90254039
_cell_angle_beta   90.00000000
_cell_angle_gamma   90.00000000
_symmetry_Int_Tables_number   1
_chemical_formula_structural   Zr7Ni10
_chemical_formula_sum   'Zr504 Ni720'
_cell_volume   55793.50440801
_cell_formula_units_Z   72
loop_
 _symmetry_equiv_pos_site_id
 _symmetry_equiv_pos_as_xyz
  1  'x, y, z'
loop_
 _atom_site_type_symbol
 _atom_site_label
 _atom_site_symmetry_multiplicity
 _atom_site_fract_x
 _atom_site_fract_y
 _atom_site_fract_z
 _atom_site_occupancy
  Zr  Zr0  1  0.27130900  0.13573900  0.02269333  1.0
  Zr  Zr1  1  0.27130900  0.46907233  0.02269333  1.0
  Zr  Zr2  1  0.27130900  0.80240567  0.02269333  1.0
  Zr  Zr3  1  0.60464233  0.13573900  0.02269333  1.0
  Zr  Zr4  1  0.60464233  0.46907233  0.02269333  1.0
  Zr  Zr5  1  0.60464233  0.80240567  0.02269333  1.0
  Zr  Zr6  1  0.93797567  0.13573900  0.02269333  1.0
  Zr  Zr7  1  0.93797567  0.46907233  0.02269333  1.0
  Zr  Zr8  1  0.93797567  0.80240567  0.02269333  1.0
  Zr  Zr9  1  0.27130900  0.30240567  0.18936000  1.0
  Zr  Zr10  1  0.27130900  0.63573900  0.18936000  1.0
  Zr  Zr11  1  0.27130900  0.96907233  0.18936000  1.0
  Zr  Zr12  1  0.60464233  0.30240567  0.18936000  1.0
  Zr  Zr13  1  0.60464233  0.63573900  0.18936000  1.0
  Zr  Zr14  1  0.60464233  0.96907233  0.18936000  1.0
  Zr  Zr15  1  0.93797567  0.30240567  0.18936000  1.0
  Zr  Zr16  1  0.93797567  0.63573900  0.18936000  1.0
  Zr  Zr17  1  0.93797567  0.96907233  0.18936000  1.0
  Zr  Zr18  1  0.16703200  0.08336533  0.13984700  1.0
  Zr  Zr19  1  0.16703200  0.41669867  0.13984700  1.0
  Zr  Zr20  1  0.16703200  0.75003200  0.13984700  1.0
  Zr  Zr21  1  0.50036533  0.08336533  0.13984700  1.0
  Zr  Zr22  1  0.50036533  0.41669867  0.13984700  1.0
  Zr  Zr23  1  0.50036533  0.75003200  0.13984700  1.0
  Zr  Zr24  1  0.83369867  0.08336533  0.13984700  1.0
  Zr  Zr25  1  0.83369867  0.41669867  0.13984700  1.0
  Zr  Zr26  1  0.83369867  0.75003200  0.13984700  1.0
  Zr  Zr27  1  0.16703200  0.25003200  0.30651367  1.0
  Zr  Zr28  1  0.16703200  0.58336533  0.30651367  1.0
  Zr  Zr29  1  0.16703200  0.91669867  0.30651367  1.0
  Zr  Zr30  1  0.50036533  0.25003200  0.30651367  1.0
  Zr  Zr31  1  0.50036533  0.58336533  0.30651367  1.0
  Zr  Zr32  1  0.50036533  0.91669867  0.30651367  1.0
  Zr  Zr33  1  0.83369867  0.25003200  0.30651367  1.0
  Zr  Zr34  1  0.83369867  0.58336533  0.30651367  1.0
  Zr  Zr35  1  0.83369867  0.91669867  0.30651367  1.0
  Zr  Zr36  1  0.16666667  0.16666667  0.32611267  1.0
  Zr  Zr37  1  0.16666667  0.50000000  0.32611267  1.0
  Zr  Zr38  1  0.16666667  0.83333333  0.32611267  1.0
  Zr  Zr39  1  0.50000000  0.16666667  0.32611267  1.0
  Zr  Zr40  1  0.50000000  0.50000000  0.32611267  1.0
  Zr  Zr41  1  0.50000000  0.83333333  0.32611267  1.0
  Zr  Zr42  1  0.83333333  0.16666667  0.32611267  1.0
  Zr  Zr43  1  0.83333333  0.50000000  0.32611267  1.0
  Zr  Zr44  1  0.83333333  0.83333333  0.32611267  1.0
  Zr  Zr45  1  0.16666667  0.00000000  0.15944600  1.0
  Zr  Zr46  1  0.16666667  0.33333333  0.15944600  1.0
  Zr  Zr47  1  0.16666667  0.66666667  0.15944600  1.0
  Zr  Zr48  1  0.50000000  0.00000000  0.15944600  1.0
  Zr  Zr49  1  0.50000000  0.33333333  0.15944600  1.0
  Zr  Zr50  1  0.50000000  0.66666667  0.15944600  1.0
  Zr  Zr51  1  0.83333333  0.00000000  0.15944600  1.0
  Zr  Zr52  1  0.83333333  0.33333333  0.15944600  1.0
  Zr  Zr53  1  0.83333333  0.66666667  0.15944600  1.0
  Zr  Zr54  1  0.10464233  0.11426100  0.04417133  1.0
  Zr  Zr55  1  0.10464233  0.44759433  0.04417133  1.0
  Zr  Zr56  1  0.10464233  0.78092767  0.04417133  1.0
  Zr  Zr57  1  0.43797567  0.11426100  0.04417133  1.0
  Zr  Zr58  1  0.43797567  0.44759433  0.04417133  1.0
  Zr  Zr59  1  0.43797567  0.78092767  0.04417133  1.0
  Zr  Zr60  1  0.77130900  0.11426100  0.04417133  1.0
  Zr  Zr61  1  0.77130900  0.44759433  0.04417133  1.0
  Zr  Zr62  1  0.77130900  0.78092767  0.04417133  1.0
  Zr  Zr63  1  0.10464233  0.28092767  0.21083800  1.0
  Zr  Zr64  1  0.10464233  0.61426100  0.21083800  1.0
  Zr  Zr65  1  0.10464233  0.94759433  0.21083800  1.0
  Zr  Zr66  1  0.43797567  0.28092767  0.21083800  1.0
  Zr  Zr67  1  0.43797567  0.61426100  0.21083800  1.0
  Zr  Zr68  1  0.43797567  0.94759433  0.21083800  1.0
  Zr  Zr69  1  0.77130900  0.28092767  0.21083800  1.0
  Zr  Zr70  1  0.77130900  0.61426100  0.21083800  1.0
  Zr  Zr71  1  0.77130900  0.94759433  0.21083800  1.0
  Zr  Zr72  1  0.00036533  0.08330133  0.17904500  1.0
  Zr  Zr73  1  0.00036533  0.41663467  0.17904500  1.0
  Zr  Zr74  1  0.00036533  0.74996800  0.17904500  1.0
  Zr  Zr75  1  0.33369867  0.08330133  0.17904500  1.0
  Zr  Zr76  1  0.33369867  0.41663467  0.17904500  1.0
  Zr  Zr77  1  0.33369867  0.74996800  0.17904500  1.0
  Zr  Zr78  1  0.66703200  0.08330133  0.17904500  1.0
  Zr  Zr79  1  0.66703200  0.41663467  0.17904500  1.0
  Zr  Zr80  1  0.66703200  0.74996800  0.17904500  1.0
  Zr  Zr81  1  0.00036533  0.24996800  0.01237833  1.0
  Zr  Zr82  1  0.00036533  0.58330133  0.01237833  1.0
  Zr  Zr83  1  0.00036533  0.91663467  0.01237833  1.0
  Zr  Zr84  1  0.33369867  0.24996800  0.01237833  1.0
  Zr  Zr85  1  0.33369867  0.58330133  0.01237833  1.0
  Zr  Zr86  1  0.33369867  0.91663467  0.01237833  1.0
  Zr  Zr87  1  0.66703200  0.24996800  0.01237833  1.0
  Zr  Zr88  1  0.66703200  0.58330133  0.01237833  1.0
  Zr  Zr89  1  0.66703200  0.91663467  0.01237833  1.0
  Zr  Zr90  1  0.22869100  0.13573900  0.18936000  1.0
  Zr  Zr91  1  0.22869100  0.46907233  0.18936000  1.0
  Zr  Zr92  1  0.22869100  0.80240567  0.18936000  1.0
  Zr  Zr93  1  0.56202433  0.13573900  0.18936000  1.0
  Zr  Zr94  1  0.56202433  0.46907233  0.18936000  1.0
  Zr  Zr95  1  0.56202433  0.80240567  0.18936000  1.0
  Zr  Zr96  1  0.89535767  0.13573900  0.18936000  1.0
  Zr  Zr97  1  0.89535767  0.46907233  0.18936000  1.0
  Zr  Zr98  1  0.89535767  0.80240567  0.18936000  1.0
  Zr  Zr99  1  0.22869100  0.30240567  0.02269333  1.0
  Zr  Zr100  1  0.22869100  0.63573900  0.02269333  1.0
  Zr  Zr101  1  0.22869100  0.96907233  0.02269333  1.0
  Zr  Zr102  1  0.56202433  0.30240567  0.02269333  1.0
  Zr  Zr103  1  0.56202433  0.63573900  0.02269333  1.0
  Zr  Zr104  1  0.56202433  0.96907233  0.02269333  1.0
  Zr  Zr105  1  0.89535767  0.30240567  0.02269333  1.0
  Zr  Zr106  1  0.89535767  0.63573900  0.02269333  1.0
  Zr  Zr107  1  0.89535767  0.96907233  0.02269333  1.0
  Zr  Zr108  1  0.08295600  0.12456783  0.11697350  1.0
  Zr  Zr109  1  0.08295600  0.45790117  0.11697350  1.0
  Zr  Zr110  1  0.08295600  0.79123450  0.11697350  1.0
  Zr  Zr111  1  0.41628933  0.12456783  0.11697350  1.0
  Zr  Zr112  1  0.41628933  0.45790117  0.11697350  1.0
  Zr  Zr113  1  0.41628933  0.79123450  0.11697350  1.0
  Zr  Zr114  1  0.74962267  0.12456783  0.11697350  1.0
  Zr  Zr115  1  0.74962267  0.45790117  0.11697350  1.0
  Zr  Zr116  1  0.74962267  0.79123450  0.11697350  1.0
  Zr  Zr117  1  0.08295600  0.29123450  0.28364017  1.0
  Zr  Zr118  1  0.08295600  0.62456783  0.28364017  1.0
  Zr  Zr119  1  0.08295600  0.95790117  0.28364017  1.0
  Zr  Zr120  1  0.41628933  0.29123450  0.28364017  1.0
  Zr  Zr121  1  0.41628933  0.62456783  0.28364017  1.0
  Zr  Zr122  1  0.41628933  0.95790117  0.28364017  1.0
  Zr  Zr123  1  0.74962267  0.29123450  0.28364017  1.0
  Zr  Zr124  1  0.74962267  0.62456783  0.28364017  1.0
  Zr  Zr125  1  0.74962267  0.95790117  0.28364017  1.0
  Zr  Zr126  1  0.33296800  0.08336533  0.30651367  1.0
  Zr  Zr127  1  0.33296800  0.41669867  0.30651367  1.0
  Zr  Zr128  1  0.33296800  0.75003200  0.30651367  1.0
  Zr  Zr129  1  0.66630133  0.08336533  0.30651367  1.0
  Zr  Zr130  1  0.66630133  0.41669867  0.30651367  1.0
  Zr  Zr131  1  0.66630133  0.75003200  0.30651367  1.0
  Zr  Zr132  1  0.99963467  0.08336533  0.30651367  1.0
  Zr  Zr133  1  0.99963467  0.41669867  0.30651367  1.0
  Zr  Zr134  1  0.99963467  0.75003200  0.30651367  1.0
  Zr  Zr135  1  0.33296800  0.25003200  0.13984700  1.0
  Zr  Zr136  1  0.33296800  0.58336533  0.13984700  1.0
  Zr  Zr137  1  0.33296800  0.91669867  0.13984700  1.0
  Zr  Zr138  1  0.66630133  0.25003200  0.13984700  1.0
  Zr  Zr139  1  0.66630133  0.58336533  0.13984700  1.0
  Zr  Zr140  1  0.66630133  0.91669867  0.13984700  1.0
  Zr  Zr141  1  0.99963467  0.25003200  0.13984700  1.0
  Zr  Zr142  1  0.99963467  0.58336533  0.13984700  1.0
  Zr  Zr143  1  0.99963467  0.91669867  0.13984700  1.0
  Zr  Zr144  1  0.08371067  0.04123450  0.03611617  1.0
  Zr  Zr145  1  0.08371067  0.37456783  0.03611617  1.0
  Zr  Zr146  1  0.08371067  0.70790117  0.03611617  1.0
  Zr  Zr147  1  0.41704400  0.04123450  0.03611617  1.0
  Zr  Zr148  1  0.41704400  0.37456783  0.03611617  1.0
  Zr  Zr149  1  0.41704400  0.70790117  0.03611617  1.0
  Zr  Zr150  1  0.75037733  0.04123450  0.03611617  1.0
  Zr  Zr151  1  0.75037733  0.37456783  0.03611617  1.0
  Zr  Zr152  1  0.75037733  0.70790117  0.03611617  1.0
  Zr  Zr153  1  0.08371067  0.20790117  0.20278283  1.0
  Zr  Zr154  1  0.08371067  0.54123450  0.20278283  1.0
  Zr  Zr155  1  0.08371067  0.87456783  0.20278283  1.0
  Zr  Zr156  1  0.41704400  0.20790117  0.20278283  1.0
  Zr  Zr157  1  0.41704400  0.54123450  0.20278283  1.0
  Zr  Zr158  1  0.41704400  0.87456783  0.20278283  1.0
  Zr  Zr159  1  0.75037733  0.20790117  0.20278283  1.0
  Zr  Zr160  1  0.75037733  0.54123450  0.20278283  1.0
  Zr  Zr161  1  0.75037733  0.87456783  0.20278283  1.0
  Zr  Zr162  1  0.10464233  0.03092767  0.29619867  1.0
  Zr  Zr163  1  0.10464233  0.36426100  0.29619867  1.0
  Zr  Zr164  1  0.10464233  0.69759433  0.29619867  1.0
  Zr  Zr165  1  0.43797567  0.03092767  0.29619867  1.0
  Zr  Zr166  1  0.43797567  0.36426100  0.29619867  1.0
  Zr  Zr167  1  0.43797567  0.69759433  0.29619867  1.0
  Zr  Zr168  1  0.77130900  0.03092767  0.29619867  1.0
  Zr  Zr169  1  0.77130900  0.36426100  0.29619867  1.0
  Zr  Zr170  1  0.77130900  0.69759433  0.29619867  1.0
  Zr  Zr171  1  0.10464233  0.19759433  0.12953200  1.0
  Zr  Zr172  1  0.10464233  0.53092767  0.12953200  1.0
  Zr  Zr173  1  0.10464233  0.86426100  0.12953200  1.0
  Zr  Zr174  1  0.43797567  0.19759433  0.12953200  1.0
  Zr  Zr175  1  0.43797567  0.53092767  0.12953200  1.0
  Zr  Zr176  1  0.43797567  0.86426100  0.12953200  1.0
  Zr  Zr177  1  0.77130900  0.19759433  0.12953200  1.0
  Zr  Zr178  1  0.77130900  0.53092767  0.12953200  1.0
  Zr  Zr179  1  0.77130900  0.86426100  0.12953200  1.0
  Zr  Zr180  1  0.22869100  0.05240567  0.10805400  1.0
  Zr  Zr181  1  0.22869100  0.38573900  0.10805400  1.0
  Zr  Zr182  1  0.22869100  0.71907233  0.10805400  1.0
  Zr  Zr183  1  0.56202433  0.05240567  0.10805400  1.0
  Zr  Zr184  1  0.56202433  0.38573900  0.10805400  1.0
  Zr  Zr185  1  0.56202433  0.71907233  0.10805400  1.0
  Zr  Zr186  1  0.89535767  0.05240567  0.10805400  1.0
  Zr  Zr187  1  0.89535767  0.38573900  0.10805400  1.0
  Zr  Zr188  1  0.89535767  0.71907233  0.10805400  1.0
  Zr  Zr189  1  0.22869100  0.21907233  0.27472067  1.0
  Zr  Zr190  1  0.22869100  0.55240567  0.27472067  1.0
  Zr  Zr191  1  0.22869100  0.88573900  0.27472067  1.0
  Zr  Zr192  1  0.56202433  0.21907233  0.27472067  1.0
  Zr  Zr193  1  0.56202433  0.55240567  0.27472067  1.0
  Zr  Zr194  1  0.56202433  0.88573900  0.27472067  1.0
  Zr  Zr195  1  0.89535767  0.21907233  0.27472067  1.0
  Zr  Zr196  1  0.89535767  0.55240567  0.27472067  1.0
  Zr  Zr197  1  0.89535767  0.88573900  0.27472067  1.0
  Zr  Zr198  1  0.16630133  0.08330133  0.01237833  1.0
  Zr  Zr199  1  0.16630133  0.41663467  0.01237833  1.0
  Zr  Zr200  1  0.16630133  0.74996800  0.01237833  1.0
  Zr  Zr201  1  0.49963467  0.08330133  0.01237833  1.0
  Zr  Zr202  1  0.49963467  0.41663467  0.01237833  1.0
  Zr  Zr203  1  0.49963467  0.74996800  0.01237833  1.0
  Zr  Zr204  1  0.83296800  0.08330133  0.01237833  1.0
  Zr  Zr205  1  0.83296800  0.41663467  0.01237833  1.0
  Zr  Zr206  1  0.83296800  0.74996800  0.01237833  1.0
  Zr  Zr207  1  0.16630133  0.24996800  0.17904500  1.0
  Zr  Zr208  1  0.16630133  0.58330133  0.17904500  1.0
  Zr  Zr209  1  0.16630133  0.91663467  0.17904500  1.0
  Zr  Zr210  1  0.49963467  0.24996800  0.17904500  1.0
  Zr  Zr211  1  0.49963467  0.58330133  0.17904500  1.0
  Zr  Zr212  1  0.49963467  0.91663467  0.17904500  1.0
  Zr  Zr213  1  0.83296800  0.24996800  0.17904500  1.0
  Zr  Zr214  1  0.83296800  0.58330133  0.17904500  1.0
  Zr  Zr215  1  0.83296800  0.91663467  0.17904500  1.0
  Zr  Zr216  1  0.27130900  0.05240567  0.27472067  1.0
  Zr  Zr217  1  0.27130900  0.38573900  0.27472067  1.0
  Zr  Zr218  1  0.27130900  0.71907233  0.27472067  1.0
  Zr  Zr219  1  0.60464233  0.05240567  0.27472067  1.0
  Zr  Zr220  1  0.60464233  0.38573900  0.27472067  1.0
  Zr  Zr221  1  0.60464233  0.71907233  0.27472067  1.0
  Zr  Zr222  1  0.93797567  0.05240567  0.27472067  1.0
  Zr  Zr223  1  0.93797567  0.38573900  0.27472067  1.0
  Zr  Zr224  1  0.93797567  0.71907233  0.27472067  1.0
  Zr  Zr225  1  0.27130900  0.21907233  0.10805400  1.0
  Zr  Zr226  1  0.27130900  0.55240567  0.10805400  1.0
  Zr  Zr227  1  0.27130900  0.88573900  0.10805400  1.0
  Zr  Zr228  1  0.60464233  0.21907233  0.10805400  1.0
  Zr  Zr229  1  0.60464233  0.55240567  0.10805400  1.0
  Zr  Zr230  1  0.60464233  0.88573900  0.10805400  1.0
  Zr  Zr231  1  0.93797567  0.21907233  0.10805400  1.0
  Zr  Zr232  1  0.93797567  0.55240567  0.10805400  1.0
  Zr  Zr233  1  0.93797567  0.88573900  0.10805400  1.0
  Zr  Zr234  1  0.06202433  0.03092767  0.12953200  1.0
  Zr  Zr235  1  0.06202433  0.36426100  0.12953200  1.0
  Zr  Zr236  1  0.06202433  0.69759433  0.12953200  1.0
  Zr  Zr237  1  0.39535767  0.03092767  0.12953200  1.0
  Zr  Zr238  1  0.39535767  0.36426100  0.12953200  1.0
  Zr  Zr239  1  0.39535767  0.69759433  0.12953200  1.0
  Zr  Zr240  1  0.72869100  0.03092767  0.12953200  1.0
  Zr  Zr241  1  0.72869100  0.36426100  0.12953200  1.0
  Zr  Zr242  1  0.72869100  0.69759433  0.12953200  1.0
  Zr  Zr243  1  0.06202433  0.19759433  0.29619867  1.0
  Zr  Zr244  1  0.06202433  0.53092767  0.29619867  1.0
  Zr  Zr245  1  0.06202433  0.86426100  0.29619867  1.0
  Zr  Zr246  1  0.39535767  0.19759433  0.29619867  1.0
  Zr  Zr247  1  0.39535767  0.53092767  0.29619867  1.0
  Zr  Zr248  1  0.39535767  0.86426100  0.29619867  1.0
  Zr  Zr249  1  0.72869100  0.19759433  0.29619867  1.0
  Zr  Zr250  1  0.72869100  0.53092767  0.29619867  1.0
  Zr  Zr251  1  0.72869100  0.86426100  0.29619867  1.0
  Zr  Zr252  1  0.16703200  0.00003200  0.26231433  1.0
  Zr  Zr253  1  0.16703200  0.33336533  0.26231433  1.0
  Zr  Zr254  1  0.16703200  0.66669867  0.26231433  1.0
  Zr  Zr255  1  0.50036533  0.00003200  0.26231433  1.0
  Zr  Zr256  1  0.50036533  0.33336533  0.26231433  1.0
  Zr  Zr257  1  0.50036533  0.66669867  0.26231433  1.0
  Zr  Zr258  1  0.83369867  0.00003200  0.26231433  1.0
  Zr  Zr259  1  0.83369867  0.33336533  0.26231433  1.0
  Zr  Zr260  1  0.83369867  0.66669867  0.26231433  1.0
  Zr  Zr261  1  0.16703200  0.16669867  0.09564767  1.0
  Zr  Zr262  1  0.16703200  0.50003200  0.09564767  1.0
  Zr  Zr263  1  0.16703200  0.83336533  0.09564767  1.0
  Zr  Zr264  1  0.50036533  0.16669867  0.09564767  1.0
  Zr  Zr265  1  0.50036533  0.50003200  0.09564767  1.0
  Zr  Zr266  1  0.50036533  0.83336533  0.09564767  1.0
  Zr  Zr267  1  0.83369867  0.16669867  0.09564767  1.0
  Zr  Zr268  1  0.83369867  0.50003200  0.09564767  1.0
  Zr  Zr269  1  0.83369867  0.83336533  0.09564767  1.0
  Zr  Zr270  1  0.06202433  0.11426100  0.21083800  1.0
  Zr  Zr271  1  0.06202433  0.44759433  0.21083800  1.0
  Zr  Zr272  1  0.06202433  0.78092767  0.21083800  1.0
  Zr  Zr273  1  0.39535767  0.11426100  0.21083800  1.0
  Zr  Zr274  1  0.39535767  0.44759433  0.21083800  1.0
  Zr  Zr275  1  0.39535767  0.78092767  0.21083800  1.0
  Zr  Zr276  1  0.72869100  0.11426100  0.21083800  1.0
  Zr  Zr277  1  0.72869100  0.44759433  0.21083800  1.0
  Zr  Zr278  1  0.72869100  0.78092767  0.21083800  1.0
  Zr  Zr279  1  0.06202433  0.28092767  0.04417133  1.0
  Zr  Zr280  1  0.06202433  0.61426100  0.04417133  1.0
  Zr  Zr281  1  0.06202433  0.94759433  0.04417133  1.0
  Zr  Zr282  1  0.39535767  0.28092767  0.04417133  1.0
  Zr  Zr283  1  0.39535767  0.61426100  0.04417133  1.0
  Zr  Zr284  1  0.39535767  0.94759433  0.04417133  1.0
  Zr  Zr285  1  0.72869100  0.28092767  0.04417133  1.0
  Zr  Zr286  1  0.72869100  0.61426100  0.04417133  1.0
  Zr  Zr287  1  0.72869100  0.94759433  0.04417133  1.0
  Zr  Zr288  1  0.00000000  0.16666667  0.15944600  1.0
  Zr  Zr289  1  0.00000000  0.50000000  0.15944600  1.0
  Zr  Zr290  1  0.00000000  0.83333333  0.15944600  1.0
  Zr  Zr291  1  0.33333333  0.16666667  0.15944600  1.0
  Zr  Zr292  1  0.33333333  0.50000000  0.15944600  1.0
  Zr  Zr293  1  0.33333333  0.83333333  0.15944600  1.0
  Zr  Zr294  1  0.66666667  0.16666667  0.15944600  1.0
  Zr  Zr295  1  0.66666667  0.50000000  0.15944600  1.0
  Zr  Zr296  1  0.66666667  0.83333333  0.15944600  1.0
  Zr  Zr297  1  0.00000000  0.00000000  0.32611267  1.0
  Zr  Zr298  1  0.00000000  0.33333333  0.32611267  1.0
  Zr  Zr299  1  0.00000000  0.66666667  0.32611267  1.0
  Zr  Zr300  1  0.33333333  0.00000000  0.32611267  1.0
  Zr  Zr301  1  0.33333333  0.33333333  0.32611267  1.0
  Zr  Zr302  1  0.33333333  0.66666667  0.32611267  1.0
  Zr  Zr303  1  0.66666667  0.00000000  0.32611267  1.0
  Zr  Zr304  1  0.66666667  0.33333333  0.32611267  1.0
  Zr  Zr305  1  0.66666667  0.66666667  0.32611267  1.0
  Zr  Zr306  1  0.24962267  0.12543217  0.11610917  1.0
  Zr  Zr307  1  0.24962267  0.45876550  0.11610917  1.0
  Zr  Zr308  1  0.24962267  0.79209883  0.11610917  1.0
  Zr  Zr309  1  0.58295600  0.12543217  0.11610917  1.0
  Zr  Zr310  1  0.58295600  0.45876550  0.11610917  1.0
  Zr  Zr311  1  0.58295600  0.79209883  0.11610917  1.0
  Zr  Zr312  1  0.91628933  0.12543217  0.11610917  1.0
  Zr  Zr313  1  0.91628933  0.45876550  0.11610917  1.0
  Zr  Zr314  1  0.91628933  0.79209883  0.11610917  1.0
  Zr  Zr315  1  0.24962267  0.29209883  0.28277583  1.0
  Zr  Zr316  1  0.24962267  0.62543217  0.28277583  1.0
  Zr  Zr317  1  0.24962267  0.95876550  0.28277583  1.0
  Zr  Zr318  1  0.58295600  0.29209883  0.28277583  1.0
  Zr  Zr319  1  0.58295600  0.62543217  0.28277583  1.0
  Zr  Zr320  1  0.58295600  0.95876550  0.28277583  1.0
  Zr  Zr321  1  0.91628933  0.29209883  0.28277583  1.0
  Zr  Zr322  1  0.91628933  0.62543217  0.28277583  1.0
  Zr  Zr323  1  0.91628933  0.95876550  0.28277583  1.0
  Zr  Zr324  1  0.25037733  0.12543217  0.28277583  1.0
  Zr  Zr325  1  0.25037733  0.45876550  0.28277583  1.0
  Zr  Zr326  1  0.25037733  0.79209883  0.28277583  1.0
  Zr  Zr327  1  0.58371067  0.12543217  0.28277583  1.0
  Zr  Zr328  1  0.58371067  0.45876550  0.28277583  1.0
  Zr  Zr329  1  0.58371067  0.79209883  0.28277583  1.0
  Zr  Zr330  1  0.91704400  0.12543217  0.28277583  1.0
  Zr  Zr331  1  0.91704400  0.45876550  0.28277583  1.0
  Zr  Zr332  1  0.91704400  0.79209883  0.28277583  1.0
  Zr  Zr333  1  0.25037733  0.29209883  0.11610917  1.0
  Zr  Zr334  1  0.25037733  0.62543217  0.11610917  1.0
  Zr  Zr335  1  0.25037733  0.95876550  0.11610917  1.0
  Zr  Zr336  1  0.58371067  0.29209883  0.11610917  1.0
  Zr  Zr337  1  0.58371067  0.62543217  0.11610917  1.0
  Zr  Zr338  1  0.58371067  0.95876550  0.11610917  1.0
  Zr  Zr339  1  0.91704400  0.29209883  0.11610917  1.0
  Zr  Zr340  1  0.91704400  0.62543217  0.11610917  1.0
  Zr  Zr341  1  0.91704400  0.95876550  0.11610917  1.0
  Zr  Zr342  1  0.08295600  0.04123450  0.20278283  1.0
  Zr  Zr343  1  0.08295600  0.37456783  0.20278283  1.0
  Zr  Zr344  1  0.08295600  0.70790117  0.20278283  1.0
  Zr  Zr345  1  0.41628933  0.04123450  0.20278283  1.0
  Zr  Zr346  1  0.41628933  0.37456783  0.20278283  1.0
  Zr  Zr347  1  0.41628933  0.70790117  0.20278283  1.0
  Zr  Zr348  1  0.74962267  0.04123450  0.20278283  1.0
  Zr  Zr349  1  0.74962267  0.37456783  0.20278283  1.0
  Zr  Zr350  1  0.74962267  0.70790117  0.20278283  1.0
  Zr  Zr351  1  0.08295600  0.20790117  0.03611617  1.0
  Zr  Zr352  1  0.08295600  0.54123450  0.03611617  1.0
  Zr  Zr353  1  0.08295600  0.87456783  0.03611617  1.0
  Zr  Zr354  1  0.41628933  0.20790117  0.03611617  1.0
  Zr  Zr355  1  0.41628933  0.54123450  0.03611617  1.0
  Zr  Zr356  1  0.41628933  0.87456783  0.03611617  1.0
  Zr  Zr357  1  0.74962267  0.20790117  0.03611617  1.0
  Zr  Zr358  1  0.74962267  0.54123450  0.03611617  1.0
  Zr  Zr359  1  0.74962267  0.87456783  0.03611617  1.0
  Zr  Zr360  1  0.33296800  0.00003200  0.09564767  1.0
  Zr  Zr361  1  0.33296800  0.33336533  0.09564767  1.0
  Zr  Zr362  1  0.33296800  0.66669867  0.09564767  1.0
  Zr  Zr363  1  0.66630133  0.00003200  0.09564767  1.0
  Zr  Zr364  1  0.66630133  0.33336533  0.09564767  1.0
  Zr  Zr365  1  0.66630133  0.66669867  0.09564767  1.0
  Zr  Zr366  1  0.99963467  0.00003200  0.09564767  1.0
  Zr  Zr367  1  0.99963467  0.33336533  0.09564767  1.0
  Zr  Zr368  1  0.99963467  0.66669867  0.09564767  1.0
  Zr  Zr369  1  0.33296800  0.16669867  0.26231433  1.0
  Zr  Zr370  1  0.33296800  0.50003200  0.26231433  1.0
  Zr  Zr371  1  0.33296800  0.83336533  0.26231433  1.0
  Zr  Zr372  1  0.66630133  0.16669867  0.26231433  1.0
  Zr  Zr373  1  0.66630133  0.50003200  0.26231433  1.0
  Zr  Zr374  1  0.66630133  0.83336533  0.26231433  1.0
  Zr  Zr375  1  0.99963467  0.16669867  0.26231433  1.0
  Zr  Zr376  1  0.99963467  0.50003200  0.26231433  1.0
  Zr  Zr377  1  0.99963467  0.83336533  0.26231433  1.0
  Zr  Zr378  1  0.00000000  0.08333333  0.07611267  1.0
  Zr  Zr379  1  0.00000000  0.41666667  0.07611267  1.0
  Zr  Zr380  1  0.00000000  0.75000000  0.07611267  1.0
  Zr  Zr381  1  0.33333333  0.08333333  0.07611267  1.0
  Zr  Zr382  1  0.33333333  0.41666667  0.07611267  1.0
  Zr  Zr383  1  0.33333333  0.75000000  0.07611267  1.0
  Zr  Zr384  1  0.66666667  0.08333333  0.07611267  1.0
  Zr  Zr385  1  0.66666667  0.41666667  0.07611267  1.0
  Zr  Zr386  1  0.66666667  0.75000000  0.07611267  1.0
  Zr  Zr387  1  0.00000000  0.25000000  0.24277933  1.0
  Zr  Zr388  1  0.00000000  0.58333333  0.24277933  1.0
  Zr  Zr389  1  0.00000000  0.91666667  0.24277933  1.0
  Zr  Zr390  1  0.33333333  0.25000000  0.24277933  1.0
  Zr  Zr391  1  0.33333333  0.58333333  0.24277933  1.0
  Zr  Zr392  1  0.33333333  0.91666667  0.24277933  1.0
  Zr  Zr393  1  0.66666667  0.25000000  0.24277933  1.0
  Zr  Zr394  1  0.66666667  0.58333333  0.24277933  1.0
  Zr  Zr395  1  0.66666667  0.91666667  0.24277933  1.0
  Zr  Zr396  1  0.24962267  0.04209883  0.20191850  1.0
  Zr  Zr397  1  0.24962267  0.37543217  0.20191850  1.0
  Zr  Zr398  1  0.24962267  0.70876550  0.20191850  1.0
  Zr  Zr399  1  0.58295600  0.04209883  0.20191850  1.0
  Zr  Zr400  1  0.58295600  0.37543217  0.20191850  1.0
  Zr  Zr401  1  0.58295600  0.70876550  0.20191850  1.0
  Zr  Zr402  1  0.91628933  0.04209883  0.20191850  1.0
  Zr  Zr403  1  0.91628933  0.37543217  0.20191850  1.0
  Zr  Zr404  1  0.91628933  0.70876550  0.20191850  1.0
  Zr  Zr405  1  0.24962267  0.20876550  0.03525183  1.0
  Zr  Zr406  1  0.24962267  0.54209883  0.03525183  1.0
  Zr  Zr407  1  0.24962267  0.87543217  0.03525183  1.0
  Zr  Zr408  1  0.58295600  0.20876550  0.03525183  1.0
  Zr  Zr409  1  0.58295600  0.54209883  0.03525183  1.0
  Zr  Zr410  1  0.58295600  0.87543217  0.03525183  1.0
  Zr  Zr411  1  0.91628933  0.20876550  0.03525183  1.0
  Zr  Zr412  1  0.91628933  0.54209883  0.03525183  1.0
  Zr  Zr413  1  0.91628933  0.87543217  0.03525183  1.0
  Zr  Zr414  1  0.25037733  0.04209883  0.03525183  1.0
  Zr  Zr415  1  0.25037733  0.37543217  0.03525183  1.0
  Zr  Zr416  1  0.25037733  0.70876550  0.03525183  1.0
  Zr  Zr417  1  0.58371067  0.04209883  0.03525183  1.0
  Zr  Zr418  1  0.58371067  0.37543217  0.03525183  1.0
  Zr  Zr419  1  0.58371067  0.70876550  0.03525183  1.0
  Zr  Zr420  1  0.91704400  0.04209883  0.03525183  1.0
  Zr  Zr421  1  0.91704400  0.37543217  0.03525183  1.0
  Zr  Zr422  1  0.91704400  0.70876550  0.03525183  1.0
  Zr  Zr423  1  0.25037733  0.20876550  0.20191850  1.0
  Zr  Zr424  1  0.25037733  0.54209883  0.20191850  1.0
  Zr  Zr425  1  0.25037733  0.87543217  0.20191850  1.0
  Zr  Zr426  1  0.58371067  0.20876550  0.20191850  1.0
  Zr  Zr427  1  0.58371067  0.54209883  0.20191850  1.0
  Zr  Zr428  1  0.58371067  0.87543217  0.20191850  1.0
  Zr  Zr429  1  0.91704400  0.20876550  0.20191850  1.0
  Zr  Zr430  1  0.91704400  0.54209883  0.20191850  1.0
  Zr  Zr431  1  0.91704400  0.87543217  0.20191850  1.0
  Zr  Zr432  1  0.08371067  0.12456783  0.28364017  1.0
  Zr  Zr433  1  0.08371067  0.45790117  0.28364017  1.0
  Zr  Zr434  1  0.08371067  0.79123450  0.28364017  1.0
  Zr  Zr435  1  0.41704400  0.12456783  0.28364017  1.0
  Zr  Zr436  1  0.41704400  0.45790117  0.28364017  1.0
  Zr  Zr437  1  0.41704400  0.79123450  0.28364017  1.0
  Zr  Zr438  1  0.75037733  0.12456783  0.28364017  1.0
  Zr  Zr439  1  0.75037733  0.45790117  0.28364017  1.0
  Zr  Zr440  1  0.75037733  0.79123450  0.28364017  1.0
  Zr  Zr441  1  0.08371067  0.29123450  0.11697350  1.0
  Zr  Zr442  1  0.08371067  0.62456783  0.11697350  1.0
  Zr  Zr443  1  0.08371067  0.95790117  0.11697350  1.0
  Zr  Zr444  1  0.41704400  0.29123450  0.11697350  1.0
  Zr  Zr445  1  0.41704400  0.62456783  0.11697350  1.0
  Zr  Zr446  1  0.41704400  0.95790117  0.11697350  1.0
  Zr  Zr447  1  0.75037733  0.29123450  0.11697350  1.0
  Zr  Zr448  1  0.75037733  0.62456783  0.11697350  1.0
  Zr  Zr449  1  0.75037733  0.95790117  0.11697350  1.0
  Zr  Zr450  1  0.00036533  0.16663467  0.05657767  1.0
  Zr  Zr451  1  0.00036533  0.49996800  0.05657767  1.0
  Zr  Zr452  1  0.00036533  0.83330133  0.05657767  1.0
  Zr  Zr453  1  0.33369867  0.16663467  0.05657767  1.0
  Zr  Zr454  1  0.33369867  0.49996800  0.05657767  1.0
  Zr  Zr455  1  0.33369867  0.83330133  0.05657767  1.0
  Zr  Zr456  1  0.66703200  0.16663467  0.05657767  1.0
  Zr  Zr457  1  0.66703200  0.49996800  0.05657767  1.0
  Zr  Zr458  1  0.66703200  0.83330133  0.05657767  1.0
  Zr  Zr459  1  0.00036533  0.33330133  0.22324433  1.0
  Zr  Zr460  1  0.00036533  0.66663467  0.22324433  1.0
  Zr  Zr461  1  0.00036533  0.99996800  0.22324433  1.0
  Zr  Zr462  1  0.33369867  0.33330133  0.22324433  1.0
  Zr  Zr463  1  0.33369867  0.66663467  0.22324433  1.0
  Zr  Zr464  1  0.33369867  0.99996800  0.22324433  1.0
  Zr  Zr465  1  0.66703200  0.33330133  0.22324433  1.0
  Zr  Zr466  1  0.66703200  0.66663467  0.22324433  1.0
  Zr  Zr467  1  0.66703200  0.99996800  0.22324433  1.0
  Zr  Zr468  1  0.16666667  0.08333333  0.24277933  1.0
  Zr  Zr469  1  0.16666667  0.41666667  0.24277933  1.0
  Zr  Zr470  1  0.16666667  0.75000000  0.24277933  1.0
  Zr  Zr471  1  0.50000000  0.08333333  0.24277933  1.0
  Zr  Zr472  1  0.50000000  0.41666667  0.24277933  1.0
  Zr  Zr473  1  0.50000000  0.75000000  0.24277933  1.0
  Zr  Zr474  1  0.83333333  0.08333333  0.24277933  1.0
  Zr  Zr475  1  0.83333333  0.41666667  0.24277933  1.0
  Zr  Zr476  1  0.83333333  0.75000000  0.24277933  1.0
  Zr  Zr477  1  0.16666667  0.25000000  0.07611267  1.0
  Zr  Zr478  1  0.16666667  0.58333333  0.07611267  1.0
  Zr  Zr479  1  0.16666667  0.91666667  0.07611267  1.0
  Zr  Zr480  1  0.50000000  0.25000000  0.07611267  1.0
  Zr  Zr481  1  0.50000000  0.58333333  0.07611267  1.0
  Zr  Zr482  1  0.50000000  0.91666667  0.07611267  1.0
  Zr  Zr483  1  0.83333333  0.25000000  0.07611267  1.0
  Zr  Zr484  1  0.83333333  0.58333333  0.07611267  1.0
  Zr  Zr485  1  0.83333333  0.91666667  0.07611267  1.0
  Zr  Zr486  1  0.16630133  0.16663467  0.22324433  1.0
  Zr  Zr487  1  0.16630133  0.49996800  0.22324433  1.0
  Zr  Zr488  1  0.16630133  0.83330133  0.22324433  1.0
  Zr  Zr489  1  0.49963467  0.16663467  0.22324433  1.0
  Zr  Zr490  1  0.49963467  0.49996800  0.22324433  1.0
  Zr  Zr491  1  0.49963467  0.83330133  0.22324433  1.0
  Zr  Zr492  1  0.83296800  0.16663467  0.22324433  1.0
  Zr  Zr493  1  0.83296800  0.49996800  0.22324433  1.0
  Zr  Zr494  1  0.83296800  0.83330133  0.22324433  1.0
  Zr  Zr495  1  0.16630133  0.33330133  0.05657767  1.0
  Zr  Zr496  1  0.16630133  0.66663467  0.05657767  1.0
  Zr  Zr497  1  0.16630133  0.99996800  0.05657767  1.0
  Zr  Zr498  1  0.49963467  0.33330133  0.05657767  1.0
  Zr  Zr499  1  0.49963467  0.66663467  0.05657767  1.0
  Zr  Zr500  1  0.49963467  0.99996800  0.05657767  1.0
  Zr  Zr501  1  0.83296800  0.33330133  0.05657767  1.0
  Zr  Zr502  1  0.83296800  0.66663467  0.05657767  1.0
  Zr  Zr503  1  0.83296800  0.99996800  0.05657767  1.0
  Ni  Ni504  1  0.26453167  0.08425367  0.12433533  1.0
  Ni  Ni505  1  0.26453167  0.41758700  0.12433533  1.0
  Ni  Ni506  1  0.26453167  0.75092033  0.12433533  1.0
  Ni  Ni507  1  0.59786500  0.08425367  0.12433533  1.0
  Ni  Ni508  1  0.59786500  0.41758700  0.12433533  1.0
  Ni  Ni509  1  0.59786500  0.75092033  0.12433533  1.0
  Ni  Ni510  1  0.93119833  0.08425367  0.12433533  1.0
  Ni  Ni511  1  0.93119833  0.41758700  0.12433533  1.0
  Ni  Ni512  1  0.93119833  0.75092033  0.12433533  1.0
  Ni  Ni513  1  0.26453167  0.25092033  0.29100200  1.0
  Ni  Ni514  1  0.26453167  0.58425367  0.29100200  1.0
  Ni  Ni515  1  0.26453167  0.91758700  0.29100200  1.0
  Ni  Ni516  1  0.59786500  0.25092033  0.29100200  1.0
  Ni  Ni517  1  0.59786500  0.58425367  0.29100200  1.0
  Ni  Ni518  1  0.59786500  0.91758700  0.29100200  1.0
  Ni  Ni519  1  0.93119833  0.25092033  0.29100200  1.0
  Ni  Ni520  1  0.93119833  0.58425367  0.29100200  1.0
  Ni  Ni521  1  0.93119833  0.91758700  0.29100200  1.0
  Ni  Ni522  1  0.03504433  0.06559700  0.25992633  1.0
  Ni  Ni523  1  0.03504433  0.39893033  0.25992633  1.0
  Ni  Ni524  1  0.03504433  0.73226367  0.25992633  1.0
  Ni  Ni525  1  0.36837767  0.06559700  0.25992633  1.0
  Ni  Ni526  1  0.36837767  0.39893033  0.25992633  1.0
  Ni  Ni527  1  0.36837767  0.73226367  0.25992633  1.0
  Ni  Ni528  1  0.70171100  0.06559700  0.25992633  1.0
  Ni  Ni529  1  0.70171100  0.39893033  0.25992633  1.0
  Ni  Ni530  1  0.70171100  0.73226367  0.25992633  1.0
  Ni  Ni531  1  0.03504433  0.23226367  0.09325967  1.0
  Ni  Ni532  1  0.03504433  0.56559700  0.09325967  1.0
  Ni  Ni533  1  0.03504433  0.89893033  0.09325967  1.0
  Ni  Ni534  1  0.36837767  0.23226367  0.09325967  1.0
  Ni  Ni535  1  0.36837767  0.56559700  0.09325967  1.0
  Ni  Ni536  1  0.36837767  0.89893033  0.09325967  1.0
  Ni  Ni537  1  0.70171100  0.23226367  0.09325967  1.0
  Ni  Ni538  1  0.70171100  0.56559700  0.09325967  1.0
  Ni  Ni539  1  0.70171100  0.89893033  0.09325967  1.0
  Ni  Ni540  1  0.13162233  0.06559700  0.09325967  1.0
  Ni  Ni541  1  0.13162233  0.39893033  0.09325967  1.0
  Ni  Ni542  1  0.13162233  0.73226367  0.09325967  1.0
  Ni  Ni543  1  0.46495567  0.06559700  0.09325967  1.0
  Ni  Ni544  1  0.46495567  0.39893033  0.09325967  1.0
  Ni  Ni545  1  0.46495567  0.73226367  0.09325967  1.0
  Ni  Ni546  1  0.79828900  0.06559700  0.09325967  1.0
  Ni  Ni547  1  0.79828900  0.39893033  0.09325967  1.0
  Ni  Ni548  1  0.79828900  0.73226367  0.09325967  1.0
  Ni  Ni549  1  0.13162233  0.23226367  0.25992633  1.0
  Ni  Ni550  1  0.13162233  0.56559700  0.25992633  1.0
  Ni  Ni551  1  0.13162233  0.89893033  0.25992633  1.0
  Ni  Ni552  1  0.46495567  0.23226367  0.25992633  1.0
  Ni  Ni553  1  0.46495567  0.56559700  0.25992633  1.0
  Ni  Ni554  1  0.46495567  0.89893033  0.25992633  1.0
  Ni  Ni555  1  0.79828900  0.23226367  0.25992633  1.0
  Ni  Ni556  1  0.79828900  0.56559700  0.25992633  1.0
  Ni  Ni557  1  0.79828900  0.89893033  0.25992633  1.0
  Ni  Ni558  1  0.23607400  0.00223400  0.20506500  1.0
  Ni  Ni559  1  0.23607400  0.33556733  0.20506500  1.0
  Ni  Ni560  1  0.23607400  0.66890067  0.20506500  1.0
  Ni  Ni561  1  0.56940733  0.00223400  0.20506500  1.0
  Ni  Ni562  1  0.56940733  0.33556733  0.20506500  1.0
  Ni  Ni563  1  0.56940733  0.66890067  0.20506500  1.0
  Ni  Ni564  1  0.90274067  0.00223400  0.20506500  1.0
  Ni  Ni565  1  0.90274067  0.33556733  0.20506500  1.0
  Ni  Ni566  1  0.90274067  0.66890067  0.20506500  1.0
  Ni  Ni567  1  0.23607400  0.16890067  0.03839833  1.0
  Ni  Ni568  1  0.23607400  0.50223400  0.03839833  1.0
  Ni  Ni569  1  0.23607400  0.83556733  0.03839833  1.0
  Ni  Ni570  1  0.56940733  0.16890067  0.03839833  1.0
  Ni  Ni571  1  0.56940733  0.50223400  0.03839833  1.0
  Ni  Ni572  1  0.56940733  0.83556733  0.03839833  1.0
  Ni  Ni573  1  0.90274067  0.16890067  0.03839833  1.0
  Ni  Ni574  1  0.90274067  0.50223400  0.03839833  1.0
  Ni  Ni575  1  0.90274067  0.83556733  0.03839833  1.0
  Ni  Ni576  1  0.06940733  0.16443267  0.11382700  1.0
  Ni  Ni577  1  0.06940733  0.49776600  0.11382700  1.0
  Ni  Ni578  1  0.06940733  0.83109933  0.11382700  1.0
  Ni  Ni579  1  0.40274067  0.16443267  0.11382700  1.0
  Ni  Ni580  1  0.40274067  0.49776600  0.11382700  1.0
  Ni  Ni581  1  0.40274067  0.83109933  0.11382700  1.0
  Ni  Ni582  1  0.73607400  0.16443267  0.11382700  1.0
  Ni  Ni583  1  0.73607400  0.49776600  0.11382700  1.0
  Ni  Ni584  1  0.73607400  0.83109933  0.11382700  1.0
  Ni  Ni585  1  0.06940733  0.33109933  0.28049367  1.0
  Ni  Ni586  1  0.06940733  0.66443267  0.28049367  1.0
  Ni  Ni587  1  0.06940733  0.99776600  0.28049367  1.0
  Ni  Ni588  1  0.40274067  0.33109933  0.28049367  1.0
  Ni  Ni589  1  0.40274067  0.66443267  0.28049367  1.0
  Ni  Ni590  1  0.40274067  0.99776600  0.28049367  1.0
  Ni  Ni591  1  0.73607400  0.33109933  0.28049367  1.0
  Ni  Ni592  1  0.73607400  0.66443267  0.28049367  1.0
  Ni  Ni593  1  0.73607400  0.99776600  0.28049367  1.0
  Ni  Ni594  1  0.16414600  0.03493683  0.17339650  1.0
  Ni  Ni595  1  0.16414600  0.36827017  0.17339650  1.0
  Ni  Ni596  1  0.16414600  0.70160350  0.17339650  1.0
  Ni  Ni597  1  0.49747933  0.03493683  0.17339650  1.0
  Ni  Ni598  1  0.49747933  0.36827017  0.17339650  1.0
  Ni  Ni599  1  0.49747933  0.70160350  0.17339650  1.0
  Ni  Ni600  1  0.83081267  0.03493683  0.17339650  1.0
  Ni  Ni601  1  0.83081267  0.36827017  0.17339650  1.0
  Ni  Ni602  1  0.83081267  0.70160350  0.17339650  1.0
  Ni  Ni603  1  0.16414600  0.20160350  0.00672983  1.0
  Ni  Ni604  1  0.16414600  0.53493683  0.00672983  1.0
  Ni  Ni605  1  0.16414600  0.86827017  0.00672983  1.0
  Ni  Ni606  1  0.49747933  0.20160350  0.00672983  1.0
  Ni  Ni607  1  0.49747933  0.53493683  0.00672983  1.0
  Ni  Ni608  1  0.49747933  0.86827017  0.00672983  1.0
  Ni  Ni609  1  0.83081267  0.20160350  0.00672983  1.0
  Ni  Ni610  1  0.83081267  0.53493683  0.00672983  1.0
  Ni  Ni611  1  0.83081267  0.86827017  0.00672983  1.0
  Ni  Ni612  1  0.03504433  0.14893033  0.01110500  1.0
  Ni  Ni613  1  0.03504433  0.48226367  0.01110500  1.0
  Ni  Ni614  1  0.03504433  0.81559700  0.01110500  1.0
  Ni  Ni615  1  0.36837767  0.14893033  0.01110500  1.0
  Ni  Ni616  1  0.36837767  0.48226367  0.01110500  1.0
  Ni  Ni617  1  0.36837767  0.81559700  0.01110500  1.0
  Ni  Ni618  1  0.70171100  0.14893033  0.01110500  1.0
  Ni  Ni619  1  0.70171100  0.48226367  0.01110500  1.0
  Ni  Ni620  1  0.70171100  0.81559700  0.01110500  1.0
  Ni  Ni621  1  0.03504433  0.31559700  0.17777167  1.0
  Ni  Ni622  1  0.03504433  0.64893033  0.17777167  1.0
  Ni  Ni623  1  0.03504433  0.98226367  0.17777167  1.0
  Ni  Ni624  1  0.36837767  0.31559700  0.17777167  1.0
  Ni  Ni625  1  0.36837767  0.64893033  0.17777167  1.0
  Ni  Ni626  1  0.36837767  0.98226367  0.17777167  1.0
  Ni  Ni627  1  0.70171100  0.31559700  0.17777167  1.0
  Ni  Ni628  1  0.70171100  0.64893033  0.17777167  1.0
  Ni  Ni629  1  0.70171100  0.98226367  0.17777167  1.0
  Ni  Ni630  1  0.26453167  0.00092033  0.27604933  1.0
  Ni  Ni631  1  0.26453167  0.33425367  0.27604933  1.0
  Ni  Ni632  1  0.26453167  0.66758700  0.27604933  1.0
  Ni  Ni633  1  0.59786500  0.00092033  0.27604933  1.0
  Ni  Ni634  1  0.59786500  0.33425367  0.27604933  1.0
  Ni  Ni635  1  0.59786500  0.66758700  0.27604933  1.0
  Ni  Ni636  1  0.93119833  0.00092033  0.27604933  1.0
  Ni  Ni637  1  0.93119833  0.33425367  0.27604933  1.0
  Ni  Ni638  1  0.93119833  0.66758700  0.27604933  1.0
  Ni  Ni639  1  0.26453167  0.16758700  0.10938267  1.0
  Ni  Ni640  1  0.26453167  0.50092033  0.10938267  1.0
  Ni  Ni641  1  0.26453167  0.83425367  0.10938267  1.0
  Ni  Ni642  1  0.59786500  0.16758700  0.10938267  1.0
  Ni  Ni643  1  0.59786500  0.50092033  0.10938267  1.0
  Ni  Ni644  1  0.59786500  0.83425367  0.10938267  1.0
  Ni  Ni645  1  0.93119833  0.16758700  0.10938267  1.0
  Ni  Ni646  1  0.93119833  0.50092033  0.10938267  1.0
  Ni  Ni647  1  0.93119833  0.83425367  0.10938267  1.0
  Ni  Ni648  1  0.20171100  0.01773633  0.30778700  1.0
  Ni  Ni649  1  0.20171100  0.35106967  0.30778700  1.0
  Ni  Ni650  1  0.20171100  0.68440300  0.30778700  1.0
  Ni  Ni651  1  0.53504433  0.01773633  0.30778700  1.0
  Ni  Ni652  1  0.53504433  0.35106967  0.30778700  1.0
  Ni  Ni653  1  0.53504433  0.68440300  0.30778700  1.0
  Ni  Ni654  1  0.86837767  0.01773633  0.30778700  1.0
  Ni  Ni655  1  0.86837767  0.35106967  0.30778700  1.0
  Ni  Ni656  1  0.86837767  0.68440300  0.30778700  1.0
  Ni  Ni657  1  0.20171100  0.18440300  0.14112033  1.0
  Ni  Ni658  1  0.20171100  0.51773633  0.14112033  1.0
  Ni  Ni659  1  0.20171100  0.85106967  0.14112033  1.0
  Ni  Ni660  1  0.53504433  0.18440300  0.14112033  1.0
  Ni  Ni661  1  0.53504433  0.51773633  0.14112033  1.0
  Ni  Ni662  1  0.53504433  0.85106967  0.14112033  1.0
  Ni  Ni663  1  0.86837767  0.18440300  0.14112033  1.0
  Ni  Ni664  1  0.86837767  0.51773633  0.14112033  1.0
  Ni  Ni665  1  0.86837767  0.85106967  0.14112033  1.0
  Ni  Ni666  1  0.00225267  0.03448317  0.24374283  1.0
  Ni  Ni667  1  0.00225267  0.36781650  0.24374283  1.0
  Ni  Ni668  1  0.00225267  0.70114983  0.24374283  1.0
  Ni  Ni669  1  0.33558600  0.03448317  0.24374283  1.0
  Ni  Ni670  1  0.33558600  0.36781650  0.24374283  1.0
  Ni  Ni671  1  0.33558600  0.70114983  0.24374283  1.0
  Ni  Ni672  1  0.66891933  0.03448317  0.24374283  1.0
  Ni  Ni673  1  0.66891933  0.36781650  0.24374283  1.0
  Ni  Ni674  1  0.66891933  0.70114983  0.24374283  1.0
  Ni  Ni675  1  0.00225267  0.20114983  0.07707617  1.0
  Ni  Ni676  1  0.00225267  0.53448317  0.07707617  1.0
  Ni  Ni677  1  0.00225267  0.86781650  0.07707617  1.0
  Ni  Ni678  1  0.33558600  0.20114983  0.07707617  1.0
  Ni  Ni679  1  0.33558600  0.53448317  0.07707617  1.0
  Ni  Ni680  1  0.33558600  0.86781650  0.07707617  1.0
  Ni  Ni681  1  0.66891933  0.20114983  0.07707617  1.0
  Ni  Ni682  1  0.66891933  0.53448317  0.07707617  1.0
  Ni  Ni683  1  0.66891933  0.86781650  0.07707617  1.0
  Ni  Ni684  1  0.16891933  0.13218350  0.07514917  1.0
  Ni  Ni685  1  0.16891933  0.46551683  0.07514917  1.0
  Ni  Ni686  1  0.16891933  0.79885017  0.07514917  1.0
  Ni  Ni687  1  0.50225267  0.13218350  0.07514917  1.0
  Ni  Ni688  1  0.50225267  0.46551683  0.07514917  1.0
  Ni  Ni689  1  0.50225267  0.79885017  0.07514917  1.0
  Ni  Ni690  1  0.83558600  0.13218350  0.07514917  1.0
  Ni  Ni691  1  0.83558600  0.46551683  0.07514917  1.0
  Ni  Ni692  1  0.83558600  0.79885017  0.07514917  1.0
  Ni  Ni693  1  0.16891933  0.29885017  0.24181583  1.0
  Ni  Ni694  1  0.16891933  0.63218350  0.24181583  1.0
  Ni  Ni695  1  0.16891933  0.96551683  0.24181583  1.0
  Ni  Ni696  1  0.50225267  0.29885017  0.24181583  1.0
  Ni  Ni697  1  0.50225267  0.63218350  0.24181583  1.0
  Ni  Ni698  1  0.50225267  0.96551683  0.24181583  1.0
  Ni  Ni699  1  0.83558600  0.29885017  0.24181583  1.0
  Ni  Ni700  1  0.83558600  0.63218350  0.24181583  1.0
  Ni  Ni701  1  0.83558600  0.96551683  0.24181583  1.0
  Ni  Ni702  1  0.06940733  0.08109933  0.12619967  1.0
  Ni  Ni703  1  0.06940733  0.41443267  0.12619967  1.0
  Ni  Ni704  1  0.06940733  0.74776600  0.12619967  1.0
  Ni  Ni705  1  0.40274067  0.08109933  0.12619967  1.0
  Ni  Ni706  1  0.40274067  0.41443267  0.12619967  1.0
  Ni  Ni707  1  0.40274067  0.74776600  0.12619967  1.0
  Ni  Ni708  1  0.73607400  0.08109933  0.12619967  1.0
  Ni  Ni709  1  0.73607400  0.41443267  0.12619967  1.0
  Ni  Ni710  1  0.73607400  0.74776600  0.12619967  1.0
  Ni  Ni711  1  0.06940733  0.24776600  0.29286633  1.0
  Ni  Ni712  1  0.06940733  0.58109933  0.29286633  1.0
  Ni  Ni713  1  0.06940733  0.91443267  0.29286633  1.0
  Ni  Ni714  1  0.40274067  0.24776600  0.29286633  1.0
  Ni  Ni715  1  0.40274067  0.58109933  0.29286633  1.0
  Ni  Ni716  1  0.40274067  0.91443267  0.29286633  1.0
  Ni  Ni717  1  0.73607400  0.24776600  0.29286633  1.0
  Ni  Ni718  1  0.73607400  0.58109933  0.29286633  1.0
  Ni  Ni719  1  0.73607400  0.91443267  0.29286633  1.0
  Ni  Ni720  1  0.13162233  0.14893033  0.17777167  1.0
  Ni  Ni721  1  0.13162233  0.48226367  0.17777167  1.0
  Ni  Ni722  1  0.13162233  0.81559700  0.17777167  1.0
  Ni  Ni723  1  0.46495567  0.14893033  0.17777167  1.0
  Ni  Ni724  1  0.46495567  0.48226367  0.17777167  1.0
  Ni  Ni725  1  0.46495567  0.81559700  0.17777167  1.0
  Ni  Ni726  1  0.79828900  0.14893033  0.17777167  1.0
  Ni  Ni727  1  0.79828900  0.48226367  0.17777167  1.0
  Ni  Ni728  1  0.79828900  0.81559700  0.17777167  1.0
  Ni  Ni729  1  0.13162233  0.31559700  0.01110500  1.0
  Ni  Ni730  1  0.13162233  0.64893033  0.01110500  1.0
  Ni  Ni731  1  0.13162233  0.98226367  0.01110500  1.0
  Ni  Ni732  1  0.46495567  0.31559700  0.01110500  1.0
  Ni  Ni733  1  0.46495567  0.64893033  0.01110500  1.0
  Ni  Ni734  1  0.46495567  0.98226367  0.01110500  1.0
  Ni  Ni735  1  0.79828900  0.31559700  0.01110500  1.0
  Ni  Ni736  1  0.79828900  0.64893033  0.01110500  1.0
  Ni  Ni737  1  0.79828900  0.98226367  0.01110500  1.0
  Ni  Ni738  1  0.26392600  0.00223400  0.03839833  1.0
  Ni  Ni739  1  0.26392600  0.33556733  0.03839833  1.0
  Ni  Ni740  1  0.26392600  0.66890067  0.03839833  1.0
  Ni  Ni741  1  0.59725933  0.00223400  0.03839833  1.0
  Ni  Ni742  1  0.59725933  0.33556733  0.03839833  1.0
  Ni  Ni743  1  0.59725933  0.66890067  0.03839833  1.0
  Ni  Ni744  1  0.93059267  0.00223400  0.03839833  1.0
  Ni  Ni745  1  0.93059267  0.33556733  0.03839833  1.0
  Ni  Ni746  1  0.93059267  0.66890067  0.03839833  1.0
  Ni  Ni747  1  0.26392600  0.16890067  0.20506500  1.0
  Ni  Ni748  1  0.26392600  0.50223400  0.20506500  1.0
  Ni  Ni749  1  0.26392600  0.83556733  0.20506500  1.0
  Ni  Ni750  1  0.59725933  0.16890067  0.20506500  1.0
  Ni  Ni751  1  0.59725933  0.50223400  0.20506500  1.0
  Ni  Ni752  1  0.59725933  0.83556733  0.20506500  1.0
  Ni  Ni753  1  0.93059267  0.16890067  0.20506500  1.0
  Ni  Ni754  1  0.93059267  0.50223400  0.20506500  1.0
  Ni  Ni755  1  0.93059267  0.83556733  0.20506500  1.0
  Ni  Ni756  1  0.09786500  0.16574633  0.04284267  1.0
  Ni  Ni757  1  0.09786500  0.49907967  0.04284267  1.0
  Ni  Ni758  1  0.09786500  0.83241300  0.04284267  1.0
  Ni  Ni759  1  0.43119833  0.16574633  0.04284267  1.0
  Ni  Ni760  1  0.43119833  0.49907967  0.04284267  1.0
  Ni  Ni761  1  0.43119833  0.83241300  0.04284267  1.0
  Ni  Ni762  1  0.76453167  0.16574633  0.04284267  1.0
  Ni  Ni763  1  0.76453167  0.49907967  0.04284267  1.0
  Ni  Ni764  1  0.76453167  0.83241300  0.04284267  1.0
  Ni  Ni765  1  0.09786500  0.33241300  0.20950933  1.0
  Ni  Ni766  1  0.09786500  0.66574633  0.20950933  1.0
  Ni  Ni767  1  0.09786500  0.99907967  0.20950933  1.0
  Ni  Ni768  1  0.43119833  0.33241300  0.20950933  1.0
  Ni  Ni769  1  0.43119833  0.66574633  0.20950933  1.0
  Ni  Ni770  1  0.43119833  0.99907967  0.20950933  1.0
  Ni  Ni771  1  0.76453167  0.33241300  0.20950933  1.0
  Ni  Ni772  1  0.76453167  0.66574633  0.20950933  1.0
  Ni  Ni773  1  0.76453167  0.99907967  0.20950933  1.0
  Ni  Ni774  1  0.00252067  0.11827017  0.32562183  1.0
  Ni  Ni775  1  0.00252067  0.45160350  0.32562183  1.0
  Ni  Ni776  1  0.00252067  0.78493683  0.32562183  1.0
  Ni  Ni777  1  0.33585400  0.11827017  0.32562183  1.0
  Ni  Ni778  1  0.33585400  0.45160350  0.32562183  1.0
  Ni  Ni779  1  0.33585400  0.78493683  0.32562183  1.0
  Ni  Ni780  1  0.66918733  0.11827017  0.32562183  1.0
  Ni  Ni781  1  0.66918733  0.45160350  0.32562183  1.0
  Ni  Ni782  1  0.66918733  0.78493683  0.32562183  1.0
  Ni  Ni783  1  0.00252067  0.28493683  0.15895517  1.0
  Ni  Ni784  1  0.00252067  0.61827017  0.15895517  1.0
  Ni  Ni785  1  0.00252067  0.95160350  0.15895517  1.0
  Ni  Ni786  1  0.33585400  0.28493683  0.15895517  1.0
  Ni  Ni787  1  0.33585400  0.61827017  0.15895517  1.0
  Ni  Ni788  1  0.33585400  0.95160350  0.15895517  1.0
  Ni  Ni789  1  0.66918733  0.28493683  0.15895517  1.0
  Ni  Ni790  1  0.66918733  0.61827017  0.15895517  1.0
  Ni  Ni791  1  0.66918733  0.95160350  0.15895517  1.0
  Ni  Ni792  1  0.16414600  0.11827017  0.15895517  1.0
  Ni  Ni793  1  0.16414600  0.45160350  0.15895517  1.0
  Ni  Ni794  1  0.16414600  0.78493683  0.15895517  1.0
  Ni  Ni795  1  0.49747933  0.11827017  0.15895517  1.0
  Ni  Ni796  1  0.49747933  0.45160350  0.15895517  1.0
  Ni  Ni797  1  0.49747933  0.78493683  0.15895517  1.0
  Ni  Ni798  1  0.83081267  0.11827017  0.15895517  1.0
  Ni  Ni799  1  0.83081267  0.45160350  0.15895517  1.0
  Ni  Ni800  1  0.83081267  0.78493683  0.15895517  1.0
  Ni  Ni801  1  0.16414600  0.28493683  0.32562183  1.0
  Ni  Ni802  1  0.16414600  0.61827017  0.32562183  1.0
  Ni  Ni803  1  0.16414600  0.95160350  0.32562183  1.0
  Ni  Ni804  1  0.49747933  0.28493683  0.32562183  1.0
  Ni  Ni805  1  0.49747933  0.61827017  0.32562183  1.0
  Ni  Ni806  1  0.49747933  0.95160350  0.32562183  1.0
  Ni  Ni807  1  0.83081267  0.28493683  0.32562183  1.0
  Ni  Ni808  1  0.83081267  0.61827017  0.32562183  1.0
  Ni  Ni809  1  0.83081267  0.95160350  0.32562183  1.0
  Ni  Ni810  1  0.33108067  0.04885017  0.06270917  1.0
  Ni  Ni811  1  0.33108067  0.38218350  0.06270917  1.0
  Ni  Ni812  1  0.33108067  0.71551683  0.06270917  1.0
  Ni  Ni813  1  0.66441400  0.04885017  0.06270917  1.0
  Ni  Ni814  1  0.66441400  0.38218350  0.06270917  1.0
  Ni  Ni815  1  0.66441400  0.71551683  0.06270917  1.0
  Ni  Ni816  1  0.99774733  0.04885017  0.06270917  1.0
  Ni  Ni817  1  0.99774733  0.38218350  0.06270917  1.0
  Ni  Ni818  1  0.99774733  0.71551683  0.06270917  1.0
  Ni  Ni819  1  0.33108067  0.21551683  0.22937583  1.0
  Ni  Ni820  1  0.33108067  0.54885017  0.22937583  1.0
  Ni  Ni821  1  0.33108067  0.88218350  0.22937583  1.0
  Ni  Ni822  1  0.66441400  0.21551683  0.22937583  1.0
  Ni  Ni823  1  0.66441400  0.54885017  0.22937583  1.0
  Ni  Ni824  1  0.66441400  0.88218350  0.22937583  1.0
  Ni  Ni825  1  0.99774733  0.21551683  0.22937583  1.0
  Ni  Ni826  1  0.99774733  0.54885017  0.22937583  1.0
  Ni  Ni827  1  0.99774733  0.88218350  0.22937583  1.0
  Ni  Ni828  1  0.26392600  0.08556733  0.02602567  1.0
  Ni  Ni829  1  0.26392600  0.41890067  0.02602567  1.0
  Ni  Ni830  1  0.26392600  0.75223400  0.02602567  1.0
  Ni  Ni831  1  0.59725933  0.08556733  0.02602567  1.0
  Ni  Ni832  1  0.59725933  0.41890067  0.02602567  1.0
  Ni  Ni833  1  0.59725933  0.75223400  0.02602567  1.0
  Ni  Ni834  1  0.93059267  0.08556733  0.02602567  1.0
  Ni  Ni835  1  0.93059267  0.41890067  0.02602567  1.0
  Ni  Ni836  1  0.93059267  0.75223400  0.02602567  1.0
  Ni  Ni837  1  0.26392600  0.25223400  0.19269233  1.0
  Ni  Ni838  1  0.26392600  0.58556733  0.19269233  1.0
  Ni  Ni839  1  0.26392600  0.91890067  0.19269233  1.0
  Ni  Ni840  1  0.59725933  0.25223400  0.19269233  1.0
  Ni  Ni841  1  0.59725933  0.58556733  0.19269233  1.0
  Ni  Ni842  1  0.59725933  0.91890067  0.19269233  1.0
  Ni  Ni843  1  0.93059267  0.25223400  0.19269233  1.0
  Ni  Ni844  1  0.93059267  0.58556733  0.19269233  1.0
  Ni  Ni845  1  0.93059267  0.91890067  0.19269233  1.0
  Ni  Ni846  1  0.06880167  0.16574633  0.20950933  1.0
  Ni  Ni847  1  0.06880167  0.49907967  0.20950933  1.0
  Ni  Ni848  1  0.06880167  0.83241300  0.20950933  1.0
  Ni  Ni849  1  0.40213500  0.16574633  0.20950933  1.0
  Ni  Ni850  1  0.40213500  0.49907967  0.20950933  1.0
  Ni  Ni851  1  0.40213500  0.83241300  0.20950933  1.0
  Ni  Ni852  1  0.73546833  0.16574633  0.20950933  1.0
  Ni  Ni853  1  0.73546833  0.49907967  0.20950933  1.0
  Ni  Ni854  1  0.73546833  0.83241300  0.20950933  1.0
  Ni  Ni855  1  0.06880167  0.33241300  0.04284267  1.0
  Ni  Ni856  1  0.06880167  0.66574633  0.04284267  1.0
  Ni  Ni857  1  0.06880167  0.99907967  0.04284267  1.0
  Ni  Ni858  1  0.40213500  0.33241300  0.04284267  1.0
  Ni  Ni859  1  0.40213500  0.66574633  0.04284267  1.0
  Ni  Ni860  1  0.40213500  0.99907967  0.04284267  1.0
  Ni  Ni861  1  0.73546833  0.33241300  0.04284267  1.0
  Ni  Ni862  1  0.73546833  0.66574633  0.04284267  1.0
  Ni  Ni863  1  0.73546833  0.99907967  0.04284267  1.0
  Ni  Ni864  1  0.23607400  0.08556733  0.19269233  1.0
  Ni  Ni865  1  0.23607400  0.41890067  0.19269233  1.0
  Ni  Ni866  1  0.23607400  0.75223400  0.19269233  1.0
  Ni  Ni867  1  0.56940733  0.08556733  0.19269233  1.0
  Ni  Ni868  1  0.56940733  0.41890067  0.19269233  1.0
  Ni  Ni869  1  0.56940733  0.75223400  0.19269233  1.0
  Ni  Ni870  1  0.90274067  0.08556733  0.19269233  1.0
  Ni  Ni871  1  0.90274067  0.41890067  0.19269233  1.0
  Ni  Ni872  1  0.90274067  0.75223400  0.19269233  1.0
  Ni  Ni873  1  0.23607400  0.25223400  0.02602567  1.0
  Ni  Ni874  1  0.23607400  0.58556733  0.02602567  1.0
  Ni  Ni875  1  0.23607400  0.91890067  0.02602567  1.0
  Ni  Ni876  1  0.56940733  0.25223400  0.02602567  1.0
  Ni  Ni877  1  0.56940733  0.58556733  0.02602567  1.0
  Ni  Ni878  1  0.56940733  0.91890067  0.02602567  1.0
  Ni  Ni879  1  0.90274067  0.25223400  0.02602567  1.0
  Ni  Ni880  1  0.90274067  0.58556733  0.02602567  1.0
  Ni  Ni881  1  0.90274067  0.91890067  0.02602567  1.0
  Ni  Ni882  1  0.33081267  0.04839650  0.15993683  1.0
  Ni  Ni883  1  0.33081267  0.38172983  0.15993683  1.0
  Ni  Ni884  1  0.33081267  0.71506317  0.15993683  1.0
  Ni  Ni885  1  0.66414600  0.04839650  0.15993683  1.0
  Ni  Ni886  1  0.66414600  0.38172983  0.15993683  1.0
  Ni  Ni887  1  0.66414600  0.71506317  0.15993683  1.0
  Ni  Ni888  1  0.99747933  0.04839650  0.15993683  1.0
  Ni  Ni889  1  0.99747933  0.38172983  0.15993683  1.0
  Ni  Ni890  1  0.99747933  0.71506317  0.15993683  1.0
  Ni  Ni891  1  0.33081267  0.21506317  0.32660350  1.0
  Ni  Ni892  1  0.33081267  0.54839650  0.32660350  1.0
  Ni  Ni893  1  0.33081267  0.88172983  0.32660350  1.0
  Ni  Ni894  1  0.66414600  0.21506317  0.32660350  1.0
  Ni  Ni895  1  0.66414600  0.54839650  0.32660350  1.0
  Ni  Ni896  1  0.66414600  0.88172983  0.32660350  1.0
  Ni  Ni897  1  0.99747933  0.21506317  0.32660350  1.0
  Ni  Ni898  1  0.99747933  0.54839650  0.32660350  1.0
  Ni  Ni899  1  0.99747933  0.88172983  0.32660350  1.0
  Ni  Ni900  1  0.09786500  0.08241300  0.19455667  1.0
  Ni  Ni901  1  0.09786500  0.41574633  0.19455667  1.0
  Ni  Ni902  1  0.09786500  0.74907967  0.19455667  1.0
  Ni  Ni903  1  0.43119833  0.08241300  0.19455667  1.0
  Ni  Ni904  1  0.43119833  0.41574633  0.19455667  1.0
  Ni  Ni905  1  0.43119833  0.74907967  0.19455667  1.0
  Ni  Ni906  1  0.76453167  0.08241300  0.19455667  1.0
  Ni  Ni907  1  0.76453167  0.41574633  0.19455667  1.0
  Ni  Ni908  1  0.76453167  0.74907967  0.19455667  1.0
  Ni  Ni909  1  0.09786500  0.24907967  0.02789000  1.0
  Ni  Ni910  1  0.09786500  0.58241300  0.02789000  1.0
  Ni  Ni911  1  0.09786500  0.91574633  0.02789000  1.0
  Ni  Ni912  1  0.43119833  0.24907967  0.02789000  1.0
  Ni  Ni913  1  0.43119833  0.58241300  0.02789000  1.0
  Ni  Ni914  1  0.43119833  0.91574633  0.02789000  1.0
  Ni  Ni915  1  0.76453167  0.24907967  0.02789000  1.0
  Ni  Ni916  1  0.76453167  0.58241300  0.02789000  1.0
  Ni  Ni917  1  0.76453167  0.91574633  0.02789000  1.0
  Ni  Ni918  1  0.29828900  0.10106967  0.22563233  1.0
  Ni  Ni919  1  0.29828900  0.43440300  0.22563233  1.0
  Ni  Ni920  1  0.29828900  0.76773633  0.22563233  1.0
  Ni  Ni921  1  0.63162233  0.10106967  0.22563233  1.0
  Ni  Ni922  1  0.63162233  0.43440300  0.22563233  1.0
  Ni  Ni923  1  0.63162233  0.76773633  0.22563233  1.0
  Ni  Ni924  1  0.96495567  0.10106967  0.22563233  1.0
  Ni  Ni925  1  0.96495567  0.43440300  0.22563233  1.0
  Ni  Ni926  1  0.96495567  0.76773633  0.22563233  1.0
  Ni  Ni927  1  0.29828900  0.26773633  0.05896567  1.0
  Ni  Ni928  1  0.29828900  0.60106967  0.05896567  1.0
  Ni  Ni929  1  0.29828900  0.93440300  0.05896567  1.0
  Ni  Ni930  1  0.63162233  0.26773633  0.05896567  1.0
  Ni  Ni931  1  0.63162233  0.60106967  0.05896567  1.0
  Ni  Ni932  1  0.63162233  0.93440300  0.05896567  1.0
  Ni  Ni933  1  0.96495567  0.26773633  0.05896567  1.0
  Ni  Ni934  1  0.96495567  0.60106967  0.05896567  1.0
  Ni  Ni935  1  0.96495567  0.93440300  0.05896567  1.0
  Ni  Ni936  1  0.16441400  0.11781650  0.25618283  1.0
  Ni  Ni937  1  0.16441400  0.45114983  0.25618283  1.0
  Ni  Ni938  1  0.16441400  0.78448317  0.25618283  1.0
  Ni  Ni939  1  0.49774733  0.11781650  0.25618283  1.0
  Ni  Ni940  1  0.49774733  0.45114983  0.25618283  1.0
  Ni  Ni941  1  0.49774733  0.78448317  0.25618283  1.0
  Ni  Ni942  1  0.83108067  0.11781650  0.25618283  1.0
  Ni  Ni943  1  0.83108067  0.45114983  0.25618283  1.0
  Ni  Ni944  1  0.83108067  0.78448317  0.25618283  1.0
  Ni  Ni945  1  0.16441400  0.28448317  0.08951617  1.0
  Ni  Ni946  1  0.16441400  0.61781650  0.08951617  1.0
  Ni  Ni947  1  0.16441400  0.95114983  0.08951617  1.0
  Ni  Ni948  1  0.49774733  0.28448317  0.08951617  1.0
  Ni  Ni949  1  0.49774733  0.61781650  0.08951617  1.0
  Ni  Ni950  1  0.49774733  0.95114983  0.08951617  1.0
  Ni  Ni951  1  0.83108067  0.28448317  0.08951617  1.0
  Ni  Ni952  1  0.83108067  0.61781650  0.08951617  1.0
  Ni  Ni953  1  0.83108067  0.95114983  0.08951617  1.0
  Ni  Ni954  1  0.16891933  0.04885017  0.22937583  1.0
  Ni  Ni955  1  0.16891933  0.38218350  0.22937583  1.0
  Ni  Ni956  1  0.16891933  0.71551683  0.22937583  1.0
  Ni  Ni957  1  0.50225267  0.04885017  0.22937583  1.0
  Ni  Ni958  1  0.50225267  0.38218350  0.22937583  1.0
  Ni  Ni959  1  0.50225267  0.71551683  0.22937583  1.0
  Ni  Ni960  1  0.83558600  0.04885017  0.22937583  1.0
  Ni  Ni961  1  0.83558600  0.38218350  0.22937583  1.0
  Ni  Ni962  1  0.83558600  0.71551683  0.22937583  1.0
  Ni  Ni963  1  0.16891933  0.21551683  0.06270917  1.0
  Ni  Ni964  1  0.16891933  0.54885017  0.06270917  1.0
  Ni  Ni965  1  0.16891933  0.88218350  0.06270917  1.0
  Ni  Ni966  1  0.50225267  0.21551683  0.06270917  1.0
  Ni  Ni967  1  0.50225267  0.54885017  0.06270917  1.0
  Ni  Ni968  1  0.50225267  0.88218350  0.06270917  1.0
  Ni  Ni969  1  0.83558600  0.21551683  0.06270917  1.0
  Ni  Ni970  1  0.83558600  0.54885017  0.06270917  1.0
  Ni  Ni971  1  0.83558600  0.88218350  0.06270917  1.0
  Ni  Ni972  1  0.06880167  0.08241300  0.02789000  1.0
  Ni  Ni973  1  0.06880167  0.41574633  0.02789000  1.0
  Ni  Ni974  1  0.06880167  0.74907967  0.02789000  1.0
  Ni  Ni975  1  0.40213500  0.08241300  0.02789000  1.0
  Ni  Ni976  1  0.40213500  0.41574633  0.02789000  1.0
  Ni  Ni977  1  0.40213500  0.74907967  0.02789000  1.0
  Ni  Ni978  1  0.73546833  0.08241300  0.02789000  1.0
  Ni  Ni979  1  0.73546833  0.41574633  0.02789000  1.0
  Ni  Ni980  1  0.73546833  0.74907967  0.02789000  1.0
  Ni  Ni981  1  0.06880167  0.24907967  0.19455667  1.0
  Ni  Ni982  1  0.06880167  0.58241300  0.19455667  1.0
  Ni  Ni983  1  0.06880167  0.91574633  0.19455667  1.0
  Ni  Ni984  1  0.40213500  0.24907967  0.19455667  1.0
  Ni  Ni985  1  0.40213500  0.58241300  0.19455667  1.0
  Ni  Ni986  1  0.40213500  0.91574633  0.19455667  1.0
  Ni  Ni987  1  0.73546833  0.24907967  0.19455667  1.0
  Ni  Ni988  1  0.73546833  0.58241300  0.19455667  1.0
  Ni  Ni989  1  0.73546833  0.91574633  0.19455667  1.0
  Ni  Ni990  1  0.00225267  0.11781650  0.08951617  1.0
  Ni  Ni991  1  0.00225267  0.45114983  0.08951617  1.0
  Ni  Ni992  1  0.00225267  0.78448317  0.08951617  1.0
  Ni  Ni993  1  0.33558600  0.11781650  0.08951617  1.0
  Ni  Ni994  1  0.33558600  0.45114983  0.08951617  1.0
  Ni  Ni995  1  0.33558600  0.78448317  0.08951617  1.0
  Ni  Ni996  1  0.66891933  0.11781650  0.08951617  1.0
  Ni  Ni997  1  0.66891933  0.45114983  0.08951617  1.0
  Ni  Ni998  1  0.66891933  0.78448317  0.08951617  1.0
  Ni  Ni999  1  0.00225267  0.28448317  0.25618283  1.0
  Ni  Ni1000  1  0.00225267  0.61781650  0.25618283  1.0
  Ni  Ni1001  1  0.00225267  0.95114983  0.25618283  1.0
  Ni  Ni1002  1  0.33558600  0.28448317  0.25618283  1.0
  Ni  Ni1003  1  0.33558600  0.61781650  0.25618283  1.0
  Ni  Ni1004  1  0.33558600  0.95114983  0.25618283  1.0
  Ni  Ni1005  1  0.66891933  0.28448317  0.25618283  1.0
  Ni  Ni1006  1  0.66891933  0.61781650  0.25618283  1.0
  Ni  Ni1007  1  0.66891933  0.95114983  0.25618283  1.0
  Ni  Ni1008  1  0.16441400  0.03448317  0.07707617  1.0
  Ni  Ni1009  1  0.16441400  0.36781650  0.07707617  1.0
  Ni  Ni1010  1  0.16441400  0.70114983  0.07707617  1.0
  Ni  Ni1011  1  0.49774733  0.03448317  0.07707617  1.0
  Ni  Ni1012  1  0.49774733  0.36781650  0.07707617  1.0
  Ni  Ni1013  1  0.49774733  0.70114983  0.07707617  1.0
  Ni  Ni1014  1  0.83108067  0.03448317  0.07707617  1.0
  Ni  Ni1015  1  0.83108067  0.36781650  0.07707617  1.0
  Ni  Ni1016  1  0.83108067  0.70114983  0.07707617  1.0
  Ni  Ni1017  1  0.16441400  0.20114983  0.24374283  1.0
  Ni  Ni1018  1  0.16441400  0.53448317  0.24374283  1.0
  Ni  Ni1019  1  0.16441400  0.86781650  0.24374283  1.0
  Ni  Ni1020  1  0.49774733  0.20114983  0.24374283  1.0
  Ni  Ni1021  1  0.49774733  0.53448317  0.24374283  1.0
  Ni  Ni1022  1  0.49774733  0.86781650  0.24374283  1.0
  Ni  Ni1023  1  0.83108067  0.20114983  0.24374283  1.0
  Ni  Ni1024  1  0.83108067  0.53448317  0.24374283  1.0
  Ni  Ni1025  1  0.83108067  0.86781650  0.24374283  1.0
  Ni  Ni1026  1  0.33108067  0.13218350  0.24181583  1.0
  Ni  Ni1027  1  0.33108067  0.46551683  0.24181583  1.0
  Ni  Ni1028  1  0.33108067  0.79885017  0.24181583  1.0
  Ni  Ni1029  1  0.66441400  0.13218350  0.24181583  1.0
  Ni  Ni1030  1  0.66441400  0.46551683  0.24181583  1.0
  Ni  Ni1031  1  0.66441400  0.79885017  0.24181583  1.0
  Ni  Ni1032  1  0.99774733  0.13218350  0.24181583  1.0
  Ni  Ni1033  1  0.99774733  0.46551683  0.24181583  1.0
  Ni  Ni1034  1  0.99774733  0.79885017  0.24181583  1.0
  Ni  Ni1035  1  0.33108067  0.29885017  0.07514917  1.0
  Ni  Ni1036  1  0.33108067  0.63218350  0.07514917  1.0
  Ni  Ni1037  1  0.33108067  0.96551683  0.07514917  1.0
  Ni  Ni1038  1  0.66441400  0.29885017  0.07514917  1.0
  Ni  Ni1039  1  0.66441400  0.63218350  0.07514917  1.0
  Ni  Ni1040  1  0.66441400  0.96551683  0.07514917  1.0
  Ni  Ni1041  1  0.99774733  0.29885017  0.07514917  1.0
  Ni  Ni1042  1  0.99774733  0.63218350  0.07514917  1.0
  Ni  Ni1043  1  0.99774733  0.96551683  0.07514917  1.0
  Ni  Ni1044  1  0.16918733  0.04839650  0.32660350  1.0
  Ni  Ni1045  1  0.16918733  0.38172983  0.32660350  1.0
  Ni  Ni1046  1  0.16918733  0.71506317  0.32660350  1.0
  Ni  Ni1047  1  0.50252067  0.04839650  0.32660350  1.0
  Ni  Ni1048  1  0.50252067  0.38172983  0.32660350  1.0
  Ni  Ni1049  1  0.50252067  0.71506317  0.32660350  1.0
  Ni  Ni1050  1  0.83585400  0.04839650  0.32660350  1.0
  Ni  Ni1051  1  0.83585400  0.38172983  0.32660350  1.0
  Ni  Ni1052  1  0.83585400  0.71506317  0.32660350  1.0
  Ni  Ni1053  1  0.16918733  0.21506317  0.15993683  1.0
  Ni  Ni1054  1  0.16918733  0.54839650  0.15993683  1.0
  Ni  Ni1055  1  0.16918733  0.88172983  0.15993683  1.0
  Ni  Ni1056  1  0.50252067  0.21506317  0.15993683  1.0
  Ni  Ni1057  1  0.50252067  0.54839650  0.15993683  1.0
  Ni  Ni1058  1  0.50252067  0.88172983  0.15993683  1.0
  Ni  Ni1059  1  0.83585400  0.21506317  0.15993683  1.0
  Ni  Ni1060  1  0.83585400  0.54839650  0.15993683  1.0
  Ni  Ni1061  1  0.83585400  0.88172983  0.15993683  1.0
  Ni  Ni1062  1  0.23546833  0.08425367  0.29100200  1.0
  Ni  Ni1063  1  0.23546833  0.41758700  0.29100200  1.0
  Ni  Ni1064  1  0.23546833  0.75092033  0.29100200  1.0
  Ni  Ni1065  1  0.56880167  0.08425367  0.29100200  1.0
  Ni  Ni1066  1  0.56880167  0.41758700  0.29100200  1.0
  Ni  Ni1067  1  0.56880167  0.75092033  0.29100200  1.0
  Ni  Ni1068  1  0.90213500  0.08425367  0.29100200  1.0
  Ni  Ni1069  1  0.90213500  0.41758700  0.29100200  1.0
  Ni  Ni1070  1  0.90213500  0.75092033  0.29100200  1.0
  Ni  Ni1071  1  0.23546833  0.25092033  0.12433533  1.0
  Ni  Ni1072  1  0.23546833  0.58425367  0.12433533  1.0
  Ni  Ni1073  1  0.23546833  0.91758700  0.12433533  1.0
  Ni  Ni1074  1  0.56880167  0.25092033  0.12433533  1.0
  Ni  Ni1075  1  0.56880167  0.58425367  0.12433533  1.0
  Ni  Ni1076  1  0.56880167  0.91758700  0.12433533  1.0
  Ni  Ni1077  1  0.90213500  0.25092033  0.12433533  1.0
  Ni  Ni1078  1  0.90213500  0.58425367  0.12433533  1.0
  Ni  Ni1079  1  0.90213500  0.91758700  0.12433533  1.0
  Ni  Ni1080  1  0.16918733  0.13172983  0.31216217  1.0
  Ni  Ni1081  1  0.16918733  0.46506317  0.31216217  1.0
  Ni  Ni1082  1  0.16918733  0.79839650  0.31216217  1.0
  Ni  Ni1083  1  0.50252067  0.13172983  0.31216217  1.0
  Ni  Ni1084  1  0.50252067  0.46506317  0.31216217  1.0
  Ni  Ni1085  1  0.50252067  0.79839650  0.31216217  1.0
  Ni  Ni1086  1  0.83585400  0.13172983  0.31216217  1.0
  Ni  Ni1087  1  0.83585400  0.46506317  0.31216217  1.0
  Ni  Ni1088  1  0.83585400  0.79839650  0.31216217  1.0
  Ni  Ni1089  1  0.16918733  0.29839650  0.14549550  1.0
  Ni  Ni1090  1  0.16918733  0.63172983  0.14549550  1.0
  Ni  Ni1091  1  0.16918733  0.96506317  0.14549550  1.0
  Ni  Ni1092  1  0.50252067  0.29839650  0.14549550  1.0
  Ni  Ni1093  1  0.50252067  0.63172983  0.14549550  1.0
  Ni  Ni1094  1  0.50252067  0.96506317  0.14549550  1.0
  Ni  Ni1095  1  0.83585400  0.29839650  0.14549550  1.0
  Ni  Ni1096  1  0.83585400  0.63172983  0.14549550  1.0
  Ni  Ni1097  1  0.83585400  0.96506317  0.14549550  1.0
  Ni  Ni1098  1  0.23546833  0.00092033  0.10938267  1.0
  Ni  Ni1099  1  0.23546833  0.33425367  0.10938267  1.0
  Ni  Ni1100  1  0.23546833  0.66758700  0.10938267  1.0
  Ni  Ni1101  1  0.56880167  0.00092033  0.10938267  1.0
  Ni  Ni1102  1  0.56880167  0.33425367  0.10938267  1.0
  Ni  Ni1103  1  0.56880167  0.66758700  0.10938267  1.0
  Ni  Ni1104  1  0.90213500  0.00092033  0.10938267  1.0
  Ni  Ni1105  1  0.90213500  0.33425367  0.10938267  1.0
  Ni  Ni1106  1  0.90213500  0.66758700  0.10938267  1.0
  Ni  Ni1107  1  0.23546833  0.16758700  0.27604933  1.0
  Ni  Ni1108  1  0.23546833  0.50092033  0.27604933  1.0
  Ni  Ni1109  1  0.23546833  0.83425367  0.27604933  1.0
  Ni  Ni1110  1  0.56880167  0.16758700  0.27604933  1.0
  Ni  Ni1111  1  0.56880167  0.50092033  0.27604933  1.0
  Ni  Ni1112  1  0.56880167  0.83425367  0.27604933  1.0
  Ni  Ni1113  1  0.90213500  0.16758700  0.27604933  1.0
  Ni  Ni1114  1  0.90213500  0.50092033  0.27604933  1.0
  Ni  Ni1115  1  0.90213500  0.83425367  0.27604933  1.0
  Ni  Ni1116  1  0.09725933  0.16443267  0.28049367  1.0
  Ni  Ni1117  1  0.09725933  0.49776600  0.28049367  1.0
  Ni  Ni1118  1  0.09725933  0.83109933  0.28049367  1.0
  Ni  Ni1119  1  0.43059267  0.16443267  0.28049367  1.0
  Ni  Ni1120  1  0.43059267  0.49776600  0.28049367  1.0
  Ni  Ni1121  1  0.43059267  0.83109933  0.28049367  1.0
  Ni  Ni1122  1  0.76392600  0.16443267  0.28049367  1.0
  Ni  Ni1123  1  0.76392600  0.49776600  0.28049367  1.0
  Ni  Ni1124  1  0.76392600  0.83109933  0.28049367  1.0
  Ni  Ni1125  1  0.09725933  0.33109933  0.11382700  1.0
  Ni  Ni1126  1  0.09725933  0.66443267  0.11382700  1.0
  Ni  Ni1127  1  0.09725933  0.99776600  0.11382700  1.0
  Ni  Ni1128  1  0.43059267  0.33109933  0.11382700  1.0
  Ni  Ni1129  1  0.43059267  0.66443267  0.11382700  1.0
  Ni  Ni1130  1  0.43059267  0.99776600  0.11382700  1.0
  Ni  Ni1131  1  0.76392600  0.33109933  0.11382700  1.0
  Ni  Ni1132  1  0.76392600  0.66443267  0.11382700  1.0
  Ni  Ni1133  1  0.76392600  0.99776600  0.11382700  1.0
  Ni  Ni1134  1  0.20171100  0.10106967  0.05896567  1.0
  Ni  Ni1135  1  0.20171100  0.43440300  0.05896567  1.0
  Ni  Ni1136  1  0.20171100  0.76773633  0.05896567  1.0
  Ni  Ni1137  1  0.53504433  0.10106967  0.05896567  1.0
  Ni  Ni1138  1  0.53504433  0.43440300  0.05896567  1.0
  Ni  Ni1139  1  0.53504433  0.76773633  0.05896567  1.0
  Ni  Ni1140  1  0.86837767  0.10106967  0.05896567  1.0
  Ni  Ni1141  1  0.86837767  0.43440300  0.05896567  1.0
  Ni  Ni1142  1  0.86837767  0.76773633  0.05896567  1.0
  Ni  Ni1143  1  0.20171100  0.26773633  0.22563233  1.0
  Ni  Ni1144  1  0.20171100  0.60106967  0.22563233  1.0
  Ni  Ni1145  1  0.20171100  0.93440300  0.22563233  1.0
  Ni  Ni1146  1  0.53504433  0.26773633  0.22563233  1.0
  Ni  Ni1147  1  0.53504433  0.60106967  0.22563233  1.0
  Ni  Ni1148  1  0.53504433  0.93440300  0.22563233  1.0
  Ni  Ni1149  1  0.86837767  0.26773633  0.22563233  1.0
  Ni  Ni1150  1  0.86837767  0.60106967  0.22563233  1.0
  Ni  Ni1151  1  0.86837767  0.93440300  0.22563233  1.0
  Ni  Ni1152  1  0.29828900  0.01773633  0.14112033  1.0
  Ni  Ni1153  1  0.29828900  0.35106967  0.14112033  1.0
  Ni  Ni1154  1  0.29828900  0.68440300  0.14112033  1.0
  Ni  Ni1155  1  0.63162233  0.01773633  0.14112033  1.0
  Ni  Ni1156  1  0.63162233  0.35106967  0.14112033  1.0
  Ni  Ni1157  1  0.63162233  0.68440300  0.14112033  1.0
  Ni  Ni1158  1  0.96495567  0.01773633  0.14112033  1.0
  Ni  Ni1159  1  0.96495567  0.35106967  0.14112033  1.0
  Ni  Ni1160  1  0.96495567  0.68440300  0.14112033  1.0
  Ni  Ni1161  1  0.29828900  0.18440300  0.30778700  1.0
  Ni  Ni1162  1  0.29828900  0.51773633  0.30778700  1.0
  Ni  Ni1163  1  0.29828900  0.85106967  0.30778700  1.0
  Ni  Ni1164  1  0.63162233  0.18440300  0.30778700  1.0
  Ni  Ni1165  1  0.63162233  0.51773633  0.30778700  1.0
  Ni  Ni1166  1  0.63162233  0.85106967  0.30778700  1.0
  Ni  Ni1167  1  0.96495567  0.18440300  0.30778700  1.0
  Ni  Ni1168  1  0.96495567  0.51773633  0.30778700  1.0
  Ni  Ni1169  1  0.96495567  0.85106967  0.30778700  1.0
  Ni  Ni1170  1  0.33081267  0.13172983  0.14549550  1.0
  Ni  Ni1171  1  0.33081267  0.46506317  0.14549550  1.0
  Ni  Ni1172  1  0.33081267  0.79839650  0.14549550  1.0
  Ni  Ni1173  1  0.66414600  0.13172983  0.14549550  1.0
  Ni  Ni1174  1  0.66414600  0.46506317  0.14549550  1.0
  Ni  Ni1175  1  0.66414600  0.79839650  0.14549550  1.0
  Ni  Ni1176  1  0.99747933  0.13172983  0.14549550  1.0
  Ni  Ni1177  1  0.99747933  0.46506317  0.14549550  1.0
  Ni  Ni1178  1  0.99747933  0.79839650  0.14549550  1.0
  Ni  Ni1179  1  0.33081267  0.29839650  0.31216217  1.0
  Ni  Ni1180  1  0.33081267  0.63172983  0.31216217  1.0
  Ni  Ni1181  1  0.33081267  0.96506317  0.31216217  1.0
  Ni  Ni1182  1  0.66414600  0.29839650  0.31216217  1.0
  Ni  Ni1183  1  0.66414600  0.63172983  0.31216217  1.0
  Ni  Ni1184  1  0.66414600  0.96506317  0.31216217  1.0
  Ni  Ni1185  1  0.99747933  0.29839650  0.31216217  1.0
  Ni  Ni1186  1  0.99747933  0.63172983  0.31216217  1.0
  Ni  Ni1187  1  0.99747933  0.96506317  0.31216217  1.0
  Ni  Ni1188  1  0.00252067  0.03493683  0.00672983  1.0
  Ni  Ni1189  1  0.00252067  0.36827017  0.00672983  1.0
  Ni  Ni1190  1  0.00252067  0.70160350  0.00672983  1.0
  Ni  Ni1191  1  0.33585400  0.03493683  0.00672983  1.0
  Ni  Ni1192  1  0.33585400  0.36827017  0.00672983  1.0
  Ni  Ni1193  1  0.33585400  0.70160350  0.00672983  1.0
  Ni  Ni1194  1  0.66918733  0.03493683  0.00672983  1.0
  Ni  Ni1195  1  0.66918733  0.36827017  0.00672983  1.0
  Ni  Ni1196  1  0.66918733  0.70160350  0.00672983  1.0
  Ni  Ni1197  1  0.00252067  0.20160350  0.17339650  1.0
  Ni  Ni1198  1  0.00252067  0.53493683  0.17339650  1.0
  Ni  Ni1199  1  0.00252067  0.86827017  0.17339650  1.0
  Ni  Ni1200  1  0.33585400  0.20160350  0.17339650  1.0
  Ni  Ni1201  1  0.33585400  0.53493683  0.17339650  1.0
  Ni  Ni1202  1  0.33585400  0.86827017  0.17339650  1.0
  Ni  Ni1203  1  0.66918733  0.20160350  0.17339650  1.0
  Ni  Ni1204  1  0.66918733  0.53493683  0.17339650  1.0
  Ni  Ni1205  1  0.66918733  0.86827017  0.17339650  1.0
  Ni  Ni1206  1  0.09725933  0.08109933  0.29286633  1.0
  Ni  Ni1207  1  0.09725933  0.41443267  0.29286633  1.0
  Ni  Ni1208  1  0.09725933  0.74776600  0.29286633  1.0
  Ni  Ni1209  1  0.43059267  0.08109933  0.29286633  1.0
  Ni  Ni1210  1  0.43059267  0.41443267  0.29286633  1.0
  Ni  Ni1211  1  0.43059267  0.74776600  0.29286633  1.0
  Ni  Ni1212  1  0.76392600  0.08109933  0.29286633  1.0
  Ni  Ni1213  1  0.76392600  0.41443267  0.29286633  1.0
  Ni  Ni1214  1  0.76392600  0.74776600  0.29286633  1.0
  Ni  Ni1215  1  0.09725933  0.24776600  0.12619967  1.0
  Ni  Ni1216  1  0.09725933  0.58109933  0.12619967  1.0
  Ni  Ni1217  1  0.09725933  0.91443267  0.12619967  1.0
  Ni  Ni1218  1  0.43059267  0.24776600  0.12619967  1.0
  Ni  Ni1219  1  0.43059267  0.58109933  0.12619967  1.0
  Ni  Ni1220  1  0.43059267  0.91443267  0.12619967  1.0
  Ni  Ni1221  1  0.76392600  0.24776600  0.12619967  1.0
  Ni  Ni1222  1  0.76392600  0.58109933  0.12619967  1.0
  Ni  Ni1223  1  0.76392600  0.91443267  0.12619967  1.0
