# generated using pymatgen
data_Zr7Ni10
_symmetry_space_group_name_H-M   'P 1'
_cell_length_a   46.14608524
_cell_length_b   53.66876691
_cell_length_c   31.42422881
_cell_angle_alpha   91.39490608
_cell_angle_beta   98.24164709
_cell_angle_gamma   104.58409433
_symmetry_Int_Tables_number   1
_chemical_formula_structural   Zr7Ni10
_chemical_formula_sum   'Zr1008 Ni1440'
_cell_volume   74391.33921068
_cell_formula_units_Z   144
loop_
 _symmetry_equiv_pos_site_id
 _symmetry_equiv_pos_as_xyz
  1  'x, y, z'
loop_
 _atom_site_type_symbol
 _atom_site_label
 _atom_site_symmetry_multiplicity
 _atom_site_fract_x
 _atom_site_fract_y
 _atom_site_fract_z
 _atom_site_occupancy
  Ni  Ni0  1  0.02436100  0.22330767  0.05058900  1.0
  Ni  Ni1  1  0.02436100  0.55664100  0.05058900  1.0
  Ni  Ni2  1  0.02436100  0.88997433  0.05058900  1.0
  Ni  Ni3  1  0.35769433  0.22330767  0.05058900  1.0
  Ni  Ni4  1  0.35769433  0.55664100  0.05058900  1.0
  Ni  Ni5  1  0.35769433  0.88997433  0.05058900  1.0
  Ni  Ni6  1  0.69102767  0.22330767  0.05058900  1.0
  Ni  Ni7  1  0.69102767  0.55664100  0.05058900  1.0
  Ni  Ni8  1  0.69102767  0.88997433  0.05058900  1.0
  Ni  Ni9  1  0.19102767  0.01497433  0.17558900  1.0
  Ni  Ni10  1  0.19102767  0.34830767  0.17558900  1.0
  Ni  Ni11  1  0.19102767  0.68164100  0.17558900  1.0
  Ni  Ni12  1  0.52436100  0.01497433  0.17558900  1.0
  Ni  Ni13  1  0.52436100  0.34830767  0.17558900  1.0
  Ni  Ni14  1  0.52436100  0.68164100  0.17558900  1.0
  Ni  Ni15  1  0.85769433  0.01497433  0.17558900  1.0
  Ni  Ni16  1  0.85769433  0.34830767  0.17558900  1.0
  Ni  Ni17  1  0.85769433  0.68164100  0.17558900  1.0
  Ni  Ni18  1  0.18448350  0.17177196  0.03636662  1.0
  Ni  Ni19  1  0.18448350  0.50510529  0.03636662  1.0
  Ni  Ni20  1  0.18448350  0.83843862  0.03636662  1.0
  Ni  Ni21  1  0.51781683  0.17177196  0.03636662  1.0
  Ni  Ni22  1  0.51781683  0.50510529  0.03636662  1.0
  Ni  Ni23  1  0.51781683  0.83843862  0.03636662  1.0
  Ni  Ni24  1  0.85115017  0.17177196  0.03636662  1.0
  Ni  Ni25  1  0.85115017  0.50510529  0.03636662  1.0
  Ni  Ni26  1  0.85115017  0.83843862  0.03636662  1.0
  Ni  Ni27  1  0.01781683  0.29677196  0.16136662  1.0
  Ni  Ni28  1  0.01781683  0.63010529  0.16136662  1.0
  Ni  Ni29  1  0.01781683  0.96343862  0.16136662  1.0
  Ni  Ni30  1  0.35115017  0.29677196  0.16136662  1.0
  Ni  Ni31  1  0.35115017  0.63010529  0.16136662  1.0
  Ni  Ni32  1  0.35115017  0.96343862  0.16136662  1.0
  Ni  Ni33  1  0.68448350  0.29677196  0.16136662  1.0
  Ni  Ni34  1  0.68448350  0.63010529  0.16136662  1.0
  Ni  Ni35  1  0.68448350  0.96343862  0.16136662  1.0
  Ni  Ni36  1  0.31610583  0.14548871  0.01008337  1.0
  Ni  Ni37  1  0.31610583  0.47882204  0.01008337  1.0
  Ni  Ni38  1  0.31610583  0.81215538  0.01008337  1.0
  Ni  Ni39  1  0.64943917  0.14548871  0.01008337  1.0
  Ni  Ni40  1  0.64943917  0.47882204  0.01008337  1.0
  Ni  Ni41  1  0.64943917  0.81215538  0.01008337  1.0
  Ni  Ni42  1  0.98277250  0.14548871  0.01008337  1.0
  Ni  Ni43  1  0.98277250  0.47882204  0.01008337  1.0
  Ni  Ni44  1  0.98277250  0.81215538  0.01008337  1.0
  Ni  Ni45  1  0.14943917  0.27048871  0.13508337  1.0
  Ni  Ni46  1  0.14943917  0.60382204  0.13508337  1.0
  Ni  Ni47  1  0.14943917  0.93715538  0.13508337  1.0
  Ni  Ni48  1  0.48277250  0.27048871  0.13508337  1.0
  Ni  Ni49  1  0.48277250  0.60382204  0.13508337  1.0
  Ni  Ni50  1  0.48277250  0.93715538  0.13508337  1.0
  Ni  Ni51  1  0.81610583  0.27048871  0.13508337  1.0
  Ni  Ni52  1  0.81610583  0.60382204  0.13508337  1.0
  Ni  Ni53  1  0.81610583  0.93715538  0.13508337  1.0
  Ni  Ni54  1  0.01077717  0.17114246  0.16246312  1.0
  Ni  Ni55  1  0.01077717  0.50447579  0.16246312  1.0
  Ni  Ni56  1  0.01077717  0.83780913  0.16246312  1.0
  Ni  Ni57  1  0.34411050  0.17114246  0.16246312  1.0
  Ni  Ni58  1  0.34411050  0.50447579  0.16246312  1.0
  Ni  Ni59  1  0.34411050  0.83780913  0.16246312  1.0
  Ni  Ni60  1  0.67744383  0.17114246  0.16246312  1.0
  Ni  Ni61  1  0.67744383  0.50447579  0.16246312  1.0
  Ni  Ni62  1  0.67744383  0.83780913  0.16246312  1.0
  Ni  Ni63  1  0.17744383  0.04614246  0.03746312  1.0
  Ni  Ni64  1  0.17744383  0.37947579  0.03746312  1.0
  Ni  Ni65  1  0.17744383  0.71280913  0.03746312  1.0
  Ni  Ni66  1  0.51077717  0.04614246  0.03746312  1.0
  Ni  Ni67  1  0.51077717  0.37947579  0.03746312  1.0
  Ni  Ni68  1  0.51077717  0.71280913  0.03746312  1.0
  Ni  Ni69  1  0.84411050  0.04614246  0.03746312  1.0
  Ni  Ni70  1  0.84411050  0.37947579  0.03746312  1.0
  Ni  Ni71  1  0.84411050  0.71280913  0.03746312  1.0
  Ni  Ni72  1  0.22529683  0.13301871  0.13327537  1.0
  Ni  Ni73  1  0.22529683  0.46635204  0.13327537  1.0
  Ni  Ni74  1  0.22529683  0.79968538  0.13327537  1.0
  Ni  Ni75  1  0.55863017  0.13301871  0.13327537  1.0
  Ni  Ni76  1  0.55863017  0.46635204  0.13327537  1.0
  Ni  Ni77  1  0.55863017  0.79968538  0.13327537  1.0
  Ni  Ni78  1  0.89196350  0.13301871  0.13327537  1.0
  Ni  Ni79  1  0.89196350  0.46635204  0.13327537  1.0
  Ni  Ni80  1  0.89196350  0.79968538  0.13327537  1.0
  Ni  Ni81  1  0.05863017  0.00801871  0.00827537  1.0
  Ni  Ni82  1  0.05863017  0.34135204  0.00827537  1.0
  Ni  Ni83  1  0.05863017  0.67468538  0.00827537  1.0
  Ni  Ni84  1  0.39196350  0.00801871  0.00827537  1.0
  Ni  Ni85  1  0.39196350  0.34135204  0.00827537  1.0
  Ni  Ni86  1  0.39196350  0.67468538  0.00827537  1.0
  Ni  Ni87  1  0.72529683  0.00801871  0.00827537  1.0
  Ni  Ni88  1  0.72529683  0.34135204  0.00827537  1.0
  Ni  Ni89  1  0.72529683  0.67468538  0.00827538  1.0
  Ni  Ni90  1  0.30762933  0.16090875  0.08682375  1.0
  Ni  Ni91  1  0.30762933  0.49424208  0.08682375  1.0
  Ni  Ni92  1  0.30762933  0.82757542  0.08682375  1.0
  Ni  Ni93  1  0.64096267  0.16090875  0.08682375  1.0
  Ni  Ni94  1  0.64096267  0.49424208  0.08682375  1.0
  Ni  Ni95  1  0.64096267  0.82757542  0.08682375  1.0
  Ni  Ni96  1  0.97429600  0.16090875  0.08682375  1.0
  Ni  Ni97  1  0.97429600  0.49424208  0.08682375  1.0
  Ni  Ni98  1  0.97429600  0.82757542  0.08682375  1.0
  Ni  Ni99  1  0.14096267  0.28590875  0.21182375  1.0
  Ni  Ni100  1  0.14096267  0.61924208  0.21182375  1.0
  Ni  Ni101  1  0.14096267  0.95257542  0.21182375  1.0
  Ni  Ni102  1  0.47429600  0.28590875  0.21182375  1.0
  Ni  Ni103  1  0.47429600  0.61924208  0.21182375  1.0
  Ni  Ni104  1  0.47429600  0.95257542  0.21182375  1.0
  Ni  Ni105  1  0.80762933  0.28590875  0.21182375  1.0
  Ni  Ni106  1  0.80762933  0.61924208  0.21182375  1.0
  Ni  Ni107  1  0.80762933  0.95257542  0.21182375  1.0
  Ni  Ni108  1  0.26722750  0.06804729  0.09930862  1.0
  Ni  Ni109  1  0.26722750  0.40138062  0.09930862  1.0
  Ni  Ni110  1  0.26722750  0.73471396  0.09930862  1.0
  Ni  Ni111  1  0.60056083  0.06804729  0.09930862  1.0
  Ni  Ni112  1  0.60056083  0.40138062  0.09930862  1.0
  Ni  Ni113  1  0.60056083  0.73471396  0.09930862  1.0
  Ni  Ni114  1  0.93389417  0.06804729  0.09930862  1.0
  Ni  Ni115  1  0.93389417  0.40138062  0.09930862  1.0
  Ni  Ni116  1  0.93389417  0.73471396  0.09930862  1.0
  Ni  Ni117  1  0.10056083  0.19304729  0.22430862  1.0
  Ni  Ni118  1  0.10056083  0.52638062  0.22430862  1.0
  Ni  Ni119  1  0.10056083  0.85971396  0.22430862  1.0
  Ni  Ni120  1  0.43389417  0.19304729  0.22430862  1.0
  Ni  Ni121  1  0.43389417  0.52638062  0.22430862  1.0
  Ni  Ni122  1  0.43389417  0.85971396  0.22430862  1.0
  Ni  Ni123  1  0.76722750  0.19304729  0.22430862  1.0
  Ni  Ni124  1  0.76722750  0.52638062  0.22430862  1.0
  Ni  Ni125  1  0.76722750  0.85971396  0.22430862  1.0
  Ni  Ni126  1  0.32350400  0.20728375  0.20123175  1.0
  Ni  Ni127  1  0.32350400  0.54061708  0.20123175  1.0
  Ni  Ni128  1  0.32350400  0.87395042  0.20123175  1.0
  Ni  Ni129  1  0.65683733  0.20728375  0.20123175  1.0
  Ni  Ni130  1  0.65683733  0.54061708  0.20123175  1.0
  Ni  Ni131  1  0.65683733  0.87395042  0.20123175  1.0
  Ni  Ni132  1  0.99017067  0.20728375  0.20123175  1.0
  Ni  Ni133  1  0.99017067  0.54061708  0.20123175  1.0
  Ni  Ni134  1  0.99017067  0.87395042  0.20123175  1.0
  Ni  Ni135  1  0.15683733  0.08228375  0.07623175  1.0
  Ni  Ni136  1  0.15683733  0.41561708  0.07623175  1.0
  Ni  Ni137  1  0.15683733  0.74895042  0.07623175  1.0
  Ni  Ni138  1  0.49017067  0.08228375  0.07623175  1.0
  Ni  Ni139  1  0.49017067  0.41561708  0.07623175  1.0
  Ni  Ni140  1  0.49017067  0.74895042  0.07623175  1.0
  Ni  Ni141  1  0.82350400  0.08228375  0.07623175  1.0
  Ni  Ni142  1  0.82350400  0.41561708  0.07623175  1.0
  Ni  Ni143  1  0.82350400  0.74895042  0.07623175  1.0
  Ni  Ni144  1  0.26781683  0.21034163  0.17065762  1.0
  Ni  Ni145  1  0.26781683  0.54367496  0.17065762  1.0
  Ni  Ni146  1  0.26781683  0.87700829  0.17065762  1.0
  Ni  Ni147  1  0.60115017  0.21034163  0.17065762  1.0
  Ni  Ni148  1  0.60115017  0.54367496  0.17065762  1.0
  Ni  Ni149  1  0.60115017  0.87700829  0.17065762  1.0
  Ni  Ni150  1  0.93448350  0.21034163  0.17065762  1.0
  Ni  Ni151  1  0.93448350  0.54367496  0.17065762  1.0
  Ni  Ni152  1  0.93448350  0.87700829  0.17065762  1.0
  Ni  Ni153  1  0.10115017  0.08534162  0.04565762  1.0
  Ni  Ni154  1  0.10115017  0.41867496  0.04565762  1.0
  Ni  Ni155  1  0.10115017  0.75200829  0.04565762  1.0
  Ni  Ni156  1  0.43448350  0.08534162  0.04565762  1.0
  Ni  Ni157  1  0.43448350  0.41867496  0.04565762  1.0
  Ni  Ni158  1  0.43448350  0.75200829  0.04565762  1.0
  Ni  Ni159  1  0.76781683  0.08534162  0.04565762  1.0
  Ni  Ni160  1  0.76781683  0.41867496  0.04565762  1.0
  Ni  Ni161  1  0.76781683  0.75200829  0.04565762  1.0
  Ni  Ni162  1  0.19173633  0.12618167  0.05300400  1.0
  Ni  Ni163  1  0.19173633  0.45951500  0.05300400  1.0
  Ni  Ni164  1  0.19173633  0.79284833  0.05300400  1.0
  Ni  Ni165  1  0.52506967  0.12618167  0.05300400  1.0
  Ni  Ni166  1  0.52506967  0.45951500  0.05300400  1.0
  Ni  Ni167  1  0.52506967  0.79284833  0.05300400  1.0
  Ni  Ni168  1  0.85840300  0.12618167  0.05300400  1.0
  Ni  Ni169  1  0.85840300  0.45951500  0.05300400  1.0
  Ni  Ni170  1  0.85840300  0.79284833  0.05300400  1.0
  Ni  Ni171  1  0.02506967  0.25118167  0.17800400  1.0
  Ni  Ni172  1  0.02506967  0.58451500  0.17800400  1.0
  Ni  Ni173  1  0.02506967  0.91784833  0.17800400  1.0
  Ni  Ni174  1  0.35840300  0.25118167  0.17800400  1.0
  Ni  Ni175  1  0.35840300  0.58451500  0.17800400  1.0
  Ni  Ni176  1  0.35840300  0.91784833  0.17800400  1.0
  Ni  Ni177  1  0.69173633  0.25118167  0.17800400  1.0
  Ni  Ni178  1  0.69173633  0.58451500  0.17800400  1.0
  Ni  Ni179  1  0.69173633  0.91784833  0.17800400  1.0
  Ni  Ni180  1  0.31051633  0.12761350  0.19236850  1.0
  Ni  Ni181  1  0.31051633  0.46094683  0.19236850  1.0
  Ni  Ni182  1  0.31051633  0.79428017  0.19236850  1.0
  Ni  Ni183  1  0.64384967  0.12761350  0.19236850  1.0
  Ni  Ni184  1  0.64384967  0.46094683  0.19236850  1.0
  Ni  Ni185  1  0.64384967  0.79428017  0.19236850  1.0
  Ni  Ni186  1  0.97718300  0.12761350  0.19236850  1.0
  Ni  Ni187  1  0.97718300  0.46094683  0.19236850  1.0
  Ni  Ni188  1  0.97718300  0.79428017  0.19236850  1.0
  Ni  Ni189  1  0.14384967  0.00261350  0.06736850  1.0
  Ni  Ni190  1  0.14384967  0.33594683  0.06736850  1.0
  Ni  Ni191  1  0.14384967  0.66928017  0.06736850  1.0
  Ni  Ni192  1  0.47718300  0.00261350  0.06736850  1.0
  Ni  Ni193  1  0.47718300  0.33594683  0.06736850  1.0
  Ni  Ni194  1  0.47718300  0.66928017  0.06736850  1.0
  Ni  Ni195  1  0.81051633  0.00261350  0.06736850  1.0
  Ni  Ni196  1  0.81051633  0.33594683  0.06736850  1.0
  Ni  Ni197  1  0.81051633  0.66928017  0.06736850  1.0
  Ni  Ni198  1  0.26077717  0.06474179  0.23166512  1.0
  Ni  Ni199  1  0.26077717  0.39807513  0.23166512  1.0
  Ni  Ni200  1  0.26077717  0.73140846  0.23166512  1.0
  Ni  Ni201  1  0.59411050  0.06474179  0.23166512  1.0
  Ni  Ni202  1  0.59411050  0.39807513  0.23166512  1.0
  Ni  Ni203  1  0.59411050  0.73140846  0.23166512  1.0
  Ni  Ni204  1  0.92744383  0.06474179  0.23166512  1.0
  Ni  Ni205  1  0.92744383  0.39807513  0.23166512  1.0
  Ni  Ni206  1  0.92744383  0.73140846  0.23166512  1.0
  Ni  Ni207  1  0.09411050  0.27307513  0.10666512  1.0
  Ni  Ni208  1  0.09411050  0.60640846  0.10666512  1.0
  Ni  Ni209  1  0.09411050  0.93974179  0.10666512  1.0
  Ni  Ni210  1  0.42744383  0.27307513  0.10666512  1.0
  Ni  Ni211  1  0.42744383  0.60640846  0.10666512  1.0
  Ni  Ni212  1  0.42744383  0.93974179  0.10666512  1.0
  Ni  Ni213  1  0.76077717  0.27307513  0.10666512  1.0
  Ni  Ni214  1  0.76077717  0.60640846  0.10666512  1.0
  Ni  Ni215  1  0.76077717  0.93974179  0.10666512  1.0
  Ni  Ni216  1  0.06551650  0.04176404  0.07302537  1.0
  Ni  Ni217  1  0.06551650  0.37509738  0.07302537  1.0
  Ni  Ni218  1  0.06551650  0.70843071  0.07302537  1.0
  Ni  Ni219  1  0.39884983  0.04176404  0.07302537  1.0
  Ni  Ni220  1  0.39884983  0.37509738  0.07302537  1.0
  Ni  Ni221  1  0.39884983  0.70843071  0.07302537  1.0
  Ni  Ni222  1  0.73218317  0.04176404  0.07302537  1.0
  Ni  Ni223  1  0.73218317  0.37509738  0.07302537  1.0
  Ni  Ni224  1  0.73218317  0.70843071  0.07302538  1.0
  Ni  Ni225  1  0.23218317  0.16676404  0.19802537  1.0
  Ni  Ni226  1  0.23218317  0.50009737  0.19802537  1.0
  Ni  Ni227  1  0.23218317  0.83343071  0.19802537  1.0
  Ni  Ni228  1  0.56551650  0.16676404  0.19802537  1.0
  Ni  Ni229  1  0.56551650  0.50009737  0.19802537  1.0
  Ni  Ni230  1  0.56551650  0.83343071  0.19802537  1.0
  Ni  Ni231  1  0.89884983  0.16676404  0.19802537  1.0
  Ni  Ni232  1  0.89884983  0.50009737  0.19802537  1.0
  Ni  Ni233  1  0.89884983  0.83343071  0.19802537  1.0
  Ni  Ni234  1  0.10803650  0.11908696  0.11040762  1.0
  Ni  Ni235  1  0.10803650  0.45242029  0.11040762  1.0
  Ni  Ni236  1  0.10803650  0.78575362  0.11040762  1.0
  Ni  Ni237  1  0.44136983  0.11908696  0.11040762  1.0
  Ni  Ni238  1  0.44136983  0.45242029  0.11040762  1.0
  Ni  Ni239  1  0.44136983  0.78575362  0.11040762  1.0
  Ni  Ni240  1  0.77470317  0.11908696  0.11040762  1.0
  Ni  Ni241  1  0.77470317  0.45242029  0.11040762  1.0
  Ni  Ni242  1  0.77470317  0.78575362  0.11040762  1.0
  Ni  Ni243  1  0.27470317  0.24408696  0.23540762  1.0
  Ni  Ni244  1  0.27470317  0.57742029  0.23540762  1.0
  Ni  Ni245  1  0.27470317  0.91075363  0.23540762  1.0
  Ni  Ni246  1  0.60803650  0.24408696  0.23540762  1.0
  Ni  Ni247  1  0.60803650  0.57742029  0.23540762  1.0
  Ni  Ni248  1  0.60803650  0.91075363  0.23540762  1.0
  Ni  Ni249  1  0.94136983  0.24408696  0.23540762  1.0
  Ni  Ni250  1  0.94136983  0.57742029  0.23540762  1.0
  Ni  Ni251  1  0.94136983  0.91075363  0.23540762  1.0
  Ni  Ni252  1  0.27436100  0.11822067  0.11585000  1.0
  Ni  Ni253  1  0.27436100  0.45155400  0.11585000  1.0
  Ni  Ni254  1  0.27436100  0.78488733  0.11585000  1.0
  Ni  Ni255  1  0.60769433  0.11822067  0.11585000  1.0
  Ni  Ni256  1  0.60769433  0.45155400  0.11585000  1.0
  Ni  Ni257  1  0.60769433  0.78488733  0.11585000  1.0
  Ni  Ni258  1  0.94102767  0.11822067  0.11585000  1.0
  Ni  Ni259  1  0.94102767  0.45155400  0.11585000  1.0
  Ni  Ni260  1  0.94102767  0.78488733  0.11585000  1.0
  Ni  Ni261  1  0.10769433  0.24322067  0.24085000  1.0
  Ni  Ni262  1  0.10769433  0.57655400  0.24085000  1.0
  Ni  Ni263  1  0.10769433  0.90988733  0.24085000  1.0
  Ni  Ni264  1  0.44102767  0.24322067  0.24085000  1.0
  Ni  Ni265  1  0.44102767  0.57655400  0.24085000  1.0
  Ni  Ni266  1  0.44102767  0.90988733  0.24085000  1.0
  Ni  Ni267  1  0.77436100  0.24322067  0.24085000  1.0
  Ni  Ni268  1  0.77436100  0.57655400  0.24085000  1.0
  Ni  Ni269  1  0.77436100  0.90988733  0.24085000  1.0
  Ni  Ni270  1  0.27570400  0.02196708  0.11454875  1.0
  Ni  Ni271  1  0.27570400  0.35530042  0.11454875  1.0
  Ni  Ni272  1  0.27570400  0.68863375  0.11454875  1.0
  Ni  Ni273  1  0.60903733  0.02196708  0.11454875  1.0
  Ni  Ni274  1  0.60903733  0.35530042  0.11454875  1.0
  Ni  Ni275  1  0.60903733  0.68863375  0.11454875  1.0
  Ni  Ni276  1  0.94237067  0.02196708  0.11454875  1.0
  Ni  Ni277  1  0.94237067  0.35530042  0.11454875  1.0
  Ni  Ni278  1  0.94237067  0.68863375  0.11454875  1.0
  Ni  Ni279  1  0.10903733  0.14696708  0.23954875  1.0
  Ni  Ni280  1  0.10903733  0.48030042  0.23954875  1.0
  Ni  Ni281  1  0.10903733  0.81363375  0.23954875  1.0
  Ni  Ni282  1  0.44237067  0.14696708  0.23954875  1.0
  Ni  Ni283  1  0.44237067  0.48030042  0.23954875  1.0
  Ni  Ni284  1  0.44237067  0.81363375  0.23954875  1.0
  Ni  Ni285  1  0.77570400  0.14696708  0.23954875  1.0
  Ni  Ni286  1  0.77570400  0.48030042  0.23954875  1.0
  Ni  Ni287  1  0.77570400  0.81363375  0.23954875  1.0
  Ni  Ni288  1  0.27318333  0.14507658  0.23765825  1.0
  Ni  Ni289  1  0.27318333  0.47840992  0.23765825  1.0
  Ni  Ni290  1  0.27318333  0.81174325  0.23765825  1.0
  Ni  Ni291  1  0.60651667  0.14507658  0.23765825  1.0
  Ni  Ni292  1  0.60651667  0.47840992  0.23765825  1.0
  Ni  Ni293  1  0.60651667  0.81174325  0.23765825  1.0
  Ni  Ni294  1  0.93985000  0.14507658  0.23765825  1.0
  Ni  Ni295  1  0.93985000  0.47840992  0.23765825  1.0
  Ni  Ni296  1  0.93985000  0.81174325  0.23765825  1.0
  Ni  Ni297  1  0.10651667  0.02007658  0.11265825  1.0
  Ni  Ni298  1  0.10651667  0.35340992  0.11265825  1.0
  Ni  Ni299  1  0.10651667  0.68674325  0.11265825  1.0
  Ni  Ni300  1  0.43985000  0.02007658  0.11265825  1.0
  Ni  Ni301  1  0.43985000  0.35340992  0.11265825  1.0
  Ni  Ni302  1  0.43985000  0.68674325  0.11265825  1.0
  Ni  Ni303  1  0.77318333  0.02007658  0.11265825  1.0
  Ni  Ni304  1  0.77318333  0.35340992  0.11265825  1.0
  Ni  Ni305  1  0.77318333  0.68674325  0.11265825  1.0
  Ni  Ni306  1  0.10615033  0.19417567  0.09226400  1.0
  Ni  Ni307  1  0.10615033  0.52750900  0.09226400  1.0
  Ni  Ni308  1  0.10615033  0.86084233  0.09226400  1.0
  Ni  Ni309  1  0.43948367  0.19417567  0.09226400  1.0
  Ni  Ni310  1  0.43948367  0.52750900  0.09226400  1.0
  Ni  Ni311  1  0.43948367  0.86084233  0.09226400  1.0
  Ni  Ni312  1  0.77281700  0.19417567  0.09226400  1.0
  Ni  Ni313  1  0.77281700  0.52750900  0.09226400  1.0
  Ni  Ni314  1  0.77281700  0.86084233  0.09226400  1.0
  Ni  Ni315  1  0.27281700  0.31917567  0.21726400  1.0
  Ni  Ni316  1  0.27281700  0.65250900  0.21726400  1.0
  Ni  Ni317  1  0.27281700  0.98584233  0.21726400  1.0
  Ni  Ni318  1  0.60615033  0.31917567  0.21726400  1.0
  Ni  Ni319  1  0.60615033  0.65250900  0.21726400  1.0
  Ni  Ni320  1  0.60615033  0.98584233  0.21726400  1.0
  Ni  Ni321  1  0.93948367  0.31917567  0.21726400  1.0
  Ni  Ni322  1  0.93948367  0.65250900  0.21726400  1.0
  Ni  Ni323  1  0.93948367  0.98584233  0.21726400  1.0
  Ni  Ni324  1  0.07255617  0.18736387  0.01201787  1.0
  Ni  Ni325  1  0.07255617  0.52069721  0.01201787  1.0
  Ni  Ni326  1  0.07255617  0.85403054  0.01201787  1.0
  Ni  Ni327  1  0.40588950  0.18736387  0.01201787  1.0
  Ni  Ni328  1  0.40588950  0.52069721  0.01201787  1.0
  Ni  Ni329  1  0.40588950  0.85403054  0.01201787  1.0
  Ni  Ni330  1  0.73922283  0.18736387  0.01201787  1.0
  Ni  Ni331  1  0.73922283  0.52069721  0.01201787  1.0
  Ni  Ni332  1  0.73922283  0.85403054  0.01201787  1.0
  Ni  Ni333  1  0.23922283  0.31236387  0.13701787  1.0
  Ni  Ni334  1  0.23922283  0.64569721  0.13701787  1.0
  Ni  Ni335  1  0.23922283  0.97903054  0.13701787  1.0
  Ni  Ni336  1  0.57255617  0.31236387  0.13701787  1.0
  Ni  Ni337  1  0.57255617  0.64569721  0.13701787  1.0
  Ni  Ni338  1  0.57255617  0.97903054  0.13701787  1.0
  Ni  Ni339  1  0.90588950  0.31236387  0.13701787  1.0
  Ni  Ni340  1  0.90588950  0.64569721  0.13701787  1.0
  Ni  Ni341  1  0.90588950  0.97903054  0.13701787  1.0
  Ni  Ni342  1  0.00982933  0.04482192  0.04245125  1.0
  Ni  Ni343  1  0.00982933  0.37815525  0.04245125  1.0
  Ni  Ni344  1  0.00982933  0.71148858  0.04245125  1.0
  Ni  Ni345  1  0.34316267  0.04482192  0.04245125  1.0
  Ni  Ni346  1  0.34316267  0.37815525  0.04245125  1.0
  Ni  Ni347  1  0.34316267  0.71148858  0.04245125  1.0
  Ni  Ni348  1  0.67649600  0.04482192  0.04245125  1.0
  Ni  Ni349  1  0.67649600  0.37815525  0.04245125  1.0
  Ni  Ni350  1  0.67649600  0.71148858  0.04245125  1.0
  Ni  Ni351  1  0.17649600  0.16982192  0.16745125  1.0
  Ni  Ni352  1  0.17649600  0.50315525  0.16745125  1.0
  Ni  Ni353  1  0.17649600  0.83648858  0.16745125  1.0
  Ni  Ni354  1  0.50982933  0.16982192  0.16745125  1.0
  Ni  Ni355  1  0.50982933  0.50315525  0.16745125  1.0
  Ni  Ni356  1  0.50982933  0.83648858  0.16745125  1.0
  Ni  Ni357  1  0.84316267  0.16982192  0.16745125  1.0
  Ni  Ni358  1  0.84316267  0.50315525  0.16745125  1.0
  Ni  Ni359  1  0.84316267  0.83648858  0.16745125  1.0
  Ni  Ni360  1  0.30863017  0.23941938  0.06407337  1.0
  Ni  Ni361  1  0.30863017  0.57275271  0.06407337  1.0
  Ni  Ni362  1  0.30863017  0.90608604  0.06407337  1.0
  Ni  Ni363  1  0.64196350  0.23941938  0.06407337  1.0
  Ni  Ni364  1  0.64196350  0.57275271  0.06407337  1.0
  Ni  Ni365  1  0.64196350  0.90608604  0.06407337  1.0
  Ni  Ni366  1  0.97529683  0.23941938  0.06407337  1.0
  Ni  Ni367  1  0.97529683  0.57275271  0.06407337  1.0
  Ni  Ni368  1  0.97529683  0.90608604  0.06407337  1.0
  Ni  Ni369  1  0.14196350  0.03108604  0.18907337  1.0
  Ni  Ni370  1  0.14196350  0.36441937  0.18907337  1.0
  Ni  Ni371  1  0.14196350  0.69775271  0.18907337  1.0
  Ni  Ni372  1  0.47529683  0.03108604  0.18907337  1.0
  Ni  Ni373  1  0.47529683  0.36441937  0.18907337  1.0
  Ni  Ni374  1  0.47529683  0.69775271  0.18907337  1.0
  Ni  Ni375  1  0.80863017  0.03108604  0.18907337  1.0
  Ni  Ni376  1  0.80863017  0.36441937  0.18907337  1.0
  Ni  Ni377  1  0.80863017  0.69775271  0.18907337  1.0
  Ni  Ni378  1  0.05762933  0.23013858  0.12913425  1.0
  Ni  Ni379  1  0.05762933  0.56347192  0.12913425  1.0
  Ni  Ni380  1  0.05762933  0.89680525  0.12913425  1.0
  Ni  Ni381  1  0.39096267  0.23013858  0.12913425  1.0
  Ni  Ni382  1  0.39096267  0.56347192  0.12913425  1.0
  Ni  Ni383  1  0.39096267  0.89680525  0.12913425  1.0
  Ni  Ni384  1  0.72429600  0.23013858  0.12913425  1.0
  Ni  Ni385  1  0.72429600  0.56347192  0.12913425  1.0
  Ni  Ni386  1  0.72429600  0.89680525  0.12913425  1.0
  Ni  Ni387  1  0.22429600  0.10513858  0.00413425  1.0
  Ni  Ni388  1  0.22429600  0.43847192  0.00413425  1.0
  Ni  Ni389  1  0.22429600  0.77180525  0.00413425  1.0
  Ni  Ni390  1  0.55762933  0.10513858  0.00413425  1.0
  Ni  Ni391  1  0.55762933  0.43847192  0.00413425  1.0
  Ni  Ni392  1  0.55762933  0.77180525  0.00413425  1.0
  Ni  Ni393  1  0.89096267  0.10513858  0.00413425  1.0
  Ni  Ni394  1  0.89096267  0.43847192  0.00413425  1.0
  Ni  Ni395  1  0.89096267  0.77180525  0.00413425  1.0
  Ni  Ni396  1  0.24017067  0.18553008  0.01649275  1.0
  Ni  Ni397  1  0.24017067  0.51886342  0.01649275  1.0
  Ni  Ni398  1  0.24017067  0.85219675  0.01649275  1.0
  Ni  Ni399  1  0.57350400  0.18553008  0.01649275  1.0
  Ni  Ni400  1  0.57350400  0.51886342  0.01649275  1.0
  Ni  Ni401  1  0.57350400  0.85219675  0.01649275  1.0
  Ni  Ni402  1  0.90683733  0.18553008  0.01649275  1.0
  Ni  Ni403  1  0.90683733  0.51886342  0.01649275  1.0
  Ni  Ni404  1  0.90683733  0.85219675  0.01649275  1.0
  Ni  Ni405  1  0.07350400  0.31053008  0.14149275  1.0
  Ni  Ni406  1  0.07350400  0.64386342  0.14149275  1.0
  Ni  Ni407  1  0.07350400  0.97719675  0.14149275  1.0
  Ni  Ni408  1  0.40683733  0.31053008  0.14149275  1.0
  Ni  Ni409  1  0.40683733  0.64386342  0.14149275  1.0
  Ni  Ni410  1  0.40683733  0.97719675  0.14149275  1.0
  Ni  Ni411  1  0.74017067  0.31053008  0.14149275  1.0
  Ni  Ni412  1  0.74017067  0.64386342  0.14149275  1.0
  Ni  Ni413  1  0.74017067  0.97719675  0.14149275  1.0
  Ni  Ni414  1  0.14884983  0.08033371  0.20731637  1.0
  Ni  Ni415  1  0.14884983  0.41366704  0.20731637  1.0
  Ni  Ni416  1  0.14884983  0.74700037  0.20731637  1.0
  Ni  Ni417  1  0.48218317  0.08033371  0.20731637  1.0
  Ni  Ni418  1  0.48218317  0.41366704  0.20731637  1.0
  Ni  Ni419  1  0.48218317  0.74700037  0.20731637  1.0
  Ni  Ni420  1  0.81551650  0.08033371  0.20731637  1.0
  Ni  Ni421  1  0.81551650  0.41366704  0.20731637  1.0
  Ni  Ni422  1  0.81551650  0.74700037  0.20731637  1.0
  Ni  Ni423  1  0.31551650  0.28866704  0.08231637  1.0
  Ni  Ni424  1  0.31551650  0.62200037  0.08231637  1.0
  Ni  Ni425  1  0.31551650  0.95533371  0.08231637  1.0
  Ni  Ni426  1  0.64884983  0.28866704  0.08231637  1.0
  Ni  Ni427  1  0.64884983  0.62200037  0.08231637  1.0
  Ni  Ni428  1  0.64884983  0.95533371  0.08231637  1.0
  Ni  Ni429  1  0.98218317  0.28866704  0.08231637  1.0
  Ni  Ni430  1  0.98218317  0.62200037  0.08231637  1.0
  Ni  Ni431  1  0.98218317  0.95533371  0.08231637  1.0
  Ni  Ni432  1  0.05826367  0.05624050  0.14972950  1.0
  Ni  Ni433  1  0.05826367  0.38957383  0.14972950  1.0
  Ni  Ni434  1  0.05826367  0.72290717  0.14972950  1.0
  Ni  Ni435  1  0.39159700  0.05624050  0.14972950  1.0
  Ni  Ni436  1  0.39159700  0.38957383  0.14972950  1.0
  Ni  Ni437  1  0.39159700  0.72290717  0.14972950  1.0
  Ni  Ni438  1  0.72493033  0.05624050  0.14972950  1.0
  Ni  Ni439  1  0.72493033  0.38957383  0.14972950  1.0
  Ni  Ni440  1  0.72493033  0.72290717  0.14972950  1.0
  Ni  Ni441  1  0.22493033  0.26457383  0.02472950  1.0
  Ni  Ni442  1  0.22493033  0.59790717  0.02472950  1.0
  Ni  Ni443  1  0.22493033  0.93124050  0.02472950  1.0
  Ni  Ni444  1  0.55826367  0.26457383  0.02472950  1.0
  Ni  Ni445  1  0.55826367  0.59790717  0.02472950  1.0
  Ni  Ni446  1  0.55826367  0.93124050  0.02472950  1.0
  Ni  Ni447  1  0.89159700  0.26457383  0.02472950  1.0
  Ni  Ni448  1  0.89159700  0.59790717  0.02472950  1.0
  Ni  Ni449  1  0.89159700  0.93124050  0.02472950  1.0
  Ni  Ni450  1  0.27506967  0.19586517  0.09395350  1.0
  Ni  Ni451  1  0.27506967  0.52919850  0.09395350  1.0
  Ni  Ni452  1  0.27506967  0.86253183  0.09395350  1.0
  Ni  Ni453  1  0.60840300  0.19586517  0.09395350  1.0
  Ni  Ni454  1  0.60840300  0.52919850  0.09395350  1.0
  Ni  Ni455  1  0.60840300  0.86253183  0.09395350  1.0
  Ni  Ni456  1  0.94173633  0.19586517  0.09395350  1.0
  Ni  Ni457  1  0.94173633  0.52919850  0.09395350  1.0
  Ni  Ni458  1  0.94173633  0.86253183  0.09395350  1.0
  Ni  Ni459  1  0.10840300  0.32086517  0.21895350  1.0
  Ni  Ni460  1  0.10840300  0.65419850  0.21895350  1.0
  Ni  Ni461  1  0.10840300  0.98753183  0.21895350  1.0
  Ni  Ni462  1  0.44173633  0.32086517  0.21895350  1.0
  Ni  Ni463  1  0.44173633  0.65419850  0.21895350  1.0
  Ni  Ni464  1  0.44173633  0.98753183  0.21895350  1.0
  Ni  Ni465  1  0.77506967  0.32086517  0.21895350  1.0
  Ni  Ni466  1  0.77506967  0.65419850  0.21895350  1.0
  Ni  Ni467  1  0.77506967  0.98753183  0.21895350  1.0
  Ni  Ni468  1  0.30897233  0.02879800  0.19309400  1.0
  Ni  Ni469  1  0.30897233  0.36213133  0.19309400  1.0
  Ni  Ni470  1  0.30897233  0.69546467  0.19309400  1.0
  Ni  Ni471  1  0.64230567  0.02879800  0.19309400  1.0
  Ni  Ni472  1  0.64230567  0.36213133  0.19309400  1.0
  Ni  Ni473  1  0.64230567  0.69546467  0.19309400  1.0
  Ni  Ni474  1  0.97563900  0.02879800  0.19309400  1.0
  Ni  Ni475  1  0.97563900  0.36213133  0.19309400  1.0
  Ni  Ni476  1  0.97563900  0.69546467  0.19309400  1.0
  Ni  Ni477  1  0.14230567  0.23713133  0.06809400  1.0
  Ni  Ni478  1  0.14230567  0.57046467  0.06809400  1.0
  Ni  Ni479  1  0.14230567  0.90379800  0.06809400  1.0
  Ni  Ni480  1  0.47563900  0.23713133  0.06809400  1.0
  Ni  Ni481  1  0.47563900  0.57046467  0.06809400  1.0
  Ni  Ni482  1  0.47563900  0.90379800  0.06809400  1.0
  Ni  Ni483  1  0.80897233  0.23713133  0.06809400  1.0
  Ni  Ni484  1  0.80897233  0.57046467  0.06809400  1.0
  Ni  Ni485  1  0.80897233  0.90379800  0.06809400  1.0
  Ni  Ni486  1  0.22718300  0.05793000  0.15141900  1.0
  Ni  Ni487  1  0.22718300  0.39126333  0.15141900  1.0
  Ni  Ni488  1  0.22718300  0.72459667  0.15141900  1.0
  Ni  Ni489  1  0.56051633  0.05793000  0.15141900  1.0
  Ni  Ni490  1  0.56051633  0.39126333  0.15141900  1.0
  Ni  Ni491  1  0.56051633  0.72459667  0.15141900  1.0
  Ni  Ni492  1  0.89384967  0.05793000  0.15141900  1.0
  Ni  Ni493  1  0.89384967  0.39126333  0.15141900  1.0
  Ni  Ni494  1  0.89384967  0.72459667  0.15141900  1.0
  Ni  Ni495  1  0.06051633  0.26626333  0.02641900  1.0
  Ni  Ni496  1  0.06051633  0.59959667  0.02641900  1.0
  Ni  Ni497  1  0.06051633  0.93293000  0.02641900  1.0
  Ni  Ni498  1  0.39384967  0.26626333  0.02641900  1.0
  Ni  Ni499  1  0.39384967  0.59959667  0.02641900  1.0
  Ni  Ni500  1  0.39384967  0.93293000  0.02641900  1.0
  Ni  Ni501  1  0.72718300  0.26626333  0.02641900  1.0
  Ni  Ni502  1  0.72718300  0.59959667  0.02641900  1.0
  Ni  Ni503  1  0.72718300  0.93293000  0.02641900  1.0
  Ni  Ni504  1  0.02281700  0.12449217  0.05131450  1.0
  Ni  Ni505  1  0.02281700  0.45782550  0.05131450  1.0
  Ni  Ni506  1  0.02281700  0.79115883  0.05131450  1.0
  Ni  Ni507  1  0.35615033  0.12449217  0.05131450  1.0
  Ni  Ni508  1  0.35615033  0.45782550  0.05131450  1.0
  Ni  Ni509  1  0.35615033  0.79115883  0.05131450  1.0
  Ni  Ni510  1  0.68948367  0.12449217  0.05131450  1.0
  Ni  Ni511  1  0.68948367  0.45782550  0.05131450  1.0
  Ni  Ni512  1  0.68948367  0.79115883  0.05131450  1.0
  Ni  Ni513  1  0.18948367  0.24949217  0.17631450  1.0
  Ni  Ni514  1  0.18948367  0.58282550  0.17631450  1.0
  Ni  Ni515  1  0.18948367  0.91615883  0.17631450  1.0
  Ni  Ni516  1  0.52281700  0.24949217  0.17631450  1.0
  Ni  Ni517  1  0.52281700  0.58282550  0.17631450  1.0
  Ni  Ni518  1  0.52281700  0.91615883  0.17631450  1.0
  Ni  Ni519  1  0.85615033  0.24949217  0.17631450  1.0
  Ni  Ni520  1  0.85615033  0.58282550  0.17631450  1.0
  Ni  Ni521  1  0.85615033  0.91615883  0.17631450  1.0
  Ni  Ni522  1  0.14159700  0.12592400  0.19067900  1.0
  Ni  Ni523  1  0.14159700  0.45925733  0.19067900  1.0
  Ni  Ni524  1  0.14159700  0.79259067  0.19067900  1.0
  Ni  Ni525  1  0.47493033  0.12592400  0.19067900  1.0
  Ni  Ni526  1  0.47493033  0.45925733  0.19067900  1.0
  Ni  Ni527  1  0.47493033  0.79259067  0.19067900  1.0
  Ni  Ni528  1  0.80826367  0.12592400  0.19067900  1.0
  Ni  Ni529  1  0.80826367  0.45925733  0.19067900  1.0
  Ni  Ni530  1  0.80826367  0.79259067  0.19067900  1.0
  Ni  Ni531  1  0.30826367  0.00092400  0.06567900  1.0
  Ni  Ni532  1  0.30826367  0.33425733  0.06567900  1.0
  Ni  Ni533  1  0.30826367  0.66759067  0.06567900  1.0
  Ni  Ni534  1  0.64159700  0.00092400  0.06567900  1.0
  Ni  Ni535  1  0.64159700  0.33425733  0.06567900  1.0
  Ni  Ni536  1  0.64159700  0.66759067  0.06567900  1.0
  Ni  Ni537  1  0.97493033  0.00092400  0.06567900  1.0
  Ni  Ni538  1  0.97493033  0.33425733  0.06567900  1.0
  Ni  Ni539  1  0.97493033  0.66759067  0.06567900  1.0
  Ni  Ni540  1  0.06015000  0.10702908  0.00602475  1.0
  Ni  Ni541  1  0.06015000  0.44036242  0.00602475  1.0
  Ni  Ni542  1  0.06015000  0.77369575  0.00602475  1.0
  Ni  Ni543  1  0.39348333  0.10702908  0.00602475  1.0
  Ni  Ni544  1  0.39348333  0.44036242  0.00602475  1.0
  Ni  Ni545  1  0.39348333  0.77369575  0.00602475  1.0
  Ni  Ni546  1  0.72681667  0.10702908  0.00602475  1.0
  Ni  Ni547  1  0.72681667  0.44036242  0.00602475  1.0
  Ni  Ni548  1  0.72681667  0.77369575  0.00602475  1.0
  Ni  Ni549  1  0.22681667  0.23202908  0.13102475  1.0
  Ni  Ni550  1  0.22681667  0.56536242  0.13102475  1.0
  Ni  Ni551  1  0.22681667  0.89869575  0.13102475  1.0
  Ni  Ni552  1  0.56015000  0.23202908  0.13102475  1.0
  Ni  Ni553  1  0.56015000  0.56536242  0.13102475  1.0
  Ni  Ni554  1  0.56015000  0.89869575  0.13102475  1.0
  Ni  Ni555  1  0.89348333  0.23202908  0.13102475  1.0
  Ni  Ni556  1  0.89348333  0.56536242  0.13102475  1.0
  Ni  Ni557  1  0.89348333  0.89869575  0.13102475  1.0
  Ni  Ni558  1  0.09316267  0.06657558  0.22719025  1.0
  Ni  Ni559  1  0.09316267  0.39990892  0.22719025  1.0
  Ni  Ni560  1  0.09316267  0.73324225  0.22719025  1.0
  Ni  Ni561  1  0.42649600  0.06657558  0.22719025  1.0
  Ni  Ni562  1  0.42649600  0.39990892  0.22719025  1.0
  Ni  Ni563  1  0.42649600  0.73324225  0.22719025  1.0
  Ni  Ni564  1  0.75982933  0.06657558  0.22719025  1.0
  Ni  Ni565  1  0.75982933  0.39990892  0.22719025  1.0
  Ni  Ni566  1  0.75982933  0.73324225  0.22719025  1.0
  Ni  Ni567  1  0.25982933  0.27490892  0.10219025  1.0
  Ni  Ni568  1  0.25982933  0.60824225  0.10219025  1.0
  Ni  Ni569  1  0.25982933  0.94157558  0.10219025  1.0
  Ni  Ni570  1  0.59316267  0.27490892  0.10219025  1.0
  Ni  Ni571  1  0.59316267  0.60824225  0.10219025  1.0
  Ni  Ni572  1  0.59316267  0.94157558  0.10219025  1.0
  Ni  Ni573  1  0.92649600  0.27490892  0.10219025  1.0
  Ni  Ni574  1  0.92649600  0.60824225  0.10219025  1.0
  Ni  Ni575  1  0.92649600  0.94157558  0.10219025  1.0
  Ni  Ni576  1  0.02570400  0.09119692  0.15685925  1.0
  Ni  Ni577  1  0.02570400  0.42453025  0.15685925  1.0
  Ni  Ni578  1  0.02570400  0.75786358  0.15685925  1.0
  Ni  Ni579  1  0.35903733  0.09119692  0.15685925  1.0
  Ni  Ni580  1  0.35903733  0.42453025  0.15685925  1.0
  Ni  Ni581  1  0.35903733  0.75786358  0.15685925  1.0
  Ni  Ni582  1  0.69237067  0.09119692  0.15685925  1.0
  Ni  Ni583  1  0.69237067  0.42453025  0.15685925  1.0
  Ni  Ni584  1  0.69237067  0.75786358  0.15685925  1.0
  Ni  Ni585  1  0.19237067  0.29953025  0.03185925  1.0
  Ni  Ni586  1  0.19237067  0.63286358  0.03185925  1.0
  Ni  Ni587  1  0.19237067  0.96619692  0.03185925  1.0
  Ni  Ni588  1  0.52570400  0.29953025  0.03185925  1.0
  Ni  Ni589  1  0.52570400  0.63286358  0.03185925  1.0
  Ni  Ni590  1  0.52570400  0.96619692  0.03185925  1.0
  Ni  Ni591  1  0.85903733  0.29953025  0.03185925  1.0
  Ni  Ni592  1  0.85903733  0.63286358  0.03185925  1.0
  Ni  Ni593  1  0.85903733  0.96619692  0.03185925  1.0
  Ni  Ni594  1  0.05897233  0.13388500  0.12783300  1.0
  Ni  Ni595  1  0.05897233  0.46721833  0.12783300  1.0
  Ni  Ni596  1  0.05897233  0.80055167  0.12783300  1.0
  Ni  Ni597  1  0.39230567  0.13388500  0.12783300  1.0
  Ni  Ni598  1  0.39230567  0.46721833  0.12783300  1.0
  Ni  Ni599  1  0.39230567  0.80055167  0.12783300  1.0
  Ni  Ni600  1  0.72563900  0.13388500  0.12783300  1.0
  Ni  Ni601  1  0.72563900  0.46721833  0.12783300  1.0
  Ni  Ni602  1  0.72563900  0.80055167  0.12783300  1.0
  Ni  Ni603  1  0.22563900  0.00888500  0.00283300  1.0
  Ni  Ni604  1  0.22563900  0.34221833  0.00283300  1.0
  Ni  Ni605  1  0.22563900  0.67555167  0.00283300  1.0
  Ni  Ni606  1  0.55897233  0.00888500  0.00283300  1.0
  Ni  Ni607  1  0.55897233  0.34221833  0.00283300  1.0
  Ni  Ni608  1  0.55897233  0.67555167  0.00283300  1.0
  Ni  Ni609  1  0.89230567  0.00888500  0.00283300  1.0
  Ni  Ni610  1  0.89230567  0.34221833  0.00283300  1.0
  Ni  Ni611  1  0.89230567  0.67555167  0.00283300  1.0
  Ni  Ni612  1  0.32255617  0.08096321  0.08121987  1.0
  Ni  Ni613  1  0.32255617  0.41429654  0.08121987  1.0
  Ni  Ni614  1  0.32255617  0.74762987  0.08121987  1.0
  Ni  Ni615  1  0.65588950  0.08096321  0.08121987  1.0
  Ni  Ni616  1  0.65588950  0.41429654  0.08121987  1.0
  Ni  Ni617  1  0.65588950  0.74762987  0.08121987  1.0
  Ni  Ni618  1  0.98922283  0.08096321  0.08121987  1.0
  Ni  Ni619  1  0.98922283  0.41429654  0.08121987  1.0
  Ni  Ni620  1  0.98922283  0.74762987  0.08121987  1.0
  Ni  Ni621  1  0.15588950  0.20596321  0.20621987  1.0
  Ni  Ni622  1  0.15588950  0.53929654  0.20621987  1.0
  Ni  Ni623  1  0.15588950  0.87262987  0.20621987  1.0
  Ni  Ni624  1  0.48922283  0.20596321  0.20621987  1.0
  Ni  Ni625  1  0.48922283  0.53929654  0.20621987  1.0
  Ni  Ni626  1  0.48922283  0.87262987  0.20621987  1.0
  Ni  Ni627  1  0.82255617  0.20596321  0.20621987  1.0
  Ni  Ni628  1  0.82255617  0.53929654  0.20621987  1.0
  Ni  Ni629  1  0.82255617  0.87262987  0.20621987  1.0
  Ni  Ni630  1  0.01722750  0.10661696  0.23359962  1.0
  Ni  Ni631  1  0.01722750  0.43995029  0.23359962  1.0
  Ni  Ni632  1  0.01722750  0.77328363  0.23359962  1.0
  Ni  Ni633  1  0.35056083  0.10661696  0.23359962  1.0
  Ni  Ni634  1  0.35056083  0.43995029  0.23359962  1.0
  Ni  Ni635  1  0.35056083  0.77328363  0.23359962  1.0
  Ni  Ni636  1  0.68389417  0.10661696  0.23359962  1.0
  Ni  Ni637  1  0.68389417  0.43995029  0.23359962  1.0
  Ni  Ni638  1  0.68389417  0.77328363  0.23359962  1.0
  Ni  Ni639  1  0.18389417  0.31495029  0.10859962  1.0
  Ni  Ni640  1  0.18389417  0.64828362  0.10859962  1.0
  Ni  Ni641  1  0.18389417  0.98161696  0.10859962  1.0
  Ni  Ni642  1  0.51722750  0.31495029  0.10859962  1.0
  Ni  Ni643  1  0.51722750  0.64828362  0.10859962  1.0
  Ni  Ni644  1  0.51722750  0.98161696  0.10859962  1.0
  Ni  Ni645  1  0.85056083  0.31495029  0.10859962  1.0
  Ni  Ni646  1  0.85056083  0.64828362  0.10859962  1.0
  Ni  Ni647  1  0.85056083  0.98161696  0.10859962  1.0
  Ni  Ni648  1  0.06610583  0.18405837  0.14437437  1.0
  Ni  Ni649  1  0.06610583  0.51739171  0.14437437  1.0
  Ni  Ni650  1  0.06610583  0.85072504  0.14437437  1.0
  Ni  Ni651  1  0.39943917  0.18405837  0.14437437  1.0
  Ni  Ni652  1  0.39943917  0.51739171  0.14437437  1.0
  Ni  Ni653  1  0.39943917  0.85072504  0.14437437  1.0
  Ni  Ni654  1  0.73277250  0.18405837  0.14437437  1.0
  Ni  Ni655  1  0.73277250  0.51739171  0.14437437  1.0
  Ni  Ni656  1  0.73277250  0.85072504  0.14437437  1.0
  Ni  Ni657  1  0.23277250  0.05905837  0.01937437  1.0
  Ni  Ni658  1  0.23277250  0.39239171  0.01937437  1.0
  Ni  Ni659  1  0.23277250  0.72572504  0.01937437  1.0
  Ni  Ni660  1  0.56610583  0.05905837  0.01937437  1.0
  Ni  Ni661  1  0.56610583  0.39239171  0.01937437  1.0
  Ni  Ni662  1  0.56610583  0.72572504  0.01937437  1.0
  Ni  Ni663  1  0.89943917  0.05905837  0.01937437  1.0
  Ni  Ni664  1  0.89943917  0.39239171  0.01937437  1.0
  Ni  Ni665  1  0.89943917  0.72572504  0.01937437  1.0
  Ni  Ni666  1  0.02318333  0.29763975  0.02996875  1.0
  Ni  Ni667  1  0.02318333  0.63097308  0.02996875  1.0
  Ni  Ni668  1  0.02318333  0.96430642  0.02996875  1.0
  Ni  Ni669  1  0.35651667  0.29763975  0.02996875  1.0
  Ni  Ni670  1  0.35651667  0.63097308  0.02996875  1.0
  Ni  Ni671  1  0.35651667  0.96430642  0.02996875  1.0
  Ni  Ni672  1  0.68985000  0.29763975  0.02996875  1.0
  Ni  Ni673  1  0.68985000  0.63097308  0.02996875  1.0
  Ni  Ni674  1  0.68985000  0.96430642  0.02996875  1.0
  Ni  Ni675  1  0.18985000  0.08930642  0.15496875  1.0
  Ni  Ni676  1  0.18985000  0.42263975  0.15496875  1.0
  Ni  Ni677  1  0.18985000  0.75597308  0.15496875  1.0
  Ni  Ni678  1  0.52318333  0.08930642  0.15496875  1.0
  Ni  Ni679  1  0.52318333  0.42263975  0.15496875  1.0
  Ni  Ni680  1  0.52318333  0.75597308  0.15496875  1.0
  Ni  Ni681  1  0.85651667  0.08930642  0.15496875  1.0
  Ni  Ni682  1  0.85651667  0.42263975  0.15496875  1.0
  Ni  Ni683  1  0.85651667  0.75597308  0.15496875  1.0
  Ni  Ni684  1  0.31015000  0.28779925  0.21371425  1.0
  Ni  Ni685  1  0.31015000  0.62113258  0.21371425  1.0
  Ni  Ni686  1  0.31015000  0.95446592  0.21371425  1.0
  Ni  Ni687  1  0.64348333  0.28779925  0.21371425  1.0
  Ni  Ni688  1  0.64348333  0.62113258  0.21371425  1.0
  Ni  Ni689  1  0.64348333  0.95446592  0.21371425  1.0
  Ni  Ni690  1  0.97681667  0.28779925  0.21371425  1.0
  Ni  Ni691  1  0.97681667  0.62113258  0.21371425  1.0
  Ni  Ni692  1  0.97681667  0.95446592  0.21371425  1.0
  Ni  Ni693  1  0.14348333  0.16279925  0.08871425  1.0
  Ni  Ni694  1  0.14348333  0.49613258  0.08871425  1.0
  Ni  Ni695  1  0.14348333  0.82946592  0.08871425  1.0
  Ni  Ni696  1  0.47681667  0.16279925  0.08871425  1.0
  Ni  Ni697  1  0.47681667  0.49613258  0.08871425  1.0
  Ni  Ni698  1  0.47681667  0.82946592  0.08871425  1.0
  Ni  Ni699  1  0.81015000  0.16279925  0.08871425  1.0
  Ni  Ni700  1  0.81015000  0.49613258  0.08871425  1.0
  Ni  Ni701  1  0.81015000  0.82946592  0.08871425  1.0
  Ni  Ni702  1  0.02470317  0.01268629  0.17960962  1.0
  Ni  Ni703  1  0.02470317  0.34601962  0.17960962  1.0
  Ni  Ni704  1  0.02470317  0.67935296  0.17960962  1.0
  Ni  Ni705  1  0.35803650  0.01268629  0.17960962  1.0
  Ni  Ni706  1  0.35803650  0.34601962  0.17960962  1.0
  Ni  Ni707  1  0.35803650  0.67935296  0.17960962  1.0
  Ni  Ni708  1  0.69136983  0.01268629  0.17960962  1.0
  Ni  Ni709  1  0.69136983  0.34601962  0.17960962  1.0
  Ni  Ni710  1  0.69136983  0.67935296  0.17960962  1.0
  Ni  Ni711  1  0.19136983  0.22101962  0.05460962  1.0
  Ni  Ni712  1  0.19136983  0.55435296  0.05460962  1.0
  Ni  Ni713  1  0.19136983  0.88768629  0.05460962  1.0
  Ni  Ni714  1  0.52470317  0.22101962  0.05460962  1.0
  Ni  Ni715  1  0.52470317  0.55435296  0.05460962  1.0
  Ni  Ni716  1  0.52470317  0.88768629  0.05460962  1.0
  Ni  Ni717  1  0.85803650  0.22101962  0.05460962  1.0
  Ni  Ni718  1  0.85803650  0.55435296  0.05460962  1.0
  Ni  Ni719  1  0.85803650  0.88768629  0.05460962  1.0
  Ni  Ni720  1  0.02436100  0.13997433  0.30058900  1.0
  Ni  Ni721  1  0.02436100  0.47330767  0.30058900  1.0
  Ni  Ni722  1  0.02436100  0.80664100  0.30058900  1.0
  Ni  Ni723  1  0.35769433  0.13997433  0.30058900  1.0
  Ni  Ni724  1  0.35769433  0.47330767  0.30058900  1.0
  Ni  Ni725  1  0.35769433  0.80664100  0.30058900  1.0
  Ni  Ni726  1  0.69102767  0.13997433  0.30058900  1.0
  Ni  Ni727  1  0.69102767  0.47330767  0.30058900  1.0
  Ni  Ni728  1  0.69102767  0.80664100  0.30058900  1.0
  Ni  Ni729  1  0.19102767  0.26497433  0.42558900  1.0
  Ni  Ni730  1  0.19102767  0.59830767  0.42558900  1.0
  Ni  Ni731  1  0.19102767  0.93164100  0.42558900  1.0
  Ni  Ni732  1  0.52436100  0.26497433  0.42558900  1.0
  Ni  Ni733  1  0.52436100  0.59830767  0.42558900  1.0
  Ni  Ni734  1  0.52436100  0.93164100  0.42558900  1.0
  Ni  Ni735  1  0.85769433  0.26497433  0.42558900  1.0
  Ni  Ni736  1  0.85769433  0.59830767  0.42558900  1.0
  Ni  Ni737  1  0.85769433  0.93164100  0.42558900  1.0
  Ni  Ni738  1  0.18448350  0.08843862  0.28636662  1.0
  Ni  Ni739  1  0.18448350  0.42177196  0.28636662  1.0
  Ni  Ni740  1  0.18448350  0.75510529  0.28636662  1.0
  Ni  Ni741  1  0.51781683  0.08843862  0.28636662  1.0
  Ni  Ni742  1  0.51781683  0.42177196  0.28636662  1.0
  Ni  Ni743  1  0.51781683  0.75510529  0.28636662  1.0
  Ni  Ni744  1  0.85115017  0.08843862  0.28636662  1.0
  Ni  Ni745  1  0.85115017  0.42177196  0.28636662  1.0
  Ni  Ni746  1  0.85115017  0.75510529  0.28636662  1.0
  Ni  Ni747  1  0.01781683  0.21343862  0.41136662  1.0
  Ni  Ni748  1  0.01781683  0.54677196  0.41136662  1.0
  Ni  Ni749  1  0.01781683  0.88010529  0.41136662  1.0
  Ni  Ni750  1  0.35115017  0.21343862  0.41136662  1.0
  Ni  Ni751  1  0.35115017  0.54677196  0.41136662  1.0
  Ni  Ni752  1  0.35115017  0.88010529  0.41136662  1.0
  Ni  Ni753  1  0.68448350  0.21343862  0.41136662  1.0
  Ni  Ni754  1  0.68448350  0.54677196  0.41136662  1.0
  Ni  Ni755  1  0.68448350  0.88010529  0.41136662  1.0
  Ni  Ni756  1  0.31610583  0.06215538  0.26008337  1.0
  Ni  Ni757  1  0.31610583  0.39548871  0.26008337  1.0
  Ni  Ni758  1  0.31610583  0.72882204  0.26008338  1.0
  Ni  Ni759  1  0.64943917  0.06215538  0.26008337  1.0
  Ni  Ni760  1  0.64943917  0.39548871  0.26008338  1.0
  Ni  Ni761  1  0.64943917  0.72882204  0.26008337  1.0
  Ni  Ni762  1  0.98277250  0.06215538  0.26008338  1.0
  Ni  Ni763  1  0.98277250  0.39548871  0.26008337  1.0
  Ni  Ni764  1  0.98277250  0.72882204  0.26008337  1.0
  Ni  Ni765  1  0.14943917  0.18715538  0.38508337  1.0
  Ni  Ni766  1  0.14943917  0.52048871  0.38508337  1.0
  Ni  Ni767  1  0.14943917  0.85382204  0.38508337  1.0
  Ni  Ni768  1  0.48277250  0.18715538  0.38508337  1.0
  Ni  Ni769  1  0.48277250  0.52048871  0.38508337  1.0
  Ni  Ni770  1  0.48277250  0.85382204  0.38508337  1.0
  Ni  Ni771  1  0.81610583  0.18715538  0.38508337  1.0
  Ni  Ni772  1  0.81610583  0.52048871  0.38508337  1.0
  Ni  Ni773  1  0.81610583  0.85382204  0.38508337  1.0
  Ni  Ni774  1  0.01077717  0.08780913  0.41246312  1.0
  Ni  Ni775  1  0.01077717  0.42114246  0.41246312  1.0
  Ni  Ni776  1  0.01077717  0.75447579  0.41246312  1.0
  Ni  Ni777  1  0.34411050  0.08780913  0.41246312  1.0
  Ni  Ni778  1  0.34411050  0.42114246  0.41246312  1.0
  Ni  Ni779  1  0.34411050  0.75447579  0.41246312  1.0
  Ni  Ni780  1  0.67744383  0.08780913  0.41246312  1.0
  Ni  Ni781  1  0.67744383  0.42114246  0.41246312  1.0
  Ni  Ni782  1  0.67744383  0.75447579  0.41246312  1.0
  Ni  Ni783  1  0.17744383  0.29614246  0.28746312  1.0
  Ni  Ni784  1  0.17744383  0.62947579  0.28746312  1.0
  Ni  Ni785  1  0.17744383  0.96280912  0.28746312  1.0
  Ni  Ni786  1  0.51077717  0.29614246  0.28746312  1.0
  Ni  Ni787  1  0.51077717  0.62947579  0.28746312  1.0
  Ni  Ni788  1  0.51077717  0.96280912  0.28746312  1.0
  Ni  Ni789  1  0.84411050  0.29614246  0.28746312  1.0
  Ni  Ni790  1  0.84411050  0.62947579  0.28746312  1.0
  Ni  Ni791  1  0.84411050  0.96280912  0.28746312  1.0
  Ni  Ni792  1  0.22529683  0.04968538  0.38327537  1.0
  Ni  Ni793  1  0.22529683  0.38301871  0.38327537  1.0
  Ni  Ni794  1  0.22529683  0.71635204  0.38327537  1.0
  Ni  Ni795  1  0.55863017  0.04968538  0.38327537  1.0
  Ni  Ni796  1  0.55863017  0.38301871  0.38327537  1.0
  Ni  Ni797  1  0.55863017  0.71635204  0.38327537  1.0
  Ni  Ni798  1  0.89196350  0.04968538  0.38327537  1.0
  Ni  Ni799  1  0.89196350  0.38301871  0.38327537  1.0
  Ni  Ni800  1  0.89196350  0.71635204  0.38327537  1.0
  Ni  Ni801  1  0.05863017  0.25801871  0.25827537  1.0
  Ni  Ni802  1  0.05863017  0.59135204  0.25827537  1.0
  Ni  Ni803  1  0.05863017  0.92468538  0.25827537  1.0
  Ni  Ni804  1  0.39196350  0.25801871  0.25827537  1.0
  Ni  Ni805  1  0.39196350  0.59135204  0.25827537  1.0
  Ni  Ni806  1  0.39196350  0.92468538  0.25827537  1.0
  Ni  Ni807  1  0.72529683  0.25801871  0.25827537  1.0
  Ni  Ni808  1  0.72529683  0.59135204  0.25827537  1.0
  Ni  Ni809  1  0.72529683  0.92468538  0.25827537  1.0
  Ni  Ni810  1  0.30762933  0.07757542  0.33682375  1.0
  Ni  Ni811  1  0.30762933  0.41090875  0.33682375  1.0
  Ni  Ni812  1  0.30762933  0.74424208  0.33682375  1.0
  Ni  Ni813  1  0.64096267  0.07757542  0.33682375  1.0
  Ni  Ni814  1  0.64096267  0.41090875  0.33682375  1.0
  Ni  Ni815  1  0.64096267  0.74424208  0.33682375  1.0
  Ni  Ni816  1  0.97429600  0.07757542  0.33682375  1.0
  Ni  Ni817  1  0.97429600  0.41090875  0.33682375  1.0
  Ni  Ni818  1  0.97429600  0.74424208  0.33682375  1.0
  Ni  Ni819  1  0.14096267  0.20257542  0.46182375  1.0
  Ni  Ni820  1  0.14096267  0.53590875  0.46182375  1.0
  Ni  Ni821  1  0.14096267  0.86924208  0.46182375  1.0
  Ni  Ni822  1  0.47429600  0.20257542  0.46182375  1.0
  Ni  Ni823  1  0.47429600  0.53590875  0.46182375  1.0
  Ni  Ni824  1  0.47429600  0.86924208  0.46182375  1.0
  Ni  Ni825  1  0.80762933  0.20257542  0.46182375  1.0
  Ni  Ni826  1  0.80762933  0.53590875  0.46182375  1.0
  Ni  Ni827  1  0.80762933  0.86924208  0.46182375  1.0
  Ni  Ni828  1  0.26722750  0.31804729  0.34930862  1.0
  Ni  Ni829  1  0.26722750  0.65138063  0.34930862  1.0
  Ni  Ni830  1  0.26722750  0.98471396  0.34930862  1.0
  Ni  Ni831  1  0.60056083  0.31804729  0.34930862  1.0
  Ni  Ni832  1  0.60056083  0.65138063  0.34930862  1.0
  Ni  Ni833  1  0.60056083  0.98471396  0.34930862  1.0
  Ni  Ni834  1  0.93389417  0.31804729  0.34930862  1.0
  Ni  Ni835  1  0.93389417  0.65138063  0.34930862  1.0
  Ni  Ni836  1  0.93389417  0.98471396  0.34930862  1.0
  Ni  Ni837  1  0.10056083  0.10971396  0.47430862  1.0
  Ni  Ni838  1  0.10056083  0.44304729  0.47430862  1.0
  Ni  Ni839  1  0.10056083  0.77638062  0.47430862  1.0
  Ni  Ni840  1  0.43389417  0.10971396  0.47430862  1.0
  Ni  Ni841  1  0.43389417  0.44304729  0.47430862  1.0
  Ni  Ni842  1  0.43389417  0.77638062  0.47430862  1.0
  Ni  Ni843  1  0.76722750  0.10971396  0.47430862  1.0
  Ni  Ni844  1  0.76722750  0.44304729  0.47430862  1.0
  Ni  Ni845  1  0.76722750  0.77638062  0.47430862  1.0
  Ni  Ni846  1  0.32350400  0.12395042  0.45123175  1.0
  Ni  Ni847  1  0.32350400  0.45728375  0.45123175  1.0
  Ni  Ni848  1  0.32350400  0.79061708  0.45123175  1.0
  Ni  Ni849  1  0.65683733  0.12395042  0.45123175  1.0
  Ni  Ni850  1  0.65683733  0.45728375  0.45123175  1.0
  Ni  Ni851  1  0.65683733  0.79061708  0.45123175  1.0
  Ni  Ni852  1  0.99017067  0.12395042  0.45123175  1.0
  Ni  Ni853  1  0.99017067  0.45728375  0.45123175  1.0
  Ni  Ni854  1  0.99017067  0.79061708  0.45123175  1.0
  Ni  Ni855  1  0.15683733  0.33228375  0.32623175  1.0
  Ni  Ni856  1  0.15683733  0.66561708  0.32623175  1.0
  Ni  Ni857  1  0.15683733  0.99895042  0.32623175  1.0
  Ni  Ni858  1  0.49017067  0.33228375  0.32623175  1.0
  Ni  Ni859  1  0.49017067  0.66561708  0.32623175  1.0
  Ni  Ni860  1  0.49017067  0.99895042  0.32623175  1.0
  Ni  Ni861  1  0.82350400  0.33228375  0.32623175  1.0
  Ni  Ni862  1  0.82350400  0.66561708  0.32623175  1.0
  Ni  Ni863  1  0.82350400  0.99895042  0.32623175  1.0
  Ni  Ni864  1  0.26781683  0.12700829  0.42065763  1.0
  Ni  Ni865  1  0.26781683  0.46034162  0.42065763  1.0
  Ni  Ni866  1  0.26781683  0.79367496  0.42065763  1.0
  Ni  Ni867  1  0.60115017  0.12700829  0.42065763  1.0
  Ni  Ni868  1  0.60115017  0.46034162  0.42065763  1.0
  Ni  Ni869  1  0.60115017  0.79367496  0.42065763  1.0
  Ni  Ni870  1  0.93448350  0.12700829  0.42065763  1.0
  Ni  Ni871  1  0.93448350  0.46034162  0.42065763  1.0
  Ni  Ni872  1  0.93448350  0.79367496  0.42065763  1.0
  Ni  Ni873  1  0.10115017  0.00200829  0.29565762  1.0
  Ni  Ni874  1  0.10115017  0.33534162  0.29565762  1.0
  Ni  Ni875  1  0.10115017  0.66867496  0.29565762  1.0
  Ni  Ni876  1  0.43448350  0.00200829  0.29565762  1.0
  Ni  Ni877  1  0.43448350  0.33534162  0.29565762  1.0
  Ni  Ni878  1  0.43448350  0.66867496  0.29565762  1.0
  Ni  Ni879  1  0.76781683  0.00200829  0.29565762  1.0
  Ni  Ni880  1  0.76781683  0.33534162  0.29565762  1.0
  Ni  Ni881  1  0.76781683  0.66867496  0.29565762  1.0
  Ni  Ni882  1  0.19173633  0.04284833  0.30300400  1.0
  Ni  Ni883  1  0.19173633  0.37618167  0.30300400  1.0
  Ni  Ni884  1  0.19173633  0.70951500  0.30300400  1.0
  Ni  Ni885  1  0.52506967  0.04284833  0.30300400  1.0
  Ni  Ni886  1  0.52506967  0.37618167  0.30300400  1.0
  Ni  Ni887  1  0.52506967  0.70951500  0.30300400  1.0
  Ni  Ni888  1  0.85840300  0.04284833  0.30300400  1.0
  Ni  Ni889  1  0.85840300  0.37618167  0.30300400  1.0
  Ni  Ni890  1  0.85840300  0.70951500  0.30300400  1.0
  Ni  Ni891  1  0.02506967  0.16784833  0.42800400  1.0
  Ni  Ni892  1  0.02506967  0.50118167  0.42800400  1.0
  Ni  Ni893  1  0.02506967  0.83451500  0.42800400  1.0
  Ni  Ni894  1  0.35840300  0.16784833  0.42800400  1.0
  Ni  Ni895  1  0.35840300  0.50118167  0.42800400  1.0
  Ni  Ni896  1  0.35840300  0.83451500  0.42800400  1.0
  Ni  Ni897  1  0.69173633  0.16784833  0.42800400  1.0
  Ni  Ni898  1  0.69173633  0.50118167  0.42800400  1.0
  Ni  Ni899  1  0.69173633  0.83451500  0.42800400  1.0
  Ni  Ni900  1  0.31051633  0.04428017  0.44236850  1.0
  Ni  Ni901  1  0.31051633  0.37761350  0.44236850  1.0
  Ni  Ni902  1  0.31051633  0.71094683  0.44236850  1.0
  Ni  Ni903  1  0.64384967  0.04428017  0.44236850  1.0
  Ni  Ni904  1  0.64384967  0.37761350  0.44236850  1.0
  Ni  Ni905  1  0.64384967  0.71094683  0.44236850  1.0
  Ni  Ni906  1  0.97718300  0.04428017  0.44236850  1.0
  Ni  Ni907  1  0.97718300  0.37761350  0.44236850  1.0
  Ni  Ni908  1  0.97718300  0.71094683  0.44236850  1.0
  Ni  Ni909  1  0.14384967  0.25261350  0.31736850  1.0
  Ni  Ni910  1  0.14384967  0.58594683  0.31736850  1.0
  Ni  Ni911  1  0.14384967  0.91928017  0.31736850  1.0
  Ni  Ni912  1  0.47718300  0.25261350  0.31736850  1.0
  Ni  Ni913  1  0.47718300  0.58594683  0.31736850  1.0
  Ni  Ni914  1  0.47718300  0.91928017  0.31736850  1.0
  Ni  Ni915  1  0.81051633  0.25261350  0.31736850  1.0
  Ni  Ni916  1  0.81051633  0.58594683  0.31736850  1.0
  Ni  Ni917  1  0.81051633  0.91928017  0.31736850  1.0
  Ni  Ni918  1  0.26077717  0.31474179  0.48166512  1.0
  Ni  Ni919  1  0.26077717  0.64807512  0.48166512  1.0
  Ni  Ni920  1  0.26077717  0.98140846  0.48166512  1.0
  Ni  Ni921  1  0.59411050  0.31474179  0.48166512  1.0
  Ni  Ni922  1  0.59411050  0.64807512  0.48166512  1.0
  Ni  Ni923  1  0.59411050  0.98140846  0.48166512  1.0
  Ni  Ni924  1  0.92744383  0.31474179  0.48166512  1.0
  Ni  Ni925  1  0.92744383  0.64807512  0.48166512  1.0
  Ni  Ni926  1  0.92744383  0.98140846  0.48166512  1.0
  Ni  Ni927  1  0.09411050  0.18974179  0.35666512  1.0
  Ni  Ni928  1  0.09411050  0.52307512  0.35666512  1.0
  Ni  Ni929  1  0.09411050  0.85640846  0.35666512  1.0
  Ni  Ni930  1  0.42744383  0.18974179  0.35666512  1.0
  Ni  Ni931  1  0.42744383  0.52307512  0.35666512  1.0
  Ni  Ni932  1  0.42744383  0.85640846  0.35666512  1.0
  Ni  Ni933  1  0.76077717  0.18974179  0.35666512  1.0
  Ni  Ni934  1  0.76077717  0.52307512  0.35666512  1.0
  Ni  Ni935  1  0.76077717  0.85640846  0.35666512  1.0
  Ni  Ni936  1  0.06551650  0.29176404  0.32302537  1.0
  Ni  Ni937  1  0.06551650  0.62509737  0.32302537  1.0
  Ni  Ni938  1  0.06551650  0.95843071  0.32302537  1.0
  Ni  Ni939  1  0.39884983  0.29176404  0.32302537  1.0
  Ni  Ni940  1  0.39884983  0.62509737  0.32302537  1.0
  Ni  Ni941  1  0.39884983  0.95843071  0.32302537  1.0
  Ni  Ni942  1  0.73218317  0.29176404  0.32302537  1.0
  Ni  Ni943  1  0.73218317  0.62509737  0.32302537  1.0
  Ni  Ni944  1  0.73218317  0.95843071  0.32302537  1.0
  Ni  Ni945  1  0.23218317  0.08343071  0.44802537  1.0
  Ni  Ni946  1  0.23218317  0.41676404  0.44802537  1.0
  Ni  Ni947  1  0.23218317  0.75009737  0.44802537  1.0
  Ni  Ni948  1  0.56551650  0.08343071  0.44802537  1.0
  Ni  Ni949  1  0.56551650  0.41676404  0.44802537  1.0
  Ni  Ni950  1  0.56551650  0.75009737  0.44802537  1.0
  Ni  Ni951  1  0.89884983  0.08343071  0.44802537  1.0
  Ni  Ni952  1  0.89884983  0.41676404  0.44802537  1.0
  Ni  Ni953  1  0.89884983  0.75009737  0.44802537  1.0
  Ni  Ni954  1  0.10803650  0.03575362  0.36040762  1.0
  Ni  Ni955  1  0.10803650  0.36908696  0.36040762  1.0
  Ni  Ni956  1  0.10803650  0.70242029  0.36040762  1.0
  Ni  Ni957  1  0.44136983  0.03575362  0.36040762  1.0
  Ni  Ni958  1  0.44136983  0.36908696  0.36040762  1.0
  Ni  Ni959  1  0.44136983  0.70242029  0.36040762  1.0
  Ni  Ni960  1  0.77470317  0.03575362  0.36040762  1.0
  Ni  Ni961  1  0.77470317  0.36908696  0.36040762  1.0
  Ni  Ni962  1  0.77470317  0.70242029  0.36040762  1.0
  Ni  Ni963  1  0.27470317  0.16075362  0.48540762  1.0
  Ni  Ni964  1  0.27470317  0.49408696  0.48540762  1.0
  Ni  Ni965  1  0.27470317  0.82742029  0.48540762  1.0
  Ni  Ni966  1  0.60803650  0.16075362  0.48540762  1.0
  Ni  Ni967  1  0.60803650  0.49408696  0.48540762  1.0
  Ni  Ni968  1  0.60803650  0.82742029  0.48540762  1.0
  Ni  Ni969  1  0.94136983  0.16075362  0.48540762  1.0
  Ni  Ni970  1  0.94136983  0.49408696  0.48540762  1.0
  Ni  Ni971  1  0.94136983  0.82742029  0.48540762  1.0
  Ni  Ni972  1  0.27436100  0.03488733  0.36585000  1.0
  Ni  Ni973  1  0.27436100  0.36822067  0.36585000  1.0
  Ni  Ni974  1  0.27436100  0.70155400  0.36585000  1.0
  Ni  Ni975  1  0.60769433  0.03488733  0.36585000  1.0
  Ni  Ni976  1  0.60769433  0.36822067  0.36585000  1.0
  Ni  Ni977  1  0.60769433  0.70155400  0.36585000  1.0
  Ni  Ni978  1  0.94102767  0.03488733  0.36585000  1.0
  Ni  Ni979  1  0.94102767  0.36822067  0.36585000  1.0
  Ni  Ni980  1  0.94102767  0.70155400  0.36585000  1.0
  Ni  Ni981  1  0.10769433  0.15988733  0.49085000  1.0
  Ni  Ni982  1  0.10769433  0.49322067  0.49085000  1.0
  Ni  Ni983  1  0.10769433  0.82655400  0.49085000  1.0
  Ni  Ni984  1  0.44102767  0.15988733  0.49085000  1.0
  Ni  Ni985  1  0.44102767  0.49322067  0.49085000  1.0
  Ni  Ni986  1  0.44102767  0.82655400  0.49085000  1.0
  Ni  Ni987  1  0.77436100  0.15988733  0.49085000  1.0
  Ni  Ni988  1  0.77436100  0.49322067  0.49085000  1.0
  Ni  Ni989  1  0.77436100  0.82655400  0.49085000  1.0
  Ni  Ni990  1  0.27570400  0.27196708  0.36454875  1.0
  Ni  Ni991  1  0.27570400  0.60530042  0.36454875  1.0
  Ni  Ni992  1  0.27570400  0.93863375  0.36454875  1.0
  Ni  Ni993  1  0.60903733  0.27196708  0.36454875  1.0
  Ni  Ni994  1  0.60903733  0.60530042  0.36454875  1.0
  Ni  Ni995  1  0.60903733  0.93863375  0.36454875  1.0
  Ni  Ni996  1  0.94237067  0.27196708  0.36454875  1.0
  Ni  Ni997  1  0.94237067  0.60530042  0.36454875  1.0
  Ni  Ni998  1  0.94237067  0.93863375  0.36454875  1.0
  Ni  Ni999  1  0.10903733  0.06363375  0.48954875  1.0
  Ni  Ni1000  1  0.10903733  0.39696708  0.48954875  1.0
  Ni  Ni1001  1  0.10903733  0.73030042  0.48954875  1.0
  Ni  Ni1002  1  0.44237067  0.06363375  0.48954875  1.0
  Ni  Ni1003  1  0.44237067  0.39696708  0.48954875  1.0
  Ni  Ni1004  1  0.44237067  0.73030042  0.48954875  1.0
  Ni  Ni1005  1  0.77570400  0.06363375  0.48954875  1.0
  Ni  Ni1006  1  0.77570400  0.39696708  0.48954875  1.0
  Ni  Ni1007  1  0.77570400  0.73030042  0.48954875  1.0
  Ni  Ni1008  1  0.27318333  0.06174325  0.48765825  1.0
  Ni  Ni1009  1  0.27318333  0.39507658  0.48765825  1.0
  Ni  Ni1010  1  0.27318333  0.72840992  0.48765825  1.0
  Ni  Ni1011  1  0.60651667  0.06174325  0.48765825  1.0
  Ni  Ni1012  1  0.60651667  0.39507658  0.48765825  1.0
  Ni  Ni1013  1  0.60651667  0.72840992  0.48765825  1.0
  Ni  Ni1014  1  0.93985000  0.06174325  0.48765825  1.0
  Ni  Ni1015  1  0.93985000  0.39507658  0.48765825  1.0
  Ni  Ni1016  1  0.93985000  0.72840992  0.48765825  1.0
  Ni  Ni1017  1  0.10651667  0.27007658  0.36265825  1.0
  Ni  Ni1018  1  0.10651667  0.60340992  0.36265825  1.0
  Ni  Ni1019  1  0.10651667  0.93674325  0.36265825  1.0
  Ni  Ni1020  1  0.43985000  0.27007658  0.36265825  1.0
  Ni  Ni1021  1  0.43985000  0.60340992  0.36265825  1.0
  Ni  Ni1022  1  0.43985000  0.93674325  0.36265825  1.0
  Ni  Ni1023  1  0.77318333  0.27007658  0.36265825  1.0
  Ni  Ni1024  1  0.77318333  0.60340992  0.36265825  1.0
  Ni  Ni1025  1  0.77318333  0.93674325  0.36265825  1.0
  Ni  Ni1026  1  0.10615033  0.11084233  0.34226400  1.0
  Ni  Ni1027  1  0.10615033  0.44417567  0.34226400  1.0
  Ni  Ni1028  1  0.10615033  0.77750900  0.34226400  1.0
  Ni  Ni1029  1  0.43948367  0.11084233  0.34226400  1.0
  Ni  Ni1030  1  0.43948367  0.44417567  0.34226400  1.0
  Ni  Ni1031  1  0.43948367  0.77750900  0.34226400  1.0
  Ni  Ni1032  1  0.77281700  0.11084233  0.34226400  1.0
  Ni  Ni1033  1  0.77281700  0.44417567  0.34226400  1.0
  Ni  Ni1034  1  0.77281700  0.77750900  0.34226400  1.0
  Ni  Ni1035  1  0.27281700  0.23584233  0.46726400  1.0
  Ni  Ni1036  1  0.27281700  0.56917567  0.46726400  1.0
  Ni  Ni1037  1  0.27281700  0.90250900  0.46726400  1.0
  Ni  Ni1038  1  0.60615033  0.23584233  0.46726400  1.0
  Ni  Ni1039  1  0.60615033  0.56917567  0.46726400  1.0
  Ni  Ni1040  1  0.60615033  0.90250900  0.46726400  1.0
  Ni  Ni1041  1  0.93948367  0.23584233  0.46726400  1.0
  Ni  Ni1042  1  0.93948367  0.56917567  0.46726400  1.0
  Ni  Ni1043  1  0.93948367  0.90250900  0.46726400  1.0
  Ni  Ni1044  1  0.07255617  0.10403054  0.26201787  1.0
  Ni  Ni1045  1  0.07255617  0.43736387  0.26201787  1.0
  Ni  Ni1046  1  0.07255617  0.77069721  0.26201787  1.0
  Ni  Ni1047  1  0.40588950  0.10403054  0.26201787  1.0
  Ni  Ni1048  1  0.40588950  0.43736387  0.26201787  1.0
  Ni  Ni1049  1  0.40588950  0.77069721  0.26201787  1.0
  Ni  Ni1050  1  0.73922283  0.10403054  0.26201787  1.0
  Ni  Ni1051  1  0.73922283  0.43736387  0.26201787  1.0
  Ni  Ni1052  1  0.73922283  0.77069721  0.26201787  1.0
  Ni  Ni1053  1  0.23922283  0.22903054  0.38701787  1.0
  Ni  Ni1054  1  0.23922283  0.56236387  0.38701787  1.0
  Ni  Ni1055  1  0.23922283  0.89569721  0.38701787  1.0
  Ni  Ni1056  1  0.57255617  0.22903054  0.38701787  1.0
  Ni  Ni1057  1  0.57255617  0.56236387  0.38701787  1.0
  Ni  Ni1058  1  0.57255617  0.89569721  0.38701787  1.0
  Ni  Ni1059  1  0.90588950  0.22903054  0.38701787  1.0
  Ni  Ni1060  1  0.90588950  0.56236387  0.38701787  1.0
  Ni  Ni1061  1  0.90588950  0.89569721  0.38701787  1.0
  Ni  Ni1062  1  0.00982933  0.29482192  0.29245125  1.0
  Ni  Ni1063  1  0.00982933  0.62815525  0.29245125  1.0
  Ni  Ni1064  1  0.00982933  0.96148858  0.29245125  1.0
  Ni  Ni1065  1  0.34316267  0.29482192  0.29245125  1.0
  Ni  Ni1066  1  0.34316267  0.62815525  0.29245125  1.0
  Ni  Ni1067  1  0.34316267  0.96148858  0.29245125  1.0
  Ni  Ni1068  1  0.67649600  0.29482192  0.29245125  1.0
  Ni  Ni1069  1  0.67649600  0.62815525  0.29245125  1.0
  Ni  Ni1070  1  0.67649600  0.96148858  0.29245125  1.0
  Ni  Ni1071  1  0.17649600  0.08648858  0.41745125  1.0
  Ni  Ni1072  1  0.17649600  0.41982192  0.41745125  1.0
  Ni  Ni1073  1  0.17649600  0.75315525  0.41745125  1.0
  Ni  Ni1074  1  0.50982933  0.08648858  0.41745125  1.0
  Ni  Ni1075  1  0.50982933  0.41982192  0.41745125  1.0
  Ni  Ni1076  1  0.50982933  0.75315525  0.41745125  1.0
  Ni  Ni1077  1  0.84316267  0.08648858  0.41745125  1.0
  Ni  Ni1078  1  0.84316267  0.41982192  0.41745125  1.0
  Ni  Ni1079  1  0.84316267  0.75315525  0.41745125  1.0
  Ni  Ni1080  1  0.30863017  0.15608604  0.31407337  1.0
  Ni  Ni1081  1  0.30863017  0.48941938  0.31407337  1.0
  Ni  Ni1082  1  0.30863017  0.82275271  0.31407337  1.0
  Ni  Ni1083  1  0.64196350  0.15608604  0.31407337  1.0
  Ni  Ni1084  1  0.64196350  0.48941938  0.31407337  1.0
  Ni  Ni1085  1  0.64196350  0.82275271  0.31407337  1.0
  Ni  Ni1086  1  0.97529683  0.15608604  0.31407337  1.0
  Ni  Ni1087  1  0.97529683  0.48941938  0.31407337  1.0
  Ni  Ni1088  1  0.97529683  0.82275271  0.31407337  1.0
  Ni  Ni1089  1  0.14196350  0.28108604  0.43907337  1.0
  Ni  Ni1090  1  0.14196350  0.61441937  0.43907337  1.0
  Ni  Ni1091  1  0.14196350  0.94775271  0.43907337  1.0
  Ni  Ni1092  1  0.47529683  0.28108604  0.43907337  1.0
  Ni  Ni1093  1  0.47529683  0.61441937  0.43907337  1.0
  Ni  Ni1094  1  0.47529683  0.94775271  0.43907337  1.0
  Ni  Ni1095  1  0.80863017  0.28108604  0.43907337  1.0
  Ni  Ni1096  1  0.80863017  0.61441937  0.43907337  1.0
  Ni  Ni1097  1  0.80863017  0.94775271  0.43907337  1.0
  Ni  Ni1098  1  0.05762933  0.14680525  0.37913425  1.0
  Ni  Ni1099  1  0.05762933  0.48013858  0.37913425  1.0
  Ni  Ni1100  1  0.05762933  0.81347192  0.37913425  1.0
  Ni  Ni1101  1  0.39096267  0.14680525  0.37913425  1.0
  Ni  Ni1102  1  0.39096267  0.48013858  0.37913425  1.0
  Ni  Ni1103  1  0.39096267  0.81347192  0.37913425  1.0
  Ni  Ni1104  1  0.72429600  0.14680525  0.37913425  1.0
  Ni  Ni1105  1  0.72429600  0.48013858  0.37913425  1.0
  Ni  Ni1106  1  0.72429600  0.81347192  0.37913425  1.0
  Ni  Ni1107  1  0.22429600  0.02180525  0.25413425  1.0
  Ni  Ni1108  1  0.22429600  0.35513858  0.25413425  1.0
  Ni  Ni1109  1  0.22429600  0.68847192  0.25413425  1.0
  Ni  Ni1110  1  0.55762933  0.02180525  0.25413425  1.0
  Ni  Ni1111  1  0.55762933  0.35513858  0.25413425  1.0
  Ni  Ni1112  1  0.55762933  0.68847192  0.25413425  1.0
  Ni  Ni1113  1  0.89096267  0.02180525  0.25413425  1.0
  Ni  Ni1114  1  0.89096267  0.35513858  0.25413425  1.0
  Ni  Ni1115  1  0.89096267  0.68847192  0.25413425  1.0
  Ni  Ni1116  1  0.24017067  0.10219675  0.26649275  1.0
  Ni  Ni1117  1  0.24017067  0.43553008  0.26649275  1.0
  Ni  Ni1118  1  0.24017067  0.76886342  0.26649275  1.0
  Ni  Ni1119  1  0.57350400  0.10219675  0.26649275  1.0
  Ni  Ni1120  1  0.57350400  0.43553008  0.26649275  1.0
  Ni  Ni1121  1  0.57350400  0.76886342  0.26649275  1.0
  Ni  Ni1122  1  0.90683733  0.10219675  0.26649275  1.0
  Ni  Ni1123  1  0.90683733  0.43553008  0.26649275  1.0
  Ni  Ni1124  1  0.90683733  0.76886342  0.26649275  1.0
  Ni  Ni1125  1  0.07350400  0.22719675  0.39149275  1.0
  Ni  Ni1126  1  0.07350400  0.56053008  0.39149275  1.0
  Ni  Ni1127  1  0.07350400  0.89386342  0.39149275  1.0
  Ni  Ni1128  1  0.40683733  0.22719675  0.39149275  1.0
  Ni  Ni1129  1  0.40683733  0.56053008  0.39149275  1.0
  Ni  Ni1130  1  0.40683733  0.89386342  0.39149275  1.0
  Ni  Ni1131  1  0.74017067  0.22719675  0.39149275  1.0
  Ni  Ni1132  1  0.74017067  0.56053008  0.39149275  1.0
  Ni  Ni1133  1  0.74017067  0.89386342  0.39149275  1.0
  Ni  Ni1134  1  0.14884983  0.33033371  0.45731637  1.0
  Ni  Ni1135  1  0.14884983  0.66366704  0.45731637  1.0
  Ni  Ni1136  1  0.14884983  0.99700038  0.45731637  1.0
  Ni  Ni1137  1  0.48218317  0.33033371  0.45731637  1.0
  Ni  Ni1138  1  0.48218317  0.66366704  0.45731637  1.0
  Ni  Ni1139  1  0.48218317  0.99700038  0.45731637  1.0
  Ni  Ni1140  1  0.81551650  0.33033371  0.45731637  1.0
  Ni  Ni1141  1  0.81551650  0.66366704  0.45731637  1.0
  Ni  Ni1142  1  0.81551650  0.99700038  0.45731637  1.0
  Ni  Ni1143  1  0.31551650  0.20533371  0.33231637  1.0
  Ni  Ni1144  1  0.31551650  0.53866704  0.33231637  1.0
  Ni  Ni1145  1  0.31551650  0.87200037  0.33231637  1.0
  Ni  Ni1146  1  0.64884983  0.20533371  0.33231637  1.0
  Ni  Ni1147  1  0.64884983  0.53866704  0.33231637  1.0
  Ni  Ni1148  1  0.64884983  0.87200037  0.33231637  1.0
  Ni  Ni1149  1  0.98218317  0.20533371  0.33231637  1.0
  Ni  Ni1150  1  0.98218317  0.53866704  0.33231637  1.0
  Ni  Ni1151  1  0.98218317  0.87200037  0.33231637  1.0
  Ni  Ni1152  1  0.05826367  0.30624050  0.39972950  1.0
  Ni  Ni1153  1  0.05826367  0.63957383  0.39972950  1.0
  Ni  Ni1154  1  0.05826367  0.97290717  0.39972950  1.0
  Ni  Ni1155  1  0.39159700  0.30624050  0.39972950  1.0
  Ni  Ni1156  1  0.39159700  0.63957383  0.39972950  1.0
  Ni  Ni1157  1  0.39159700  0.97290717  0.39972950  1.0
  Ni  Ni1158  1  0.72493033  0.30624050  0.39972950  1.0
  Ni  Ni1159  1  0.72493033  0.63957383  0.39972950  1.0
  Ni  Ni1160  1  0.72493033  0.97290717  0.39972950  1.0
  Ni  Ni1161  1  0.22493033  0.18124050  0.27472950  1.0
  Ni  Ni1162  1  0.22493033  0.51457383  0.27472950  1.0
  Ni  Ni1163  1  0.22493033  0.84790717  0.27472950  1.0
  Ni  Ni1164  1  0.55826367  0.18124050  0.27472950  1.0
  Ni  Ni1165  1  0.55826367  0.51457383  0.27472950  1.0
  Ni  Ni1166  1  0.55826367  0.84790717  0.27472950  1.0
  Ni  Ni1167  1  0.89159700  0.18124050  0.27472950  1.0
  Ni  Ni1168  1  0.89159700  0.51457383  0.27472950  1.0
  Ni  Ni1169  1  0.89159700  0.84790717  0.27472950  1.0
  Ni  Ni1170  1  0.27506967  0.11253183  0.34395350  1.0
  Ni  Ni1171  1  0.27506967  0.44586517  0.34395350  1.0
  Ni  Ni1172  1  0.27506967  0.77919850  0.34395350  1.0
  Ni  Ni1173  1  0.60840300  0.11253183  0.34395350  1.0
  Ni  Ni1174  1  0.60840300  0.44586517  0.34395350  1.0
  Ni  Ni1175  1  0.60840300  0.77919850  0.34395350  1.0
  Ni  Ni1176  1  0.94173633  0.11253183  0.34395350  1.0
  Ni  Ni1177  1  0.94173633  0.44586517  0.34395350  1.0
  Ni  Ni1178  1  0.94173633  0.77919850  0.34395350  1.0
  Ni  Ni1179  1  0.10840300  0.23753183  0.46895350  1.0
  Ni  Ni1180  1  0.10840300  0.57086517  0.46895350  1.0
  Ni  Ni1181  1  0.10840300  0.90419850  0.46895350  1.0
  Ni  Ni1182  1  0.44173633  0.23753183  0.46895350  1.0
  Ni  Ni1183  1  0.44173633  0.57086517  0.46895350  1.0
  Ni  Ni1184  1  0.44173633  0.90419850  0.46895350  1.0
  Ni  Ni1185  1  0.77506967  0.23753183  0.46895350  1.0
  Ni  Ni1186  1  0.77506967  0.57086517  0.46895350  1.0
  Ni  Ni1187  1  0.77506967  0.90419850  0.46895350  1.0
  Ni  Ni1188  1  0.30897233  0.27879800  0.44309400  1.0
  Ni  Ni1189  1  0.30897233  0.61213133  0.44309400  1.0
  Ni  Ni1190  1  0.30897233  0.94546467  0.44309400  1.0
  Ni  Ni1191  1  0.64230567  0.27879800  0.44309400  1.0
  Ni  Ni1192  1  0.64230567  0.61213133  0.44309400  1.0
  Ni  Ni1193  1  0.64230567  0.94546467  0.44309400  1.0
  Ni  Ni1194  1  0.97563900  0.27879800  0.44309400  1.0
  Ni  Ni1195  1  0.97563900  0.61213133  0.44309400  1.0
  Ni  Ni1196  1  0.97563900  0.94546467  0.44309400  1.0
  Ni  Ni1197  1  0.14230567  0.15379800  0.31809400  1.0
  Ni  Ni1198  1  0.14230567  0.48713133  0.31809400  1.0
  Ni  Ni1199  1  0.14230567  0.82046467  0.31809400  1.0
  Ni  Ni1200  1  0.47563900  0.15379800  0.31809400  1.0
  Ni  Ni1201  1  0.47563900  0.48713133  0.31809400  1.0
  Ni  Ni1202  1  0.47563900  0.82046467  0.31809400  1.0
  Ni  Ni1203  1  0.80897233  0.15379800  0.31809400  1.0
  Ni  Ni1204  1  0.80897233  0.48713133  0.31809400  1.0
  Ni  Ni1205  1  0.80897233  0.82046467  0.31809400  1.0
  Ni  Ni1206  1  0.22718300  0.30793000  0.40141900  1.0
  Ni  Ni1207  1  0.22718300  0.64126333  0.40141900  1.0
  Ni  Ni1208  1  0.22718300  0.97459667  0.40141900  1.0
  Ni  Ni1209  1  0.56051633  0.30793000  0.40141900  1.0
  Ni  Ni1210  1  0.56051633  0.64126333  0.40141900  1.0
  Ni  Ni1211  1  0.56051633  0.97459667  0.40141900  1.0
  Ni  Ni1212  1  0.89384967  0.30793000  0.40141900  1.0
  Ni  Ni1213  1  0.89384967  0.64126333  0.40141900  1.0
  Ni  Ni1214  1  0.89384967  0.97459667  0.40141900  1.0
  Ni  Ni1215  1  0.06051633  0.18293000  0.27641900  1.0
  Ni  Ni1216  1  0.06051633  0.51626333  0.27641900  1.0
  Ni  Ni1217  1  0.06051633  0.84959667  0.27641900  1.0
  Ni  Ni1218  1  0.39384967  0.18293000  0.27641900  1.0
  Ni  Ni1219  1  0.39384967  0.51626333  0.27641900  1.0
  Ni  Ni1220  1  0.39384967  0.84959667  0.27641900  1.0
  Ni  Ni1221  1  0.72718300  0.18293000  0.27641900  1.0
  Ni  Ni1222  1  0.72718300  0.51626333  0.27641900  1.0
  Ni  Ni1223  1  0.72718300  0.84959667  0.27641900  1.0
  Ni  Ni1224  1  0.02281700  0.04115883  0.30131450  1.0
  Ni  Ni1225  1  0.02281700  0.37449217  0.30131450  1.0
  Ni  Ni1226  1  0.02281700  0.70782550  0.30131450  1.0
  Ni  Ni1227  1  0.35615033  0.04115883  0.30131450  1.0
  Ni  Ni1228  1  0.35615033  0.37449217  0.30131450  1.0
  Ni  Ni1229  1  0.35615033  0.70782550  0.30131450  1.0
  Ni  Ni1230  1  0.68948367  0.04115883  0.30131450  1.0
  Ni  Ni1231  1  0.68948367  0.37449217  0.30131450  1.0
  Ni  Ni1232  1  0.68948367  0.70782550  0.30131450  1.0
  Ni  Ni1233  1  0.18948367  0.16615883  0.42631450  1.0
  Ni  Ni1234  1  0.18948367  0.49949217  0.42631450  1.0
  Ni  Ni1235  1  0.18948367  0.83282550  0.42631450  1.0
  Ni  Ni1236  1  0.52281700  0.16615883  0.42631450  1.0
  Ni  Ni1237  1  0.52281700  0.49949217  0.42631450  1.0
  Ni  Ni1238  1  0.52281700  0.83282550  0.42631450  1.0
  Ni  Ni1239  1  0.85615033  0.16615883  0.42631450  1.0
  Ni  Ni1240  1  0.85615033  0.49949217  0.42631450  1.0
  Ni  Ni1241  1  0.85615033  0.83282550  0.42631450  1.0
  Ni  Ni1242  1  0.14159700  0.04259067  0.44067900  1.0
  Ni  Ni1243  1  0.14159700  0.37592400  0.44067900  1.0
  Ni  Ni1244  1  0.14159700  0.70925733  0.44067900  1.0
  Ni  Ni1245  1  0.47493033  0.04259067  0.44067900  1.0
  Ni  Ni1246  1  0.47493033  0.37592400  0.44067900  1.0
  Ni  Ni1247  1  0.47493033  0.70925733  0.44067900  1.0
  Ni  Ni1248  1  0.80826367  0.04259067  0.44067900  1.0
  Ni  Ni1249  1  0.80826367  0.37592400  0.44067900  1.0
  Ni  Ni1250  1  0.80826367  0.70925733  0.44067900  1.0
  Ni  Ni1251  1  0.30826367  0.25092400  0.31567900  1.0
  Ni  Ni1252  1  0.30826367  0.58425733  0.31567900  1.0
  Ni  Ni1253  1  0.30826367  0.91759067  0.31567900  1.0
  Ni  Ni1254  1  0.64159700  0.25092400  0.31567900  1.0
  Ni  Ni1255  1  0.64159700  0.58425733  0.31567900  1.0
  Ni  Ni1256  1  0.64159700  0.91759067  0.31567900  1.0
  Ni  Ni1257  1  0.97493033  0.25092400  0.31567900  1.0
  Ni  Ni1258  1  0.97493033  0.58425733  0.31567900  1.0
  Ni  Ni1259  1  0.97493033  0.91759067  0.31567900  1.0
  Ni  Ni1260  1  0.06015000  0.02369575  0.25602475  1.0
  Ni  Ni1261  1  0.06015000  0.35702908  0.25602475  1.0
  Ni  Ni1262  1  0.06015000  0.69036242  0.25602475  1.0
  Ni  Ni1263  1  0.39348333  0.02369575  0.25602475  1.0
  Ni  Ni1264  1  0.39348333  0.35702908  0.25602475  1.0
  Ni  Ni1265  1  0.39348333  0.69036242  0.25602475  1.0
  Ni  Ni1266  1  0.72681667  0.02369575  0.25602475  1.0
  Ni  Ni1267  1  0.72681667  0.35702908  0.25602475  1.0
  Ni  Ni1268  1  0.72681667  0.69036242  0.25602475  1.0
  Ni  Ni1269  1  0.22681667  0.14869575  0.38102475  1.0
  Ni  Ni1270  1  0.22681667  0.48202908  0.38102475  1.0
  Ni  Ni1271  1  0.22681667  0.81536242  0.38102475  1.0
  Ni  Ni1272  1  0.56015000  0.14869575  0.38102475  1.0
  Ni  Ni1273  1  0.56015000  0.48202908  0.38102475  1.0
  Ni  Ni1274  1  0.56015000  0.81536242  0.38102475  1.0
  Ni  Ni1275  1  0.89348333  0.14869575  0.38102475  1.0
  Ni  Ni1276  1  0.89348333  0.48202908  0.38102475  1.0
  Ni  Ni1277  1  0.89348333  0.81536242  0.38102475  1.0
  Ni  Ni1278  1  0.09316267  0.31657558  0.47719025  1.0
  Ni  Ni1279  1  0.09316267  0.64990892  0.47719025  1.0
  Ni  Ni1280  1  0.09316267  0.98324225  0.47719025  1.0
  Ni  Ni1281  1  0.42649600  0.31657558  0.47719025  1.0
  Ni  Ni1282  1  0.42649600  0.64990892  0.47719025  1.0
  Ni  Ni1283  1  0.42649600  0.98324225  0.47719025  1.0
  Ni  Ni1284  1  0.75982933  0.31657558  0.47719025  1.0
  Ni  Ni1285  1  0.75982933  0.64990892  0.47719025  1.0
  Ni  Ni1286  1  0.75982933  0.98324225  0.47719025  1.0
  Ni  Ni1287  1  0.25982933  0.19157558  0.35219025  1.0
  Ni  Ni1288  1  0.25982933  0.52490892  0.35219025  1.0
  Ni  Ni1289  1  0.25982933  0.85824225  0.35219025  1.0
  Ni  Ni1290  1  0.59316267  0.19157558  0.35219025  1.0
  Ni  Ni1291  1  0.59316267  0.52490892  0.35219025  1.0
  Ni  Ni1292  1  0.59316267  0.85824225  0.35219025  1.0
  Ni  Ni1293  1  0.92649600  0.19157558  0.35219025  1.0
  Ni  Ni1294  1  0.92649600  0.52490892  0.35219025  1.0
  Ni  Ni1295  1  0.92649600  0.85824225  0.35219025  1.0
  Ni  Ni1296  1  0.02570400  0.00786358  0.40685925  1.0
  Ni  Ni1297  1  0.02570400  0.34119692  0.40685925  1.0
  Ni  Ni1298  1  0.02570400  0.67453025  0.40685925  1.0
  Ni  Ni1299  1  0.35903733  0.00786358  0.40685925  1.0
  Ni  Ni1300  1  0.35903733  0.34119692  0.40685925  1.0
  Ni  Ni1301  1  0.35903733  0.67453025  0.40685925  1.0
  Ni  Ni1302  1  0.69237067  0.00786358  0.40685925  1.0
  Ni  Ni1303  1  0.69237067  0.34119692  0.40685925  1.0
  Ni  Ni1304  1  0.69237067  0.67453025  0.40685925  1.0
  Ni  Ni1305  1  0.19237067  0.21619692  0.28185925  1.0
  Ni  Ni1306  1  0.19237067  0.54953025  0.28185925  1.0
  Ni  Ni1307  1  0.19237067  0.88286358  0.28185925  1.0
  Ni  Ni1308  1  0.52570400  0.21619692  0.28185925  1.0
  Ni  Ni1309  1  0.52570400  0.54953025  0.28185925  1.0
  Ni  Ni1310  1  0.52570400  0.88286358  0.28185925  1.0
  Ni  Ni1311  1  0.85903733  0.21619692  0.28185925  1.0
  Ni  Ni1312  1  0.85903733  0.54953025  0.28185925  1.0
  Ni  Ni1313  1  0.85903733  0.88286358  0.28185925  1.0
  Ni  Ni1314  1  0.05897233  0.05055167  0.37783300  1.0
  Ni  Ni1315  1  0.05897233  0.38388500  0.37783300  1.0
  Ni  Ni1316  1  0.05897233  0.71721833  0.37783300  1.0
  Ni  Ni1317  1  0.39230567  0.05055167  0.37783300  1.0
  Ni  Ni1318  1  0.39230567  0.38388500  0.37783300  1.0
  Ni  Ni1319  1  0.39230567  0.71721833  0.37783300  1.0
  Ni  Ni1320  1  0.72563900  0.05055167  0.37783300  1.0
  Ni  Ni1321  1  0.72563900  0.38388500  0.37783300  1.0
  Ni  Ni1322  1  0.72563900  0.71721833  0.37783300  1.0
  Ni  Ni1323  1  0.22563900  0.25888500  0.25283300  1.0
  Ni  Ni1324  1  0.22563900  0.59221833  0.25283300  1.0
  Ni  Ni1325  1  0.22563900  0.92555167  0.25283300  1.0
  Ni  Ni1326  1  0.55897233  0.25888500  0.25283300  1.0
  Ni  Ni1327  1  0.55897233  0.59221833  0.25283300  1.0
  Ni  Ni1328  1  0.55897233  0.92555167  0.25283300  1.0
  Ni  Ni1329  1  0.89230567  0.25888500  0.25283300  1.0
  Ni  Ni1330  1  0.89230567  0.59221833  0.25283300  1.0
  Ni  Ni1331  1  0.89230567  0.92555167  0.25283300  1.0
  Ni  Ni1332  1  0.32255617  0.33096321  0.33121987  1.0
  Ni  Ni1333  1  0.32255617  0.66429654  0.33121987  1.0
  Ni  Ni1334  1  0.32255617  0.99762987  0.33121987  1.0
  Ni  Ni1335  1  0.65588950  0.33096321  0.33121987  1.0
  Ni  Ni1336  1  0.65588950  0.66429654  0.33121987  1.0
  Ni  Ni1337  1  0.65588950  0.99762987  0.33121987  1.0
  Ni  Ni1338  1  0.98922283  0.33096321  0.33121987  1.0
  Ni  Ni1339  1  0.98922283  0.66429654  0.33121987  1.0
  Ni  Ni1340  1  0.98922283  0.99762987  0.33121987  1.0
  Ni  Ni1341  1  0.15588950  0.12262987  0.45621987  1.0
  Ni  Ni1342  1  0.15588950  0.45596321  0.45621987  1.0
  Ni  Ni1343  1  0.15588950  0.78929654  0.45621987  1.0
  Ni  Ni1344  1  0.48922283  0.12262987  0.45621987  1.0
  Ni  Ni1345  1  0.48922283  0.45596321  0.45621987  1.0
  Ni  Ni1346  1  0.48922283  0.78929654  0.45621987  1.0
  Ni  Ni1347  1  0.82255617  0.12262987  0.45621987  1.0
  Ni  Ni1348  1  0.82255617  0.45596321  0.45621987  1.0
  Ni  Ni1349  1  0.82255617  0.78929654  0.45621987  1.0
  Ni  Ni1350  1  0.01722750  0.02328363  0.48359962  1.0
  Ni  Ni1351  1  0.01722750  0.35661696  0.48359962  1.0
  Ni  Ni1352  1  0.01722750  0.68995029  0.48359962  1.0
  Ni  Ni1353  1  0.35056083  0.02328363  0.48359962  1.0
  Ni  Ni1354  1  0.35056083  0.35661696  0.48359962  1.0
  Ni  Ni1355  1  0.35056083  0.68995029  0.48359962  1.0
  Ni  Ni1356  1  0.68389417  0.02328363  0.48359962  1.0
  Ni  Ni1357  1  0.68389417  0.35661696  0.48359962  1.0
  Ni  Ni1358  1  0.68389417  0.68995029  0.48359962  1.0
  Ni  Ni1359  1  0.18389417  0.23161696  0.35859962  1.0
  Ni  Ni1360  1  0.18389417  0.56495029  0.35859962  1.0
  Ni  Ni1361  1  0.18389417  0.89828363  0.35859962  1.0
  Ni  Ni1362  1  0.51722750  0.23161696  0.35859962  1.0
  Ni  Ni1363  1  0.51722750  0.56495029  0.35859962  1.0
  Ni  Ni1364  1  0.51722750  0.89828363  0.35859962  1.0
  Ni  Ni1365  1  0.85056083  0.23161696  0.35859962  1.0
  Ni  Ni1366  1  0.85056083  0.56495029  0.35859962  1.0
  Ni  Ni1367  1  0.85056083  0.89828363  0.35859962  1.0
  Ni  Ni1368  1  0.06610583  0.10072504  0.39437437  1.0
  Ni  Ni1369  1  0.06610583  0.43405837  0.39437437  1.0
  Ni  Ni1370  1  0.06610583  0.76739171  0.39437437  1.0
  Ni  Ni1371  1  0.39943917  0.10072504  0.39437437  1.0
  Ni  Ni1372  1  0.39943917  0.43405837  0.39437437  1.0
  Ni  Ni1373  1  0.39943917  0.76739171  0.39437437  1.0
  Ni  Ni1374  1  0.73277250  0.10072504  0.39437437  1.0
  Ni  Ni1375  1  0.73277250  0.43405837  0.39437437  1.0
  Ni  Ni1376  1  0.73277250  0.76739171  0.39437437  1.0
  Ni  Ni1377  1  0.23277250  0.30905837  0.26937437  1.0
  Ni  Ni1378  1  0.23277250  0.64239171  0.26937437  1.0
  Ni  Ni1379  1  0.23277250  0.97572504  0.26937437  1.0
  Ni  Ni1380  1  0.56610583  0.30905837  0.26937437  1.0
  Ni  Ni1381  1  0.56610583  0.64239171  0.26937437  1.0
  Ni  Ni1382  1  0.56610583  0.97572504  0.26937437  1.0
  Ni  Ni1383  1  0.89943917  0.30905837  0.26937437  1.0
  Ni  Ni1384  1  0.89943917  0.64239171  0.26937437  1.0
  Ni  Ni1385  1  0.89943917  0.97572504  0.26937437  1.0
  Ni  Ni1386  1  0.02318333  0.21430642  0.27996875  1.0
  Ni  Ni1387  1  0.02318333  0.54763975  0.27996875  1.0
  Ni  Ni1388  1  0.02318333  0.88097308  0.27996875  1.0
  Ni  Ni1389  1  0.35651667  0.21430642  0.27996875  1.0
  Ni  Ni1390  1  0.35651667  0.54763975  0.27996875  1.0
  Ni  Ni1391  1  0.35651667  0.88097308  0.27996875  1.0
  Ni  Ni1392  1  0.68985000  0.21430642  0.27996875  1.0
  Ni  Ni1393  1  0.68985000  0.54763975  0.27996875  1.0
  Ni  Ni1394  1  0.68985000  0.88097308  0.27996875  1.0
  Ni  Ni1395  1  0.18985000  0.00597308  0.40496875  1.0
  Ni  Ni1396  1  0.18985000  0.33930642  0.40496875  1.0
  Ni  Ni1397  1  0.18985000  0.67263975  0.40496875  1.0
  Ni  Ni1398  1  0.52318333  0.00597308  0.40496875  1.0
  Ni  Ni1399  1  0.52318333  0.33930642  0.40496875  1.0
  Ni  Ni1400  1  0.52318333  0.67263975  0.40496875  1.0
  Ni  Ni1401  1  0.85651667  0.00597308  0.40496875  1.0
  Ni  Ni1402  1  0.85651667  0.33930642  0.40496875  1.0
  Ni  Ni1403  1  0.85651667  0.67263975  0.40496875  1.0
  Ni  Ni1404  1  0.31015000  0.20446592  0.46371425  1.0
  Ni  Ni1405  1  0.31015000  0.53779925  0.46371425  1.0
  Ni  Ni1406  1  0.31015000  0.87113258  0.46371425  1.0
  Ni  Ni1407  1  0.64348333  0.20446592  0.46371425  1.0
  Ni  Ni1408  1  0.64348333  0.53779925  0.46371425  1.0
  Ni  Ni1409  1  0.64348333  0.87113258  0.46371425  1.0
  Ni  Ni1410  1  0.97681667  0.20446592  0.46371425  1.0
  Ni  Ni1411  1  0.97681667  0.53779925  0.46371425  1.0
  Ni  Ni1412  1  0.97681667  0.87113258  0.46371425  1.0
  Ni  Ni1413  1  0.14348333  0.07946592  0.33871425  1.0
  Ni  Ni1414  1  0.14348333  0.41279925  0.33871425  1.0
  Ni  Ni1415  1  0.14348333  0.74613258  0.33871425  1.0
  Ni  Ni1416  1  0.47681667  0.07946592  0.33871425  1.0
  Ni  Ni1417  1  0.47681667  0.41279925  0.33871425  1.0
  Ni  Ni1418  1  0.47681667  0.74613258  0.33871425  1.0
  Ni  Ni1419  1  0.81015000  0.07946592  0.33871425  1.0
  Ni  Ni1420  1  0.81015000  0.41279925  0.33871425  1.0
  Ni  Ni1421  1  0.81015000  0.74613258  0.33871425  1.0
  Ni  Ni1422  1  0.02470317  0.26268629  0.42960962  1.0
  Ni  Ni1423  1  0.02470317  0.59601962  0.42960962  1.0
  Ni  Ni1424  1  0.02470317  0.92935296  0.42960962  1.0
  Ni  Ni1425  1  0.35803650  0.26268629  0.42960962  1.0
  Ni  Ni1426  1  0.35803650  0.59601962  0.42960962  1.0
  Ni  Ni1427  1  0.35803650  0.92935296  0.42960962  1.0
  Ni  Ni1428  1  0.69136983  0.26268629  0.42960962  1.0
  Ni  Ni1429  1  0.69136983  0.59601962  0.42960962  1.0
  Ni  Ni1430  1  0.69136983  0.92935296  0.42960962  1.0
  Ni  Ni1431  1  0.19136983  0.13768629  0.30460962  1.0
  Ni  Ni1432  1  0.19136983  0.47101962  0.30460962  1.0
  Ni  Ni1433  1  0.19136983  0.80435296  0.30460962  1.0
  Ni  Ni1434  1  0.52470317  0.13768629  0.30460962  1.0
  Ni  Ni1435  1  0.52470317  0.47101962  0.30460962  1.0
  Ni  Ni1436  1  0.52470317  0.80435296  0.30460962  1.0
  Ni  Ni1437  1  0.85803650  0.13768629  0.30460962  1.0
  Ni  Ni1438  1  0.85803650  0.47101962  0.30460962  1.0
  Ni  Ni1439  1  0.85803650  0.80435296  0.30460962  1.0
  Zr  Zr1440  1  0.05282800  0.14944975  0.20709375  1.0
  Zr  Zr1441  1  0.05282800  0.48278308  0.20709375  1.0
  Zr  Zr1442  1  0.05282800  0.81611642  0.20709375  1.0
  Zr  Zr1443  1  0.38616133  0.14944975  0.20709375  1.0
  Zr  Zr1444  1  0.38616133  0.48278308  0.20709375  1.0
  Zr  Zr1445  1  0.38616133  0.81611642  0.20709375  1.0
  Zr  Zr1446  1  0.71949467  0.14944975  0.20709375  1.0
  Zr  Zr1447  1  0.71949467  0.48278308  0.20709375  1.0
  Zr  Zr1448  1  0.71949467  0.81611642  0.20709375  1.0
  Zr  Zr1449  1  0.21949467  0.02444975  0.08209375  1.0
  Zr  Zr1450  1  0.21949467  0.35778308  0.08209375  1.0
  Zr  Zr1451  1  0.21949467  0.69111642  0.08209375  1.0
  Zr  Zr1452  1  0.55282800  0.02444975  0.08209375  1.0
  Zr  Zr1453  1  0.55282800  0.35778308  0.08209375  1.0
  Zr  Zr1454  1  0.55282800  0.69111642  0.08209375  1.0
  Zr  Zr1455  1  0.88616133  0.02444975  0.08209375  1.0
  Zr  Zr1456  1  0.88616133  0.35778308  0.08209375  1.0
  Zr  Zr1457  1  0.88616133  0.69111642  0.08209375  1.0
  Zr  Zr1458  1  0.30163283  0.19178488  0.02084287  1.0
  Zr  Zr1459  1  0.30163283  0.52511821  0.02084287  1.0
  Zr  Zr1460  1  0.30163283  0.85845154  0.02084287  1.0
  Zr  Zr1461  1  0.63496617  0.19178488  0.02084287  1.0
  Zr  Zr1462  1  0.63496617  0.52511821  0.02084287  1.0
  Zr  Zr1463  1  0.63496617  0.85845154  0.02084287  1.0
  Zr  Zr1464  1  0.96829950  0.19178488  0.02084287  1.0
  Zr  Zr1465  1  0.96829950  0.52511821  0.02084287  1.0
  Zr  Zr1466  1  0.96829950  0.85845154  0.02084287  1.0
  Zr  Zr1467  1  0.13496617  0.31678487  0.14584287  1.0
  Zr  Zr1468  1  0.13496617  0.65011821  0.14584287  1.0
  Zr  Zr1469  1  0.13496617  0.98345154  0.14584287  1.0
  Zr  Zr1470  1  0.46829950  0.31678487  0.14584287  1.0
  Zr  Zr1471  1  0.46829950  0.65011821  0.14584287  1.0
  Zr  Zr1472  1  0.46829950  0.98345154  0.14584287  1.0
  Zr  Zr1473  1  0.80163283  0.31678487  0.14584287  1.0
  Zr  Zr1474  1  0.80163283  0.65011821  0.14584287  1.0
  Zr  Zr1475  1  0.80163283  0.98345154  0.14584287  1.0
  Zr  Zr1476  1  0.33333333  0.12605283  0.12184150  1.0
  Zr  Zr1477  1  0.33333333  0.45938617  0.12184150  1.0
  Zr  Zr1478  1  0.33333333  0.79271950  0.12184150  1.0
  Zr  Zr1479  1  0.66666667  0.12605283  0.12184150  1.0
  Zr  Zr1480  1  0.66666667  0.45938617  0.12184150  1.0
  Zr  Zr1481  1  0.66666667  0.79271950  0.12184150  1.0
  Zr  Zr1482  1  0.00000000  0.12605283  0.12184150  1.0
  Zr  Zr1483  1  0.00000000  0.45938617  0.12184150  1.0
  Zr  Zr1484  1  0.00000000  0.79271950  0.12184150  1.0
  Zr  Zr1485  1  0.16666667  0.25105283  0.24684150  1.0
  Zr  Zr1486  1  0.16666667  0.58438617  0.24684150  1.0
  Zr  Zr1487  1  0.16666667  0.91771950  0.24684150  1.0
  Zr  Zr1488  1  0.50000000  0.25105283  0.24684150  1.0
  Zr  Zr1489  1  0.50000000  0.58438617  0.24684150  1.0
  Zr  Zr1490  1  0.50000000  0.91771950  0.24684150  1.0
  Zr  Zr1491  1  0.83333333  0.25105283  0.24684150  1.0
  Zr  Zr1492  1  0.83333333  0.58438617  0.24684150  1.0
  Zr  Zr1493  1  0.83333333  0.91771950  0.24684150  1.0
  Zr  Zr1494  1  0.30282800  0.07621075  0.17681075  1.0
  Zr  Zr1495  1  0.30282800  0.40954408  0.17681075  1.0
  Zr  Zr1496  1  0.30282800  0.74287742  0.17681075  1.0
  Zr  Zr1497  1  0.63616133  0.07621075  0.17681075  1.0
  Zr  Zr1498  1  0.63616133  0.40954408  0.17681075  1.0
  Zr  Zr1499  1  0.63616133  0.74287742  0.17681075  1.0
  Zr  Zr1500  1  0.96949467  0.07621075  0.17681075  1.0
  Zr  Zr1501  1  0.96949467  0.40954408  0.17681075  1.0
  Zr  Zr1502  1  0.96949467  0.74287742  0.17681075  1.0
  Zr  Zr1503  1  0.13616133  0.28454408  0.05181075  1.0
  Zr  Zr1504  1  0.13616133  0.61787742  0.05181075  1.0
  Zr  Zr1505  1  0.13616133  0.95121075  0.05181075  1.0
  Zr  Zr1506  1  0.46949467  0.28454408  0.05181075  1.0
  Zr  Zr1507  1  0.46949467  0.61787742  0.05181075  1.0
  Zr  Zr1508  1  0.46949467  0.95121075  0.05181075  1.0
  Zr  Zr1509  1  0.80282800  0.28454408  0.05181075  1.0
  Zr  Zr1510  1  0.80282800  0.61787742  0.05181075  1.0
  Zr  Zr1511  1  0.80282800  0.95121075  0.05181075  1.0
  Zr  Zr1512  1  0.19873250  0.06059479  0.22311412  1.0
  Zr  Zr1513  1  0.19873250  0.39392812  0.22311412  1.0
  Zr  Zr1514  1  0.19873250  0.72726146  0.22311412  1.0
  Zr  Zr1515  1  0.53206583  0.06059479  0.22311412  1.0
  Zr  Zr1516  1  0.53206583  0.39392812  0.22311412  1.0
  Zr  Zr1517  1  0.53206583  0.72726146  0.22311412  1.0
  Zr  Zr1518  1  0.86539917  0.06059479  0.22311412  1.0
  Zr  Zr1519  1  0.86539917  0.39392812  0.22311412  1.0
  Zr  Zr1520  1  0.86539917  0.72726146  0.22311412  1.0
  Zr  Zr1521  1  0.03206583  0.26892812  0.09811412  1.0
  Zr  Zr1522  1  0.03206583  0.60226146  0.09811412  1.0
  Zr  Zr1523  1  0.03206583  0.93559479  0.09811412  1.0
  Zr  Zr1524  1  0.36539917  0.26892812  0.09811412  1.0
  Zr  Zr1525  1  0.36539917  0.60226146  0.09811412  1.0
  Zr  Zr1526  1  0.36539917  0.93559479  0.09811412  1.0
  Zr  Zr1527  1  0.69873250  0.26892812  0.09811412  1.0
  Zr  Zr1528  1  0.69873250  0.60226146  0.09811412  1.0
  Zr  Zr1529  1  0.69873250  0.93559479  0.09811412  1.0
  Zr  Zr1530  1  0.28151900  0.27930133  0.00361200  1.0
  Zr  Zr1531  1  0.28151900  0.61263467  0.00361200  1.0
  Zr  Zr1532  1  0.28151900  0.94596800  0.00361200  1.0
  Zr  Zr1533  1  0.61485233  0.27930133  0.00361200  1.0
  Zr  Zr1534  1  0.61485233  0.61263467  0.00361200  1.0
  Zr  Zr1535  1  0.61485233  0.94596800  0.00361200  1.0
  Zr  Zr1536  1  0.94818567  0.27930133  0.00361200  1.0
  Zr  Zr1537  1  0.94818567  0.61263467  0.00361200  1.0
  Zr  Zr1538  1  0.94818567  0.94596800  0.00361200  1.0
  Zr  Zr1539  1  0.11485233  0.07096800  0.12861200  1.0
  Zr  Zr1540  1  0.11485233  0.40430133  0.12861200  1.0
  Zr  Zr1541  1  0.11485233  0.73763467  0.12861200  1.0
  Zr  Zr1542  1  0.44818567  0.07096800  0.12861200  1.0
  Zr  Zr1543  1  0.44818567  0.40430133  0.12861200  1.0
  Zr  Zr1544  1  0.44818567  0.73763467  0.12861200  1.0
  Zr  Zr1545  1  0.78151900  0.07096800  0.12861200  1.0
  Zr  Zr1546  1  0.78151900  0.40430133  0.12861200  1.0
  Zr  Zr1547  1  0.78151900  0.73763467  0.12861200  1.0
  Zr  Zr1548  1  0.25043033  0.10439767  0.18438400  1.0
  Zr  Zr1549  1  0.25043033  0.43773100  0.18438400  1.0
  Zr  Zr1550  1  0.25043033  0.77106433  0.18438400  1.0
  Zr  Zr1551  1  0.58376367  0.10439767  0.18438400  1.0
  Zr  Zr1552  1  0.58376367  0.43773100  0.18438400  1.0
  Zr  Zr1553  1  0.58376367  0.77106433  0.18438400  1.0
  Zr  Zr1554  1  0.91709700  0.10439767  0.18438400  1.0
  Zr  Zr1555  1  0.91709700  0.43773100  0.18438400  1.0
  Zr  Zr1556  1  0.91709700  0.77106433  0.18438400  1.0
  Zr  Zr1557  1  0.08376367  0.31273100  0.05938400  1.0
  Zr  Zr1558  1  0.08376367  0.64606433  0.05938400  1.0
  Zr  Zr1559  1  0.08376367  0.97939767  0.05938400  1.0
  Zr  Zr1560  1  0.41709700  0.31273100  0.05938400  1.0
  Zr  Zr1561  1  0.41709700  0.64606433  0.05938400  1.0
  Zr  Zr1562  1  0.41709700  0.97939767  0.05938400  1.0
  Zr  Zr1563  1  0.75043033  0.31273100  0.05938400  1.0
  Zr  Zr1564  1  0.75043033  0.64606433  0.05938400  1.0
  Zr  Zr1565  1  0.75043033  0.97939767  0.05938400  1.0
  Zr  Zr1566  1  0.13460083  0.19151088  0.02056887  1.0
  Zr  Zr1567  1  0.13460083  0.52484421  0.02056887  1.0
  Zr  Zr1568  1  0.13460083  0.85817754  0.02056887  1.0
  Zr  Zr1569  1  0.46793417  0.19151088  0.02056887  1.0
  Zr  Zr1570  1  0.46793417  0.52484421  0.02056887  1.0
  Zr  Zr1571  1  0.46793417  0.85817754  0.02056887  1.0
  Zr  Zr1572  1  0.80126750  0.19151088  0.02056887  1.0
  Zr  Zr1573  1  0.80126750  0.52484421  0.02056887  1.0
  Zr  Zr1574  1  0.80126750  0.85817754  0.02056887  1.0
  Zr  Zr1575  1  0.30126750  0.31651088  0.14556887  1.0
  Zr  Zr1576  1  0.30126750  0.64984421  0.14556887  1.0
  Zr  Zr1577  1  0.30126750  0.98317754  0.14556887  1.0
  Zr  Zr1578  1  0.63460083  0.31651088  0.14556887  1.0
  Zr  Zr1579  1  0.63460083  0.64984421  0.14556887  1.0
  Zr  Zr1580  1  0.63460083  0.98317754  0.14556887  1.0
  Zr  Zr1581  1  0.96793417  0.31651088  0.14556887  1.0
  Zr  Zr1582  1  0.96793417  0.64984421  0.14556887  1.0
  Zr  Zr1583  1  0.96793417  0.98317754  0.14556887  1.0
  Zr  Zr1584  1  0.33290300  0.00144250  0.24809550  1.0
  Zr  Zr1585  1  0.33290300  0.33477583  0.24809550  1.0
  Zr  Zr1586  1  0.33290300  0.66810917  0.24809550  1.0
  Zr  Zr1587  1  0.66623633  0.00144250  0.24809550  1.0
  Zr  Zr1588  1  0.66623633  0.33477583  0.24809550  1.0
  Zr  Zr1589  1  0.66623633  0.66810917  0.24809550  1.0
  Zr  Zr1590  1  0.99956967  0.00144250  0.24809550  1.0
  Zr  Zr1591  1  0.99956967  0.33477583  0.24809550  1.0
  Zr  Zr1592  1  0.99956967  0.66810917  0.24809550  1.0
  Zr  Zr1593  1  0.16623633  0.20977583  0.12309550  1.0
  Zr  Zr1594  1  0.16623633  0.54310917  0.12309550  1.0
  Zr  Zr1595  1  0.16623633  0.87644250  0.12309550  1.0
  Zr  Zr1596  1  0.49956967  0.20977583  0.12309550  1.0
  Zr  Zr1597  1  0.49956967  0.54310917  0.12309550  1.0
  Zr  Zr1598  1  0.49956967  0.87644250  0.12309550  1.0
  Zr  Zr1599  1  0.83290300  0.20977583  0.12309550  1.0
  Zr  Zr1600  1  0.83290300  0.54310917  0.12309550  1.0
  Zr  Zr1601  1  0.83290300  0.87644250  0.12309550  1.0
  Zr  Zr1602  1  0.05181433  0.30613767  0.24007100  1.0
  Zr  Zr1603  1  0.05181433  0.63947100  0.24007100  1.0
  Zr  Zr1604  1  0.05181433  0.97280433  0.24007100  1.0
  Zr  Zr1605  1  0.38514767  0.30613767  0.24007100  1.0
  Zr  Zr1606  1  0.38514767  0.63947100  0.24007100  1.0
  Zr  Zr1607  1  0.38514767  0.97280433  0.24007100  1.0
  Zr  Zr1608  1  0.71848100  0.30613767  0.24007100  1.0
  Zr  Zr1609  1  0.71848100  0.63947100  0.24007100  1.0
  Zr  Zr1610  1  0.71848100  0.97280433  0.24007100  1.0
  Zr  Zr1611  1  0.21848100  0.18113767  0.11507100  1.0
  Zr  Zr1612  1  0.21848100  0.51447100  0.11507100  1.0
  Zr  Zr1613  1  0.21848100  0.84780433  0.11507100  1.0
  Zr  Zr1614  1  0.55181433  0.18113767  0.11507100  1.0
  Zr  Zr1615  1  0.55181433  0.51447100  0.11507100  1.0
  Zr  Zr1616  1  0.55181433  0.84780433  0.11507100  1.0
  Zr  Zr1617  1  0.88514767  0.18113767  0.11507100  1.0
  Zr  Zr1618  1  0.88514767  0.51447100  0.11507100  1.0
  Zr  Zr1619  1  0.88514767  0.84780433  0.11507100  1.0
  Zr  Zr1620  1  0.03050533  0.17589492  0.06687225  1.0
  Zr  Zr1621  1  0.03050533  0.50922825  0.06687225  1.0
  Zr  Zr1622  1  0.03050533  0.84256158  0.06687225  1.0
  Zr  Zr1623  1  0.36383867  0.17589492  0.06687225  1.0
  Zr  Zr1624  1  0.36383867  0.50922825  0.06687225  1.0
  Zr  Zr1625  1  0.36383867  0.84256158  0.06687225  1.0
  Zr  Zr1626  1  0.69717200  0.17589492  0.06687225  1.0
  Zr  Zr1627  1  0.69717200  0.50922825  0.06687225  1.0
  Zr  Zr1628  1  0.69717200  0.84256158  0.06687225  1.0
  Zr  Zr1629  1  0.19717200  0.30089492  0.19187225  1.0
  Zr  Zr1630  1  0.19717200  0.63422825  0.19187225  1.0
  Zr  Zr1631  1  0.19717200  0.96756158  0.19187225  1.0
  Zr  Zr1632  1  0.53050533  0.30089492  0.19187225  1.0
  Zr  Zr1633  1  0.53050533  0.63422825  0.19187225  1.0
  Zr  Zr1634  1  0.53050533  0.96756158  0.19187225  1.0
  Zr  Zr1635  1  0.86383867  0.30089492  0.19187225  1.0
  Zr  Zr1636  1  0.86383867  0.63422825  0.19187225  1.0
  Zr  Zr1637  1  0.86383867  0.96756158  0.19187225  1.0
  Zr  Zr1638  1  0.03170050  0.06032079  0.22284012  1.0
  Zr  Zr1639  1  0.03170050  0.39365413  0.22284012  1.0
  Zr  Zr1640  1  0.03170050  0.72698746  0.22284012  1.0
  Zr  Zr1641  1  0.36503383  0.06032079  0.22284012  1.0
  Zr  Zr1642  1  0.36503383  0.39365413  0.22284012  1.0
  Zr  Zr1643  1  0.36503383  0.72698746  0.22284012  1.0
  Zr  Zr1644  1  0.69836717  0.06032079  0.22284012  1.0
  Zr  Zr1645  1  0.69836717  0.39365413  0.22284012  1.0
  Zr  Zr1646  1  0.69836717  0.72698746  0.22284012  1.0
  Zr  Zr1647  1  0.19836717  0.26865413  0.09784012  1.0
  Zr  Zr1648  1  0.19836717  0.60198746  0.09784012  1.0
  Zr  Zr1649  1  0.19836717  0.93532079  0.09784012  1.0
  Zr  Zr1650  1  0.53170050  0.26865413  0.09784012  1.0
  Zr  Zr1651  1  0.53170050  0.60198746  0.09784012  1.0
  Zr  Zr1652  1  0.53170050  0.93532079  0.09784012  1.0
  Zr  Zr1653  1  0.86503383  0.26865413  0.09784012  1.0
  Zr  Zr1654  1  0.86503383  0.60198746  0.09784012  1.0
  Zr  Zr1655  1  0.86503383  0.93532079  0.09784012  1.0
  Zr  Zr1656  1  0.13514767  0.12937667  0.02035400  1.0
  Zr  Zr1657  1  0.13514767  0.46271000  0.02035400  1.0
  Zr  Zr1658  1  0.13514767  0.79604333  0.02035400  1.0
  Zr  Zr1659  1  0.46848100  0.12937667  0.02035400  1.0
  Zr  Zr1660  1  0.46848100  0.46271000  0.02035400  1.0
  Zr  Zr1661  1  0.46848100  0.79604333  0.02035400  1.0
  Zr  Zr1662  1  0.80181433  0.12937667  0.02035400  1.0
  Zr  Zr1663  1  0.80181433  0.46271000  0.02035400  1.0
  Zr  Zr1664  1  0.80181433  0.79604333  0.02035400  1.0
  Zr  Zr1665  1  0.30181433  0.25437667  0.14535400  1.0
  Zr  Zr1666  1  0.30181433  0.58771000  0.14535400  1.0
  Zr  Zr1667  1  0.30181433  0.92104333  0.14535400  1.0
  Zr  Zr1668  1  0.63514767  0.25437667  0.14535400  1.0
  Zr  Zr1669  1  0.63514767  0.58771000  0.14535400  1.0
  Zr  Zr1670  1  0.63514767  0.92104333  0.14535400  1.0
  Zr  Zr1671  1  0.96848100  0.25437667  0.14535400  1.0
  Zr  Zr1672  1  0.96848100  0.58771000  0.14535400  1.0
  Zr  Zr1673  1  0.96848100  0.92104333  0.14535400  1.0
  Zr  Zr1674  1  0.28050533  0.10265592  0.03658925  1.0
  Zr  Zr1675  1  0.28050533  0.43598925  0.03658925  1.0
  Zr  Zr1676  1  0.28050533  0.76932258  0.03658925  1.0
  Zr  Zr1677  1  0.61383867  0.10265592  0.03658925  1.0
  Zr  Zr1678  1  0.61383867  0.43598925  0.03658925  1.0
  Zr  Zr1679  1  0.61383867  0.76932258  0.03658925  1.0
  Zr  Zr1680  1  0.94717200  0.10265592  0.03658925  1.0
  Zr  Zr1681  1  0.94717200  0.43598925  0.03658925  1.0
  Zr  Zr1682  1  0.94717200  0.76932258  0.03658925  1.0
  Zr  Zr1683  1  0.11383867  0.22765592  0.16158925  1.0
  Zr  Zr1684  1  0.11383867  0.56098925  0.16158925  1.0
  Zr  Zr1685  1  0.11383867  0.89432258  0.16158925  1.0
  Zr  Zr1686  1  0.44717200  0.22765592  0.16158925  1.0
  Zr  Zr1687  1  0.44717200  0.56098925  0.16158925  1.0
  Zr  Zr1688  1  0.44717200  0.89432258  0.16158925  1.0
  Zr  Zr1689  1  0.78050533  0.22765592  0.16158925  1.0
  Zr  Zr1690  1  0.78050533  0.56098925  0.16158925  1.0
  Zr  Zr1691  1  0.78050533  0.89432258  0.16158925  1.0
  Zr  Zr1692  1  0.28206583  0.16479346  0.16051812  1.0
  Zr  Zr1693  1  0.28206583  0.49812679  0.16051812  1.0
  Zr  Zr1694  1  0.28206583  0.83146012  0.16051812  1.0
  Zr  Zr1695  1  0.61539917  0.16479346  0.16051812  1.0
  Zr  Zr1696  1  0.61539917  0.49812679  0.16051812  1.0
  Zr  Zr1697  1  0.61539917  0.83146012  0.16051812  1.0
  Zr  Zr1698  1  0.94873250  0.16479346  0.16051812  1.0
  Zr  Zr1699  1  0.94873250  0.49812679  0.16051812  1.0
  Zr  Zr1700  1  0.94873250  0.83146012  0.16051813  1.0
  Zr  Zr1701  1  0.11539917  0.03979346  0.03551812  1.0
  Zr  Zr1702  1  0.11539917  0.37312679  0.03551812  1.0
  Zr  Zr1703  1  0.11539917  0.70646012  0.03551812  1.0
  Zr  Zr1704  1  0.44873250  0.03979346  0.03551812  1.0
  Zr  Zr1705  1  0.44873250  0.37312679  0.03551812  1.0
  Zr  Zr1706  1  0.44873250  0.70646012  0.03551812  1.0
  Zr  Zr1707  1  0.78206583  0.03979346  0.03551812  1.0
  Zr  Zr1708  1  0.78206583  0.37312679  0.03551812  1.0
  Zr  Zr1709  1  0.78206583  0.70646012  0.03551813  1.0
  Zr  Zr1710  1  0.19818567  0.12272900  0.22332900  1.0
  Zr  Zr1711  1  0.19818567  0.45606233  0.22332900  1.0
  Zr  Zr1712  1  0.19818567  0.78939567  0.22332900  1.0
  Zr  Zr1713  1  0.53151900  0.12272900  0.22332900  1.0
  Zr  Zr1714  1  0.53151900  0.45606233  0.22332900  1.0
  Zr  Zr1715  1  0.53151900  0.78939567  0.22332900  1.0
  Zr  Zr1716  1  0.86485233  0.12272900  0.22332900  1.0
  Zr  Zr1717  1  0.86485233  0.45606233  0.22332900  1.0
  Zr  Zr1718  1  0.86485233  0.78939567  0.22332900  1.0
  Zr  Zr1719  1  0.03151900  0.33106233  0.09832900  1.0
  Zr  Zr1720  1  0.03151900  0.66439567  0.09832900  1.0
  Zr  Zr1721  1  0.03151900  0.99772900  0.09832900  1.0
  Zr  Zr1722  1  0.36485233  0.33106233  0.09832900  1.0
  Zr  Zr1723  1  0.36485233  0.66439567  0.09832900  1.0
  Zr  Zr1724  1  0.36485233  0.99772900  0.09832900  1.0
  Zr  Zr1725  1  0.69818567  0.33106233  0.09832900  1.0
  Zr  Zr1726  1  0.69818567  0.66439567  0.09832900  1.0
  Zr  Zr1727  1  0.69818567  0.99772900  0.09832900  1.0
  Zr  Zr1728  1  0.00000000  0.25105283  0.24684150  1.0
  Zr  Zr1729  1  0.00000000  0.58438617  0.24684150  1.0
  Zr  Zr1730  1  0.00000000  0.91771950  0.24684150  1.0
  Zr  Zr1731  1  0.33333333  0.25105283  0.24684150  1.0
  Zr  Zr1732  1  0.33333333  0.58438617  0.24684150  1.0
  Zr  Zr1733  1  0.33333333  0.91771950  0.24684150  1.0
  Zr  Zr1734  1  0.66666667  0.25105283  0.24684150  1.0
  Zr  Zr1735  1  0.66666667  0.58438617  0.24684150  1.0
  Zr  Zr1736  1  0.66666667  0.91771950  0.24684150  1.0
  Zr  Zr1737  1  0.16666667  0.12605283  0.12184150  1.0
  Zr  Zr1738  1  0.16666667  0.45938617  0.12184150  1.0
  Zr  Zr1739  1  0.16666667  0.79271950  0.12184150  1.0
  Zr  Zr1740  1  0.50000000  0.12605283  0.12184150  1.0
  Zr  Zr1741  1  0.50000000  0.45938617  0.12184150  1.0
  Zr  Zr1742  1  0.50000000  0.79271950  0.12184150  1.0
  Zr  Zr1743  1  0.83333333  0.12605283  0.12184150  1.0
  Zr  Zr1744  1  0.83333333  0.45938617  0.12184150  1.0
  Zr  Zr1745  1  0.83333333  0.79271950  0.12184150  1.0
  Zr  Zr1746  1  0.00043033  0.16732983  0.24558750  1.0
  Zr  Zr1747  1  0.00043033  0.50066317  0.24558750  1.0
  Zr  Zr1748  1  0.00043033  0.83399650  0.24558750  1.0
  Zr  Zr1749  1  0.33376367  0.16732983  0.24558750  1.0
  Zr  Zr1750  1  0.33376367  0.50066317  0.24558750  1.0
  Zr  Zr1751  1  0.33376367  0.83399650  0.24558750  1.0
  Zr  Zr1752  1  0.66709700  0.16732983  0.24558750  1.0
  Zr  Zr1753  1  0.66709700  0.50066317  0.24558750  1.0
  Zr  Zr1754  1  0.66709700  0.83399650  0.24558750  1.0
  Zr  Zr1755  1  0.16709700  0.04232983  0.12058750  1.0
  Zr  Zr1756  1  0.16709700  0.37566317  0.12058750  1.0
  Zr  Zr1757  1  0.16709700  0.70899650  0.12058750  1.0
  Zr  Zr1758  1  0.50043033  0.04232983  0.12058750  1.0
  Zr  Zr1759  1  0.50043033  0.37566317  0.12058750  1.0
  Zr  Zr1760  1  0.50043033  0.70899650  0.12058750  1.0
  Zr  Zr1761  1  0.83376367  0.04232983  0.12058750  1.0
  Zr  Zr1762  1  0.83376367  0.37566317  0.12058750  1.0
  Zr  Zr1763  1  0.83376367  0.70899650  0.12058750  1.0
  Zr  Zr1764  1  0.08414100  0.10511283  0.18337050  1.0
  Zr  Zr1765  1  0.08414100  0.43844617  0.18337050  1.0
  Zr  Zr1766  1  0.08414100  0.77177950  0.18337050  1.0
  Zr  Zr1767  1  0.41747433  0.10511283  0.18337050  1.0
  Zr  Zr1768  1  0.41747433  0.43844617  0.18337050  1.0
  Zr  Zr1769  1  0.41747433  0.77177950  0.18337050  1.0
  Zr  Zr1770  1  0.75080767  0.10511283  0.18337050  1.0
  Zr  Zr1771  1  0.75080767  0.43844617  0.18337050  1.0
  Zr  Zr1772  1  0.75080767  0.77177950  0.18337050  1.0
  Zr  Zr1773  1  0.25080767  0.31344617  0.05837050  1.0
  Zr  Zr1774  1  0.25080767  0.64677950  0.05837050  1.0
  Zr  Zr1775  1  0.25080767  0.98011283  0.05837050  1.0
  Zr  Zr1776  1  0.58414100  0.31344617  0.05837050  1.0
  Zr  Zr1777  1  0.58414100  0.64677950  0.05837050  1.0
  Zr  Zr1778  1  0.58414100  0.98011283  0.05837050  1.0
  Zr  Zr1779  1  0.91747433  0.31344617  0.05837050  1.0
  Zr  Zr1780  1  0.91747433  0.64677950  0.05837050  1.0
  Zr  Zr1781  1  0.91747433  0.98011283  0.05837050  1.0
  Zr  Zr1782  1  0.24919233  0.14699283  0.06031250  1.0
  Zr  Zr1783  1  0.24919233  0.48032617  0.06031250  1.0
  Zr  Zr1784  1  0.24919233  0.81365950  0.06031250  1.0
  Zr  Zr1785  1  0.58252567  0.14699283  0.06031250  1.0
  Zr  Zr1786  1  0.58252567  0.48032617  0.06031250  1.0
  Zr  Zr1787  1  0.58252567  0.81365950  0.06031250  1.0
  Zr  Zr1788  1  0.91585900  0.14699283  0.06031250  1.0
  Zr  Zr1789  1  0.91585900  0.48032617  0.06031250  1.0
  Zr  Zr1790  1  0.91585900  0.81365950  0.06031250  1.0
  Zr  Zr1791  1  0.08252567  0.27199283  0.18531250  1.0
  Zr  Zr1792  1  0.08252567  0.60532617  0.18531250  1.0
  Zr  Zr1793  1  0.08252567  0.93865950  0.18531250  1.0
  Zr  Zr1794  1  0.41585900  0.27199283  0.18531250  1.0
  Zr  Zr1795  1  0.41585900  0.60532617  0.18531250  1.0
  Zr  Zr1796  1  0.41585900  0.93865950  0.18531250  1.0
  Zr  Zr1797  1  0.74919233  0.27199283  0.18531250  1.0
  Zr  Zr1798  1  0.74919233  0.60532617  0.18531250  1.0
  Zr  Zr1799  1  0.74919233  0.93865950  0.18531250  1.0
  Zr  Zr1800  1  0.11503383  0.16451946  0.16024413  1.0
  Zr  Zr1801  1  0.11503383  0.49785279  0.16024413  1.0
  Zr  Zr1802  1  0.11503383  0.83118612  0.16024413  1.0
  Zr  Zr1803  1  0.44836717  0.16451946  0.16024413  1.0
  Zr  Zr1804  1  0.44836717  0.49785279  0.16024413  1.0
  Zr  Zr1805  1  0.44836717  0.83118612  0.16024413  1.0
  Zr  Zr1806  1  0.78170050  0.16451946  0.16024413  1.0
  Zr  Zr1807  1  0.78170050  0.49785279  0.16024413  1.0
  Zr  Zr1808  1  0.78170050  0.83118612  0.16024413  1.0
  Zr  Zr1809  1  0.28170050  0.03951946  0.03524412  1.0
  Zr  Zr1810  1  0.28170050  0.37285279  0.03524412  1.0
  Zr  Zr1811  1  0.28170050  0.70618612  0.03524412  1.0
  Zr  Zr1812  1  0.61503383  0.03951946  0.03524412  1.0
  Zr  Zr1813  1  0.61503383  0.37285279  0.03524412  1.0
  Zr  Zr1814  1  0.61503383  0.70618612  0.03524412  1.0
  Zr  Zr1815  1  0.94836717  0.03951946  0.03524412  1.0
  Zr  Zr1816  1  0.94836717  0.37285279  0.03524412  1.0
  Zr  Zr1817  1  0.94836717  0.70618612  0.03524412  1.0
  Zr  Zr1818  1  0.25000000  0.02188617  0.18434150  1.0
  Zr  Zr1819  1  0.25000000  0.35521950  0.18434150  1.0
  Zr  Zr1820  1  0.25000000  0.68855283  0.18434150  1.0
  Zr  Zr1821  1  0.58333333  0.02188617  0.18434150  1.0
  Zr  Zr1822  1  0.58333333  0.35521950  0.18434150  1.0
  Zr  Zr1823  1  0.58333333  0.68855283  0.18434150  1.0
  Zr  Zr1824  1  0.91666667  0.02188617  0.18434150  1.0
  Zr  Zr1825  1  0.91666667  0.35521950  0.18434150  1.0
  Zr  Zr1826  1  0.91666667  0.68855283  0.18434150  1.0
  Zr  Zr1827  1  0.08333333  0.23021950  0.05934150  1.0
  Zr  Zr1828  1  0.08333333  0.56355283  0.05934150  1.0
  Zr  Zr1829  1  0.08333333  0.89688617  0.05934150  1.0
  Zr  Zr1830  1  0.41666667  0.23021950  0.05934150  1.0
  Zr  Zr1831  1  0.41666667  0.56355283  0.05934150  1.0
  Zr  Zr1832  1  0.41666667  0.89688617  0.05934150  1.0
  Zr  Zr1833  1  0.75000000  0.23021950  0.05934150  1.0
  Zr  Zr1834  1  0.75000000  0.56355283  0.05934150  1.0
  Zr  Zr1835  1  0.75000000  0.89688617  0.05934150  1.0
  Zr  Zr1836  1  0.33252567  0.20992500  0.12151600  1.0
  Zr  Zr1837  1  0.33252567  0.54325833  0.12151600  1.0
  Zr  Zr1838  1  0.33252567  0.87659167  0.12151600  1.0
  Zr  Zr1839  1  0.66585900  0.20992500  0.12151600  1.0
  Zr  Zr1840  1  0.66585900  0.54325833  0.12151600  1.0
  Zr  Zr1841  1  0.66585900  0.87659167  0.12151600  1.0
  Zr  Zr1842  1  0.99919233  0.20992500  0.12151600  1.0
  Zr  Zr1843  1  0.99919233  0.54325833  0.12151600  1.0
  Zr  Zr1844  1  0.99919233  0.87659167  0.12151600  1.0
  Zr  Zr1845  1  0.16585900  0.00159167  0.24651600  1.0
  Zr  Zr1846  1  0.16585900  0.33492500  0.24651600  1.0
  Zr  Zr1847  1  0.16585900  0.66825833  0.24651600  1.0
  Zr  Zr1848  1  0.49919233  0.00159167  0.24651600  1.0
  Zr  Zr1849  1  0.49919233  0.33492500  0.24651600  1.0
  Zr  Zr1850  1  0.49919233  0.66825833  0.24651600  1.0
  Zr  Zr1851  1  0.83252567  0.00159167  0.24651600  1.0
  Zr  Zr1852  1  0.83252567  0.33492500  0.24651600  1.0
  Zr  Zr1853  1  0.83252567  0.66825833  0.24651600  1.0
  Zr  Zr1854  1  0.08290300  0.14770800  0.05929900  1.0
  Zr  Zr1855  1  0.08290300  0.48104133  0.05929900  1.0
  Zr  Zr1856  1  0.08290300  0.81437467  0.05929900  1.0
  Zr  Zr1857  1  0.41623633  0.14770800  0.05929900  1.0
  Zr  Zr1858  1  0.41623633  0.48104133  0.05929900  1.0
  Zr  Zr1859  1  0.41623633  0.81437467  0.05929900  1.0
  Zr  Zr1860  1  0.74956967  0.14770800  0.05929900  1.0
  Zr  Zr1861  1  0.74956967  0.48104133  0.05929900  1.0
  Zr  Zr1862  1  0.74956967  0.81437467  0.05929900  1.0
  Zr  Zr1863  1  0.24956967  0.27270800  0.18429900  1.0
  Zr  Zr1864  1  0.24956967  0.60604133  0.18429900  1.0
  Zr  Zr1865  1  0.24956967  0.93937467  0.18429900  1.0
  Zr  Zr1866  1  0.58290300  0.27270800  0.18429900  1.0
  Zr  Zr1867  1  0.58290300  0.60604133  0.18429900  1.0
  Zr  Zr1868  1  0.58290300  0.93937467  0.18429900  1.0
  Zr  Zr1869  1  0.91623633  0.27270800  0.18429900  1.0
  Zr  Zr1870  1  0.91623633  0.60604133  0.18429900  1.0
  Zr  Zr1871  1  0.91623633  0.93937467  0.18429900  1.0
  Zr  Zr1872  1  0.00080767  0.04218067  0.12216700  1.0
  Zr  Zr1873  1  0.00080767  0.37551400  0.12216700  1.0
  Zr  Zr1874  1  0.00080767  0.70884733  0.12216700  1.0
  Zr  Zr1875  1  0.33414100  0.04218067  0.12216700  1.0
  Zr  Zr1876  1  0.33414100  0.37551400  0.12216700  1.0
  Zr  Zr1877  1  0.33414100  0.70884733  0.12216700  1.0
  Zr  Zr1878  1  0.66747433  0.04218067  0.12216700  1.0
  Zr  Zr1879  1  0.66747433  0.37551400  0.12216700  1.0
  Zr  Zr1880  1  0.66747433  0.70884733  0.12216700  1.0
  Zr  Zr1881  1  0.16747433  0.16718067  0.24716700  1.0
  Zr  Zr1882  1  0.16747433  0.50051400  0.24716700  1.0
  Zr  Zr1883  1  0.16747433  0.83384733  0.24716700  1.0
  Zr  Zr1884  1  0.50080767  0.16718067  0.24716700  1.0
  Zr  Zr1885  1  0.50080767  0.50051400  0.24716700  1.0
  Zr  Zr1886  1  0.50080767  0.83384733  0.24716700  1.0
  Zr  Zr1887  1  0.83414100  0.16718067  0.24716700  1.0
  Zr  Zr1888  1  0.83414100  0.50051400  0.24716700  1.0
  Zr  Zr1889  1  0.83414100  0.83384733  0.24716700  1.0
  Zr  Zr1890  1  0.21829950  0.08758621  0.08343887  1.0
  Zr  Zr1891  1  0.21829950  0.42091954  0.08343887  1.0
  Zr  Zr1892  1  0.21829950  0.75425288  0.08343887  1.0
  Zr  Zr1893  1  0.55163283  0.08758621  0.08343887  1.0
  Zr  Zr1894  1  0.55163283  0.42091954  0.08343887  1.0
  Zr  Zr1895  1  0.55163283  0.75425288  0.08343887  1.0
  Zr  Zr1896  1  0.88496617  0.08758621  0.08343887  1.0
  Zr  Zr1897  1  0.88496617  0.42091954  0.08343887  1.0
  Zr  Zr1898  1  0.88496617  0.75425288  0.08343887  1.0
  Zr  Zr1899  1  0.05163283  0.21258621  0.20843887  1.0
  Zr  Zr1900  1  0.05163283  0.54591954  0.20843887  1.0
  Zr  Zr1901  1  0.05163283  0.87925288  0.20843887  1.0
  Zr  Zr1902  1  0.38496617  0.21258621  0.20843887  1.0
  Zr  Zr1903  1  0.38496617  0.54591954  0.20843887  1.0
  Zr  Zr1904  1  0.38496617  0.87925288  0.20843887  1.0
  Zr  Zr1905  1  0.71829950  0.21258621  0.20843887  1.0
  Zr  Zr1906  1  0.71829950  0.54591954  0.20843887  1.0
  Zr  Zr1907  1  0.71829950  0.87925288  0.20843887  1.0
  Zr  Zr1908  1  0.08333333  0.02188617  0.18434150  1.0
  Zr  Zr1909  1  0.08333333  0.35521950  0.18434150  1.0
  Zr  Zr1910  1  0.08333333  0.68855283  0.18434150  1.0
  Zr  Zr1911  1  0.41666667  0.02188617  0.18434150  1.0
  Zr  Zr1912  1  0.41666667  0.35521950  0.18434150  1.0
  Zr  Zr1913  1  0.41666667  0.68855283  0.18434150  1.0
  Zr  Zr1914  1  0.75000000  0.02188617  0.18434150  1.0
  Zr  Zr1915  1  0.75000000  0.35521950  0.18434150  1.0
  Zr  Zr1916  1  0.75000000  0.68855283  0.18434150  1.0
  Zr  Zr1917  1  0.25000000  0.23021950  0.05934150  1.0
  Zr  Zr1918  1  0.25000000  0.56355283  0.05934150  1.0
  Zr  Zr1919  1  0.25000000  0.89688617  0.05934150  1.0
  Zr  Zr1920  1  0.58333333  0.23021950  0.05934150  1.0
  Zr  Zr1921  1  0.58333333  0.56355283  0.05934150  1.0
  Zr  Zr1922  1  0.58333333  0.89688617  0.05934150  1.0
  Zr  Zr1923  1  0.91666667  0.23021950  0.05934150  1.0
  Zr  Zr1924  1  0.91666667  0.56355283  0.05934150  1.0
  Zr  Zr1925  1  0.91666667  0.89688617  0.05934150  1.0
  Zr  Zr1926  1  0.05126750  0.08731221  0.08316487  1.0
  Zr  Zr1927  1  0.05126750  0.42064554  0.08316487  1.0
  Zr  Zr1928  1  0.05126750  0.75397888  0.08316487  1.0
  Zr  Zr1929  1  0.38460083  0.08731221  0.08316487  1.0
  Zr  Zr1930  1  0.38460083  0.42064554  0.08316488  1.0
  Zr  Zr1931  1  0.38460083  0.75397888  0.08316487  1.0
  Zr  Zr1932  1  0.71793417  0.08731221  0.08316487  1.0
  Zr  Zr1933  1  0.71793417  0.42064554  0.08316487  1.0
  Zr  Zr1934  1  0.71793417  0.75397888  0.08316487  1.0
  Zr  Zr1935  1  0.21793417  0.21231221  0.20816487  1.0
  Zr  Zr1936  1  0.21793417  0.54564554  0.20816487  1.0
  Zr  Zr1937  1  0.21793417  0.87897888  0.20816487  1.0
  Zr  Zr1938  1  0.55126750  0.21231221  0.20816487  1.0
  Zr  Zr1939  1  0.55126750  0.54564554  0.20816487  1.0
  Zr  Zr1940  1  0.55126750  0.87897888  0.20816487  1.0
  Zr  Zr1941  1  0.88460083  0.21231221  0.20816487  1.0
  Zr  Zr1942  1  0.88460083  0.54564554  0.20816487  1.0
  Zr  Zr1943  1  0.88460083  0.87897888  0.20816487  1.0
  Zr  Zr1944  1  0.05282800  0.06611642  0.45709375  1.0
  Zr  Zr1945  1  0.05282800  0.39944975  0.45709375  1.0
  Zr  Zr1946  1  0.05282800  0.73278308  0.45709375  1.0
  Zr  Zr1947  1  0.38616133  0.06611642  0.45709375  1.0
  Zr  Zr1948  1  0.38616133  0.39944975  0.45709375  1.0
  Zr  Zr1949  1  0.38616133  0.73278308  0.45709375  1.0
  Zr  Zr1950  1  0.71949467  0.06611642  0.45709375  1.0
  Zr  Zr1951  1  0.71949467  0.39944975  0.45709375  1.0
  Zr  Zr1952  1  0.71949467  0.73278308  0.45709375  1.0
  Zr  Zr1953  1  0.21949467  0.27444975  0.33209375  1.0
  Zr  Zr1954  1  0.21949467  0.60778308  0.33209375  1.0
  Zr  Zr1955  1  0.21949467  0.94111642  0.33209375  1.0
  Zr  Zr1956  1  0.55282800  0.27444975  0.33209375  1.0
  Zr  Zr1957  1  0.55282800  0.60778308  0.33209375  1.0
  Zr  Zr1958  1  0.55282800  0.94111642  0.33209375  1.0
  Zr  Zr1959  1  0.88616133  0.27444975  0.33209375  1.0
  Zr  Zr1960  1  0.88616133  0.60778308  0.33209375  1.0
  Zr  Zr1961  1  0.88616133  0.94111642  0.33209375  1.0
  Zr  Zr1962  1  0.30163283  0.10845154  0.27084287  1.0
  Zr  Zr1963  1  0.30163283  0.44178487  0.27084287  1.0
  Zr  Zr1964  1  0.30163283  0.77511821  0.27084287  1.0
  Zr  Zr1965  1  0.63496617  0.10845154  0.27084287  1.0
  Zr  Zr1966  1  0.63496617  0.44178487  0.27084287  1.0
  Zr  Zr1967  1  0.63496617  0.77511821  0.27084287  1.0
  Zr  Zr1968  1  0.96829950  0.10845154  0.27084287  1.0
  Zr  Zr1969  1  0.96829950  0.44178487  0.27084287  1.0
  Zr  Zr1970  1  0.96829950  0.77511821  0.27084287  1.0
  Zr  Zr1971  1  0.13496617  0.23345154  0.39584287  1.0
  Zr  Zr1972  1  0.13496617  0.56678487  0.39584287  1.0
  Zr  Zr1973  1  0.13496617  0.90011821  0.39584287  1.0
  Zr  Zr1974  1  0.46829950  0.23345154  0.39584287  1.0
  Zr  Zr1975  1  0.46829950  0.56678487  0.39584287  1.0
  Zr  Zr1976  1  0.46829950  0.90011821  0.39584287  1.0
  Zr  Zr1977  1  0.80163283  0.23345154  0.39584287  1.0
  Zr  Zr1978  1  0.80163283  0.56678487  0.39584287  1.0
  Zr  Zr1979  1  0.80163283  0.90011821  0.39584287  1.0
  Zr  Zr1980  1  0.33333333  0.04271950  0.37184150  1.0
  Zr  Zr1981  1  0.33333333  0.37605283  0.37184150  1.0
  Zr  Zr1982  1  0.33333333  0.70938617  0.37184150  1.0
  Zr  Zr1983  1  0.66666667  0.04271950  0.37184150  1.0
  Zr  Zr1984  1  0.66666667  0.37605283  0.37184150  1.0
  Zr  Zr1985  1  0.66666667  0.70938617  0.37184150  1.0
  Zr  Zr1986  1  0.00000000  0.04271950  0.37184150  1.0
  Zr  Zr1987  1  0.00000000  0.37605283  0.37184150  1.0
  Zr  Zr1988  1  0.00000000  0.70938617  0.37184150  1.0
  Zr  Zr1989  1  0.16666667  0.16771950  0.49684150  1.0
  Zr  Zr1990  1  0.16666667  0.50105283  0.49684150  1.0
  Zr  Zr1991  1  0.16666667  0.83438617  0.49684150  1.0
  Zr  Zr1992  1  0.50000000  0.16771950  0.49684150  1.0
  Zr  Zr1993  1  0.50000000  0.50105283  0.49684150  1.0
  Zr  Zr1994  1  0.50000000  0.83438617  0.49684150  1.0
  Zr  Zr1995  1  0.83333333  0.16771950  0.49684150  1.0
  Zr  Zr1996  1  0.83333333  0.50105283  0.49684150  1.0
  Zr  Zr1997  1  0.83333333  0.83438617  0.49684150  1.0
  Zr  Zr1998  1  0.30282800  0.32621075  0.42681075  1.0
  Zr  Zr1999  1  0.30282800  0.65954408  0.42681075  1.0
  Zr  Zr2000  1  0.30282800  0.99287742  0.42681075  1.0
  Zr  Zr2001  1  0.63616133  0.32621075  0.42681075  1.0
  Zr  Zr2002  1  0.63616133  0.65954408  0.42681075  1.0
  Zr  Zr2003  1  0.63616133  0.99287742  0.42681075  1.0
  Zr  Zr2004  1  0.96949467  0.32621075  0.42681075  1.0
  Zr  Zr2005  1  0.96949467  0.65954408  0.42681075  1.0
  Zr  Zr2006  1  0.96949467  0.99287742  0.42681075  1.0
  Zr  Zr2007  1  0.13616133  0.20121075  0.30181075  1.0
  Zr  Zr2008  1  0.13616133  0.53454408  0.30181075  1.0
  Zr  Zr2009  1  0.13616133  0.86787742  0.30181075  1.0
  Zr  Zr2010  1  0.46949467  0.20121075  0.30181075  1.0
  Zr  Zr2011  1  0.46949467  0.53454408  0.30181075  1.0
  Zr  Zr2012  1  0.46949467  0.86787742  0.30181075  1.0
  Zr  Zr2013  1  0.80282800  0.20121075  0.30181075  1.0
  Zr  Zr2014  1  0.80282800  0.53454408  0.30181075  1.0
  Zr  Zr2015  1  0.80282800  0.86787742  0.30181075  1.0
  Zr  Zr2016  1  0.19873250  0.31059479  0.47311412  1.0
  Zr  Zr2017  1  0.19873250  0.64392812  0.47311412  1.0
  Zr  Zr2018  1  0.19873250  0.97726146  0.47311412  1.0
  Zr  Zr2019  1  0.53206583  0.31059479  0.47311412  1.0
  Zr  Zr2020  1  0.53206583  0.64392812  0.47311412  1.0
  Zr  Zr2021  1  0.53206583  0.97726146  0.47311412  1.0
  Zr  Zr2022  1  0.86539917  0.31059479  0.47311412  1.0
  Zr  Zr2023  1  0.86539917  0.64392812  0.47311412  1.0
  Zr  Zr2024  1  0.86539917  0.97726146  0.47311412  1.0
  Zr  Zr2025  1  0.03206583  0.18559479  0.34811412  1.0
  Zr  Zr2026  1  0.03206583  0.51892812  0.34811412  1.0
  Zr  Zr2027  1  0.03206583  0.85226146  0.34811412  1.0
  Zr  Zr2028  1  0.36539917  0.18559479  0.34811412  1.0
  Zr  Zr2029  1  0.36539917  0.51892812  0.34811412  1.0
  Zr  Zr2030  1  0.36539917  0.85226146  0.34811412  1.0
  Zr  Zr2031  1  0.69873250  0.18559479  0.34811412  1.0
  Zr  Zr2032  1  0.69873250  0.51892812  0.34811412  1.0
  Zr  Zr2033  1  0.69873250  0.85226146  0.34811412  1.0
  Zr  Zr2034  1  0.28151900  0.19596800  0.25361200  1.0
  Zr  Zr2035  1  0.28151900  0.52930133  0.25361200  1.0
  Zr  Zr2036  1  0.28151900  0.86263467  0.25361200  1.0
  Zr  Zr2037  1  0.61485233  0.19596800  0.25361200  1.0
  Zr  Zr2038  1  0.61485233  0.52930133  0.25361200  1.0
  Zr  Zr2039  1  0.61485233  0.86263467  0.25361200  1.0
  Zr  Zr2040  1  0.94818567  0.19596800  0.25361200  1.0
  Zr  Zr2041  1  0.94818567  0.52930133  0.25361200  1.0
  Zr  Zr2042  1  0.94818567  0.86263467  0.25361200  1.0
  Zr  Zr2043  1  0.11485233  0.32096800  0.37861200  1.0
  Zr  Zr2044  1  0.11485233  0.65430133  0.37861200  1.0
  Zr  Zr2045  1  0.11485233  0.98763467  0.37861200  1.0
  Zr  Zr2046  1  0.44818567  0.32096800  0.37861200  1.0
  Zr  Zr2047  1  0.44818567  0.65430133  0.37861200  1.0
  Zr  Zr2048  1  0.44818567  0.98763467  0.37861200  1.0
  Zr  Zr2049  1  0.78151900  0.32096800  0.37861200  1.0
  Zr  Zr2050  1  0.78151900  0.65430133  0.37861200  1.0
  Zr  Zr2051  1  0.78151900  0.98763467  0.37861200  1.0
  Zr  Zr2052  1  0.25043033  0.02106433  0.43438400  1.0
  Zr  Zr2053  1  0.25043033  0.35439767  0.43438400  1.0
  Zr  Zr2054  1  0.25043033  0.68773100  0.43438400  1.0
  Zr  Zr2055  1  0.58376367  0.02106433  0.43438400  1.0
  Zr  Zr2056  1  0.58376367  0.35439767  0.43438400  1.0
  Zr  Zr2057  1  0.58376367  0.68773100  0.43438400  1.0
  Zr  Zr2058  1  0.91709700  0.02106433  0.43438400  1.0
  Zr  Zr2059  1  0.91709700  0.35439767  0.43438400  1.0
  Zr  Zr2060  1  0.91709700  0.68773100  0.43438400  1.0
  Zr  Zr2061  1  0.08376367  0.22939767  0.30938400  1.0
  Zr  Zr2062  1  0.08376367  0.56273100  0.30938400  1.0
  Zr  Zr2063  1  0.08376367  0.89606433  0.30938400  1.0
  Zr  Zr2064  1  0.41709700  0.22939767  0.30938400  1.0
  Zr  Zr2065  1  0.41709700  0.56273100  0.30938400  1.0
  Zr  Zr2066  1  0.41709700  0.89606433  0.30938400  1.0
  Zr  Zr2067  1  0.75043033  0.22939767  0.30938400  1.0
  Zr  Zr2068  1  0.75043033  0.56273100  0.30938400  1.0
  Zr  Zr2069  1  0.75043033  0.89606433  0.30938400  1.0
  Zr  Zr2070  1  0.13460083  0.10817754  0.27056887  1.0
  Zr  Zr2071  1  0.13460083  0.44151088  0.27056887  1.0
  Zr  Zr2072  1  0.13460083  0.77484421  0.27056887  1.0
  Zr  Zr2073  1  0.46793417  0.10817754  0.27056887  1.0
  Zr  Zr2074  1  0.46793417  0.44151088  0.27056887  1.0
  Zr  Zr2075  1  0.46793417  0.77484421  0.27056887  1.0
  Zr  Zr2076  1  0.80126750  0.10817754  0.27056887  1.0
  Zr  Zr2077  1  0.80126750  0.44151088  0.27056887  1.0
  Zr  Zr2078  1  0.80126750  0.77484421  0.27056887  1.0
  Zr  Zr2079  1  0.30126750  0.23317754  0.39556887  1.0
  Zr  Zr2080  1  0.30126750  0.56651087  0.39556887  1.0
  Zr  Zr2081  1  0.30126750  0.89984421  0.39556887  1.0
  Zr  Zr2082  1  0.63460083  0.23317754  0.39556887  1.0
  Zr  Zr2083  1  0.63460083  0.56651087  0.39556887  1.0
  Zr  Zr2084  1  0.63460083  0.89984421  0.39556887  1.0
  Zr  Zr2085  1  0.96793417  0.23317754  0.39556887  1.0
  Zr  Zr2086  1  0.96793417  0.56651087  0.39556887  1.0
  Zr  Zr2087  1  0.96793417  0.89984421  0.39556887  1.0
  Zr  Zr2088  1  0.33290300  0.25144250  0.49809550  1.0
  Zr  Zr2089  1  0.33290300  0.58477583  0.49809550  1.0
  Zr  Zr2090  1  0.33290300  0.91810917  0.49809550  1.0
  Zr  Zr2091  1  0.66623633  0.25144250  0.49809550  1.0
  Zr  Zr2092  1  0.66623633  0.58477583  0.49809550  1.0
  Zr  Zr2093  1  0.66623633  0.91810917  0.49809550  1.0
  Zr  Zr2094  1  0.99956967  0.25144250  0.49809550  1.0
  Zr  Zr2095  1  0.99956967  0.58477583  0.49809550  1.0
  Zr  Zr2096  1  0.99956967  0.91810917  0.49809550  1.0
  Zr  Zr2097  1  0.16623633  0.12644250  0.37309550  1.0
  Zr  Zr2098  1  0.16623633  0.45977583  0.37309550  1.0
  Zr  Zr2099  1  0.16623633  0.79310917  0.37309550  1.0
  Zr  Zr2100  1  0.49956967  0.12644250  0.37309550  1.0
  Zr  Zr2101  1  0.49956967  0.45977583  0.37309550  1.0
  Zr  Zr2102  1  0.49956967  0.79310917  0.37309550  1.0
  Zr  Zr2103  1  0.83290300  0.12644250  0.37309550  1.0
  Zr  Zr2104  1  0.83290300  0.45977583  0.37309550  1.0
  Zr  Zr2105  1  0.83290300  0.79310917  0.37309550  1.0
  Zr  Zr2106  1  0.05181433  0.22280433  0.49007100  1.0
  Zr  Zr2107  1  0.05181433  0.55613767  0.49007100  1.0
  Zr  Zr2108  1  0.05181433  0.88947100  0.49007100  1.0
  Zr  Zr2109  1  0.38514767  0.22280433  0.49007100  1.0
  Zr  Zr2110  1  0.38514767  0.55613767  0.49007100  1.0
  Zr  Zr2111  1  0.38514767  0.88947100  0.49007100  1.0
  Zr  Zr2112  1  0.71848100  0.22280433  0.49007100  1.0
  Zr  Zr2113  1  0.71848100  0.55613767  0.49007100  1.0
  Zr  Zr2114  1  0.71848100  0.88947100  0.49007100  1.0
  Zr  Zr2115  1  0.21848100  0.09780433  0.36507100  1.0
  Zr  Zr2116  1  0.21848100  0.43113767  0.36507100  1.0
  Zr  Zr2117  1  0.21848100  0.76447100  0.36507100  1.0
  Zr  Zr2118  1  0.55181433  0.09780433  0.36507100  1.0
  Zr  Zr2119  1  0.55181433  0.43113767  0.36507100  1.0
  Zr  Zr2120  1  0.55181433  0.76447100  0.36507100  1.0
  Zr  Zr2121  1  0.88514767  0.09780433  0.36507100  1.0
  Zr  Zr2122  1  0.88514767  0.43113767  0.36507100  1.0
  Zr  Zr2123  1  0.88514767  0.76447100  0.36507100  1.0
  Zr  Zr2124  1  0.03050533  0.09256158  0.31687225  1.0
  Zr  Zr2125  1  0.03050533  0.42589492  0.31687225  1.0
  Zr  Zr2126  1  0.03050533  0.75922825  0.31687225  1.0
  Zr  Zr2127  1  0.36383867  0.09256158  0.31687225  1.0
  Zr  Zr2128  1  0.36383867  0.42589492  0.31687225  1.0
  Zr  Zr2129  1  0.36383867  0.75922825  0.31687225  1.0
  Zr  Zr2130  1  0.69717200  0.09256158  0.31687225  1.0
  Zr  Zr2131  1  0.69717200  0.42589492  0.31687225  1.0
  Zr  Zr2132  1  0.69717200  0.75922825  0.31687225  1.0
  Zr  Zr2133  1  0.19717200  0.21756158  0.44187225  1.0
  Zr  Zr2134  1  0.19717200  0.55089492  0.44187225  1.0
  Zr  Zr2135  1  0.19717200  0.88422825  0.44187225  1.0
  Zr  Zr2136  1  0.53050533  0.21756158  0.44187225  1.0
  Zr  Zr2137  1  0.53050533  0.55089492  0.44187225  1.0
  Zr  Zr2138  1  0.53050533  0.88422825  0.44187225  1.0
  Zr  Zr2139  1  0.86383867  0.21756158  0.44187225  1.0
  Zr  Zr2140  1  0.86383867  0.55089492  0.44187225  1.0
  Zr  Zr2141  1  0.86383867  0.88422825  0.44187225  1.0
  Zr  Zr2142  1  0.03170050  0.31032079  0.47284012  1.0
  Zr  Zr2143  1  0.03170050  0.64365413  0.47284012  1.0
  Zr  Zr2144  1  0.03170050  0.97698746  0.47284012  1.0
  Zr  Zr2145  1  0.36503383  0.31032079  0.47284012  1.0
  Zr  Zr2146  1  0.36503383  0.64365413  0.47284012  1.0
  Zr  Zr2147  1  0.36503383  0.97698746  0.47284012  1.0
  Zr  Zr2148  1  0.69836717  0.31032079  0.47284012  1.0
  Zr  Zr2149  1  0.69836717  0.64365413  0.47284012  1.0
  Zr  Zr2150  1  0.69836717  0.97698746  0.47284012  1.0
  Zr  Zr2151  1  0.19836717  0.18532079  0.34784012  1.0
  Zr  Zr2152  1  0.19836717  0.51865413  0.34784012  1.0
  Zr  Zr2153  1  0.19836717  0.85198746  0.34784012  1.0
  Zr  Zr2154  1  0.53170050  0.18532079  0.34784012  1.0
  Zr  Zr2155  1  0.53170050  0.51865413  0.34784012  1.0
  Zr  Zr2156  1  0.53170050  0.85198746  0.34784012  1.0
  Zr  Zr2157  1  0.86503383  0.18532079  0.34784012  1.0
  Zr  Zr2158  1  0.86503383  0.51865413  0.34784012  1.0
  Zr  Zr2159  1  0.86503383  0.85198746  0.34784012  1.0
  Zr  Zr2160  1  0.13514767  0.04604333  0.27035400  1.0
  Zr  Zr2161  1  0.13514767  0.37937667  0.27035400  1.0
  Zr  Zr2162  1  0.13514767  0.71271000  0.27035400  1.0
  Zr  Zr2163  1  0.46848100  0.04604333  0.27035400  1.0
  Zr  Zr2164  1  0.46848100  0.37937667  0.27035400  1.0
  Zr  Zr2165  1  0.46848100  0.71271000  0.27035400  1.0
  Zr  Zr2166  1  0.80181433  0.04604333  0.27035400  1.0
  Zr  Zr2167  1  0.80181433  0.37937667  0.27035400  1.0
  Zr  Zr2168  1  0.80181433  0.71271000  0.27035400  1.0
  Zr  Zr2169  1  0.30181433  0.17104333  0.39535400  1.0
  Zr  Zr2170  1  0.30181433  0.50437667  0.39535400  1.0
  Zr  Zr2171  1  0.30181433  0.83771000  0.39535400  1.0
  Zr  Zr2172  1  0.63514767  0.17104333  0.39535400  1.0
  Zr  Zr2173  1  0.63514767  0.50437667  0.39535400  1.0
  Zr  Zr2174  1  0.63514767  0.83771000  0.39535400  1.0
  Zr  Zr2175  1  0.96848100  0.17104333  0.39535400  1.0
  Zr  Zr2176  1  0.96848100  0.50437667  0.39535400  1.0
  Zr  Zr2177  1  0.96848100  0.83771000  0.39535400  1.0
  Zr  Zr2178  1  0.28050533  0.01932258  0.28658925  1.0
  Zr  Zr2179  1  0.28050533  0.35265592  0.28658925  1.0
  Zr  Zr2180  1  0.28050533  0.68598925  0.28658925  1.0
  Zr  Zr2181  1  0.61383867  0.01932258  0.28658925  1.0
  Zr  Zr2182  1  0.61383867  0.35265592  0.28658925  1.0
  Zr  Zr2183  1  0.61383867  0.68598925  0.28658925  1.0
  Zr  Zr2184  1  0.94717200  0.01932258  0.28658925  1.0
  Zr  Zr2185  1  0.94717200  0.35265592  0.28658925  1.0
  Zr  Zr2186  1  0.94717200  0.68598925  0.28658925  1.0
  Zr  Zr2187  1  0.11383867  0.14432258  0.41158925  1.0
  Zr  Zr2188  1  0.11383867  0.47765592  0.41158925  1.0
  Zr  Zr2189  1  0.11383867  0.81098925  0.41158925  1.0
  Zr  Zr2190  1  0.44717200  0.14432258  0.41158925  1.0
  Zr  Zr2191  1  0.44717200  0.47765592  0.41158925  1.0
  Zr  Zr2192  1  0.44717200  0.81098925  0.41158925  1.0
  Zr  Zr2193  1  0.78050533  0.14432258  0.41158925  1.0
  Zr  Zr2194  1  0.78050533  0.47765592  0.41158925  1.0
  Zr  Zr2195  1  0.78050533  0.81098925  0.41158925  1.0
  Zr  Zr2196  1  0.28206583  0.08146012  0.41051812  1.0
  Zr  Zr2197  1  0.28206583  0.41479346  0.41051812  1.0
  Zr  Zr2198  1  0.28206583  0.74812679  0.41051812  1.0
  Zr  Zr2199  1  0.61539917  0.08146012  0.41051812  1.0
  Zr  Zr2200  1  0.61539917  0.41479346  0.41051812  1.0
  Zr  Zr2201  1  0.61539917  0.74812679  0.41051812  1.0
  Zr  Zr2202  1  0.94873250  0.08146012  0.41051812  1.0
  Zr  Zr2203  1  0.94873250  0.41479346  0.41051812  1.0
  Zr  Zr2204  1  0.94873250  0.74812679  0.41051812  1.0
  Zr  Zr2205  1  0.11539917  0.28979346  0.28551812  1.0
  Zr  Zr2206  1  0.11539917  0.62312679  0.28551813  1.0
  Zr  Zr2207  1  0.11539917  0.95646012  0.28551812  1.0
  Zr  Zr2208  1  0.44873250  0.28979346  0.28551813  1.0
  Zr  Zr2209  1  0.44873250  0.62312679  0.28551812  1.0
  Zr  Zr2210  1  0.44873250  0.95646012  0.28551812  1.0
  Zr  Zr2211  1  0.78206583  0.28979346  0.28551813  1.0
  Zr  Zr2212  1  0.78206583  0.62312679  0.28551813  1.0
  Zr  Zr2213  1  0.78206583  0.95646012  0.28551813  1.0
  Zr  Zr2214  1  0.19818567  0.03939567  0.47332900  1.0
  Zr  Zr2215  1  0.19818567  0.37272900  0.47332900  1.0
  Zr  Zr2216  1  0.19818567  0.70606233  0.47332900  1.0
  Zr  Zr2217  1  0.53151900  0.03939567  0.47332900  1.0
  Zr  Zr2218  1  0.53151900  0.37272900  0.47332900  1.0
  Zr  Zr2219  1  0.53151900  0.70606233  0.47332900  1.0
  Zr  Zr2220  1  0.86485233  0.03939567  0.47332900  1.0
  Zr  Zr2221  1  0.86485233  0.37272900  0.47332900  1.0
  Zr  Zr2222  1  0.86485233  0.70606233  0.47332900  1.0
  Zr  Zr2223  1  0.03151900  0.24772900  0.34832900  1.0
  Zr  Zr2224  1  0.03151900  0.58106233  0.34832900  1.0
  Zr  Zr2225  1  0.03151900  0.91439567  0.34832900  1.0
  Zr  Zr2226  1  0.36485233  0.24772900  0.34832900  1.0
  Zr  Zr2227  1  0.36485233  0.58106233  0.34832900  1.0
  Zr  Zr2228  1  0.36485233  0.91439567  0.34832900  1.0
  Zr  Zr2229  1  0.69818567  0.24772900  0.34832900  1.0
  Zr  Zr2230  1  0.69818567  0.58106233  0.34832900  1.0
  Zr  Zr2231  1  0.69818567  0.91439567  0.34832900  1.0
  Zr  Zr2232  1  0.00000000  0.16771950  0.49684150  1.0
  Zr  Zr2233  1  0.00000000  0.50105283  0.49684150  1.0
  Zr  Zr2234  1  0.00000000  0.83438617  0.49684150  1.0
  Zr  Zr2235  1  0.33333333  0.16771950  0.49684150  1.0
  Zr  Zr2236  1  0.33333333  0.50105283  0.49684150  1.0
  Zr  Zr2237  1  0.33333333  0.83438617  0.49684150  1.0
  Zr  Zr2238  1  0.66666667  0.16771950  0.49684150  1.0
  Zr  Zr2239  1  0.66666667  0.50105283  0.49684150  1.0
  Zr  Zr2240  1  0.66666667  0.83438617  0.49684150  1.0
  Zr  Zr2241  1  0.16666667  0.04271950  0.37184150  1.0
  Zr  Zr2242  1  0.16666667  0.37605283  0.37184150  1.0
  Zr  Zr2243  1  0.16666667  0.70938617  0.37184150  1.0
  Zr  Zr2244  1  0.50000000  0.04271950  0.37184150  1.0
  Zr  Zr2245  1  0.50000000  0.37605283  0.37184150  1.0
  Zr  Zr2246  1  0.50000000  0.70938617  0.37184150  1.0
  Zr  Zr2247  1  0.83333333  0.04271950  0.37184150  1.0
  Zr  Zr2248  1  0.83333333  0.37605283  0.37184150  1.0
  Zr  Zr2249  1  0.83333333  0.70938617  0.37184150  1.0
  Zr  Zr2250  1  0.00043033  0.08399650  0.49558750  1.0
  Zr  Zr2251  1  0.00043033  0.41732983  0.49558750  1.0
  Zr  Zr2252  1  0.00043033  0.75066317  0.49558750  1.0
  Zr  Zr2253  1  0.33376367  0.08399650  0.49558750  1.0
  Zr  Zr2254  1  0.33376367  0.41732983  0.49558750  1.0
  Zr  Zr2255  1  0.33376367  0.75066317  0.49558750  1.0
  Zr  Zr2256  1  0.66709700  0.08399650  0.49558750  1.0
  Zr  Zr2257  1  0.66709700  0.41732983  0.49558750  1.0
  Zr  Zr2258  1  0.66709700  0.75066317  0.49558750  1.0
  Zr  Zr2259  1  0.16709700  0.29232983  0.37058750  1.0
  Zr  Zr2260  1  0.16709700  0.62566317  0.37058750  1.0
  Zr  Zr2261  1  0.16709700  0.95899650  0.37058750  1.0
  Zr  Zr2262  1  0.50043033  0.29232983  0.37058750  1.0
  Zr  Zr2263  1  0.50043033  0.62566317  0.37058750  1.0
  Zr  Zr2264  1  0.50043033  0.95899650  0.37058750  1.0
  Zr  Zr2265  1  0.83376367  0.29232983  0.37058750  1.0
  Zr  Zr2266  1  0.83376367  0.62566317  0.37058750  1.0
  Zr  Zr2267  1  0.83376367  0.95899650  0.37058750  1.0
  Zr  Zr2268  1  0.08414100  0.02177950  0.43337050  1.0
  Zr  Zr2269  1  0.08414100  0.35511283  0.43337050  1.0
  Zr  Zr2270  1  0.08414100  0.68844617  0.43337050  1.0
  Zr  Zr2271  1  0.41747433  0.02177950  0.43337050  1.0
  Zr  Zr2272  1  0.41747433  0.35511283  0.43337050  1.0
  Zr  Zr2273  1  0.41747433  0.68844617  0.43337050  1.0
  Zr  Zr2274  1  0.75080767  0.02177950  0.43337050  1.0
  Zr  Zr2275  1  0.75080767  0.35511283  0.43337050  1.0
  Zr  Zr2276  1  0.75080767  0.68844617  0.43337050  1.0
  Zr  Zr2277  1  0.25080767  0.23011283  0.30837050  1.0
  Zr  Zr2278  1  0.25080767  0.56344617  0.30837050  1.0
  Zr  Zr2279  1  0.25080767  0.89677950  0.30837050  1.0
  Zr  Zr2280  1  0.58414100  0.23011283  0.30837050  1.0
  Zr  Zr2281  1  0.58414100  0.56344617  0.30837050  1.0
  Zr  Zr2282  1  0.58414100  0.89677950  0.30837050  1.0
  Zr  Zr2283  1  0.91747433  0.23011283  0.30837050  1.0
  Zr  Zr2284  1  0.91747433  0.56344617  0.30837050  1.0
  Zr  Zr2285  1  0.91747433  0.89677950  0.30837050  1.0
  Zr  Zr2286  1  0.24919233  0.06365950  0.31031250  1.0
  Zr  Zr2287  1  0.24919233  0.39699283  0.31031250  1.0
  Zr  Zr2288  1  0.24919233  0.73032617  0.31031250  1.0
  Zr  Zr2289  1  0.58252567  0.06365950  0.31031250  1.0
  Zr  Zr2290  1  0.58252567  0.39699283  0.31031250  1.0
  Zr  Zr2291  1  0.58252567  0.73032617  0.31031250  1.0
  Zr  Zr2292  1  0.91585900  0.06365950  0.31031250  1.0
  Zr  Zr2293  1  0.91585900  0.39699283  0.31031250  1.0
  Zr  Zr2294  1  0.91585900  0.73032617  0.31031250  1.0
  Zr  Zr2295  1  0.08252567  0.18865950  0.43531250  1.0
  Zr  Zr2296  1  0.08252567  0.52199283  0.43531250  1.0
  Zr  Zr2297  1  0.08252567  0.85532617  0.43531250  1.0
  Zr  Zr2298  1  0.41585900  0.18865950  0.43531250  1.0
  Zr  Zr2299  1  0.41585900  0.52199283  0.43531250  1.0
  Zr  Zr2300  1  0.41585900  0.85532617  0.43531250  1.0
  Zr  Zr2301  1  0.74919233  0.18865950  0.43531250  1.0
  Zr  Zr2302  1  0.74919233  0.52199283  0.43531250  1.0
  Zr  Zr2303  1  0.74919233  0.85532617  0.43531250  1.0
  Zr  Zr2304  1  0.11503383  0.08118613  0.41024413  1.0
  Zr  Zr2305  1  0.11503383  0.41451946  0.41024412  1.0
  Zr  Zr2306  1  0.11503383  0.74785279  0.41024413  1.0
  Zr  Zr2307  1  0.44836717  0.08118613  0.41024412  1.0
  Zr  Zr2308  1  0.44836717  0.41451946  0.41024413  1.0
  Zr  Zr2309  1  0.44836717  0.74785279  0.41024413  1.0
  Zr  Zr2310  1  0.78170050  0.08118613  0.41024412  1.0
  Zr  Zr2311  1  0.78170050  0.41451946  0.41024413  1.0
  Zr  Zr2312  1  0.78170050  0.74785279  0.41024413  1.0
  Zr  Zr2313  1  0.28170050  0.28951946  0.28524412  1.0
  Zr  Zr2314  1  0.28170050  0.62285279  0.28524412  1.0
  Zr  Zr2315  1  0.28170050  0.95618612  0.28524412  1.0
  Zr  Zr2316  1  0.61503383  0.28951946  0.28524412  1.0
  Zr  Zr2317  1  0.61503383  0.62285279  0.28524412  1.0
  Zr  Zr2318  1  0.61503383  0.95618612  0.28524412  1.0
  Zr  Zr2319  1  0.94836717  0.28951946  0.28524412  1.0
  Zr  Zr2320  1  0.94836717  0.62285279  0.28524412  1.0
  Zr  Zr2321  1  0.94836717  0.95618612  0.28524412  1.0
  Zr  Zr2322  1  0.25000000  0.27188617  0.43434150  1.0
  Zr  Zr2323  1  0.25000000  0.60521950  0.43434150  1.0
  Zr  Zr2324  1  0.25000000  0.93855283  0.43434150  1.0
  Zr  Zr2325  1  0.58333333  0.27188617  0.43434150  1.0
  Zr  Zr2326  1  0.58333333  0.60521950  0.43434150  1.0
  Zr  Zr2327  1  0.58333333  0.93855283  0.43434150  1.0
  Zr  Zr2328  1  0.91666667  0.27188617  0.43434150  1.0
  Zr  Zr2329  1  0.91666667  0.60521950  0.43434150  1.0
  Zr  Zr2330  1  0.91666667  0.93855283  0.43434150  1.0
  Zr  Zr2331  1  0.08333333  0.14688617  0.30934150  1.0
  Zr  Zr2332  1  0.08333333  0.48021950  0.30934150  1.0
  Zr  Zr2333  1  0.08333333  0.81355283  0.30934150  1.0
  Zr  Zr2334  1  0.41666667  0.14688617  0.30934150  1.0
  Zr  Zr2335  1  0.41666667  0.48021950  0.30934150  1.0
  Zr  Zr2336  1  0.41666667  0.81355283  0.30934150  1.0
  Zr  Zr2337  1  0.75000000  0.14688617  0.30934150  1.0
  Zr  Zr2338  1  0.75000000  0.48021950  0.30934150  1.0
  Zr  Zr2339  1  0.75000000  0.81355283  0.30934150  1.0
  Zr  Zr2340  1  0.33252567  0.12659167  0.37151600  1.0
  Zr  Zr2341  1  0.33252567  0.45992500  0.37151600  1.0
  Zr  Zr2342  1  0.33252567  0.79325833  0.37151600  1.0
  Zr  Zr2343  1  0.66585900  0.12659167  0.37151600  1.0
  Zr  Zr2344  1  0.66585900  0.45992500  0.37151600  1.0
  Zr  Zr2345  1  0.66585900  0.79325833  0.37151600  1.0
  Zr  Zr2346  1  0.99919233  0.12659167  0.37151600  1.0
  Zr  Zr2347  1  0.99919233  0.45992500  0.37151600  1.0
  Zr  Zr2348  1  0.99919233  0.79325833  0.37151600  1.0
  Zr  Zr2349  1  0.16585900  0.25159167  0.49651600  1.0
  Zr  Zr2350  1  0.16585900  0.58492500  0.49651600  1.0
  Zr  Zr2351  1  0.16585900  0.91825833  0.49651600  1.0
  Zr  Zr2352  1  0.49919233  0.25159167  0.49651600  1.0
  Zr  Zr2353  1  0.49919233  0.58492500  0.49651600  1.0
  Zr  Zr2354  1  0.49919233  0.91825833  0.49651600  1.0
  Zr  Zr2355  1  0.83252567  0.25159167  0.49651600  1.0
  Zr  Zr2356  1  0.83252567  0.58492500  0.49651600  1.0
  Zr  Zr2357  1  0.83252567  0.91825833  0.49651600  1.0
  Zr  Zr2358  1  0.08290300  0.06437467  0.30929900  1.0
  Zr  Zr2359  1  0.08290300  0.39770800  0.30929900  1.0
  Zr  Zr2360  1  0.08290300  0.73104133  0.30929900  1.0
  Zr  Zr2361  1  0.41623633  0.06437467  0.30929900  1.0
  Zr  Zr2362  1  0.41623633  0.39770800  0.30929900  1.0
  Zr  Zr2363  1  0.41623633  0.73104133  0.30929900  1.0
  Zr  Zr2364  1  0.74956967  0.06437467  0.30929900  1.0
  Zr  Zr2365  1  0.74956967  0.39770800  0.30929900  1.0
  Zr  Zr2366  1  0.74956967  0.73104133  0.30929900  1.0
  Zr  Zr2367  1  0.24956967  0.18937467  0.43429900  1.0
  Zr  Zr2368  1  0.24956967  0.52270800  0.43429900  1.0
  Zr  Zr2369  1  0.24956967  0.85604133  0.43429900  1.0
  Zr  Zr2370  1  0.58290300  0.18937467  0.43429900  1.0
  Zr  Zr2371  1  0.58290300  0.52270800  0.43429900  1.0
  Zr  Zr2372  1  0.58290300  0.85604133  0.43429900  1.0
  Zr  Zr2373  1  0.91623633  0.18937467  0.43429900  1.0
  Zr  Zr2374  1  0.91623633  0.52270800  0.43429900  1.0
  Zr  Zr2375  1  0.91623633  0.85604133  0.43429900  1.0
  Zr  Zr2376  1  0.00080767  0.29218067  0.37216700  1.0
  Zr  Zr2377  1  0.00080767  0.62551400  0.37216700  1.0
  Zr  Zr2378  1  0.00080767  0.95884733  0.37216700  1.0
  Zr  Zr2379  1  0.33414100  0.29218067  0.37216700  1.0
  Zr  Zr2380  1  0.33414100  0.62551400  0.37216700  1.0
  Zr  Zr2381  1  0.33414100  0.95884733  0.37216700  1.0
  Zr  Zr2382  1  0.66747433  0.29218067  0.37216700  1.0
  Zr  Zr2383  1  0.66747433  0.62551400  0.37216700  1.0
  Zr  Zr2384  1  0.66747433  0.95884733  0.37216700  1.0
  Zr  Zr2385  1  0.16747433  0.08384733  0.49716700  1.0
  Zr  Zr2386  1  0.16747433  0.41718067  0.49716700  1.0
  Zr  Zr2387  1  0.16747433  0.75051400  0.49716700  1.0
  Zr  Zr2388  1  0.50080767  0.08384733  0.49716700  1.0
  Zr  Zr2389  1  0.50080767  0.41718067  0.49716700  1.0
  Zr  Zr2390  1  0.50080767  0.75051400  0.49716700  1.0
  Zr  Zr2391  1  0.83414100  0.08384733  0.49716700  1.0
  Zr  Zr2392  1  0.83414100  0.41718067  0.49716700  1.0
  Zr  Zr2393  1  0.83414100  0.75051400  0.49716700  1.0
  Zr  Zr2394  1  0.21829950  0.00425288  0.33343887  1.0
  Zr  Zr2395  1  0.21829950  0.33758621  0.33343887  1.0
  Zr  Zr2396  1  0.21829950  0.67091954  0.33343887  1.0
  Zr  Zr2397  1  0.55163283  0.00425288  0.33343887  1.0
  Zr  Zr2398  1  0.55163283  0.33758621  0.33343887  1.0
  Zr  Zr2399  1  0.55163283  0.67091954  0.33343887  1.0
  Zr  Zr2400  1  0.88496617  0.00425288  0.33343887  1.0
  Zr  Zr2401  1  0.88496617  0.33758621  0.33343887  1.0
  Zr  Zr2402  1  0.88496617  0.67091954  0.33343887  1.0
  Zr  Zr2403  1  0.05163283  0.12925288  0.45843887  1.0
  Zr  Zr2404  1  0.05163283  0.46258621  0.45843887  1.0
  Zr  Zr2405  1  0.05163283  0.79591954  0.45843887  1.0
  Zr  Zr2406  1  0.38496617  0.12925288  0.45843887  1.0
  Zr  Zr2407  1  0.38496617  0.46258621  0.45843887  1.0
  Zr  Zr2408  1  0.38496617  0.79591954  0.45843887  1.0
  Zr  Zr2409  1  0.71829950  0.12925288  0.45843887  1.0
  Zr  Zr2410  1  0.71829950  0.46258621  0.45843887  1.0
  Zr  Zr2411  1  0.71829950  0.79591954  0.45843887  1.0
  Zr  Zr2412  1  0.08333333  0.27188617  0.43434150  1.0
  Zr  Zr2413  1  0.08333333  0.60521950  0.43434150  1.0
  Zr  Zr2414  1  0.08333333  0.93855283  0.43434150  1.0
  Zr  Zr2415  1  0.41666667  0.27188617  0.43434150  1.0
  Zr  Zr2416  1  0.41666667  0.60521950  0.43434150  1.0
  Zr  Zr2417  1  0.41666667  0.93855283  0.43434150  1.0
  Zr  Zr2418  1  0.75000000  0.27188617  0.43434150  1.0
  Zr  Zr2419  1  0.75000000  0.60521950  0.43434150  1.0
  Zr  Zr2420  1  0.75000000  0.93855283  0.43434150  1.0
  Zr  Zr2421  1  0.25000000  0.14688617  0.30934150  1.0
  Zr  Zr2422  1  0.25000000  0.48021950  0.30934150  1.0
  Zr  Zr2423  1  0.25000000  0.81355283  0.30934150  1.0
  Zr  Zr2424  1  0.58333333  0.14688617  0.30934150  1.0
  Zr  Zr2425  1  0.58333333  0.48021950  0.30934150  1.0
  Zr  Zr2426  1  0.58333333  0.81355283  0.30934150  1.0
  Zr  Zr2427  1  0.91666667  0.14688617  0.30934150  1.0
  Zr  Zr2428  1  0.91666667  0.48021950  0.30934150  1.0
  Zr  Zr2429  1  0.91666667  0.81355283  0.30934150  1.0
  Zr  Zr2430  1  0.05126750  0.00397888  0.33316487  1.0
  Zr  Zr2431  1  0.05126750  0.33731221  0.33316487  1.0
  Zr  Zr2432  1  0.05126750  0.67064554  0.33316488  1.0
  Zr  Zr2433  1  0.38460083  0.00397888  0.33316488  1.0
  Zr  Zr2434  1  0.38460083  0.33731221  0.33316488  1.0
  Zr  Zr2435  1  0.38460083  0.67064554  0.33316488  1.0
  Zr  Zr2436  1  0.71793417  0.00397888  0.33316488  1.0
  Zr  Zr2437  1  0.71793417  0.33731221  0.33316488  1.0
  Zr  Zr2438  1  0.71793417  0.67064554  0.33316488  1.0
  Zr  Zr2439  1  0.21793417  0.12897888  0.45816487  1.0
  Zr  Zr2440  1  0.21793417  0.46231221  0.45816487  1.0
  Zr  Zr2441  1  0.21793417  0.79564554  0.45816487  1.0
  Zr  Zr2442  1  0.55126750  0.12897888  0.45816487  1.0
  Zr  Zr2443  1  0.55126750  0.46231221  0.45816487  1.0
  Zr  Zr2444  1  0.55126750  0.79564554  0.45816487  1.0
  Zr  Zr2445  1  0.88460083  0.12897888  0.45816487  1.0
  Zr  Zr2446  1  0.88460083  0.46231221  0.45816487  1.0
  Zr  Zr2447  1  0.88460083  0.79564554  0.45816487  1.0
