# generated using pymatgen
data_Zr7Ni10
_symmetry_space_group_name_H-M   'P 1'
_cell_length_a   36.09250972
_cell_length_b   46.38037036
_cell_length_c   29.03000841
_cell_angle_alpha   100.95122269
_cell_angle_beta   96.73921036
_cell_angle_gamma   92.58365218
_symmetry_Int_Tables_number   1
_chemical_formula_structural   Zr7Ni10
_chemical_formula_sum   'Zr504 Ni720'
_cell_volume   47267.90156434
_cell_formula_units_Z   72
loop_
 _symmetry_equiv_pos_site_id
 _symmetry_equiv_pos_as_xyz
  1  'x, y, z'
loop_
 _atom_site_type_symbol
 _atom_site_label
 _atom_site_symmetry_multiplicity
 _atom_site_fract_x
 _atom_site_fract_y
 _atom_site_fract_z
 _atom_site_occupancy
  Ni  Ni0  1  0.22548990  0.21386797  0.07071020  1.0
  Ni  Ni1  1  0.22548990  0.54720130  0.07071020  1.0
  Ni  Ni2  1  0.22548990  0.88053463  0.07071020  1.0
  Ni  Ni3  1  0.55882323  0.21386797  0.07071020  1.0
  Ni  Ni4  1  0.55882323  0.54720130  0.07071020  1.0
  Ni  Ni5  1  0.55882323  0.88053463  0.07071020  1.0
  Ni  Ni6  1  0.89215657  0.21386797  0.07071020  1.0
  Ni  Ni7  1  0.89215657  0.54720130  0.07071020  1.0
  Ni  Ni8  1  0.89215657  0.88053463  0.07071020  1.0
  Ni  Ni9  1  0.09215657  0.11386797  0.17071020  1.0
  Ni  Ni10  1  0.09215657  0.44720130  0.17071020  1.0
  Ni  Ni11  1  0.09215657  0.78053463  0.17071020  1.0
  Ni  Ni12  1  0.42548990  0.11386797  0.17071020  1.0
  Ni  Ni13  1  0.42548990  0.44720130  0.17071020  1.0
  Ni  Ni14  1  0.42548990  0.78053463  0.17071020  1.0
  Ni  Ni15  1  0.75882323  0.11386797  0.17071020  1.0
  Ni  Ni16  1  0.75882323  0.44720130  0.17071020  1.0
  Ni  Ni17  1  0.75882323  0.78053463  0.17071020  1.0
  Ni  Ni18  1  0.30988043  0.28957720  0.14621630  1.0
  Ni  Ni19  1  0.30988043  0.62291053  0.14621630  1.0
  Ni  Ni20  1  0.30988043  0.95624387  0.14621630  1.0
  Ni  Ni21  1  0.64321377  0.28957720  0.14621630  1.0
  Ni  Ni22  1  0.64321377  0.62291053  0.14621630  1.0
  Ni  Ni23  1  0.64321377  0.95624387  0.14621630  1.0
  Ni  Ni24  1  0.97654710  0.28957720  0.14621630  1.0
  Ni  Ni25  1  0.97654710  0.62291053  0.14621630  1.0
  Ni  Ni26  1  0.97654710  0.95624387  0.14621630  1.0
  Ni  Ni27  1  0.10988043  0.05624387  0.04621630  1.0
  Ni  Ni28  1  0.10988043  0.38957720  0.04621630  1.0
  Ni  Ni29  1  0.10988043  0.72291053  0.04621630  1.0
  Ni  Ni30  1  0.44321377  0.05624387  0.04621630  1.0
  Ni  Ni31  1  0.44321377  0.38957720  0.04621630  1.0
  Ni  Ni32  1  0.44321377  0.72291053  0.04621630  1.0
  Ni  Ni33  1  0.77654710  0.05624387  0.04621630  1.0
  Ni  Ni34  1  0.77654710  0.38957720  0.04621630  1.0
  Ni  Ni35  1  0.77654710  0.72291053  0.04621630  1.0
  Ni  Ni36  1  0.11118597  0.31928877  0.11762340  1.0
  Ni  Ni37  1  0.11118597  0.65262210  0.11762340  1.0
  Ni  Ni38  1  0.11118597  0.98595543  0.11762340  1.0
  Ni  Ni39  1  0.44451930  0.31928877  0.11762340  1.0
  Ni  Ni40  1  0.44451930  0.65262210  0.11762340  1.0
  Ni  Ni41  1  0.44451930  0.98595543  0.11762340  1.0
  Ni  Ni42  1  0.77785263  0.31928877  0.11762340  1.0
  Ni  Ni43  1  0.77785263  0.65262210  0.11762340  1.0
  Ni  Ni44  1  0.77785263  0.98595543  0.11762340  1.0
  Ni  Ni45  1  0.24451930  0.08595543  0.01762340  1.0
  Ni  Ni46  1  0.24451930  0.41928877  0.01762340  1.0
  Ni  Ni47  1  0.24451930  0.75262210  0.01762340  1.0
  Ni  Ni48  1  0.57785263  0.08595543  0.01762340  1.0
  Ni  Ni49  1  0.57785263  0.41928877  0.01762340  1.0
  Ni  Ni50  1  0.57785263  0.75262210  0.01762340  1.0
  Ni  Ni51  1  0.91118597  0.08595543  0.01762340  1.0
  Ni  Ni52  1  0.91118597  0.41928877  0.01762340  1.0
  Ni  Ni53  1  0.91118597  0.75262210  0.01762340  1.0
  Ni  Ni54  1  0.02622863  0.09806977  0.00839740  1.0
  Ni  Ni55  1  0.02622863  0.43140310  0.00839740  1.0
  Ni  Ni56  1  0.02622863  0.76473643  0.00839740  1.0
  Ni  Ni57  1  0.35956197  0.09806977  0.00839740  1.0
  Ni  Ni58  1  0.35956197  0.43140310  0.00839740  1.0
  Ni  Ni59  1  0.35956197  0.76473643  0.00839740  1.0
  Ni  Ni60  1  0.69289530  0.09806977  0.00839740  1.0
  Ni  Ni61  1  0.69289530  0.43140310  0.00839740  1.0
  Ni  Ni62  1  0.69289530  0.76473643  0.00839740  1.0
  Ni  Ni63  1  0.22622863  0.33140310  0.10839740  1.0
  Ni  Ni64  1  0.22622863  0.66473643  0.10839740  1.0
  Ni  Ni65  1  0.22622863  0.99806977  0.10839740  1.0
  Ni  Ni66  1  0.55956197  0.33140310  0.10839740  1.0
  Ni  Ni67  1  0.55956197  0.66473643  0.10839740  1.0
  Ni  Ni68  1  0.55956197  0.99806977  0.10839740  1.0
  Ni  Ni69  1  0.89289530  0.33140310  0.10839740  1.0
  Ni  Ni70  1  0.89289530  0.66473643  0.10839740  1.0
  Ni  Ni71  1  0.89289530  0.99806977  0.10839740  1.0
  Ni  Ni72  1  0.28554463  0.23260277  0.13404840  1.0
  Ni  Ni73  1  0.28554463  0.56593610  0.13404840  1.0
  Ni  Ni74  1  0.28554463  0.89926943  0.13404840  1.0
  Ni  Ni75  1  0.61887797  0.23260277  0.13404840  1.0
  Ni  Ni76  1  0.61887797  0.56593610  0.13404840  1.0
  Ni  Ni77  1  0.61887797  0.89926943  0.13404840  1.0
  Ni  Ni78  1  0.95221130  0.23260277  0.13404840  1.0
  Ni  Ni79  1  0.95221130  0.56593610  0.13404840  1.0
  Ni  Ni80  1  0.95221130  0.89926943  0.13404840  1.0
  Ni  Ni81  1  0.08554463  0.33260277  0.03404840  1.0
  Ni  Ni82  1  0.08554463  0.66593610  0.03404840  1.0
  Ni  Ni83  1  0.08554463  0.99926943  0.03404840  1.0
  Ni  Ni84  1  0.41887797  0.33260277  0.03404840  1.0
  Ni  Ni85  1  0.41887797  0.66593610  0.03404840  1.0
  Ni  Ni86  1  0.41887797  0.99926943  0.03404840  1.0
  Ni  Ni87  1  0.75221130  0.33260277  0.03404840  1.0
  Ni  Ni88  1  0.75221130  0.66593610  0.03404840  1.0
  Ni  Ni89  1  0.75221130  0.99926943  0.03404840  1.0
  Ni  Ni90  1  0.02703003  0.26433573  0.00479110  1.0
  Ni  Ni91  1  0.02703003  0.59766907  0.00479110  1.0
  Ni  Ni92  1  0.02703003  0.93100240  0.00479110  1.0
  Ni  Ni93  1  0.36036337  0.26433573  0.00479110  1.0
  Ni  Ni94  1  0.36036337  0.59766907  0.00479110  1.0
  Ni  Ni95  1  0.36036337  0.93100240  0.00479110  1.0
  Ni  Ni96  1  0.69369670  0.26433573  0.00479110  1.0
  Ni  Ni97  1  0.69369670  0.59766907  0.00479110  1.0
  Ni  Ni98  1  0.69369670  0.93100240  0.00479110  1.0
  Ni  Ni99  1  0.22703003  0.16433573  0.10479110  1.0
  Ni  Ni100  1  0.22703003  0.49766907  0.10479110  1.0
  Ni  Ni101  1  0.22703003  0.83100240  0.10479110  1.0
  Ni  Ni102  1  0.56036337  0.16433573  0.10479110  1.0
  Ni  Ni103  1  0.56036337  0.49766907  0.10479110  1.0
  Ni  Ni104  1  0.56036337  0.83100240  0.10479110  1.0
  Ni  Ni105  1  0.89369670  0.16433573  0.10479110  1.0
  Ni  Ni106  1  0.89369670  0.49766907  0.10479110  1.0
  Ni  Ni107  1  0.89369670  0.83100240  0.10479110  1.0
  Ni  Ni108  1  0.01136417  0.15426417  0.03427600  1.0
  Ni  Ni109  1  0.01136417  0.48759750  0.03427600  1.0
  Ni  Ni110  1  0.01136417  0.82093083  0.03427600  1.0
  Ni  Ni111  1  0.34469750  0.15426417  0.03427600  1.0
  Ni  Ni112  1  0.34469750  0.48759750  0.03427600  1.0
  Ni  Ni113  1  0.34469750  0.82093083  0.03427600  1.0
  Ni  Ni114  1  0.67803083  0.15426417  0.03427600  1.0
  Ni  Ni115  1  0.67803083  0.48759750  0.03427600  1.0
  Ni  Ni116  1  0.67803083  0.82093083  0.03427600  1.0
  Ni  Ni117  1  0.21136417  0.05426417  0.13427600  1.0
  Ni  Ni118  1  0.21136417  0.38759750  0.13427600  1.0
  Ni  Ni119  1  0.21136417  0.72093083  0.13427600  1.0
  Ni  Ni120  1  0.54469750  0.05426417  0.13427600  1.0
  Ni  Ni121  1  0.54469750  0.38759750  0.13427600  1.0
  Ni  Ni122  1  0.54469750  0.72093083  0.13427600  1.0
  Ni  Ni123  1  0.87803083  0.05426417  0.13427600  1.0
  Ni  Ni124  1  0.87803083  0.38759750  0.13427600  1.0
  Ni  Ni125  1  0.87803083  0.72093083  0.13427600  1.0
  Ni  Ni126  1  0.14743037  0.20462890  0.16491060  1.0
  Ni  Ni127  1  0.14743037  0.53796223  0.16491060  1.0
  Ni  Ni128  1  0.14743037  0.87129557  0.16491060  1.0
  Ni  Ni129  1  0.48076370  0.20462890  0.16491060  1.0
  Ni  Ni130  1  0.48076370  0.53796223  0.16491060  1.0
  Ni  Ni131  1  0.48076370  0.87129557  0.16491060  1.0
  Ni  Ni132  1  0.81409703  0.20462890  0.16491060  1.0
  Ni  Ni133  1  0.81409703  0.53796223  0.16491060  1.0
  Ni  Ni134  1  0.81409703  0.87129557  0.16491060  1.0
  Ni  Ni135  1  0.28076370  0.30462890  0.06491060  1.0
  Ni  Ni136  1  0.28076370  0.63796223  0.06491060  1.0
  Ni  Ni137  1  0.28076370  0.97129557  0.06491060  1.0
  Ni  Ni138  1  0.61409703  0.30462890  0.06491060  1.0
  Ni  Ni139  1  0.61409703  0.63796223  0.06491060  1.0
  Ni  Ni140  1  0.61409703  0.97129557  0.06491060  1.0
  Ni  Ni141  1  0.94743037  0.30462890  0.06491060  1.0
  Ni  Ni142  1  0.94743037  0.63796223  0.06491060  1.0
  Ni  Ni143  1  0.94743037  0.97129557  0.06491060  1.0
  Ni  Ni144  1  0.08474323  0.16633680  0.03765470  1.0
  Ni  Ni145  1  0.08474323  0.49967013  0.03765470  1.0
  Ni  Ni146  1  0.08474323  0.83300347  0.03765470  1.0
  Ni  Ni147  1  0.41807657  0.16633680  0.03765470  1.0
  Ni  Ni148  1  0.41807657  0.49967013  0.03765470  1.0
  Ni  Ni149  1  0.41807657  0.83300347  0.03765470  1.0
  Ni  Ni150  1  0.75140990  0.16633680  0.03765470  1.0
  Ni  Ni151  1  0.75140990  0.49967013  0.03765470  1.0
  Ni  Ni152  1  0.75140990  0.83300347  0.03765470  1.0
  Ni  Ni153  1  0.28474323  0.06633680  0.13765470  1.0
  Ni  Ni154  1  0.28474323  0.39967013  0.13765470  1.0
  Ni  Ni155  1  0.28474323  0.73300347  0.13765470  1.0
  Ni  Ni156  1  0.61807657  0.06633680  0.13765470  1.0
  Ni  Ni157  1  0.61807657  0.39967013  0.13765470  1.0
  Ni  Ni158  1  0.61807657  0.73300347  0.13765470  1.0
  Ni  Ni159  1  0.95140990  0.06633680  0.13765470  1.0
  Ni  Ni160  1  0.95140990  0.39967013  0.13765470  1.0
  Ni  Ni161  1  0.95140990  0.73300347  0.13765470  1.0
  Ni  Ni162  1  0.10907903  0.22331123  0.04982260  1.0
  Ni  Ni163  1  0.10907903  0.55664457  0.04982260  1.0
  Ni  Ni164  1  0.10907903  0.88997790  0.04982260  1.0
  Ni  Ni165  1  0.44241237  0.22331123  0.04982260  1.0
  Ni  Ni166  1  0.44241237  0.55664457  0.04982260  1.0
  Ni  Ni167  1  0.44241237  0.88997790  0.04982260  1.0
  Ni  Ni168  1  0.77574570  0.22331123  0.04982260  1.0
  Ni  Ni169  1  0.77574570  0.55664457  0.04982260  1.0
  Ni  Ni170  1  0.77574570  0.88997790  0.04982260  1.0
  Ni  Ni171  1  0.30907903  0.12331123  0.14982260  1.0
  Ni  Ni172  1  0.30907903  0.45664457  0.14982260  1.0
  Ni  Ni173  1  0.30907903  0.78997790  0.14982260  1.0
  Ni  Ni174  1  0.64241237  0.12331123  0.14982260  1.0
  Ni  Ni175  1  0.64241237  0.45664457  0.14982260  1.0
  Ni  Ni176  1  0.64241237  0.78997790  0.14982260  1.0
  Ni  Ni177  1  0.97574570  0.12331123  0.14982260  1.0
  Ni  Ni178  1  0.97574570  0.45664457  0.14982260  1.0
  Ni  Ni179  1  0.97574570  0.78997790  0.14982260  1.0
  Ni  Ni180  1  0.20535297  0.27220527  0.19387190  1.0
  Ni  Ni181  1  0.20535297  0.60553860  0.19387190  1.0
  Ni  Ni182  1  0.20535297  0.93887193  0.19387190  1.0
  Ni  Ni183  1  0.53868630  0.27220527  0.19387190  1.0
  Ni  Ni184  1  0.53868630  0.60553860  0.19387190  1.0
  Ni  Ni185  1  0.53868630  0.93887193  0.19387190  1.0
  Ni  Ni186  1  0.87201963  0.27220527  0.19387190  1.0
  Ni  Ni187  1  0.87201963  0.60553860  0.19387190  1.0
  Ni  Ni188  1  0.87201963  0.93887193  0.19387190  1.0
  Ni  Ni189  1  0.00535297  0.03887193  0.09387190  1.0
  Ni  Ni190  1  0.00535297  0.37220527  0.09387190  1.0
  Ni  Ni191  1  0.00535297  0.70553860  0.09387190  1.0
  Ni  Ni192  1  0.33868630  0.03887193  0.09387190  1.0
  Ni  Ni193  1  0.33868630  0.37220527  0.09387190  1.0
  Ni  Ni194  1  0.33868630  0.70553860  0.09387190  1.0
  Ni  Ni195  1  0.67201963  0.03887193  0.09387190  1.0
  Ni  Ni196  1  0.67201963  0.37220527  0.09387190  1.0
  Ni  Ni197  1  0.67201963  0.70553860  0.09387190  1.0
  Ni  Ni198  1  0.24719330  0.25128510  0.01896040  1.0
  Ni  Ni199  1  0.24719330  0.58461843  0.01896040  1.0
  Ni  Ni200  1  0.24719330  0.91795177  0.01896040  1.0
  Ni  Ni201  1  0.58052663  0.25128510  0.01896040  1.0
  Ni  Ni202  1  0.58052663  0.58461843  0.01896040  1.0
  Ni  Ni203  1  0.58052663  0.91795177  0.01896040  1.0
  Ni  Ni204  1  0.91385997  0.25128510  0.01896040  1.0
  Ni  Ni205  1  0.91385997  0.58461843  0.01896040  1.0
  Ni  Ni206  1  0.91385997  0.91795177  0.01896040  1.0
  Ni  Ni207  1  0.11385997  0.15128510  0.11896040  1.0
  Ni  Ni208  1  0.11385997  0.48461843  0.11896040  1.0
  Ni  Ni209  1  0.11385997  0.81795177  0.11896040  1.0
  Ni  Ni210  1  0.44719330  0.15128510  0.11896040  1.0
  Ni  Ni211  1  0.44719330  0.48461843  0.11896040  1.0
  Ni  Ni212  1  0.44719330  0.81795177  0.11896040  1.0
  Ni  Ni213  1  0.78052663  0.15128510  0.11896040  1.0
  Ni  Ni214  1  0.78052663  0.48461843  0.11896040  1.0
  Ni  Ni215  1  0.78052663  0.81795177  0.11896040  1.0
  Ni  Ni216  1  0.28343770  0.13662523  0.06624760  1.0
  Ni  Ni217  1  0.28343770  0.46995857  0.06624760  1.0
  Ni  Ni218  1  0.28343770  0.80329190  0.06624760  1.0
  Ni  Ni219  1  0.61677103  0.13662523  0.06624760  1.0
  Ni  Ni220  1  0.61677103  0.46995857  0.06624760  1.0
  Ni  Ni221  1  0.61677103  0.80329190  0.06624760  1.0
  Ni  Ni222  1  0.95010437  0.13662523  0.06624760  1.0
  Ni  Ni223  1  0.95010437  0.46995857  0.06624760  1.0
  Ni  Ni224  1  0.95010437  0.80329190  0.06624760  1.0
  Ni  Ni225  1  0.15010437  0.03662523  0.16624760  1.0
  Ni  Ni226  1  0.15010437  0.36995857  0.16624760  1.0
  Ni  Ni227  1  0.15010437  0.70329190  0.16624760  1.0
  Ni  Ni228  1  0.48343770  0.03662523  0.16624760  1.0
  Ni  Ni229  1  0.48343770  0.36995857  0.16624760  1.0
  Ni  Ni230  1  0.48343770  0.70329190  0.16624760  1.0
  Ni  Ni231  1  0.81677103  0.03662523  0.16624760  1.0
  Ni  Ni232  1  0.81677103  0.36995857  0.16624760  1.0
  Ni  Ni233  1  0.81677103  0.70329190  0.16624760  1.0
  Ni  Ni234  1  0.00802697  0.20420160  0.09520890  1.0
  Ni  Ni235  1  0.00802697  0.53753493  0.09520890  1.0
  Ni  Ni236  1  0.00802697  0.87086827  0.09520890  1.0
  Ni  Ni237  1  0.34136030  0.20420160  0.09520890  1.0
  Ni  Ni238  1  0.34136030  0.53753493  0.09520890  1.0
  Ni  Ni239  1  0.34136030  0.87086827  0.09520890  1.0
  Ni  Ni240  1  0.67469363  0.20420160  0.09520890  1.0
  Ni  Ni241  1  0.67469363  0.53753493  0.09520890  1.0
  Ni  Ni242  1  0.67469363  0.87086827  0.09520890  1.0
  Ni  Ni243  1  0.20802697  0.10420160  0.19520890  1.0
  Ni  Ni244  1  0.20802697  0.43753493  0.19520890  1.0
  Ni  Ni245  1  0.20802697  0.77086827  0.19520890  1.0
  Ni  Ni246  1  0.54136030  0.10420160  0.19520890  1.0
  Ni  Ni247  1  0.54136030  0.43753493  0.19520890  1.0
  Ni  Ni248  1  0.54136030  0.77086827  0.19520890  1.0
  Ni  Ni249  1  0.87469363  0.10420160  0.19520890  1.0
  Ni  Ni250  1  0.87469363  0.43753493  0.19520890  1.0
  Ni  Ni251  1  0.87469363  0.77086827  0.19520890  1.0
  Ni  Ni252  1  0.16913377  0.24204603  0.11316080  1.0
  Ni  Ni253  1  0.16913377  0.57537937  0.11316080  1.0
  Ni  Ni254  1  0.16913377  0.90871270  0.11316080  1.0
  Ni  Ni255  1  0.50246710  0.24204603  0.11316080  1.0
  Ni  Ni256  1  0.50246710  0.57537937  0.11316080  1.0
  Ni  Ni257  1  0.50246710  0.90871270  0.11316080  1.0
  Ni  Ni258  1  0.83580043  0.24204603  0.11316080  1.0
  Ni  Ni259  1  0.83580043  0.57537937  0.11316080  1.0
  Ni  Ni260  1  0.83580043  0.90871270  0.11316080  1.0
  Ni  Ni261  1  0.30246710  0.00871270  0.01316080  1.0
  Ni  Ni262  1  0.30246710  0.34204603  0.01316080  1.0
  Ni  Ni263  1  0.30246710  0.67537937  0.01316080  1.0
  Ni  Ni264  1  0.63580043  0.00871270  0.01316080  1.0
  Ni  Ni265  1  0.63580043  0.34204603  0.01316080  1.0
  Ni  Ni266  1  0.63580043  0.67537937  0.01316080  1.0
  Ni  Ni267  1  0.96913377  0.00871270  0.01316080  1.0
  Ni  Ni268  1  0.96913377  0.34204603  0.01316080  1.0
  Ni  Ni269  1  0.96913377  0.67537937  0.01316080  1.0
  Ni  Ni270  1  0.04992617  0.30164983  0.14959500  1.0
  Ni  Ni271  1  0.04992617  0.63498317  0.14959500  1.0
  Ni  Ni272  1  0.04992617  0.96831650  0.14959500  1.0
  Ni  Ni273  1  0.38325950  0.30164983  0.14959500  1.0
  Ni  Ni274  1  0.38325950  0.63498317  0.14959500  1.0
  Ni  Ni275  1  0.38325950  0.96831650  0.14959500  1.0
  Ni  Ni276  1  0.71659283  0.30164983  0.14959500  1.0
  Ni  Ni277  1  0.71659283  0.63498317  0.14959500  1.0
  Ni  Ni278  1  0.71659283  0.96831650  0.14959500  1.0
  Ni  Ni279  1  0.18325950  0.06831650  0.04959500  1.0
  Ni  Ni280  1  0.18325950  0.40164983  0.04959500  1.0
  Ni  Ni281  1  0.18325950  0.73498317  0.04959500  1.0
  Ni  Ni282  1  0.51659283  0.06831650  0.04959500  1.0
  Ni  Ni283  1  0.51659283  0.40164983  0.04959500  1.0
  Ni  Ni284  1  0.51659283  0.73498317  0.04959500  1.0
  Ni  Ni285  1  0.84992617  0.06831650  0.04959500  1.0
  Ni  Ni286  1  0.84992617  0.40164983  0.04959500  1.0
  Ni  Ni287  1  0.84992617  0.73498317  0.04959500  1.0
  Ni  Ni288  1  0.25593737  0.31704207  0.18999910  1.0
  Ni  Ni289  1  0.25593737  0.65037540  0.18999910  1.0
  Ni  Ni290  1  0.25593737  0.98370873  0.18999910  1.0
  Ni  Ni291  1  0.58927070  0.31704207  0.18999910  1.0
  Ni  Ni292  1  0.58927070  0.65037540  0.18999910  1.0
  Ni  Ni293  1  0.58927070  0.98370873  0.18999910  1.0
  Ni  Ni294  1  0.92260403  0.31704207  0.18999910  1.0
  Ni  Ni295  1  0.92260403  0.65037540  0.18999910  1.0
  Ni  Ni296  1  0.92260403  0.98370873  0.18999910  1.0
  Ni  Ni297  1  0.05593737  0.08370873  0.08999910  1.0
  Ni  Ni298  1  0.05593737  0.41704207  0.08999910  1.0
  Ni  Ni299  1  0.05593737  0.75037540  0.08999910  1.0
  Ni  Ni300  1  0.38927070  0.08370873  0.08999910  1.0
  Ni  Ni301  1  0.38927070  0.41704207  0.08999910  1.0
  Ni  Ni302  1  0.38927070  0.75037540  0.08999910  1.0
  Ni  Ni303  1  0.72260403  0.08370873  0.08999910  1.0
  Ni  Ni304  1  0.72260403  0.41704207  0.08999910  1.0
  Ni  Ni305  1  0.72260403  0.75037540  0.08999910  1.0
  Ni  Ni306  1  0.05326337  0.25171240  0.08866210  1.0
  Ni  Ni307  1  0.05326337  0.58504573  0.08866210  1.0
  Ni  Ni308  1  0.05326337  0.91837907  0.08866210  1.0
  Ni  Ni309  1  0.38659670  0.25171240  0.08866210  1.0
  Ni  Ni310  1  0.38659670  0.58504573  0.08866210  1.0
  Ni  Ni311  1  0.38659670  0.91837907  0.08866210  1.0
  Ni  Ni312  1  0.71993003  0.25171240  0.08866210  1.0
  Ni  Ni313  1  0.71993003  0.58504573  0.08866210  1.0
  Ni  Ni314  1  0.71993003  0.91837907  0.08866210  1.0
  Ni  Ni315  1  0.25326337  0.15171240  0.18866210  1.0
  Ni  Ni316  1  0.25326337  0.48504573  0.18866210  1.0
  Ni  Ni317  1  0.25326337  0.81837907  0.18866210  1.0
  Ni  Ni318  1  0.58659670  0.15171240  0.18866210  1.0
  Ni  Ni319  1  0.58659670  0.48504573  0.18866210  1.0
  Ni  Ni320  1  0.58659670  0.81837907  0.18866210  1.0
  Ni  Ni321  1  0.91993003  0.15171240  0.18866210  1.0
  Ni  Ni322  1  0.91993003  0.48504573  0.18866210  1.0
  Ni  Ni323  1  0.91993003  0.81837907  0.18866210  1.0
  Ni  Ni324  1  0.03426030  0.19157827  0.17907990  1.0
  Ni  Ni325  1  0.03426030  0.52491160  0.17907990  1.0
  Ni  Ni326  1  0.03426030  0.85824493  0.17907990  1.0
  Ni  Ni327  1  0.36759363  0.19157827  0.17907990  1.0
  Ni  Ni328  1  0.36759363  0.52491160  0.17907990  1.0
  Ni  Ni329  1  0.36759363  0.85824493  0.17907990  1.0
  Ni  Ni330  1  0.70092697  0.19157827  0.17907990  1.0
  Ni  Ni331  1  0.70092697  0.52491160  0.17907990  1.0
  Ni  Ni332  1  0.70092697  0.85824493  0.17907990  1.0
  Ni  Ni333  1  0.16759363  0.29157827  0.07907990  1.0
  Ni  Ni334  1  0.16759363  0.62491160  0.07907990  1.0
  Ni  Ni335  1  0.16759363  0.95824493  0.07907990  1.0
  Ni  Ni336  1  0.50092697  0.29157827  0.07907990  1.0
  Ni  Ni337  1  0.50092697  0.62491160  0.07907990  1.0
  Ni  Ni338  1  0.50092697  0.95824493  0.07907990  1.0
  Ni  Ni339  1  0.83426030  0.29157827  0.07907990  1.0
  Ni  Ni340  1  0.83426030  0.62491160  0.07907990  1.0
  Ni  Ni341  1  0.83426030  0.95824493  0.07907990  1.0
  Ni  Ni342  1  0.03506170  0.02451090  0.17547360  1.0
  Ni  Ni343  1  0.03506170  0.35784423  0.17547360  1.0
  Ni  Ni344  1  0.03506170  0.69117757  0.17547360  1.0
  Ni  Ni345  1  0.36839503  0.02451090  0.17547360  1.0
  Ni  Ni346  1  0.36839503  0.35784423  0.17547360  1.0
  Ni  Ni347  1  0.36839503  0.69117757  0.17547360  1.0
  Ni  Ni348  1  0.70172837  0.02451090  0.17547360  1.0
  Ni  Ni349  1  0.70172837  0.35784423  0.17547360  1.0
  Ni  Ni350  1  0.70172837  0.69117757  0.17547360  1.0
  Ni  Ni351  1  0.16839503  0.12451090  0.07547360  1.0
  Ni  Ni352  1  0.16839503  0.45784423  0.07547360  1.0
  Ni  Ni353  1  0.16839503  0.79117757  0.07547360  1.0
  Ni  Ni354  1  0.50172837  0.12451090  0.07547360  1.0
  Ni  Ni355  1  0.50172837  0.45784423  0.07547360  1.0
  Ni  Ni356  1  0.50172837  0.79117757  0.07547360  1.0
  Ni  Ni357  1  0.83506170  0.12451090  0.07547360  1.0
  Ni  Ni358  1  0.83506170  0.45784423  0.07547360  1.0
  Ni  Ni359  1  0.83506170  0.79117757  0.07547360  1.0
  Ni  Ni360  1  0.29215657  0.01386797  0.27071020  1.0
  Ni  Ni361  1  0.29215657  0.34720130  0.27071020  1.0
  Ni  Ni362  1  0.29215657  0.68053463  0.27071020  1.0
  Ni  Ni363  1  0.62548990  0.01386797  0.27071020  1.0
  Ni  Ni364  1  0.62548990  0.34720130  0.27071020  1.0
  Ni  Ni365  1  0.62548990  0.68053463  0.27071020  1.0
  Ni  Ni366  1  0.95882323  0.01386797  0.27071020  1.0
  Ni  Ni367  1  0.95882323  0.34720130  0.27071020  1.0
  Ni  Ni368  1  0.95882323  0.68053463  0.27071020  1.0
  Ni  Ni369  1  0.15882323  0.24720130  0.37071020  1.0
  Ni  Ni370  1  0.15882323  0.58053463  0.37071020  1.0
  Ni  Ni371  1  0.15882323  0.91386797  0.37071020  1.0
  Ni  Ni372  1  0.49215657  0.24720130  0.37071020  1.0
  Ni  Ni373  1  0.49215657  0.58053463  0.37071020  1.0
  Ni  Ni374  1  0.49215657  0.91386797  0.37071020  1.0
  Ni  Ni375  1  0.82548990  0.24720130  0.37071020  1.0
  Ni  Ni376  1  0.82548990  0.58053463  0.37071020  1.0
  Ni  Ni377  1  0.82548990  0.91386797  0.37071020  1.0
  Ni  Ni378  1  0.04321377  0.08957720  0.34621630  1.0
  Ni  Ni379  1  0.04321377  0.42291053  0.34621630  1.0
  Ni  Ni380  1  0.04321377  0.75624387  0.34621630  1.0
  Ni  Ni381  1  0.37654710  0.08957720  0.34621630  1.0
  Ni  Ni382  1  0.37654710  0.42291053  0.34621630  1.0
  Ni  Ni383  1  0.37654710  0.75624387  0.34621630  1.0
  Ni  Ni384  1  0.70988043  0.08957720  0.34621630  1.0
  Ni  Ni385  1  0.70988043  0.42291053  0.34621630  1.0
  Ni  Ni386  1  0.70988043  0.75624387  0.34621630  1.0
  Ni  Ni387  1  0.17654710  0.18957720  0.24621630  1.0
  Ni  Ni388  1  0.17654710  0.52291053  0.24621630  1.0
  Ni  Ni389  1  0.17654710  0.85624387  0.24621630  1.0
  Ni  Ni390  1  0.50988043  0.18957720  0.24621630  1.0
  Ni  Ni391  1  0.50988043  0.52291053  0.24621630  1.0
  Ni  Ni392  1  0.50988043  0.85624387  0.24621630  1.0
  Ni  Ni393  1  0.84321377  0.18957720  0.24621630  1.0
  Ni  Ni394  1  0.84321377  0.52291053  0.24621630  1.0
  Ni  Ni395  1  0.84321377  0.85624387  0.24621630  1.0
  Ni  Ni396  1  0.17785263  0.11928877  0.31762340  1.0
  Ni  Ni397  1  0.17785263  0.45262210  0.31762340  1.0
  Ni  Ni398  1  0.17785263  0.78595543  0.31762340  1.0
  Ni  Ni399  1  0.51118597  0.11928877  0.31762340  1.0
  Ni  Ni400  1  0.51118597  0.45262210  0.31762340  1.0
  Ni  Ni401  1  0.51118597  0.78595543  0.31762340  1.0
  Ni  Ni402  1  0.84451930  0.11928877  0.31762340  1.0
  Ni  Ni403  1  0.84451930  0.45262210  0.31762340  1.0
  Ni  Ni404  1  0.84451930  0.78595543  0.31762340  1.0
  Ni  Ni405  1  0.31118597  0.21928877  0.21762340  1.0
  Ni  Ni406  1  0.31118597  0.55262210  0.21762340  1.0
  Ni  Ni407  1  0.31118597  0.88595543  0.21762340  1.0
  Ni  Ni408  1  0.64451930  0.21928877  0.21762340  1.0
  Ni  Ni409  1  0.64451930  0.55262210  0.21762340  1.0
  Ni  Ni410  1  0.64451930  0.88595543  0.21762340  1.0
  Ni  Ni411  1  0.97785263  0.21928877  0.21762340  1.0
  Ni  Ni412  1  0.97785263  0.55262210  0.21762340  1.0
  Ni  Ni413  1  0.97785263  0.88595543  0.21762340  1.0
  Ni  Ni414  1  0.09289530  0.23140310  0.20839740  1.0
  Ni  Ni415  1  0.09289530  0.56473643  0.20839740  1.0
  Ni  Ni416  1  0.09289530  0.89806977  0.20839740  1.0
  Ni  Ni417  1  0.42622863  0.23140310  0.20839740  1.0
  Ni  Ni418  1  0.42622863  0.56473643  0.20839740  1.0
  Ni  Ni419  1  0.42622863  0.89806977  0.20839740  1.0
  Ni  Ni420  1  0.75956197  0.23140310  0.20839740  1.0
  Ni  Ni421  1  0.75956197  0.56473643  0.20839740  1.0
  Ni  Ni422  1  0.75956197  0.89806977  0.20839740  1.0
  Ni  Ni423  1  0.29289530  0.13140310  0.30839740  1.0
  Ni  Ni424  1  0.29289530  0.46473643  0.30839740  1.0
  Ni  Ni425  1  0.29289530  0.79806977  0.30839740  1.0
  Ni  Ni426  1  0.62622863  0.13140310  0.30839740  1.0
  Ni  Ni427  1  0.62622863  0.46473643  0.30839740  1.0
  Ni  Ni428  1  0.62622863  0.79806977  0.30839740  1.0
  Ni  Ni429  1  0.95956197  0.13140310  0.30839740  1.0
  Ni  Ni430  1  0.95956197  0.46473643  0.30839740  1.0
  Ni  Ni431  1  0.95956197  0.79806977  0.30839740  1.0
  Ni  Ni432  1  0.01887797  0.03260277  0.33404840  1.0
  Ni  Ni433  1  0.01887797  0.36593610  0.33404840  1.0
  Ni  Ni434  1  0.01887797  0.69926943  0.33404840  1.0
  Ni  Ni435  1  0.35221130  0.03260277  0.33404840  1.0
  Ni  Ni436  1  0.35221130  0.36593610  0.33404840  1.0
  Ni  Ni437  1  0.35221130  0.69926943  0.33404840  1.0
  Ni  Ni438  1  0.68554463  0.03260277  0.33404840  1.0
  Ni  Ni439  1  0.68554463  0.36593610  0.33404840  1.0
  Ni  Ni440  1  0.68554463  0.69926943  0.33404840  1.0
  Ni  Ni441  1  0.15221130  0.13260277  0.23404840  1.0
  Ni  Ni442  1  0.15221130  0.46593610  0.23404840  1.0
  Ni  Ni443  1  0.15221130  0.79926943  0.23404840  1.0
  Ni  Ni444  1  0.48554463  0.13260277  0.23404840  1.0
  Ni  Ni445  1  0.48554463  0.46593610  0.23404840  1.0
  Ni  Ni446  1  0.48554463  0.79926943  0.23404840  1.0
  Ni  Ni447  1  0.81887797  0.13260277  0.23404840  1.0
  Ni  Ni448  1  0.81887797  0.46593610  0.23404840  1.0
  Ni  Ni449  1  0.81887797  0.79926943  0.23404840  1.0
  Ni  Ni450  1  0.09369670  0.06433573  0.20479110  1.0
  Ni  Ni451  1  0.09369670  0.39766907  0.20479110  1.0
  Ni  Ni452  1  0.09369670  0.73100240  0.20479110  1.0
  Ni  Ni453  1  0.42703003  0.06433573  0.20479110  1.0
  Ni  Ni454  1  0.42703003  0.39766907  0.20479110  1.0
  Ni  Ni455  1  0.42703003  0.73100240  0.20479110  1.0
  Ni  Ni456  1  0.76036337  0.06433573  0.20479110  1.0
  Ni  Ni457  1  0.76036337  0.39766907  0.20479110  1.0
  Ni  Ni458  1  0.76036337  0.73100240  0.20479110  1.0
  Ni  Ni459  1  0.29369670  0.29766907  0.30479110  1.0
  Ni  Ni460  1  0.29369670  0.63100240  0.30479110  1.0
  Ni  Ni461  1  0.29369670  0.96433573  0.30479110  1.0
  Ni  Ni462  1  0.62703003  0.29766907  0.30479110  1.0
  Ni  Ni463  1  0.62703003  0.63100240  0.30479110  1.0
  Ni  Ni464  1  0.62703003  0.96433573  0.30479110  1.0
  Ni  Ni465  1  0.96036337  0.29766907  0.30479110  1.0
  Ni  Ni466  1  0.96036337  0.63100240  0.30479110  1.0
  Ni  Ni467  1  0.96036337  0.96433573  0.30479110  1.0
  Ni  Ni468  1  0.07803083  0.28759750  0.23427600  1.0
  Ni  Ni469  1  0.07803083  0.62093083  0.23427600  1.0
  Ni  Ni470  1  0.07803083  0.95426417  0.23427600  1.0
  Ni  Ni471  1  0.41136417  0.28759750  0.23427600  1.0
  Ni  Ni472  1  0.41136417  0.62093083  0.23427600  1.0
  Ni  Ni473  1  0.41136417  0.95426417  0.23427600  1.0
  Ni  Ni474  1  0.74469750  0.28759750  0.23427600  1.0
  Ni  Ni475  1  0.74469750  0.62093083  0.23427600  1.0
  Ni  Ni476  1  0.74469750  0.95426417  0.23427600  1.0
  Ni  Ni477  1  0.27803083  0.18759750  0.33427600  1.0
  Ni  Ni478  1  0.27803083  0.52093083  0.33427600  1.0
  Ni  Ni479  1  0.27803083  0.85426417  0.33427600  1.0
  Ni  Ni480  1  0.61136417  0.18759750  0.33427600  1.0
  Ni  Ni481  1  0.61136417  0.52093083  0.33427600  1.0
  Ni  Ni482  1  0.61136417  0.85426417  0.33427600  1.0
  Ni  Ni483  1  0.94469750  0.18759750  0.33427600  1.0
  Ni  Ni484  1  0.94469750  0.52093083  0.33427600  1.0
  Ni  Ni485  1  0.94469750  0.85426417  0.33427600  1.0
  Ni  Ni486  1  0.21409703  0.00462890  0.36491060  1.0
  Ni  Ni487  1  0.21409703  0.33796223  0.36491060  1.0
  Ni  Ni488  1  0.21409703  0.67129557  0.36491060  1.0
  Ni  Ni489  1  0.54743037  0.00462890  0.36491060  1.0
  Ni  Ni490  1  0.54743037  0.33796223  0.36491060  1.0
  Ni  Ni491  1  0.54743037  0.67129557  0.36491060  1.0
  Ni  Ni492  1  0.88076370  0.00462890  0.36491060  1.0
  Ni  Ni493  1  0.88076370  0.33796223  0.36491060  1.0
  Ni  Ni494  1  0.88076370  0.67129557  0.36491060  1.0
  Ni  Ni495  1  0.01409703  0.10462890  0.26491060  1.0
  Ni  Ni496  1  0.01409703  0.43796223  0.26491060  1.0
  Ni  Ni497  1  0.01409703  0.77129557  0.26491060  1.0
  Ni  Ni498  1  0.34743037  0.10462890  0.26491060  1.0
  Ni  Ni499  1  0.34743037  0.43796223  0.26491060  1.0
  Ni  Ni500  1  0.34743037  0.77129557  0.26491060  1.0
  Ni  Ni501  1  0.68076370  0.10462890  0.26491060  1.0
  Ni  Ni502  1  0.68076370  0.43796223  0.26491060  1.0
  Ni  Ni503  1  0.68076370  0.77129557  0.26491060  1.0
  Ni  Ni504  1  0.15140990  0.29967013  0.23765470  1.0
  Ni  Ni505  1  0.15140990  0.63300347  0.23765470  1.0
  Ni  Ni506  1  0.15140990  0.96633680  0.23765470  1.0
  Ni  Ni507  1  0.48474323  0.29967013  0.23765470  1.0
  Ni  Ni508  1  0.48474323  0.63300347  0.23765470  1.0
  Ni  Ni509  1  0.48474323  0.96633680  0.23765470  1.0
  Ni  Ni510  1  0.81807657  0.29967013  0.23765470  1.0
  Ni  Ni511  1  0.81807657  0.63300347  0.23765470  1.0
  Ni  Ni512  1  0.81807657  0.96633680  0.23765470  1.0
  Ni  Ni513  1  0.01807657  0.19967013  0.33765470  1.0
  Ni  Ni514  1  0.01807657  0.53300347  0.33765470  1.0
  Ni  Ni515  1  0.01807657  0.86633680  0.33765470  1.0
  Ni  Ni516  1  0.35140990  0.19967013  0.33765470  1.0
  Ni  Ni517  1  0.35140990  0.53300347  0.33765470  1.0
  Ni  Ni518  1  0.35140990  0.86633680  0.33765470  1.0
  Ni  Ni519  1  0.68474323  0.19967013  0.33765470  1.0
  Ni  Ni520  1  0.68474323  0.53300347  0.33765470  1.0
  Ni  Ni521  1  0.68474323  0.86633680  0.33765470  1.0
  Ni  Ni522  1  0.17574570  0.02331123  0.24982260  1.0
  Ni  Ni523  1  0.17574570  0.35664457  0.24982260  1.0
  Ni  Ni524  1  0.17574570  0.68997790  0.24982260  1.0
  Ni  Ni525  1  0.50907903  0.02331123  0.24982260  1.0
  Ni  Ni526  1  0.50907903  0.35664457  0.24982260  1.0
  Ni  Ni527  1  0.50907903  0.68997790  0.24982260  1.0
  Ni  Ni528  1  0.84241237  0.02331123  0.24982260  1.0
  Ni  Ni529  1  0.84241237  0.35664457  0.24982260  1.0
  Ni  Ni530  1  0.84241237  0.68997790  0.24982260  1.0
  Ni  Ni531  1  0.04241237  0.25664457  0.34982260  1.0
  Ni  Ni532  1  0.04241237  0.58997790  0.34982260  1.0
  Ni  Ni533  1  0.04241237  0.92331123  0.34982260  1.0
  Ni  Ni534  1  0.37574570  0.25664457  0.34982260  1.0
  Ni  Ni535  1  0.37574570  0.58997790  0.34982260  1.0
  Ni  Ni536  1  0.37574570  0.92331123  0.34982260  1.0
  Ni  Ni537  1  0.70907903  0.25664457  0.34982260  1.0
  Ni  Ni538  1  0.70907903  0.58997790  0.34982260  1.0
  Ni  Ni539  1  0.70907903  0.92331123  0.34982260  1.0
  Ni  Ni540  1  0.27201963  0.07220527  0.39387190  1.0
  Ni  Ni541  1  0.27201963  0.40553860  0.39387190  1.0
  Ni  Ni542  1  0.27201963  0.73887193  0.39387190  1.0
  Ni  Ni543  1  0.60535297  0.07220527  0.39387190  1.0
  Ni  Ni544  1  0.60535297  0.40553860  0.39387190  1.0
  Ni  Ni545  1  0.60535297  0.73887193  0.39387190  1.0
  Ni  Ni546  1  0.93868630  0.07220527  0.39387190  1.0
  Ni  Ni547  1  0.93868630  0.40553860  0.39387190  1.0
  Ni  Ni548  1  0.93868630  0.73887193  0.39387190  1.0
  Ni  Ni549  1  0.07201963  0.17220527  0.29387190  1.0
  Ni  Ni550  1  0.07201963  0.50553860  0.29387190  1.0
  Ni  Ni551  1  0.07201963  0.83887193  0.29387190  1.0
  Ni  Ni552  1  0.40535297  0.17220527  0.29387190  1.0
  Ni  Ni553  1  0.40535297  0.50553860  0.29387190  1.0
  Ni  Ni554  1  0.40535297  0.83887193  0.29387190  1.0
  Ni  Ni555  1  0.73868630  0.17220527  0.29387190  1.0
  Ni  Ni556  1  0.73868630  0.50553860  0.29387190  1.0
  Ni  Ni557  1  0.73868630  0.83887193  0.29387190  1.0
  Ni  Ni558  1  0.31385997  0.05128510  0.21896040  1.0
  Ni  Ni559  1  0.31385997  0.38461843  0.21896040  1.0
  Ni  Ni560  1  0.31385997  0.71795177  0.21896040  1.0
  Ni  Ni561  1  0.64719330  0.05128510  0.21896040  1.0
  Ni  Ni562  1  0.64719330  0.38461843  0.21896040  1.0
  Ni  Ni563  1  0.64719330  0.71795177  0.21896040  1.0
  Ni  Ni564  1  0.98052663  0.05128510  0.21896040  1.0
  Ni  Ni565  1  0.98052663  0.38461843  0.21896040  1.0
  Ni  Ni566  1  0.98052663  0.71795177  0.21896040  1.0
  Ni  Ni567  1  0.18052663  0.28461843  0.31896040  1.0
  Ni  Ni568  1  0.18052663  0.61795177  0.31896040  1.0
  Ni  Ni569  1  0.18052663  0.95128510  0.31896040  1.0
  Ni  Ni570  1  0.51385997  0.28461843  0.31896040  1.0
  Ni  Ni571  1  0.51385997  0.61795177  0.31896040  1.0
  Ni  Ni572  1  0.51385997  0.95128510  0.31896040  1.0
  Ni  Ni573  1  0.84719330  0.28461843  0.31896040  1.0
  Ni  Ni574  1  0.84719330  0.61795177  0.31896040  1.0
  Ni  Ni575  1  0.84719330  0.95128510  0.31896040  1.0
  Ni  Ni576  1  0.01677103  0.26995857  0.26624760  1.0
  Ni  Ni577  1  0.01677103  0.60329190  0.26624760  1.0
  Ni  Ni578  1  0.01677103  0.93662523  0.26624760  1.0
  Ni  Ni579  1  0.35010437  0.26995857  0.26624760  1.0
  Ni  Ni580  1  0.35010437  0.60329190  0.26624760  1.0
  Ni  Ni581  1  0.35010437  0.93662523  0.26624760  1.0
  Ni  Ni582  1  0.68343770  0.26995857  0.26624760  1.0
  Ni  Ni583  1  0.68343770  0.60329190  0.26624760  1.0
  Ni  Ni584  1  0.68343770  0.93662523  0.26624760  1.0
  Ni  Ni585  1  0.21677103  0.16995857  0.36624760  1.0
  Ni  Ni586  1  0.21677103  0.50329190  0.36624760  1.0
  Ni  Ni587  1  0.21677103  0.83662523  0.36624760  1.0
  Ni  Ni588  1  0.55010437  0.16995857  0.36624760  1.0
  Ni  Ni589  1  0.55010437  0.50329190  0.36624760  1.0
  Ni  Ni590  1  0.55010437  0.83662523  0.36624760  1.0
  Ni  Ni591  1  0.88343770  0.16995857  0.36624760  1.0
  Ni  Ni592  1  0.88343770  0.50329190  0.36624760  1.0
  Ni  Ni593  1  0.88343770  0.83662523  0.36624760  1.0
  Ni  Ni594  1  0.07469363  0.00420160  0.29520890  1.0
  Ni  Ni595  1  0.07469363  0.33753493  0.29520890  1.0
  Ni  Ni596  1  0.07469363  0.67086827  0.29520890  1.0
  Ni  Ni597  1  0.40802697  0.00420160  0.29520890  1.0
  Ni  Ni598  1  0.40802697  0.33753493  0.29520890  1.0
  Ni  Ni599  1  0.40802697  0.67086827  0.29520890  1.0
  Ni  Ni600  1  0.74136030  0.00420160  0.29520890  1.0
  Ni  Ni601  1  0.74136030  0.33753493  0.29520890  1.0
  Ni  Ni602  1  0.74136030  0.67086827  0.29520890  1.0
  Ni  Ni603  1  0.27469363  0.23753493  0.39520890  1.0
  Ni  Ni604  1  0.27469363  0.57086827  0.39520890  1.0
  Ni  Ni605  1  0.27469363  0.90420160  0.39520890  1.0
  Ni  Ni606  1  0.60802697  0.23753493  0.39520890  1.0
  Ni  Ni607  1  0.60802697  0.57086827  0.39520890  1.0
  Ni  Ni608  1  0.60802697  0.90420160  0.39520890  1.0
  Ni  Ni609  1  0.94136030  0.23753493  0.39520890  1.0
  Ni  Ni610  1  0.94136030  0.57086827  0.39520890  1.0
  Ni  Ni611  1  0.94136030  0.90420160  0.39520890  1.0
  Ni  Ni612  1  0.23580043  0.04204603  0.31316080  1.0
  Ni  Ni613  1  0.23580043  0.37537937  0.31316080  1.0
  Ni  Ni614  1  0.23580043  0.70871270  0.31316080  1.0
  Ni  Ni615  1  0.56913377  0.04204603  0.31316080  1.0
  Ni  Ni616  1  0.56913377  0.37537937  0.31316080  1.0
  Ni  Ni617  1  0.56913377  0.70871270  0.31316080  1.0
  Ni  Ni618  1  0.90246710  0.04204603  0.31316080  1.0
  Ni  Ni619  1  0.90246710  0.37537937  0.31316080  1.0
  Ni  Ni620  1  0.90246710  0.70871270  0.31316080  1.0
  Ni  Ni621  1  0.03580043  0.14204603  0.21316080  1.0
  Ni  Ni622  1  0.03580043  0.47537937  0.21316080  1.0
  Ni  Ni623  1  0.03580043  0.80871270  0.21316080  1.0
  Ni  Ni624  1  0.36913377  0.14204603  0.21316080  1.0
  Ni  Ni625  1  0.36913377  0.47537937  0.21316080  1.0
  Ni  Ni626  1  0.36913377  0.80871270  0.21316080  1.0
  Ni  Ni627  1  0.70246710  0.14204603  0.21316080  1.0
  Ni  Ni628  1  0.70246710  0.47537937  0.21316080  1.0
  Ni  Ni629  1  0.70246710  0.80871270  0.21316080  1.0
  Ni  Ni630  1  0.11659283  0.10164983  0.34959500  1.0
  Ni  Ni631  1  0.11659283  0.43498317  0.34959500  1.0
  Ni  Ni632  1  0.11659283  0.76831650  0.34959500  1.0
  Ni  Ni633  1  0.44992617  0.10164983  0.34959500  1.0
  Ni  Ni634  1  0.44992617  0.43498317  0.34959500  1.0
  Ni  Ni635  1  0.44992617  0.76831650  0.34959500  1.0
  Ni  Ni636  1  0.78325950  0.10164983  0.34959500  1.0
  Ni  Ni637  1  0.78325950  0.43498317  0.34959500  1.0
  Ni  Ni638  1  0.78325950  0.76831650  0.34959500  1.0
  Ni  Ni639  1  0.24992617  0.20164983  0.24959500  1.0
  Ni  Ni640  1  0.24992617  0.53498317  0.24959500  1.0
  Ni  Ni641  1  0.24992617  0.86831650  0.24959500  1.0
  Ni  Ni642  1  0.58325950  0.20164983  0.24959500  1.0
  Ni  Ni643  1  0.58325950  0.53498317  0.24959500  1.0
  Ni  Ni644  1  0.58325950  0.86831650  0.24959500  1.0
  Ni  Ni645  1  0.91659283  0.20164983  0.24959500  1.0
  Ni  Ni646  1  0.91659283  0.53498317  0.24959500  1.0
  Ni  Ni647  1  0.91659283  0.86831650  0.24959500  1.0
  Ni  Ni648  1  0.32260403  0.11704207  0.38999910  1.0
  Ni  Ni649  1  0.32260403  0.45037540  0.38999910  1.0
  Ni  Ni650  1  0.32260403  0.78370873  0.38999910  1.0
  Ni  Ni651  1  0.65593737  0.11704207  0.38999910  1.0
  Ni  Ni652  1  0.65593737  0.45037540  0.38999910  1.0
  Ni  Ni653  1  0.65593737  0.78370873  0.38999910  1.0
  Ni  Ni654  1  0.98927070  0.11704207  0.38999910  1.0
  Ni  Ni655  1  0.98927070  0.45037540  0.38999910  1.0
  Ni  Ni656  1  0.98927070  0.78370873  0.38999910  1.0
  Ni  Ni657  1  0.12260403  0.21704207  0.28999910  1.0
  Ni  Ni658  1  0.12260403  0.55037540  0.28999910  1.0
  Ni  Ni659  1  0.12260403  0.88370873  0.28999910  1.0
  Ni  Ni660  1  0.45593737  0.21704207  0.28999910  1.0
  Ni  Ni661  1  0.45593737  0.55037540  0.28999910  1.0
  Ni  Ni662  1  0.45593737  0.88370873  0.28999910  1.0
  Ni  Ni663  1  0.78927070  0.21704207  0.28999910  1.0
  Ni  Ni664  1  0.78927070  0.55037540  0.28999910  1.0
  Ni  Ni665  1  0.78927070  0.88370873  0.28999910  1.0
  Ni  Ni666  1  0.11993003  0.05171240  0.28866210  1.0
  Ni  Ni667  1  0.11993003  0.38504573  0.28866210  1.0
  Ni  Ni668  1  0.11993003  0.71837907  0.28866210  1.0
  Ni  Ni669  1  0.45326337  0.05171240  0.28866210  1.0
  Ni  Ni670  1  0.45326337  0.38504573  0.28866210  1.0
  Ni  Ni671  1  0.45326337  0.71837907  0.28866210  1.0
  Ni  Ni672  1  0.78659670  0.05171240  0.28866210  1.0
  Ni  Ni673  1  0.78659670  0.38504573  0.28866210  1.0
  Ni  Ni674  1  0.78659670  0.71837907  0.28866210  1.0
  Ni  Ni675  1  0.31993003  0.28504573  0.38866210  1.0
  Ni  Ni676  1  0.31993003  0.61837907  0.38866210  1.0
  Ni  Ni677  1  0.31993003  0.95171240  0.38866210  1.0
  Ni  Ni678  1  0.65326337  0.28504573  0.38866210  1.0
  Ni  Ni679  1  0.65326337  0.61837907  0.38866210  1.0
  Ni  Ni680  1  0.65326337  0.95171240  0.38866210  1.0
  Ni  Ni681  1  0.98659670  0.28504573  0.38866210  1.0
  Ni  Ni682  1  0.98659670  0.61837907  0.38866210  1.0
  Ni  Ni683  1  0.98659670  0.95171240  0.38866210  1.0
  Ni  Ni684  1  0.10092697  0.32491160  0.37907990  1.0
  Ni  Ni685  1  0.10092697  0.65824493  0.37907990  1.0
  Ni  Ni686  1  0.10092697  0.99157827  0.37907990  1.0
  Ni  Ni687  1  0.43426030  0.32491160  0.37907990  1.0
  Ni  Ni688  1  0.43426030  0.65824493  0.37907990  1.0
  Ni  Ni689  1  0.43426030  0.99157827  0.37907990  1.0
  Ni  Ni690  1  0.76759363  0.32491160  0.37907990  1.0
  Ni  Ni691  1  0.76759363  0.65824493  0.37907990  1.0
  Ni  Ni692  1  0.76759363  0.99157827  0.37907990  1.0
  Ni  Ni693  1  0.23426030  0.09157827  0.27907990  1.0
  Ni  Ni694  1  0.23426030  0.42491160  0.27907990  1.0
  Ni  Ni695  1  0.23426030  0.75824493  0.27907990  1.0
  Ni  Ni696  1  0.56759363  0.09157827  0.27907990  1.0
  Ni  Ni697  1  0.56759363  0.42491160  0.27907990  1.0
  Ni  Ni698  1  0.56759363  0.75824493  0.27907990  1.0
  Ni  Ni699  1  0.90092697  0.09157827  0.27907990  1.0
  Ni  Ni700  1  0.90092697  0.42491160  0.27907990  1.0
  Ni  Ni701  1  0.90092697  0.75824493  0.27907990  1.0
  Ni  Ni702  1  0.10172837  0.15784423  0.37547360  1.0
  Ni  Ni703  1  0.10172837  0.49117757  0.37547360  1.0
  Ni  Ni704  1  0.10172837  0.82451090  0.37547360  1.0
  Ni  Ni705  1  0.43506170  0.15784423  0.37547360  1.0
  Ni  Ni706  1  0.43506170  0.49117757  0.37547360  1.0
  Ni  Ni707  1  0.43506170  0.82451090  0.37547360  1.0
  Ni  Ni708  1  0.76839503  0.15784423  0.37547360  1.0
  Ni  Ni709  1  0.76839503  0.49117757  0.37547360  1.0
  Ni  Ni710  1  0.76839503  0.82451090  0.37547360  1.0
  Ni  Ni711  1  0.23506170  0.25784423  0.27547360  1.0
  Ni  Ni712  1  0.23506170  0.59117757  0.27547360  1.0
  Ni  Ni713  1  0.23506170  0.92451090  0.27547360  1.0
  Ni  Ni714  1  0.56839503  0.25784423  0.27547360  1.0
  Ni  Ni715  1  0.56839503  0.59117757  0.27547360  1.0
  Ni  Ni716  1  0.56839503  0.92451090  0.27547360  1.0
  Ni  Ni717  1  0.90172837  0.25784423  0.27547360  1.0
  Ni  Ni718  1  0.90172837  0.59117757  0.27547360  1.0
  Ni  Ni719  1  0.90172837  0.92451090  0.27547360  1.0
  Zr  Zr720  1  0.02568210  0.08327787  0.17278730  1.0
  Zr  Zr721  1  0.02568210  0.41661120  0.17278730  1.0
  Zr  Zr722  1  0.02568210  0.74994453  0.17278730  1.0
  Zr  Zr723  1  0.35901543  0.08327787  0.17278730  1.0
  Zr  Zr724  1  0.35901543  0.41661120  0.17278730  1.0
  Zr  Zr725  1  0.35901543  0.74994453  0.17278730  1.0
  Zr  Zr726  1  0.69234877  0.08327787  0.17278730  1.0
  Zr  Zr727  1  0.69234877  0.41661120  0.17278730  1.0
  Zr  Zr728  1  0.69234877  0.74994453  0.17278730  1.0
  Zr  Zr729  1  0.15901543  0.18327787  0.07278730  1.0
  Zr  Zr730  1  0.15901543  0.51661120  0.07278730  1.0
  Zr  Zr731  1  0.15901543  0.84994453  0.07278730  1.0
  Zr  Zr732  1  0.49234877  0.18327787  0.07278730  1.0
  Zr  Zr733  1  0.49234877  0.51661120  0.07278730  1.0
  Zr  Zr734  1  0.49234877  0.84994453  0.07278730  1.0
  Zr  Zr735  1  0.82568210  0.18327787  0.07278730  1.0
  Zr  Zr736  1  0.82568210  0.51661120  0.07278730  1.0
  Zr  Zr737  1  0.82568210  0.84994453  0.07278730  1.0
  Zr  Zr738  1  0.02568210  0.24994453  0.17278730  1.0
  Zr  Zr739  1  0.02568210  0.58327787  0.17278730  1.0
  Zr  Zr740  1  0.02568210  0.91661120  0.17278730  1.0
  Zr  Zr741  1  0.35901543  0.24994453  0.17278730  1.0
  Zr  Zr742  1  0.35901543  0.58327787  0.17278730  1.0
  Zr  Zr743  1  0.35901543  0.91661120  0.17278730  1.0
  Zr  Zr744  1  0.69234877  0.24994453  0.17278730  1.0
  Zr  Zr745  1  0.69234877  0.58327787  0.17278730  1.0
  Zr  Zr746  1  0.69234877  0.91661120  0.17278730  1.0
  Zr  Zr747  1  0.15901543  0.01661120  0.07278730  1.0
  Zr  Zr748  1  0.15901543  0.34994453  0.07278730  1.0
  Zr  Zr749  1  0.15901543  0.68327787  0.07278730  1.0
  Zr  Zr750  1  0.49234877  0.01661120  0.07278730  1.0
  Zr  Zr751  1  0.49234877  0.34994453  0.07278730  1.0
  Zr  Zr752  1  0.49234877  0.68327787  0.07278730  1.0
  Zr  Zr753  1  0.82568210  0.01661120  0.07278730  1.0
  Zr  Zr754  1  0.82568210  0.34994453  0.07278730  1.0
  Zr  Zr755  1  0.82568210  0.68327787  0.07278730  1.0
  Zr  Zr756  1  0.11399030  0.26961777  0.15442940  1.0
  Zr  Zr757  1  0.11399030  0.60295110  0.15442940  1.0
  Zr  Zr758  1  0.11399030  0.93628443  0.15442940  1.0
  Zr  Zr759  1  0.44732363  0.26961777  0.15442940  1.0
  Zr  Zr760  1  0.44732363  0.60295110  0.15442940  1.0
  Zr  Zr761  1  0.44732363  0.93628443  0.15442940  1.0
  Zr  Zr762  1  0.78065697  0.26961777  0.15442940  1.0
  Zr  Zr763  1  0.78065697  0.60295110  0.15442940  1.0
  Zr  Zr764  1  0.78065697  0.93628443  0.15442940  1.0
  Zr  Zr765  1  0.24732363  0.03628443  0.05442940  1.0
  Zr  Zr766  1  0.24732363  0.36961777  0.05442940  1.0
  Zr  Zr767  1  0.24732363  0.70295110  0.05442940  1.0
  Zr  Zr768  1  0.58065697  0.03628443  0.05442940  1.0
  Zr  Zr769  1  0.58065697  0.36961777  0.05442940  1.0
  Zr  Zr770  1  0.58065697  0.70295110  0.05442940  1.0
  Zr  Zr771  1  0.91399030  0.03628443  0.05442940  1.0
  Zr  Zr772  1  0.91399030  0.36961777  0.05442940  1.0
  Zr  Zr773  1  0.91399030  0.70295110  0.05442940  1.0
  Zr  Zr774  1  0.28063337  0.18629623  0.02944160  1.0
  Zr  Zr775  1  0.28063337  0.51962957  0.02944160  1.0
  Zr  Zr776  1  0.28063337  0.85296290  0.02944160  1.0
  Zr  Zr777  1  0.61396670  0.18629623  0.02944160  1.0
  Zr  Zr778  1  0.61396670  0.51962957  0.02944160  1.0
  Zr  Zr779  1  0.61396670  0.85296290  0.02944160  1.0
  Zr  Zr780  1  0.94730003  0.18629623  0.02944160  1.0
  Zr  Zr781  1  0.94730003  0.51962957  0.02944160  1.0
  Zr  Zr782  1  0.94730003  0.85296290  0.02944160  1.0
  Zr  Zr783  1  0.14730003  0.08629623  0.12944160  1.0
  Zr  Zr784  1  0.14730003  0.41962957  0.12944160  1.0
  Zr  Zr785  1  0.14730003  0.75296290  0.12944160  1.0
  Zr  Zr786  1  0.48063337  0.08629623  0.12944160  1.0
  Zr  Zr787  1  0.48063337  0.41962957  0.12944160  1.0
  Zr  Zr788  1  0.48063337  0.75296290  0.12944160  1.0
  Zr  Zr789  1  0.81396670  0.08629623  0.12944160  1.0
  Zr  Zr790  1  0.81396670  0.41962957  0.12944160  1.0
  Zr  Zr791  1  0.81396670  0.75296290  0.12944160  1.0
  Zr  Zr792  1  0.23560823  0.27263613  0.11108370  1.0
  Zr  Zr793  1  0.23560823  0.60596947  0.11108370  1.0
  Zr  Zr794  1  0.23560823  0.93930280  0.11108370  1.0
  Zr  Zr795  1  0.56894157  0.27263613  0.11108370  1.0
  Zr  Zr796  1  0.56894157  0.60596947  0.11108370  1.0
  Zr  Zr797  1  0.56894157  0.93930280  0.11108370  1.0
  Zr  Zr798  1  0.90227490  0.27263613  0.11108370  1.0
  Zr  Zr799  1  0.90227490  0.60596947  0.11108370  1.0
  Zr  Zr800  1  0.90227490  0.93930280  0.11108370  1.0
  Zr  Zr801  1  0.03560823  0.03930280  0.01108370  1.0
  Zr  Zr802  1  0.03560823  0.37263613  0.01108370  1.0
  Zr  Zr803  1  0.03560823  0.70596947  0.01108370  1.0
  Zr  Zr804  1  0.36894157  0.03930280  0.01108370  1.0
  Zr  Zr805  1  0.36894157  0.37263613  0.01108370  1.0
  Zr  Zr806  1  0.36894157  0.70596947  0.01108370  1.0
  Zr  Zr807  1  0.70227490  0.03930280  0.01108370  1.0
  Zr  Zr808  1  0.70227490  0.37263613  0.01108370  1.0
  Zr  Zr809  1  0.70227490  0.70596947  0.01108370  1.0
  Zr  Zr810  1  0.18053523  0.31967863  0.16743020  1.0
  Zr  Zr811  1  0.18053523  0.65301197  0.16743020  1.0
  Zr  Zr812  1  0.18053523  0.98634530  0.16743020  1.0
  Zr  Zr813  1  0.51386857  0.31967863  0.16743020  1.0
  Zr  Zr814  1  0.51386857  0.65301197  0.16743020  1.0
  Zr  Zr815  1  0.51386857  0.98634530  0.16743020  1.0
  Zr  Zr816  1  0.84720190  0.31967863  0.16743020  1.0
  Zr  Zr817  1  0.84720190  0.65301197  0.16743020  1.0
  Zr  Zr818  1  0.84720190  0.98634530  0.16743020  1.0
  Zr  Zr819  1  0.31386857  0.08634530  0.06743020  1.0
  Zr  Zr820  1  0.31386857  0.41967863  0.06743020  1.0
  Zr  Zr821  1  0.31386857  0.75301197  0.06743020  1.0
  Zr  Zr822  1  0.64720190  0.08634530  0.06743020  1.0
  Zr  Zr823  1  0.64720190  0.41967863  0.06743020  1.0
  Zr  Zr824  1  0.64720190  0.75301197  0.06743020  1.0
  Zr  Zr825  1  0.98053523  0.08634530  0.06743020  1.0
  Zr  Zr826  1  0.98053523  0.41967863  0.06743020  1.0
  Zr  Zr827  1  0.98053523  0.75301197  0.06743020  1.0
  Zr  Zr828  1  0.21408843  0.13623537  0.01644080  1.0
  Zr  Zr829  1  0.21408843  0.46956870  0.01644080  1.0
  Zr  Zr830  1  0.21408843  0.80290203  0.01644080  1.0
  Zr  Zr831  1  0.54742177  0.13623537  0.01644080  1.0
  Zr  Zr832  1  0.54742177  0.46956870  0.01644080  1.0
  Zr  Zr833  1  0.54742177  0.80290203  0.01644080  1.0
  Zr  Zr834  1  0.88075510  0.13623537  0.01644080  1.0
  Zr  Zr835  1  0.88075510  0.46956870  0.01644080  1.0
  Zr  Zr836  1  0.88075510  0.80290203  0.01644080  1.0
  Zr  Zr837  1  0.08075510  0.03623537  0.11644080  1.0
  Zr  Zr838  1  0.08075510  0.36956870  0.11644080  1.0
  Zr  Zr839  1  0.08075510  0.70290203  0.11644080  1.0
  Zr  Zr840  1  0.41408843  0.03623537  0.11644080  1.0
  Zr  Zr841  1  0.41408843  0.36956870  0.11644080  1.0
  Zr  Zr842  1  0.41408843  0.70290203  0.11644080  1.0
  Zr  Zr843  1  0.74742177  0.03623537  0.11644080  1.0
  Zr  Zr844  1  0.74742177  0.36956870  0.11644080  1.0
  Zr  Zr845  1  0.74742177  0.70290203  0.11644080  1.0
  Zr  Zr846  1  0.03897150  0.14046050  0.11692000  1.0
  Zr  Zr847  1  0.03897150  0.47379383  0.11692000  1.0
  Zr  Zr848  1  0.03897150  0.80712717  0.11692000  1.0
  Zr  Zr849  1  0.37230483  0.14046050  0.11692000  1.0
  Zr  Zr850  1  0.37230483  0.47379383  0.11692000  1.0
  Zr  Zr851  1  0.37230483  0.80712717  0.11692000  1.0
  Zr  Zr852  1  0.70563817  0.14046050  0.11692000  1.0
  Zr  Zr853  1  0.70563817  0.47379383  0.11692000  1.0
  Zr  Zr854  1  0.70563817  0.80712717  0.11692000  1.0
  Zr  Zr855  1  0.17230483  0.24046050  0.01692000  1.0
  Zr  Zr856  1  0.17230483  0.57379383  0.01692000  1.0
  Zr  Zr857  1  0.17230483  0.90712717  0.01692000  1.0
  Zr  Zr858  1  0.50563817  0.24046050  0.01692000  1.0
  Zr  Zr859  1  0.50563817  0.57379383  0.01692000  1.0
  Zr  Zr860  1  0.50563817  0.90712717  0.01692000  1.0
  Zr  Zr861  1  0.83897150  0.24046050  0.01692000  1.0
  Zr  Zr862  1  0.83897150  0.57379383  0.01692000  1.0
  Zr  Zr863  1  0.83897150  0.90712717  0.01692000  1.0
  Zr  Zr864  1  0.29731183  0.01129033  0.14193550  1.0
  Zr  Zr865  1  0.29731183  0.34462367  0.14193550  1.0
  Zr  Zr866  1  0.29731183  0.67795700  0.14193550  1.0
  Zr  Zr867  1  0.63064517  0.01129033  0.14193550  1.0
  Zr  Zr868  1  0.63064517  0.34462367  0.14193550  1.0
  Zr  Zr869  1  0.63064517  0.67795700  0.14193550  1.0
  Zr  Zr870  1  0.96397850  0.01129033  0.14193550  1.0
  Zr  Zr871  1  0.96397850  0.34462367  0.14193550  1.0
  Zr  Zr872  1  0.96397850  0.67795700  0.14193550  1.0
  Zr  Zr873  1  0.09731183  0.11129033  0.04193550  1.0
  Zr  Zr874  1  0.09731183  0.44462367  0.04193550  1.0
  Zr  Zr875  1  0.09731183  0.77795700  0.04193550  1.0
  Zr  Zr876  1  0.43064517  0.11129033  0.04193550  1.0
  Zr  Zr877  1  0.43064517  0.44462367  0.04193550  1.0
  Zr  Zr878  1  0.43064517  0.77795700  0.04193550  1.0
  Zr  Zr879  1  0.76397850  0.11129033  0.04193550  1.0
  Zr  Zr880  1  0.76397850  0.44462367  0.04193550  1.0
  Zr  Zr881  1  0.76397850  0.77795700  0.04193550  1.0
  Zr  Zr882  1  0.31408843  0.25290203  0.06644080  1.0
  Zr  Zr883  1  0.31408843  0.58623537  0.06644080  1.0
  Zr  Zr884  1  0.31408843  0.91956870  0.06644080  1.0
  Zr  Zr885  1  0.64742177  0.25290203  0.06644080  1.0
  Zr  Zr886  1  0.64742177  0.58623537  0.06644080  1.0
  Zr  Zr887  1  0.64742177  0.91956870  0.06644080  1.0
  Zr  Zr888  1  0.98075510  0.25290203  0.06644080  1.0
  Zr  Zr889  1  0.98075510  0.58623537  0.06644080  1.0
  Zr  Zr890  1  0.98075510  0.91956870  0.06644080  1.0
  Zr  Zr891  1  0.18075510  0.15290203  0.16644080  1.0
  Zr  Zr892  1  0.18075510  0.48623537  0.16644080  1.0
  Zr  Zr893  1  0.18075510  0.81956870  0.16644080  1.0
  Zr  Zr894  1  0.51408843  0.15290203  0.16644080  1.0
  Zr  Zr895  1  0.51408843  0.48623537  0.16644080  1.0
  Zr  Zr896  1  0.51408843  0.81956870  0.16644080  1.0
  Zr  Zr897  1  0.84742177  0.15290203  0.16644080  1.0
  Zr  Zr898  1  0.84742177  0.48623537  0.16644080  1.0
  Zr  Zr899  1  0.84742177  0.81956870  0.16644080  1.0
  Zr  Zr900  1  0.03560823  0.20596947  0.01108370  1.0
  Zr  Zr901  1  0.03560823  0.53930280  0.01108370  1.0
  Zr  Zr902  1  0.03560823  0.87263613  0.01108370  1.0
  Zr  Zr903  1  0.36894157  0.20596947  0.01108370  1.0
  Zr  Zr904  1  0.36894157  0.53930280  0.01108370  1.0
  Zr  Zr905  1  0.36894157  0.87263613  0.01108370  1.0
  Zr  Zr906  1  0.70227490  0.20596947  0.01108370  1.0
  Zr  Zr907  1  0.70227490  0.53930280  0.01108370  1.0
  Zr  Zr908  1  0.70227490  0.87263613  0.01108370  1.0
  Zr  Zr909  1  0.23560823  0.10596947  0.11108370  1.0
  Zr  Zr910  1  0.23560823  0.43930280  0.11108370  1.0
  Zr  Zr911  1  0.23560823  0.77263613  0.11108370  1.0
  Zr  Zr912  1  0.56894157  0.10596947  0.11108370  1.0
  Zr  Zr913  1  0.56894157  0.43930280  0.11108370  1.0
  Zr  Zr914  1  0.56894157  0.77263613  0.11108370  1.0
  Zr  Zr915  1  0.90227490  0.10596947  0.11108370  1.0
  Zr  Zr916  1  0.90227490  0.43930280  0.11108370  1.0
  Zr  Zr917  1  0.90227490  0.77263613  0.11108370  1.0
  Zr  Zr918  1  0.08053523  0.20301197  0.11743020  1.0
  Zr  Zr919  1  0.08053523  0.53634530  0.11743020  1.0
  Zr  Zr920  1  0.08053523  0.86967863  0.11743020  1.0
  Zr  Zr921  1  0.41386857  0.20301197  0.11743020  1.0
  Zr  Zr922  1  0.41386857  0.53634530  0.11743020  1.0
  Zr  Zr923  1  0.41386857  0.86967863  0.11743020  1.0
  Zr  Zr924  1  0.74720190  0.20301197  0.11743020  1.0
  Zr  Zr925  1  0.74720190  0.53634530  0.11743020  1.0
  Zr  Zr926  1  0.74720190  0.86967863  0.11743020  1.0
  Zr  Zr927  1  0.21386857  0.30301197  0.01743020  1.0
  Zr  Zr928  1  0.21386857  0.63634530  0.01743020  1.0
  Zr  Zr929  1  0.21386857  0.96967863  0.01743020  1.0
  Zr  Zr930  1  0.54720190  0.30301197  0.01743020  1.0
  Zr  Zr931  1  0.54720190  0.63634530  0.01743020  1.0
  Zr  Zr932  1  0.54720190  0.96967863  0.01743020  1.0
  Zr  Zr933  1  0.88053523  0.30301197  0.01743020  1.0
  Zr  Zr934  1  0.88053523  0.63634530  0.01743020  1.0
  Zr  Zr935  1  0.88053523  0.96967863  0.01743020  1.0
  Zr  Zr936  1  0.02231883  0.31545350  0.06695100  1.0
  Zr  Zr937  1  0.02231883  0.64878683  0.06695100  1.0
  Zr  Zr938  1  0.02231883  0.98212017  0.06695100  1.0
  Zr  Zr939  1  0.35565217  0.31545350  0.06695100  1.0
  Zr  Zr940  1  0.35565217  0.64878683  0.06695100  1.0
  Zr  Zr941  1  0.35565217  0.98212017  0.06695100  1.0
  Zr  Zr942  1  0.68898550  0.31545350  0.06695100  1.0
  Zr  Zr943  1  0.68898550  0.64878683  0.06695100  1.0
  Zr  Zr944  1  0.68898550  0.98212017  0.06695100  1.0
  Zr  Zr945  1  0.22231883  0.21545350  0.16695100  1.0
  Zr  Zr946  1  0.22231883  0.54878683  0.16695100  1.0
  Zr  Zr947  1  0.22231883  0.88212017  0.16695100  1.0
  Zr  Zr948  1  0.55565217  0.21545350  0.16695100  1.0
  Zr  Zr949  1  0.55565217  0.54878683  0.16695100  1.0
  Zr  Zr950  1  0.55565217  0.88212017  0.16695100  1.0
  Zr  Zr951  1  0.88898550  0.21545350  0.16695100  1.0
  Zr  Zr952  1  0.88898550  0.54878683  0.16695100  1.0
  Zr  Zr953  1  0.88898550  0.88212017  0.16695100  1.0
  Zr  Zr954  1  0.09731183  0.27795700  0.04193550  1.0
  Zr  Zr955  1  0.09731183  0.61129033  0.04193550  1.0
  Zr  Zr956  1  0.09731183  0.94462367  0.04193550  1.0
  Zr  Zr957  1  0.43064517  0.27795700  0.04193550  1.0
  Zr  Zr958  1  0.43064517  0.61129033  0.04193550  1.0
  Zr  Zr959  1  0.43064517  0.94462367  0.04193550  1.0
  Zr  Zr960  1  0.76397850  0.27795700  0.04193550  1.0
  Zr  Zr961  1  0.76397850  0.61129033  0.04193550  1.0
  Zr  Zr962  1  0.76397850  0.94462367  0.04193550  1.0
  Zr  Zr963  1  0.29731183  0.17795700  0.14193550  1.0
  Zr  Zr964  1  0.29731183  0.51129033  0.14193550  1.0
  Zr  Zr965  1  0.29731183  0.84462367  0.14193550  1.0
  Zr  Zr966  1  0.63064517  0.17795700  0.14193550  1.0
  Zr  Zr967  1  0.63064517  0.51129033  0.14193550  1.0
  Zr  Zr968  1  0.63064517  0.84462367  0.14193550  1.0
  Zr  Zr969  1  0.96397850  0.17795700  0.14193550  1.0
  Zr  Zr970  1  0.96397850  0.51129033  0.14193550  1.0
  Zr  Zr971  1  0.96397850  0.84462367  0.14193550  1.0
  Zr  Zr972  1  0.09234877  0.21661120  0.37278730  1.0
  Zr  Zr973  1  0.09234877  0.54994453  0.37278730  1.0
  Zr  Zr974  1  0.09234877  0.88327787  0.37278730  1.0
  Zr  Zr975  1  0.42568210  0.21661120  0.37278730  1.0
  Zr  Zr976  1  0.42568210  0.54994453  0.37278730  1.0
  Zr  Zr977  1  0.42568210  0.88327787  0.37278730  1.0
  Zr  Zr978  1  0.75901543  0.21661120  0.37278730  1.0
  Zr  Zr979  1  0.75901543  0.54994453  0.37278730  1.0
  Zr  Zr980  1  0.75901543  0.88327787  0.37278730  1.0
  Zr  Zr981  1  0.22568210  0.31661120  0.27278730  1.0
  Zr  Zr982  1  0.22568210  0.64994453  0.27278730  1.0
  Zr  Zr983  1  0.22568210  0.98327787  0.27278730  1.0
  Zr  Zr984  1  0.55901543  0.31661120  0.27278730  1.0
  Zr  Zr985  1  0.55901543  0.64994453  0.27278730  1.0
  Zr  Zr986  1  0.55901543  0.98327787  0.27278730  1.0
  Zr  Zr987  1  0.89234877  0.31661120  0.27278730  1.0
  Zr  Zr988  1  0.89234877  0.64994453  0.27278730  1.0
  Zr  Zr989  1  0.89234877  0.98327787  0.27278730  1.0
  Zr  Zr990  1  0.09234877  0.04994453  0.37278730  1.0
  Zr  Zr991  1  0.09234877  0.38327787  0.37278730  1.0
  Zr  Zr992  1  0.09234877  0.71661120  0.37278730  1.0
  Zr  Zr993  1  0.42568210  0.04994453  0.37278730  1.0
  Zr  Zr994  1  0.42568210  0.38327787  0.37278730  1.0
  Zr  Zr995  1  0.42568210  0.71661120  0.37278730  1.0
  Zr  Zr996  1  0.75901543  0.04994453  0.37278730  1.0
  Zr  Zr997  1  0.75901543  0.38327787  0.37278730  1.0
  Zr  Zr998  1  0.75901543  0.71661120  0.37278730  1.0
  Zr  Zr999  1  0.22568210  0.14994453  0.27278730  1.0
  Zr  Zr1000  1  0.22568210  0.48327787  0.27278730  1.0
  Zr  Zr1001  1  0.22568210  0.81661120  0.27278730  1.0
  Zr  Zr1002  1  0.55901543  0.14994453  0.27278730  1.0
  Zr  Zr1003  1  0.55901543  0.48327787  0.27278730  1.0
  Zr  Zr1004  1  0.55901543  0.81661120  0.27278730  1.0
  Zr  Zr1005  1  0.89234877  0.14994453  0.27278730  1.0
  Zr  Zr1006  1  0.89234877  0.48327787  0.27278730  1.0
  Zr  Zr1007  1  0.89234877  0.81661120  0.27278730  1.0
  Zr  Zr1008  1  0.18065697  0.06961777  0.35442940  1.0
  Zr  Zr1009  1  0.18065697  0.40295110  0.35442940  1.0
  Zr  Zr1010  1  0.18065697  0.73628443  0.35442940  1.0
  Zr  Zr1011  1  0.51399030  0.06961777  0.35442940  1.0
  Zr  Zr1012  1  0.51399030  0.40295110  0.35442940  1.0
  Zr  Zr1013  1  0.51399030  0.73628443  0.35442940  1.0
  Zr  Zr1014  1  0.84732363  0.06961777  0.35442940  1.0
  Zr  Zr1015  1  0.84732363  0.40295110  0.35442940  1.0
  Zr  Zr1016  1  0.84732363  0.73628443  0.35442940  1.0
  Zr  Zr1017  1  0.31399030  0.16961777  0.25442940  1.0
  Zr  Zr1018  1  0.31399030  0.50295110  0.25442940  1.0
  Zr  Zr1019  1  0.31399030  0.83628443  0.25442940  1.0
  Zr  Zr1020  1  0.64732363  0.16961777  0.25442940  1.0
  Zr  Zr1021  1  0.64732363  0.50295110  0.25442940  1.0
  Zr  Zr1022  1  0.64732363  0.83628443  0.25442940  1.0
  Zr  Zr1023  1  0.98065697  0.16961777  0.25442940  1.0
  Zr  Zr1024  1  0.98065697  0.50295110  0.25442940  1.0
  Zr  Zr1025  1  0.98065697  0.83628443  0.25442940  1.0
  Zr  Zr1026  1  0.01396670  0.31962957  0.22944160  1.0
  Zr  Zr1027  1  0.01396670  0.65296290  0.22944160  1.0
  Zr  Zr1028  1  0.01396670  0.98629623  0.22944160  1.0
  Zr  Zr1029  1  0.34730003  0.31962957  0.22944160  1.0
  Zr  Zr1030  1  0.34730003  0.65296290  0.22944160  1.0
  Zr  Zr1031  1  0.34730003  0.98629623  0.22944160  1.0
  Zr  Zr1032  1  0.68063337  0.31962957  0.22944160  1.0
  Zr  Zr1033  1  0.68063337  0.65296290  0.22944160  1.0
  Zr  Zr1034  1  0.68063337  0.98629623  0.22944160  1.0
  Zr  Zr1035  1  0.21396670  0.21962957  0.32944160  1.0
  Zr  Zr1036  1  0.21396670  0.55296290  0.32944160  1.0
  Zr  Zr1037  1  0.21396670  0.88629623  0.32944160  1.0
  Zr  Zr1038  1  0.54730003  0.21962957  0.32944160  1.0
  Zr  Zr1039  1  0.54730003  0.55296290  0.32944160  1.0
  Zr  Zr1040  1  0.54730003  0.88629623  0.32944160  1.0
  Zr  Zr1041  1  0.88063337  0.21962957  0.32944160  1.0
  Zr  Zr1042  1  0.88063337  0.55296290  0.32944160  1.0
  Zr  Zr1043  1  0.88063337  0.88629623  0.32944160  1.0
  Zr  Zr1044  1  0.30227490  0.07263613  0.31108370  1.0
  Zr  Zr1045  1  0.30227490  0.40596947  0.31108370  1.0
  Zr  Zr1046  1  0.30227490  0.73930280  0.31108370  1.0
  Zr  Zr1047  1  0.63560823  0.07263613  0.31108370  1.0
  Zr  Zr1048  1  0.63560823  0.40596947  0.31108370  1.0
  Zr  Zr1049  1  0.63560823  0.73930280  0.31108370  1.0
  Zr  Zr1050  1  0.96894157  0.07263613  0.31108370  1.0
  Zr  Zr1051  1  0.96894157  0.40596947  0.31108370  1.0
  Zr  Zr1052  1  0.96894157  0.73930280  0.31108370  1.0
  Zr  Zr1053  1  0.10227490  0.17263613  0.21108370  1.0
  Zr  Zr1054  1  0.10227490  0.50596947  0.21108370  1.0
  Zr  Zr1055  1  0.10227490  0.83930280  0.21108370  1.0
  Zr  Zr1056  1  0.43560823  0.17263613  0.21108370  1.0
  Zr  Zr1057  1  0.43560823  0.50596947  0.21108370  1.0
  Zr  Zr1058  1  0.43560823  0.83930280  0.21108370  1.0
  Zr  Zr1059  1  0.76894157  0.17263613  0.21108370  1.0
  Zr  Zr1060  1  0.76894157  0.50596947  0.21108370  1.0
  Zr  Zr1061  1  0.76894157  0.83930280  0.21108370  1.0
  Zr  Zr1062  1  0.24720190  0.11967863  0.36743020  1.0
  Zr  Zr1063  1  0.24720190  0.45301197  0.36743020  1.0
  Zr  Zr1064  1  0.24720190  0.78634530  0.36743020  1.0
  Zr  Zr1065  1  0.58053523  0.11967863  0.36743020  1.0
  Zr  Zr1066  1  0.58053523  0.45301197  0.36743020  1.0
  Zr  Zr1067  1  0.58053523  0.78634530  0.36743020  1.0
  Zr  Zr1068  1  0.91386857  0.11967863  0.36743020  1.0
  Zr  Zr1069  1  0.91386857  0.45301197  0.36743020  1.0
  Zr  Zr1070  1  0.91386857  0.78634530  0.36743020  1.0
  Zr  Zr1071  1  0.04720190  0.21967863  0.26743020  1.0
  Zr  Zr1072  1  0.04720190  0.55301197  0.26743020  1.0
  Zr  Zr1073  1  0.04720190  0.88634530  0.26743020  1.0
  Zr  Zr1074  1  0.38053523  0.21967863  0.26743020  1.0
  Zr  Zr1075  1  0.38053523  0.55301197  0.26743020  1.0
  Zr  Zr1076  1  0.38053523  0.88634530  0.26743020  1.0
  Zr  Zr1077  1  0.71386857  0.21967863  0.26743020  1.0
  Zr  Zr1078  1  0.71386857  0.55301197  0.26743020  1.0
  Zr  Zr1079  1  0.71386857  0.88634530  0.26743020  1.0
  Zr  Zr1080  1  0.28075510  0.26956870  0.21644080  1.0
  Zr  Zr1081  1  0.28075510  0.60290203  0.21644080  1.0
  Zr  Zr1082  1  0.28075510  0.93623537  0.21644080  1.0
  Zr  Zr1083  1  0.61408843  0.26956870  0.21644080  1.0
  Zr  Zr1084  1  0.61408843  0.60290203  0.21644080  1.0
  Zr  Zr1085  1  0.61408843  0.93623537  0.21644080  1.0
  Zr  Zr1086  1  0.94742177  0.26956870  0.21644080  1.0
  Zr  Zr1087  1  0.94742177  0.60290203  0.21644080  1.0
  Zr  Zr1088  1  0.94742177  0.93623537  0.21644080  1.0
  Zr  Zr1089  1  0.14742177  0.16956870  0.31644080  1.0
  Zr  Zr1090  1  0.14742177  0.50290203  0.31644080  1.0
  Zr  Zr1091  1  0.14742177  0.83623537  0.31644080  1.0
  Zr  Zr1092  1  0.48075510  0.16956870  0.31644080  1.0
  Zr  Zr1093  1  0.48075510  0.50290203  0.31644080  1.0
  Zr  Zr1094  1  0.48075510  0.83623537  0.31644080  1.0
  Zr  Zr1095  1  0.81408843  0.16956870  0.31644080  1.0
  Zr  Zr1096  1  0.81408843  0.50290203  0.31644080  1.0
  Zr  Zr1097  1  0.81408843  0.83623537  0.31644080  1.0
  Zr  Zr1098  1  0.10563817  0.27379383  0.31692000  1.0
  Zr  Zr1099  1  0.10563817  0.60712717  0.31692000  1.0
  Zr  Zr1100  1  0.10563817  0.94046050  0.31692000  1.0
  Zr  Zr1101  1  0.43897150  0.27379383  0.31692000  1.0
  Zr  Zr1102  1  0.43897150  0.60712717  0.31692000  1.0
  Zr  Zr1103  1  0.43897150  0.94046050  0.31692000  1.0
  Zr  Zr1104  1  0.77230483  0.27379383  0.31692000  1.0
  Zr  Zr1105  1  0.77230483  0.60712717  0.31692000  1.0
  Zr  Zr1106  1  0.77230483  0.94046050  0.31692000  1.0
  Zr  Zr1107  1  0.23897150  0.04046050  0.21692000  1.0
  Zr  Zr1108  1  0.23897150  0.37379383  0.21692000  1.0
  Zr  Zr1109  1  0.23897150  0.70712717  0.21692000  1.0
  Zr  Zr1110  1  0.57230483  0.04046050  0.21692000  1.0
  Zr  Zr1111  1  0.57230483  0.37379383  0.21692000  1.0
  Zr  Zr1112  1  0.57230483  0.70712717  0.21692000  1.0
  Zr  Zr1113  1  0.90563817  0.04046050  0.21692000  1.0
  Zr  Zr1114  1  0.90563817  0.37379383  0.21692000  1.0
  Zr  Zr1115  1  0.90563817  0.70712717  0.21692000  1.0
  Zr  Zr1116  1  0.03064517  0.14462367  0.34193550  1.0
  Zr  Zr1117  1  0.03064517  0.47795700  0.34193550  1.0
  Zr  Zr1118  1  0.03064517  0.81129033  0.34193550  1.0
  Zr  Zr1119  1  0.36397850  0.14462367  0.34193550  1.0
  Zr  Zr1120  1  0.36397850  0.47795700  0.34193550  1.0
  Zr  Zr1121  1  0.36397850  0.81129033  0.34193550  1.0
  Zr  Zr1122  1  0.69731183  0.14462367  0.34193550  1.0
  Zr  Zr1123  1  0.69731183  0.47795700  0.34193550  1.0
  Zr  Zr1124  1  0.69731183  0.81129033  0.34193550  1.0
  Zr  Zr1125  1  0.16397850  0.24462367  0.24193550  1.0
  Zr  Zr1126  1  0.16397850  0.57795700  0.24193550  1.0
  Zr  Zr1127  1  0.16397850  0.91129033  0.24193550  1.0
  Zr  Zr1128  1  0.49731183  0.24462367  0.24193550  1.0
  Zr  Zr1129  1  0.49731183  0.57795700  0.24193550  1.0
  Zr  Zr1130  1  0.49731183  0.91129033  0.24193550  1.0
  Zr  Zr1131  1  0.83064517  0.24462367  0.24193550  1.0
  Zr  Zr1132  1  0.83064517  0.57795700  0.24193550  1.0
  Zr  Zr1133  1  0.83064517  0.91129033  0.24193550  1.0
  Zr  Zr1134  1  0.04742177  0.05290203  0.26644080  1.0
  Zr  Zr1135  1  0.04742177  0.38623537  0.26644080  1.0
  Zr  Zr1136  1  0.04742177  0.71956870  0.26644080  1.0
  Zr  Zr1137  1  0.38075510  0.05290203  0.26644080  1.0
  Zr  Zr1138  1  0.38075510  0.38623537  0.26644080  1.0
  Zr  Zr1139  1  0.38075510  0.71956870  0.26644080  1.0
  Zr  Zr1140  1  0.71408843  0.05290203  0.26644080  1.0
  Zr  Zr1141  1  0.71408843  0.38623537  0.26644080  1.0
  Zr  Zr1142  1  0.71408843  0.71956870  0.26644080  1.0
  Zr  Zr1143  1  0.24742177  0.28623537  0.36644080  1.0
  Zr  Zr1144  1  0.24742177  0.61956870  0.36644080  1.0
  Zr  Zr1145  1  0.24742177  0.95290203  0.36644080  1.0
  Zr  Zr1146  1  0.58075510  0.28623537  0.36644080  1.0
  Zr  Zr1147  1  0.58075510  0.61956870  0.36644080  1.0
  Zr  Zr1148  1  0.58075510  0.95290203  0.36644080  1.0
  Zr  Zr1149  1  0.91408843  0.28623537  0.36644080  1.0
  Zr  Zr1150  1  0.91408843  0.61956870  0.36644080  1.0
  Zr  Zr1151  1  0.91408843  0.95290203  0.36644080  1.0
  Zr  Zr1152  1  0.10227490  0.00596947  0.21108370  1.0
  Zr  Zr1153  1  0.10227490  0.33930280  0.21108370  1.0
  Zr  Zr1154  1  0.10227490  0.67263613  0.21108370  1.0
  Zr  Zr1155  1  0.43560823  0.00596947  0.21108370  1.0
  Zr  Zr1156  1  0.43560823  0.33930280  0.21108370  1.0
  Zr  Zr1157  1  0.43560823  0.67263613  0.21108370  1.0
  Zr  Zr1158  1  0.76894157  0.00596947  0.21108370  1.0
  Zr  Zr1159  1  0.76894157  0.33930280  0.21108370  1.0
  Zr  Zr1160  1  0.76894157  0.67263613  0.21108370  1.0
  Zr  Zr1161  1  0.30227490  0.23930280  0.31108370  1.0
  Zr  Zr1162  1  0.30227490  0.57263613  0.31108370  1.0
  Zr  Zr1163  1  0.30227490  0.90596947  0.31108370  1.0
  Zr  Zr1164  1  0.63560823  0.23930280  0.31108370  1.0
  Zr  Zr1165  1  0.63560823  0.57263613  0.31108370  1.0
  Zr  Zr1166  1  0.63560823  0.90596947  0.31108370  1.0
  Zr  Zr1167  1  0.96894157  0.23930280  0.31108370  1.0
  Zr  Zr1168  1  0.96894157  0.57263613  0.31108370  1.0
  Zr  Zr1169  1  0.96894157  0.90596947  0.31108370  1.0
  Zr  Zr1170  1  0.14720190  0.00301197  0.31743020  1.0
  Zr  Zr1171  1  0.14720190  0.33634530  0.31743020  1.0
  Zr  Zr1172  1  0.14720190  0.66967863  0.31743020  1.0
  Zr  Zr1173  1  0.48053523  0.00301197  0.31743020  1.0
  Zr  Zr1174  1  0.48053523  0.33634530  0.31743020  1.0
  Zr  Zr1175  1  0.48053523  0.66967863  0.31743020  1.0
  Zr  Zr1176  1  0.81386857  0.00301197  0.31743020  1.0
  Zr  Zr1177  1  0.81386857  0.33634530  0.31743020  1.0
  Zr  Zr1178  1  0.81386857  0.66967863  0.31743020  1.0
  Zr  Zr1179  1  0.28053523  0.10301197  0.21743020  1.0
  Zr  Zr1180  1  0.28053523  0.43634530  0.21743020  1.0
  Zr  Zr1181  1  0.28053523  0.76967863  0.21743020  1.0
  Zr  Zr1182  1  0.61386857  0.10301197  0.21743020  1.0
  Zr  Zr1183  1  0.61386857  0.43634530  0.21743020  1.0
  Zr  Zr1184  1  0.61386857  0.76967863  0.21743020  1.0
  Zr  Zr1185  1  0.94720190  0.10301197  0.21743020  1.0
  Zr  Zr1186  1  0.94720190  0.43634530  0.21743020  1.0
  Zr  Zr1187  1  0.94720190  0.76967863  0.21743020  1.0
  Zr  Zr1188  1  0.08898550  0.11545350  0.26695100  1.0
  Zr  Zr1189  1  0.08898550  0.44878683  0.26695100  1.0
  Zr  Zr1190  1  0.08898550  0.78212017  0.26695100  1.0
  Zr  Zr1191  1  0.42231883  0.11545350  0.26695100  1.0
  Zr  Zr1192  1  0.42231883  0.44878683  0.26695100  1.0
  Zr  Zr1193  1  0.42231883  0.78212017  0.26695100  1.0
  Zr  Zr1194  1  0.75565217  0.11545350  0.26695100  1.0
  Zr  Zr1195  1  0.75565217  0.44878683  0.26695100  1.0
  Zr  Zr1196  1  0.75565217  0.78212017  0.26695100  1.0
  Zr  Zr1197  1  0.28898550  0.01545350  0.36695100  1.0
  Zr  Zr1198  1  0.28898550  0.34878683  0.36695100  1.0
  Zr  Zr1199  1  0.28898550  0.68212017  0.36695100  1.0
  Zr  Zr1200  1  0.62231883  0.01545350  0.36695100  1.0
  Zr  Zr1201  1  0.62231883  0.34878683  0.36695100  1.0
  Zr  Zr1202  1  0.62231883  0.68212017  0.36695100  1.0
  Zr  Zr1203  1  0.95565217  0.01545350  0.36695100  1.0
  Zr  Zr1204  1  0.95565217  0.34878683  0.36695100  1.0
  Zr  Zr1205  1  0.95565217  0.68212017  0.36695100  1.0
  Zr  Zr1206  1  0.16397850  0.07795700  0.24193550  1.0
  Zr  Zr1207  1  0.16397850  0.41129033  0.24193550  1.0
  Zr  Zr1208  1  0.16397850  0.74462367  0.24193550  1.0
  Zr  Zr1209  1  0.49731183  0.07795700  0.24193550  1.0
  Zr  Zr1210  1  0.49731183  0.41129033  0.24193550  1.0
  Zr  Zr1211  1  0.49731183  0.74462367  0.24193550  1.0
  Zr  Zr1212  1  0.83064517  0.07795700  0.24193550  1.0
  Zr  Zr1213  1  0.83064517  0.41129033  0.24193550  1.0
  Zr  Zr1214  1  0.83064517  0.74462367  0.24193550  1.0
  Zr  Zr1215  1  0.03064517  0.31129033  0.34193550  1.0
  Zr  Zr1216  1  0.03064517  0.64462367  0.34193550  1.0
  Zr  Zr1217  1  0.03064517  0.97795700  0.34193550  1.0
  Zr  Zr1218  1  0.36397850  0.31129033  0.34193550  1.0
  Zr  Zr1219  1  0.36397850  0.64462367  0.34193550  1.0
  Zr  Zr1220  1  0.36397850  0.97795700  0.34193550  1.0
  Zr  Zr1221  1  0.69731183  0.31129033  0.34193550  1.0
  Zr  Zr1222  1  0.69731183  0.64462367  0.34193550  1.0
  Zr  Zr1223  1  0.69731183  0.97795700  0.34193550  1.0
