# generated using pymatgen
data_Zr7Ni10
_symmetry_space_group_name_H-M   'P 1'
_cell_length_a   27.43948500
_cell_length_b   46.12386806
_cell_length_c   45.67017500
_cell_angle_alpha   126.44836842
_cell_angle_beta   90.00000000
_cell_angle_gamma   90.00000000
_symmetry_Int_Tables_number   1
_chemical_formula_structural   Zr7Ni10
_chemical_formula_sum   'Zr504 Ni720'
_cell_volume   46494.58700668
_cell_formula_units_Z   72
loop_
 _symmetry_equiv_pos_site_id
 _symmetry_equiv_pos_as_xyz
  1  'x, y, z'
loop_
 _atom_site_type_symbol
 _atom_site_label
 _atom_site_symmetry_multiplicity
 _atom_site_fract_x
 _atom_site_fract_y
 _atom_site_fract_z
 _atom_site_occupancy
  Zr  Zr0  1  0.27130900  0.16565300  0.13009700  1.0
  Zr  Zr1  1  0.27130900  0.49898633  0.13009700  1.0
  Zr  Zr2  1  0.27130900  0.83231967  0.13009700  1.0
  Zr  Zr3  1  0.60464233  0.16565300  0.13009700  1.0
  Zr  Zr4  1  0.60464233  0.49898633  0.13009700  1.0
  Zr  Zr5  1  0.60464233  0.83231967  0.13009700  1.0
  Zr  Zr6  1  0.93797567  0.16565300  0.13009700  1.0
  Zr  Zr7  1  0.93797567  0.49898633  0.13009700  1.0
  Zr  Zr8  1  0.93797567  0.83231967  0.13009700  1.0
  Zr  Zr9  1  0.16703200  0.23043300  0.03181340  1.0
  Zr  Zr10  1  0.16703200  0.56376633  0.03181340  1.0
  Zr  Zr11  1  0.16703200  0.89709967  0.03181340  1.0
  Zr  Zr12  1  0.50036533  0.23043300  0.03181340  1.0
  Zr  Zr13  1  0.50036533  0.56376633  0.03181340  1.0
  Zr  Zr14  1  0.50036533  0.89709967  0.03181340  1.0
  Zr  Zr15  1  0.83369867  0.23043300  0.03181340  1.0
  Zr  Zr16  1  0.83369867  0.56376633  0.03181340  1.0
  Zr  Zr17  1  0.83369867  0.89709967  0.03181340  1.0
  Zr  Zr18  1  0.16666667  0.16666667  0.09359200  1.0
  Zr  Zr19  1  0.16666667  0.50000000  0.09359200  1.0
  Zr  Zr20  1  0.16666667  0.83333333  0.09359200  1.0
  Zr  Zr21  1  0.50000000  0.16666667  0.09359200  1.0
  Zr  Zr22  1  0.50000000  0.50000000  0.09359200  1.0
  Zr  Zr23  1  0.50000000  0.83333333  0.09359200  1.0
  Zr  Zr24  1  0.83333333  0.16666667  0.09359200  1.0
  Zr  Zr25  1  0.83333333  0.50000000  0.09359200  1.0
  Zr  Zr26  1  0.83333333  0.83333333  0.09359200  1.0
  Zr  Zr27  1  0.10464233  0.16565300  0.15587060  1.0
  Zr  Zr28  1  0.10464233  0.49898633  0.15587060  1.0
  Zr  Zr29  1  0.10464233  0.83231967  0.15587060  1.0
  Zr  Zr30  1  0.43797567  0.16565300  0.15587060  1.0
  Zr  Zr31  1  0.43797567  0.49898633  0.15587060  1.0
  Zr  Zr32  1  0.43797567  0.83231967  0.15587060  1.0
  Zr  Zr33  1  0.77130900  0.16565300  0.15587060  1.0
  Zr  Zr34  1  0.77130900  0.49898633  0.15587060  1.0
  Zr  Zr35  1  0.77130900  0.83231967  0.15587060  1.0
  Zr  Zr36  1  0.00036533  0.26956700  0.05537060  1.0
  Zr  Zr37  1  0.00036533  0.60290033  0.05537060  1.0
  Zr  Zr38  1  0.00036533  0.93623367  0.05537060  1.0
  Zr  Zr39  1  0.33369867  0.26956700  0.05537060  1.0
  Zr  Zr40  1  0.33369867  0.60290033  0.05537060  1.0
  Zr  Zr41  1  0.33369867  0.93623367  0.05537060  1.0
  Zr  Zr42  1  0.66703200  0.26956700  0.05537060  1.0
  Zr  Zr43  1  0.66703200  0.60290033  0.05537060  1.0
  Zr  Zr44  1  0.66703200  0.93623367  0.05537060  1.0
  Zr  Zr45  1  0.22869100  0.33231967  0.03009700  1.0
  Zr  Zr46  1  0.22869100  0.66565300  0.03009700  1.0
  Zr  Zr47  1  0.22869100  0.99898633  0.03009700  1.0
  Zr  Zr48  1  0.56202433  0.33231967  0.03009700  1.0
  Zr  Zr49  1  0.56202433  0.66565300  0.03009700  1.0
  Zr  Zr50  1  0.56202433  0.99898633  0.03009700  1.0
  Zr  Zr51  1  0.89535767  0.33231967  0.03009700  1.0
  Zr  Zr52  1  0.89535767  0.66565300  0.03009700  1.0
  Zr  Zr53  1  0.89535767  0.99898633  0.03009700  1.0
  Zr  Zr54  1  0.08295600  0.24876200  0.19336780  1.0
  Zr  Zr55  1  0.08295600  0.58209533  0.19336780  1.0
  Zr  Zr56  1  0.08295600  0.91542867  0.19336780  1.0
  Zr  Zr57  1  0.41628933  0.24876200  0.19336780  1.0
  Zr  Zr58  1  0.41628933  0.58209533  0.19336780  1.0
  Zr  Zr59  1  0.41628933  0.91542867  0.19336780  1.0
  Zr  Zr60  1  0.74962267  0.24876200  0.19336780  1.0
  Zr  Zr61  1  0.74962267  0.58209533  0.19336780  1.0
  Zr  Zr62  1  0.74962267  0.91542867  0.19336780  1.0
  Zr  Zr63  1  0.33296800  0.06376633  0.13181340  1.0
  Zr  Zr64  1  0.33296800  0.39709967  0.13181340  1.0
  Zr  Zr65  1  0.33296800  0.73043300  0.13181340  1.0
  Zr  Zr66  1  0.66630133  0.06376633  0.13181340  1.0
  Zr  Zr67  1  0.66630133  0.39709967  0.13181340  1.0
  Zr  Zr68  1  0.66630133  0.73043300  0.13181340  1.0
  Zr  Zr69  1  0.99963467  0.06376633  0.13181340  1.0
  Zr  Zr70  1  0.99963467  0.39709967  0.13181340  1.0
  Zr  Zr71  1  0.99963467  0.73043300  0.13181340  1.0
  Zr  Zr72  1  0.08371067  0.08457133  0.19485340  1.0
  Zr  Zr73  1  0.08371067  0.41790467  0.19485340  1.0
  Zr  Zr74  1  0.08371067  0.75123800  0.19485340  1.0
  Zr  Zr75  1  0.41704400  0.08457133  0.19485340  1.0
  Zr  Zr76  1  0.41704400  0.41790467  0.19485340  1.0
  Zr  Zr77  1  0.41704400  0.75123800  0.19485340  1.0
  Zr  Zr78  1  0.75037733  0.08457133  0.19485340  1.0
  Zr  Zr79  1  0.75037733  0.41790467  0.19485340  1.0
  Zr  Zr80  1  0.75037733  0.75123800  0.19485340  1.0
  Zr  Zr81  1  0.10464233  0.00101367  0.15708700  1.0
  Zr  Zr82  1  0.10464233  0.33434700  0.15708700  1.0
  Zr  Zr83  1  0.10464233  0.66768033  0.15708700  1.0
  Zr  Zr84  1  0.43797567  0.00101367  0.15708700  1.0
  Zr  Zr85  1  0.43797567  0.33434700  0.15708700  1.0
  Zr  Zr86  1  0.43797567  0.66768033  0.15708700  1.0
  Zr  Zr87  1  0.77130900  0.00101367  0.15708700  1.0
  Zr  Zr88  1  0.77130900  0.33434700  0.15708700  1.0
  Zr  Zr89  1  0.77130900  0.66768033  0.15708700  1.0
  Zr  Zr90  1  0.22869100  0.16768033  0.03131340  1.0
  Zr  Zr91  1  0.22869100  0.50101367  0.03131340  1.0
  Zr  Zr92  1  0.22869100  0.83434700  0.03131340  1.0
  Zr  Zr93  1  0.56202433  0.16768033  0.03131340  1.0
  Zr  Zr94  1  0.56202433  0.50101367  0.03131340  1.0
  Zr  Zr95  1  0.56202433  0.83434700  0.03131340  1.0
  Zr  Zr96  1  0.89535767  0.16768033  0.03131340  1.0
  Zr  Zr97  1  0.89535767  0.50101367  0.03131340  1.0
  Zr  Zr98  1  0.89535767  0.83434700  0.03131340  1.0
  Zr  Zr99  1  0.16630133  0.10290033  0.15537060  1.0
  Zr  Zr100  1  0.16630133  0.43623367  0.15537060  1.0
  Zr  Zr101  1  0.16630133  0.76956700  0.15537060  1.0
  Zr  Zr102  1  0.49963467  0.10290033  0.15537060  1.0
  Zr  Zr103  1  0.49963467  0.43623367  0.15537060  1.0
  Zr  Zr104  1  0.49963467  0.76956700  0.15537060  1.0
  Zr  Zr105  1  0.83296800  0.10290033  0.15537060  1.0
  Zr  Zr106  1  0.83296800  0.43623367  0.15537060  1.0
  Zr  Zr107  1  0.83296800  0.76956700  0.15537060  1.0
  Zr  Zr108  1  0.27130900  0.00101367  0.13131340  1.0
  Zr  Zr109  1  0.27130900  0.33434700  0.13131340  1.0
  Zr  Zr110  1  0.27130900  0.66768033  0.13131340  1.0
  Zr  Zr111  1  0.60464233  0.00101367  0.13131340  1.0
  Zr  Zr112  1  0.60464233  0.33434700  0.13131340  1.0
  Zr  Zr113  1  0.60464233  0.66768033  0.13131340  1.0
  Zr  Zr114  1  0.93797567  0.00101367  0.13131340  1.0
  Zr  Zr115  1  0.93797567  0.33434700  0.13131340  1.0
  Zr  Zr116  1  0.93797567  0.66768033  0.13131340  1.0
  Zr  Zr117  1  0.06202433  0.16768033  0.05708700  1.0
  Zr  Zr118  1  0.06202433  0.50101367  0.05708700  1.0
  Zr  Zr119  1  0.06202433  0.83434700  0.05708700  1.0
  Zr  Zr120  1  0.39535767  0.16768033  0.05708700  1.0
  Zr  Zr121  1  0.39535767  0.50101367  0.05708700  1.0
  Zr  Zr122  1  0.39535767  0.83434700  0.05708700  1.0
  Zr  Zr123  1  0.72869100  0.16768033  0.05708700  1.0
  Zr  Zr124  1  0.72869100  0.50101367  0.05708700  1.0
  Zr  Zr125  1  0.72869100  0.83434700  0.05708700  1.0
  Zr  Zr126  1  0.16703200  0.26956700  0.15529380  1.0
  Zr  Zr127  1  0.16703200  0.60290033  0.15529380  1.0
  Zr  Zr128  1  0.16703200  0.93623367  0.15529380  1.0
  Zr  Zr129  1  0.50036533  0.26956700  0.15529380  1.0
  Zr  Zr130  1  0.50036533  0.60290033  0.15529380  1.0
  Zr  Zr131  1  0.50036533  0.93623367  0.15529380  1.0
  Zr  Zr132  1  0.83369867  0.26956700  0.15529380  1.0
  Zr  Zr133  1  0.83369867  0.60290033  0.15529380  1.0
  Zr  Zr134  1  0.83369867  0.93623367  0.15529380  1.0
  Zr  Zr135  1  0.06202433  0.33231967  0.05587060  1.0
  Zr  Zr136  1  0.06202433  0.66565300  0.05587060  1.0
  Zr  Zr137  1  0.06202433  0.99898633  0.05587060  1.0
  Zr  Zr138  1  0.39535767  0.33231967  0.05587060  1.0
  Zr  Zr139  1  0.39535767  0.66565300  0.05587060  1.0
  Zr  Zr140  1  0.39535767  0.99898633  0.05587060  1.0
  Zr  Zr141  1  0.72869100  0.33231967  0.05587060  1.0
  Zr  Zr142  1  0.72869100  0.66565300  0.05587060  1.0
  Zr  Zr143  1  0.72869100  0.99898633  0.05587060  1.0
  Zr  Zr144  1  0.00000000  0.00000000  0.19359200  1.0
  Zr  Zr145  1  0.00000000  0.33333333  0.19359200  1.0
  Zr  Zr146  1  0.00000000  0.66666667  0.19359200  1.0
  Zr  Zr147  1  0.33333333  0.00000000  0.19359200  1.0
  Zr  Zr148  1  0.33333333  0.33333333  0.19359200  1.0
  Zr  Zr149  1  0.33333333  0.66666667  0.19359200  1.0
  Zr  Zr150  1  0.66666667  0.00000000  0.19359200  1.0
  Zr  Zr151  1  0.66666667  0.33333333  0.19359200  1.0
  Zr  Zr152  1  0.66666667  0.66666667  0.19359200  1.0
  Zr  Zr153  1  0.24962267  0.24876200  0.19233060  1.0
  Zr  Zr154  1  0.24962267  0.58209533  0.19233060  1.0
  Zr  Zr155  1  0.24962267  0.91542867  0.19233060  1.0
  Zr  Zr156  1  0.58295600  0.24876200  0.19233060  1.0
  Zr  Zr157  1  0.58295600  0.58209533  0.19233060  1.0
  Zr  Zr158  1  0.58295600  0.91542867  0.19233060  1.0
  Zr  Zr159  1  0.91628933  0.24876200  0.19233060  1.0
  Zr  Zr160  1  0.91628933  0.58209533  0.19233060  1.0
  Zr  Zr161  1  0.91628933  0.91542867  0.19233060  1.0
  Zr  Zr162  1  0.25037733  0.08209533  0.09233060  1.0
  Zr  Zr163  1  0.25037733  0.41542867  0.09233060  1.0
  Zr  Zr164  1  0.25037733  0.74876200  0.09233060  1.0
  Zr  Zr165  1  0.58371067  0.08209533  0.09233060  1.0
  Zr  Zr166  1  0.58371067  0.41542867  0.09233060  1.0
  Zr  Zr167  1  0.58371067  0.74876200  0.09233060  1.0
  Zr  Zr168  1  0.91704400  0.08209533  0.09233060  1.0
  Zr  Zr169  1  0.91704400  0.41542867  0.09233060  1.0
  Zr  Zr170  1  0.91704400  0.74876200  0.09233060  1.0
  Zr  Zr171  1  0.08295600  0.25123800  0.09485340  1.0
  Zr  Zr172  1  0.08295600  0.58457133  0.09485340  1.0
  Zr  Zr173  1  0.08295600  0.91790467  0.09485340  1.0
  Zr  Zr174  1  0.41628933  0.25123800  0.09485340  1.0
  Zr  Zr175  1  0.41628933  0.58457133  0.09485340  1.0
  Zr  Zr176  1  0.41628933  0.91790467  0.09485340  1.0
  Zr  Zr177  1  0.74962267  0.25123800  0.09485340  1.0
  Zr  Zr178  1  0.74962267  0.58457133  0.09485340  1.0
  Zr  Zr179  1  0.74962267  0.91790467  0.09485340  1.0
  Zr  Zr180  1  0.33296800  0.10290033  0.05529380  1.0
  Zr  Zr181  1  0.33296800  0.43623367  0.05529380  1.0
  Zr  Zr182  1  0.33296800  0.76956700  0.05529380  1.0
  Zr  Zr183  1  0.66630133  0.10290033  0.05529380  1.0
  Zr  Zr184  1  0.66630133  0.43623367  0.05529380  1.0
  Zr  Zr185  1  0.66630133  0.76956700  0.05529380  1.0
  Zr  Zr186  1  0.99963467  0.10290033  0.05529380  1.0
  Zr  Zr187  1  0.99963467  0.43623367  0.05529380  1.0
  Zr  Zr188  1  0.99963467  0.76956700  0.05529380  1.0
  Zr  Zr189  1  0.00000000  0.16666667  0.19359200  1.0
  Zr  Zr190  1  0.00000000  0.50000000  0.19359200  1.0
  Zr  Zr191  1  0.00000000  0.83333333  0.19359200  1.0
  Zr  Zr192  1  0.33333333  0.16666667  0.19359200  1.0
  Zr  Zr193  1  0.33333333  0.50000000  0.19359200  1.0
  Zr  Zr194  1  0.33333333  0.83333333  0.19359200  1.0
  Zr  Zr195  1  0.66666667  0.16666667  0.19359200  1.0
  Zr  Zr196  1  0.66666667  0.50000000  0.19359200  1.0
  Zr  Zr197  1  0.66666667  0.83333333  0.19359200  1.0
  Zr  Zr198  1  0.24962267  0.25123800  0.09381620  1.0
  Zr  Zr199  1  0.24962267  0.58457133  0.09381620  1.0
  Zr  Zr200  1  0.24962267  0.91790467  0.09381620  1.0
  Zr  Zr201  1  0.58295600  0.25123800  0.09381620  1.0
  Zr  Zr202  1  0.58295600  0.58457133  0.09381620  1.0
  Zr  Zr203  1  0.58295600  0.91790467  0.09381620  1.0
  Zr  Zr204  1  0.91628933  0.25123800  0.09381620  1.0
  Zr  Zr205  1  0.91628933  0.58457133  0.09381620  1.0
  Zr  Zr206  1  0.91628933  0.91790467  0.09381620  1.0
  Zr  Zr207  1  0.25037733  0.08457133  0.19381620  1.0
  Zr  Zr208  1  0.25037733  0.41790467  0.19381620  1.0
  Zr  Zr209  1  0.25037733  0.75123800  0.19381620  1.0
  Zr  Zr210  1  0.58371067  0.08457133  0.19381620  1.0
  Zr  Zr211  1  0.58371067  0.41790467  0.19381620  1.0
  Zr  Zr212  1  0.58371067  0.75123800  0.19381620  1.0
  Zr  Zr213  1  0.91704400  0.08457133  0.19381620  1.0
  Zr  Zr214  1  0.91704400  0.41790467  0.19381620  1.0
  Zr  Zr215  1  0.91704400  0.75123800  0.19381620  1.0
  Zr  Zr216  1  0.08371067  0.08209533  0.09336780  1.0
  Zr  Zr217  1  0.08371067  0.41542867  0.09336780  1.0
  Zr  Zr218  1  0.08371067  0.74876200  0.09336780  1.0
  Zr  Zr219  1  0.41704400  0.08209533  0.09336780  1.0
  Zr  Zr220  1  0.41704400  0.41542867  0.09336780  1.0
  Zr  Zr221  1  0.41704400  0.74876200  0.09336780  1.0
  Zr  Zr222  1  0.75037733  0.08209533  0.09336780  1.0
  Zr  Zr223  1  0.75037733  0.41542867  0.09336780  1.0
  Zr  Zr224  1  0.75037733  0.74876200  0.09336780  1.0
  Zr  Zr225  1  0.00036533  0.23043300  0.13189020  1.0
  Zr  Zr226  1  0.00036533  0.56376633  0.13189020  1.0
  Zr  Zr227  1  0.00036533  0.89709967  0.13189020  1.0
  Zr  Zr228  1  0.33369867  0.23043300  0.13189020  1.0
  Zr  Zr229  1  0.33369867  0.56376633  0.13189020  1.0
  Zr  Zr230  1  0.33369867  0.89709967  0.13189020  1.0
  Zr  Zr231  1  0.66703200  0.23043300  0.13189020  1.0
  Zr  Zr232  1  0.66703200  0.56376633  0.13189020  1.0
  Zr  Zr233  1  0.66703200  0.89709967  0.13189020  1.0
  Zr  Zr234  1  0.16666667  0.00000000  0.09359200  1.0
  Zr  Zr235  1  0.16666667  0.33333333  0.09359200  1.0
  Zr  Zr236  1  0.16666667  0.66666667  0.09359200  1.0
  Zr  Zr237  1  0.50000000  0.00000000  0.09359200  1.0
  Zr  Zr238  1  0.50000000  0.33333333  0.09359200  1.0
  Zr  Zr239  1  0.50000000  0.66666667  0.09359200  1.0
  Zr  Zr240  1  0.83333333  0.00000000  0.09359200  1.0
  Zr  Zr241  1  0.83333333  0.33333333  0.09359200  1.0
  Zr  Zr242  1  0.83333333  0.66666667  0.09359200  1.0
  Zr  Zr243  1  0.16630133  0.06376633  0.03189020  1.0
  Zr  Zr244  1  0.16630133  0.39709967  0.03189020  1.0
  Zr  Zr245  1  0.16630133  0.73043300  0.03189020  1.0
  Zr  Zr246  1  0.49963467  0.06376633  0.03189020  1.0
  Zr  Zr247  1  0.49963467  0.39709967  0.03189020  1.0
  Zr  Zr248  1  0.49963467  0.73043300  0.03189020  1.0
  Zr  Zr249  1  0.83296800  0.06376633  0.03189020  1.0
  Zr  Zr250  1  0.83296800  0.39709967  0.03189020  1.0
  Zr  Zr251  1  0.83296800  0.73043300  0.03189020  1.0
  Ni  Ni252  1  0.26453167  0.21580967  0.02197340  1.0
  Ni  Ni253  1  0.26453167  0.54914300  0.02197340  1.0
  Ni  Ni254  1  0.26453167  0.88247633  0.02197340  1.0
  Ni  Ni255  1  0.59786500  0.21580967  0.02197340  1.0
  Ni  Ni256  1  0.59786500  0.54914300  0.02197340  1.0
  Ni  Ni257  1  0.59786500  0.88247633  0.02197340  1.0
  Ni  Ni258  1  0.93119833  0.21580967  0.02197340  1.0
  Ni  Ni259  1  0.93119833  0.54914300  0.02197340  1.0
  Ni  Ni260  1  0.93119833  0.88247633  0.02197340  1.0
  Ni  Ni261  1  0.03504433  0.33274400  0.11452200  1.0
  Ni  Ni262  1  0.03504433  0.66607733  0.11452200  1.0
  Ni  Ni263  1  0.03504433  0.99941067  0.11452200  1.0
  Ni  Ni264  1  0.36837767  0.33274400  0.11452200  1.0
  Ni  Ni265  1  0.36837767  0.66607733  0.11452200  1.0
  Ni  Ni266  1  0.36837767  0.99941067  0.11452200  1.0
  Ni  Ni267  1  0.70171100  0.33274400  0.11452200  1.0
  Ni  Ni268  1  0.70171100  0.66607733  0.11452200  1.0
  Ni  Ni269  1  0.70171100  0.99941067  0.11452200  1.0
  Ni  Ni270  1  0.13162233  0.16607733  0.01452200  1.0
  Ni  Ni271  1  0.13162233  0.49941067  0.01452200  1.0
  Ni  Ni272  1  0.13162233  0.83274400  0.01452200  1.0
  Ni  Ni273  1  0.46495567  0.16607733  0.01452200  1.0
  Ni  Ni274  1  0.46495567  0.49941067  0.01452200  1.0
  Ni  Ni275  1  0.46495567  0.83274400  0.01452200  1.0
  Ni  Ni276  1  0.79828900  0.16607733  0.01452200  1.0
  Ni  Ni277  1  0.79828900  0.49941067  0.01452200  1.0
  Ni  Ni278  1  0.79828900  0.83274400  0.01452200  1.0
  Ni  Ni279  1  0.23607400  0.21451967  0.11962300  1.0
  Ni  Ni280  1  0.23607400  0.54785300  0.11962300  1.0
  Ni  Ni281  1  0.23607400  0.88118633  0.11962300  1.0
  Ni  Ni282  1  0.56940733  0.21451967  0.11962300  1.0
  Ni  Ni283  1  0.56940733  0.54785300  0.11962300  1.0
  Ni  Ni284  1  0.56940733  0.88118633  0.11962300  1.0
  Ni  Ni285  1  0.90274067  0.21451967  0.11962300  1.0
  Ni  Ni286  1  0.90274067  0.54785300  0.11962300  1.0
  Ni  Ni287  1  0.90274067  0.88118633  0.11962300  1.0
  Ni  Ni288  1  0.06940733  0.28548033  0.16756100  1.0
  Ni  Ni289  1  0.06940733  0.61881367  0.16756100  1.0
  Ni  Ni290  1  0.06940733  0.95214700  0.16756100  1.0
  Ni  Ni291  1  0.40274067  0.28548033  0.16756100  1.0
  Ni  Ni292  1  0.40274067  0.61881367  0.16756100  1.0
  Ni  Ni293  1  0.40274067  0.95214700  0.16756100  1.0
  Ni  Ni294  1  0.73607400  0.28548033  0.16756100  1.0
  Ni  Ni295  1  0.73607400  0.61881367  0.16756100  1.0
  Ni  Ni296  1  0.73607400  0.95214700  0.16756100  1.0
  Ni  Ni297  1  0.16414600  0.21555400  0.08100020  1.0
  Ni  Ni298  1  0.16414600  0.54888733  0.08100020  1.0
  Ni  Ni299  1  0.16414600  0.88222067  0.08100020  1.0
  Ni  Ni300  1  0.49747933  0.21555400  0.08100020  1.0
  Ni  Ni301  1  0.49747933  0.54888733  0.08100020  1.0
  Ni  Ni302  1  0.49747933  0.88222067  0.08100020  1.0
  Ni  Ni303  1  0.83081267  0.21555400  0.08100020  1.0
  Ni  Ni304  1  0.83081267  0.54888733  0.08100020  1.0
  Ni  Ni305  1  0.83081267  0.88222067  0.08100020  1.0
  Ni  Ni306  1  0.03504433  0.16725600  0.11522920  1.0
  Ni  Ni307  1  0.03504433  0.50058933  0.11522920  1.0
  Ni  Ni308  1  0.03504433  0.83392267  0.11522920  1.0
  Ni  Ni309  1  0.36837767  0.16725600  0.11522920  1.0
  Ni  Ni310  1  0.36837767  0.50058933  0.11522920  1.0
  Ni  Ni311  1  0.36837767  0.83392267  0.11522920  1.0
  Ni  Ni312  1  0.70171100  0.16725600  0.11522920  1.0
  Ni  Ni313  1  0.70171100  0.50058933  0.11522920  1.0
  Ni  Ni314  1  0.70171100  0.83392267  0.11522920  1.0
  Ni  Ni315  1  0.26453167  0.28419033  0.16300180  1.0
  Ni  Ni316  1  0.26453167  0.61752367  0.16300180  1.0
  Ni  Ni317  1  0.26453167  0.95085700  0.16300180  1.0
  Ni  Ni318  1  0.59786500  0.28419033  0.16300180  1.0
  Ni  Ni319  1  0.59786500  0.61752367  0.16300180  1.0
  Ni  Ni320  1  0.59786500  0.95085700  0.16300180  1.0
  Ni  Ni321  1  0.93119833  0.28419033  0.16300180  1.0
  Ni  Ni322  1  0.93119833  0.61752367  0.16300180  1.0
  Ni  Ni323  1  0.93119833  0.95085700  0.16300180  1.0
  Ni  Ni324  1  0.20171100  0.33274400  0.17195480  1.0
  Ni  Ni325  1  0.20171100  0.66607733  0.17195480  1.0
  Ni  Ni326  1  0.20171100  0.99941067  0.17195480  1.0
  Ni  Ni327  1  0.53504433  0.33274400  0.17195480  1.0
  Ni  Ni328  1  0.53504433  0.66607733  0.17195480  1.0
  Ni  Ni329  1  0.53504433  0.99941067  0.17195480  1.0
  Ni  Ni330  1  0.86837767  0.33274400  0.17195480  1.0
  Ni  Ni331  1  0.86837767  0.66607733  0.17195480  1.0
  Ni  Ni332  1  0.86837767  0.99941067  0.17195480  1.0
  Ni  Ni333  1  0.00225267  0.28544667  0.12348020  1.0
  Ni  Ni334  1  0.00225267  0.61878000  0.12348020  1.0
  Ni  Ni335  1  0.00225267  0.95211333  0.12348020  1.0
  Ni  Ni336  1  0.33558600  0.28544667  0.12348020  1.0
  Ni  Ni337  1  0.33558600  0.61878000  0.12348020  1.0
  Ni  Ni338  1  0.33558600  0.95211333  0.12348020  1.0
  Ni  Ni339  1  0.66891933  0.28544667  0.12348020  1.0
  Ni  Ni340  1  0.66891933  0.61878000  0.12348020  1.0
  Ni  Ni341  1  0.66891933  0.95211333  0.12348020  1.0
  Ni  Ni342  1  0.16891933  0.21455333  0.16370380  1.0
  Ni  Ni343  1  0.16891933  0.54788667  0.16370380  1.0
  Ni  Ni344  1  0.16891933  0.88122000  0.16370380  1.0
  Ni  Ni345  1  0.50225267  0.21455333  0.16370380  1.0
  Ni  Ni346  1  0.50225267  0.54788667  0.16370380  1.0
  Ni  Ni347  1  0.50225267  0.88122000  0.16370380  1.0
  Ni  Ni348  1  0.83558600  0.21455333  0.16370380  1.0
  Ni  Ni349  1  0.83558600  0.54788667  0.16370380  1.0
  Ni  Ni350  1  0.83558600  0.88122000  0.16370380  1.0
  Ni  Ni351  1  0.06940733  0.21451967  0.02498460  1.0
  Ni  Ni352  1  0.06940733  0.54785300  0.02498460  1.0
  Ni  Ni353  1  0.06940733  0.88118633  0.02498460  1.0
  Ni  Ni354  1  0.40274067  0.21451967  0.02498460  1.0
  Ni  Ni355  1  0.40274067  0.54785300  0.02498460  1.0
  Ni  Ni356  1  0.40274067  0.88118633  0.02498460  1.0
  Ni  Ni357  1  0.73607400  0.21451967  0.02498460  1.0
  Ni  Ni358  1  0.73607400  0.54785300  0.02498460  1.0
  Ni  Ni359  1  0.73607400  0.88118633  0.02498460  1.0
  Ni  Ni360  1  0.13162233  0.00058933  0.01522920  1.0
  Ni  Ni361  1  0.13162233  0.33392267  0.01522920  1.0
  Ni  Ni362  1  0.13162233  0.66725600  0.01522920  1.0
  Ni  Ni363  1  0.46495567  0.00058933  0.01522920  1.0
  Ni  Ni364  1  0.46495567  0.33392267  0.01522920  1.0
  Ni  Ni365  1  0.46495567  0.66725600  0.01522920  1.0
  Ni  Ni366  1  0.79828900  0.00058933  0.01522920  1.0
  Ni  Ni367  1  0.79828900  0.33392267  0.01522920  1.0
  Ni  Ni368  1  0.79828900  0.66725600  0.01522920  1.0
  Ni  Ni369  1  0.26392600  0.04785300  0.01962300  1.0
  Ni  Ni370  1  0.26392600  0.38118633  0.01962300  1.0
  Ni  Ni371  1  0.26392600  0.71451967  0.01962300  1.0
  Ni  Ni372  1  0.59725933  0.04785300  0.01962300  1.0
  Ni  Ni373  1  0.59725933  0.38118633  0.01962300  1.0
  Ni  Ni374  1  0.59725933  0.71451967  0.01962300  1.0
  Ni  Ni375  1  0.93059267  0.04785300  0.01962300  1.0
  Ni  Ni376  1  0.93059267  0.38118633  0.01962300  1.0
  Ni  Ni377  1  0.93059267  0.71451967  0.01962300  1.0
  Ni  Ni378  1  0.09786500  0.21580967  0.12418220  1.0
  Ni  Ni379  1  0.09786500  0.54914300  0.12418220  1.0
  Ni  Ni380  1  0.09786500  0.88247633  0.12418220  1.0
  Ni  Ni381  1  0.43119833  0.21580967  0.12418220  1.0
  Ni  Ni382  1  0.43119833  0.54914300  0.12418220  1.0
  Ni  Ni383  1  0.43119833  0.88247633  0.12418220  1.0
  Ni  Ni384  1  0.76453167  0.21580967  0.12418220  1.0
  Ni  Ni385  1  0.76453167  0.54914300  0.12418220  1.0
  Ni  Ni386  1  0.76453167  0.88247633  0.12418220  1.0
  Ni  Ni387  1  0.00252067  0.11777933  0.12233540  1.0
  Ni  Ni388  1  0.00252067  0.45111267  0.12233540  1.0
  Ni  Ni389  1  0.00252067  0.78444600  0.12233540  1.0
  Ni  Ni390  1  0.33585400  0.11777933  0.12233540  1.0
  Ni  Ni391  1  0.33585400  0.45111267  0.12233540  1.0
  Ni  Ni392  1  0.33585400  0.78444600  0.12233540  1.0
  Ni  Ni393  1  0.66918733  0.11777933  0.12233540  1.0
  Ni  Ni394  1  0.66918733  0.45111267  0.12233540  1.0
  Ni  Ni395  1  0.66918733  0.78444600  0.12233540  1.0
  Ni  Ni396  1  0.16414600  0.28444600  0.02233540  1.0
  Ni  Ni397  1  0.16414600  0.61777933  0.02233540  1.0
  Ni  Ni398  1  0.16414600  0.95111267  0.02233540  1.0
  Ni  Ni399  1  0.49747933  0.28444600  0.02233540  1.0
  Ni  Ni400  1  0.49747933  0.61777933  0.02233540  1.0
  Ni  Ni401  1  0.49747933  0.95111267  0.02233540  1.0
  Ni  Ni402  1  0.83081267  0.28444600  0.02233540  1.0
  Ni  Ni403  1  0.83081267  0.61777933  0.02233540  1.0
  Ni  Ni404  1  0.83081267  0.95111267  0.02233540  1.0
  Ni  Ni405  1  0.33108067  0.11878000  0.00623980  1.0
  Ni  Ni406  1  0.33108067  0.45211333  0.00623980  1.0
  Ni  Ni407  1  0.33108067  0.78544667  0.00623980  1.0
  Ni  Ni408  1  0.66441400  0.11878000  0.00623980  1.0
  Ni  Ni409  1  0.66441400  0.45211333  0.00623980  1.0
  Ni  Ni410  1  0.66441400  0.78544667  0.00623980  1.0
  Ni  Ni411  1  0.99774733  0.11878000  0.00623980  1.0
  Ni  Ni412  1  0.99774733  0.45211333  0.00623980  1.0
  Ni  Ni413  1  0.99774733  0.78544667  0.00623980  1.0
  Ni  Ni414  1  0.26392600  0.11881367  0.16219940  1.0
  Ni  Ni415  1  0.26392600  0.45214700  0.16219940  1.0
  Ni  Ni416  1  0.26392600  0.78548033  0.16219940  1.0
  Ni  Ni417  1  0.59725933  0.11881367  0.16219940  1.0
  Ni  Ni418  1  0.59725933  0.45214700  0.16219940  1.0
  Ni  Ni419  1  0.59725933  0.78548033  0.16219940  1.0
  Ni  Ni420  1  0.93059267  0.11881367  0.16219940  1.0
  Ni  Ni421  1  0.93059267  0.45214700  0.16219940  1.0
  Ni  Ni422  1  0.93059267  0.78548033  0.16219940  1.0
  Ni  Ni423  1  0.06880167  0.04914300  0.02418220  1.0
  Ni  Ni424  1  0.06880167  0.38247633  0.02418220  1.0
  Ni  Ni425  1  0.06880167  0.71580967  0.02418220  1.0
  Ni  Ni426  1  0.40213500  0.04914300  0.02418220  1.0
  Ni  Ni427  1  0.40213500  0.38247633  0.02418220  1.0
  Ni  Ni428  1  0.40213500  0.71580967  0.02418220  1.0
  Ni  Ni429  1  0.73546833  0.04914300  0.02418220  1.0
  Ni  Ni430  1  0.73546833  0.38247633  0.02418220  1.0
  Ni  Ni431  1  0.73546833  0.71580967  0.02418220  1.0
  Ni  Ni432  1  0.23607400  0.28548033  0.06219940  1.0
  Ni  Ni433  1  0.23607400  0.61881367  0.06219940  1.0
  Ni  Ni434  1  0.23607400  0.95214700  0.06219940  1.0
  Ni  Ni435  1  0.56940733  0.28548033  0.06219940  1.0
  Ni  Ni436  1  0.56940733  0.61881367  0.06219940  1.0
  Ni  Ni437  1  0.56940733  0.95214700  0.06219940  1.0
  Ni  Ni438  1  0.90274067  0.28548033  0.06219940  1.0
  Ni  Ni439  1  0.90274067  0.61881367  0.06219940  1.0
  Ni  Ni440  1  0.90274067  0.95214700  0.06219940  1.0
  Ni  Ni441  1  0.33081267  0.21555400  0.06484860  1.0
  Ni  Ni442  1  0.33081267  0.54888733  0.06484860  1.0
  Ni  Ni443  1  0.33081267  0.88222067  0.06484860  1.0
  Ni  Ni444  1  0.66414600  0.21555400  0.06484860  1.0
  Ni  Ni445  1  0.66414600  0.54888733  0.06484860  1.0
  Ni  Ni446  1  0.66414600  0.88222067  0.06484860  1.0
  Ni  Ni447  1  0.99747933  0.21555400  0.06484860  1.0
  Ni  Ni448  1  0.99747933  0.54888733  0.06484860  1.0
  Ni  Ni449  1  0.99747933  0.88222067  0.06484860  1.0
  Ni  Ni450  1  0.09786500  0.28419033  0.06521060  1.0
  Ni  Ni451  1  0.09786500  0.61752367  0.06521060  1.0
  Ni  Ni452  1  0.09786500  0.95085700  0.06521060  1.0
  Ni  Ni453  1  0.43119833  0.28419033  0.06521060  1.0
  Ni  Ni454  1  0.43119833  0.61752367  0.06521060  1.0
  Ni  Ni455  1  0.43119833  0.95085700  0.06521060  1.0
  Ni  Ni456  1  0.76453167  0.28419033  0.06521060  1.0
  Ni  Ni457  1  0.76453167  0.61752367  0.06521060  1.0
  Ni  Ni458  1  0.76453167  0.95085700  0.06521060  1.0
  Ni  Ni459  1  0.29828900  0.00058933  0.07266200  1.0
  Ni  Ni460  1  0.29828900  0.33392267  0.07266200  1.0
  Ni  Ni461  1  0.29828900  0.66725600  0.07266200  1.0
  Ni  Ni462  1  0.63162233  0.00058933  0.07266200  1.0
  Ni  Ni463  1  0.63162233  0.33392267  0.07266200  1.0
  Ni  Ni464  1  0.63162233  0.66725600  0.07266200  1.0
  Ni  Ni465  1  0.96495567  0.00058933  0.07266200  1.0
  Ni  Ni466  1  0.96495567  0.33392267  0.07266200  1.0
  Ni  Ni467  1  0.96495567  0.66725600  0.07266200  1.0
  Ni  Ni468  1  0.16441400  0.04788667  0.08094420  1.0
  Ni  Ni469  1  0.16441400  0.38122000  0.08094420  1.0
  Ni  Ni470  1  0.16441400  0.71455333  0.08094420  1.0
  Ni  Ni471  1  0.49774733  0.04788667  0.08094420  1.0
  Ni  Ni472  1  0.49774733  0.38122000  0.08094420  1.0
  Ni  Ni473  1  0.49774733  0.71455333  0.08094420  1.0
  Ni  Ni474  1  0.83108067  0.04788667  0.08094420  1.0
  Ni  Ni475  1  0.83108067  0.38122000  0.08094420  1.0
  Ni  Ni476  1  0.83108067  0.71455333  0.08094420  1.0
  Ni  Ni477  1  0.16891933  0.28544667  0.10623980  1.0
  Ni  Ni478  1  0.16891933  0.61878000  0.10623980  1.0
  Ni  Ni479  1  0.16891933  0.95211333  0.10623980  1.0
  Ni  Ni480  1  0.50225267  0.28544667  0.10623980  1.0
  Ni  Ni481  1  0.50225267  0.61878000  0.10623980  1.0
  Ni  Ni482  1  0.50225267  0.95211333  0.10623980  1.0
  Ni  Ni483  1  0.83558600  0.28544667  0.10623980  1.0
  Ni  Ni484  1  0.83558600  0.61878000  0.10623980  1.0
  Ni  Ni485  1  0.83558600  0.95211333  0.10623980  1.0
  Ni  Ni486  1  0.06880167  0.11752367  0.16521060  1.0
  Ni  Ni487  1  0.06880167  0.45085700  0.16521060  1.0
  Ni  Ni488  1  0.06880167  0.78419033  0.16521060  1.0
  Ni  Ni489  1  0.40213500  0.11752367  0.16521060  1.0
  Ni  Ni490  1  0.40213500  0.45085700  0.16521060  1.0
  Ni  Ni491  1  0.40213500  0.78419033  0.16521060  1.0
  Ni  Ni492  1  0.73546833  0.11752367  0.16521060  1.0
  Ni  Ni493  1  0.73546833  0.45085700  0.16521060  1.0
  Ni  Ni494  1  0.73546833  0.78419033  0.16521060  1.0
  Ni  Ni495  1  0.00225267  0.21455333  0.18094420  1.0
  Ni  Ni496  1  0.00225267  0.54788667  0.18094420  1.0
  Ni  Ni497  1  0.00225267  0.88122000  0.18094420  1.0
  Ni  Ni498  1  0.33558600  0.21455333  0.18094420  1.0
  Ni  Ni499  1  0.33558600  0.54788667  0.18094420  1.0
  Ni  Ni500  1  0.33558600  0.88122000  0.18094420  1.0
  Ni  Ni501  1  0.66891933  0.21455333  0.18094420  1.0
  Ni  Ni502  1  0.66891933  0.54788667  0.18094420  1.0
  Ni  Ni503  1  0.66891933  0.88122000  0.18094420  1.0
  Ni  Ni504  1  0.16441400  0.11878000  0.02348020  1.0
  Ni  Ni505  1  0.16441400  0.45211333  0.02348020  1.0
  Ni  Ni506  1  0.16441400  0.78544667  0.02348020  1.0
  Ni  Ni507  1  0.49774733  0.11878000  0.02348020  1.0
  Ni  Ni508  1  0.49774733  0.45211333  0.02348020  1.0
  Ni  Ni509  1  0.49774733  0.78544667  0.02348020  1.0
  Ni  Ni510  1  0.83108067  0.11878000  0.02348020  1.0
  Ni  Ni511  1  0.83108067  0.45211333  0.02348020  1.0
  Ni  Ni512  1  0.83108067  0.78544667  0.02348020  1.0
  Ni  Ni513  1  0.33108067  0.04788667  0.06370380  1.0
  Ni  Ni514  1  0.33108067  0.38122000  0.06370380  1.0
  Ni  Ni515  1  0.33108067  0.71455333  0.06370380  1.0
  Ni  Ni516  1  0.66441400  0.04788667  0.06370380  1.0
  Ni  Ni517  1  0.66441400  0.38122000  0.06370380  1.0
  Ni  Ni518  1  0.66441400  0.71455333  0.06370380  1.0
  Ni  Ni519  1  0.99774733  0.04788667  0.06370380  1.0
  Ni  Ni520  1  0.99774733  0.38122000  0.06370380  1.0
  Ni  Ni521  1  0.99774733  0.71455333  0.06370380  1.0
  Ni  Ni522  1  0.16918733  0.04888733  0.16484860  1.0
  Ni  Ni523  1  0.16918733  0.38222067  0.16484860  1.0
  Ni  Ni524  1  0.16918733  0.71555400  0.16484860  1.0
  Ni  Ni525  1  0.50252067  0.04888733  0.16484860  1.0
  Ni  Ni526  1  0.50252067  0.38222067  0.16484860  1.0
  Ni  Ni527  1  0.50252067  0.71555400  0.16484860  1.0
  Ni  Ni528  1  0.83585400  0.04888733  0.16484860  1.0
  Ni  Ni529  1  0.83585400  0.38222067  0.16484860  1.0
  Ni  Ni530  1  0.83585400  0.71555400  0.16484860  1.0
  Ni  Ni531  1  0.23546833  0.04914300  0.12197340  1.0
  Ni  Ni532  1  0.23546833  0.38247633  0.12197340  1.0
  Ni  Ni533  1  0.23546833  0.71580967  0.12197340  1.0
  Ni  Ni534  1  0.56880167  0.04914300  0.12197340  1.0
  Ni  Ni535  1  0.56880167  0.38247633  0.12197340  1.0
  Ni  Ni536  1  0.56880167  0.71580967  0.12197340  1.0
  Ni  Ni537  1  0.90213500  0.04914300  0.12197340  1.0
  Ni  Ni538  1  0.90213500  0.38247633  0.12197340  1.0
  Ni  Ni539  1  0.90213500  0.71580967  0.12197340  1.0
  Ni  Ni540  1  0.16918733  0.11777933  0.10618380  1.0
  Ni  Ni541  1  0.16918733  0.45111267  0.10618380  1.0
  Ni  Ni542  1  0.16918733  0.78444600  0.10618380  1.0
  Ni  Ni543  1  0.50252067  0.11777933  0.10618380  1.0
  Ni  Ni544  1  0.50252067  0.45111267  0.10618380  1.0
  Ni  Ni545  1  0.50252067  0.78444600  0.10618380  1.0
  Ni  Ni546  1  0.83585400  0.11777933  0.10618380  1.0
  Ni  Ni547  1  0.83585400  0.45111267  0.10618380  1.0
  Ni  Ni548  1  0.83585400  0.78444600  0.10618380  1.0
  Ni  Ni549  1  0.23546833  0.11752367  0.06300180  1.0
  Ni  Ni550  1  0.23546833  0.45085700  0.06300180  1.0
  Ni  Ni551  1  0.23546833  0.78419033  0.06300180  1.0
  Ni  Ni552  1  0.56880167  0.11752367  0.06300180  1.0
  Ni  Ni553  1  0.56880167  0.45085700  0.06300180  1.0
  Ni  Ni554  1  0.56880167  0.78419033  0.06300180  1.0
  Ni  Ni555  1  0.90213500  0.11752367  0.06300180  1.0
  Ni  Ni556  1  0.90213500  0.45085700  0.06300180  1.0
  Ni  Ni557  1  0.90213500  0.78419033  0.06300180  1.0
  Ni  Ni558  1  0.09725933  0.11881367  0.06756100  1.0
  Ni  Ni559  1  0.09725933  0.45214700  0.06756100  1.0
  Ni  Ni560  1  0.09725933  0.78548033  0.06756100  1.0
  Ni  Ni561  1  0.43059267  0.11881367  0.06756100  1.0
  Ni  Ni562  1  0.43059267  0.45214700  0.06756100  1.0
  Ni  Ni563  1  0.43059267  0.78548033  0.06756100  1.0
  Ni  Ni564  1  0.76392600  0.11881367  0.06756100  1.0
  Ni  Ni565  1  0.76392600  0.45214700  0.06756100  1.0
  Ni  Ni566  1  0.76392600  0.78548033  0.06756100  1.0
  Ni  Ni567  1  0.20171100  0.16725600  0.17266200  1.0
  Ni  Ni568  1  0.20171100  0.50058933  0.17266200  1.0
  Ni  Ni569  1  0.20171100  0.83392267  0.17266200  1.0
  Ni  Ni570  1  0.53504433  0.16725600  0.17266200  1.0
  Ni  Ni571  1  0.53504433  0.50058933  0.17266200  1.0
  Ni  Ni572  1  0.53504433  0.83392267  0.17266200  1.0
  Ni  Ni573  1  0.86837767  0.16725600  0.17266200  1.0
  Ni  Ni574  1  0.86837767  0.50058933  0.17266200  1.0
  Ni  Ni575  1  0.86837767  0.83392267  0.17266200  1.0
  Ni  Ni576  1  0.29828900  0.16607733  0.07195480  1.0
  Ni  Ni577  1  0.29828900  0.49941067  0.07195480  1.0
  Ni  Ni578  1  0.29828900  0.83274400  0.07195480  1.0
  Ni  Ni579  1  0.63162233  0.16607733  0.07195480  1.0
  Ni  Ni580  1  0.63162233  0.49941067  0.07195480  1.0
  Ni  Ni581  1  0.63162233  0.83274400  0.07195480  1.0
  Ni  Ni582  1  0.96495567  0.16607733  0.07195480  1.0
  Ni  Ni583  1  0.96495567  0.49941067  0.07195480  1.0
  Ni  Ni584  1  0.96495567  0.83274400  0.07195480  1.0
  Ni  Ni585  1  0.33081267  0.28444600  0.00618380  1.0
  Ni  Ni586  1  0.33081267  0.61777933  0.00618380  1.0
  Ni  Ni587  1  0.33081267  0.95111267  0.00618380  1.0
  Ni  Ni588  1  0.66414600  0.28444600  0.00618380  1.0
  Ni  Ni589  1  0.66414600  0.61777933  0.00618380  1.0
  Ni  Ni590  1  0.66414600  0.95111267  0.00618380  1.0
  Ni  Ni591  1  0.99747933  0.28444600  0.00618380  1.0
  Ni  Ni592  1  0.99747933  0.61777933  0.00618380  1.0
  Ni  Ni593  1  0.99747933  0.95111267  0.00618380  1.0
  Ni  Ni594  1  0.00252067  0.04888733  0.18100020  1.0
  Ni  Ni595  1  0.00252067  0.38222067  0.18100020  1.0
  Ni  Ni596  1  0.00252067  0.71555400  0.18100020  1.0
  Ni  Ni597  1  0.33585400  0.04888733  0.18100020  1.0
  Ni  Ni598  1  0.33585400  0.38222067  0.18100020  1.0
  Ni  Ni599  1  0.33585400  0.71555400  0.18100020  1.0
  Ni  Ni600  1  0.66918733  0.04888733  0.18100020  1.0
  Ni  Ni601  1  0.66918733  0.38222067  0.18100020  1.0
  Ni  Ni602  1  0.66918733  0.71555400  0.18100020  1.0
  Ni  Ni603  1  0.09725933  0.04785300  0.12498460  1.0
  Ni  Ni604  1  0.09725933  0.38118633  0.12498460  1.0
  Ni  Ni605  1  0.09725933  0.71451967  0.12498460  1.0
  Ni  Ni606  1  0.43059267  0.04785300  0.12498460  1.0
  Ni  Ni607  1  0.43059267  0.38118633  0.12498460  1.0
  Ni  Ni608  1  0.43059267  0.71451967  0.12498460  1.0
  Ni  Ni609  1  0.76392600  0.04785300  0.12498460  1.0
  Ni  Ni610  1  0.76392600  0.38118633  0.12498460  1.0
  Ni  Ni611  1  0.76392600  0.71451967  0.12498460  1.0
  Zr  Zr612  1  0.27130900  0.16565300  0.33009700  1.0
  Zr  Zr613  1  0.27130900  0.49898633  0.33009700  1.0
  Zr  Zr614  1  0.27130900  0.83231967  0.33009700  1.0
  Zr  Zr615  1  0.60464233  0.16565300  0.33009700  1.0
  Zr  Zr616  1  0.60464233  0.49898633  0.33009700  1.0
  Zr  Zr617  1  0.60464233  0.83231967  0.33009700  1.0
  Zr  Zr618  1  0.93797567  0.16565300  0.33009700  1.0
  Zr  Zr619  1  0.93797567  0.49898633  0.33009700  1.0
  Zr  Zr620  1  0.93797567  0.83231967  0.33009700  1.0
  Zr  Zr621  1  0.16703200  0.23043300  0.23181340  1.0
  Zr  Zr622  1  0.16703200  0.56376633  0.23181340  1.0
  Zr  Zr623  1  0.16703200  0.89709967  0.23181340  1.0
  Zr  Zr624  1  0.50036533  0.23043300  0.23181340  1.0
  Zr  Zr625  1  0.50036533  0.56376633  0.23181340  1.0
  Zr  Zr626  1  0.50036533  0.89709967  0.23181340  1.0
  Zr  Zr627  1  0.83369867  0.23043300  0.23181340  1.0
  Zr  Zr628  1  0.83369867  0.56376633  0.23181340  1.0
  Zr  Zr629  1  0.83369867  0.89709967  0.23181340  1.0
  Zr  Zr630  1  0.16666667  0.16666667  0.29359200  1.0
  Zr  Zr631  1  0.16666667  0.50000000  0.29359200  1.0
  Zr  Zr632  1  0.16666667  0.83333333  0.29359200  1.0
  Zr  Zr633  1  0.50000000  0.16666667  0.29359200  1.0
  Zr  Zr634  1  0.50000000  0.50000000  0.29359200  1.0
  Zr  Zr635  1  0.50000000  0.83333333  0.29359200  1.0
  Zr  Zr636  1  0.83333333  0.16666667  0.29359200  1.0
  Zr  Zr637  1  0.83333333  0.50000000  0.29359200  1.0
  Zr  Zr638  1  0.83333333  0.83333333  0.29359200  1.0
  Zr  Zr639  1  0.10464233  0.16565300  0.35587060  1.0
  Zr  Zr640  1  0.10464233  0.49898633  0.35587060  1.0
  Zr  Zr641  1  0.10464233  0.83231967  0.35587060  1.0
  Zr  Zr642  1  0.43797567  0.16565300  0.35587060  1.0
  Zr  Zr643  1  0.43797567  0.49898633  0.35587060  1.0
  Zr  Zr644  1  0.43797567  0.83231967  0.35587060  1.0
  Zr  Zr645  1  0.77130900  0.16565300  0.35587060  1.0
  Zr  Zr646  1  0.77130900  0.49898633  0.35587060  1.0
  Zr  Zr647  1  0.77130900  0.83231967  0.35587060  1.0
  Zr  Zr648  1  0.00036533  0.26956700  0.25537060  1.0
  Zr  Zr649  1  0.00036533  0.60290033  0.25537060  1.0
  Zr  Zr650  1  0.00036533  0.93623367  0.25537060  1.0
  Zr  Zr651  1  0.33369867  0.26956700  0.25537060  1.0
  Zr  Zr652  1  0.33369867  0.60290033  0.25537060  1.0
  Zr  Zr653  1  0.33369867  0.93623367  0.25537060  1.0
  Zr  Zr654  1  0.66703200  0.26956700  0.25537060  1.0
  Zr  Zr655  1  0.66703200  0.60290033  0.25537060  1.0
  Zr  Zr656  1  0.66703200  0.93623367  0.25537060  1.0
  Zr  Zr657  1  0.22869100  0.33231967  0.23009700  1.0
  Zr  Zr658  1  0.22869100  0.66565300  0.23009700  1.0
  Zr  Zr659  1  0.22869100  0.99898633  0.23009700  1.0
  Zr  Zr660  1  0.56202433  0.33231967  0.23009700  1.0
  Zr  Zr661  1  0.56202433  0.66565300  0.23009700  1.0
  Zr  Zr662  1  0.56202433  0.99898633  0.23009700  1.0
  Zr  Zr663  1  0.89535767  0.33231967  0.23009700  1.0
  Zr  Zr664  1  0.89535767  0.66565300  0.23009700  1.0
  Zr  Zr665  1  0.89535767  0.99898633  0.23009700  1.0
  Zr  Zr666  1  0.08295600  0.24876200  0.39336780  1.0
  Zr  Zr667  1  0.08295600  0.58209533  0.39336780  1.0
  Zr  Zr668  1  0.08295600  0.91542867  0.39336780  1.0
  Zr  Zr669  1  0.41628933  0.24876200  0.39336780  1.0
  Zr  Zr670  1  0.41628933  0.58209533  0.39336780  1.0
  Zr  Zr671  1  0.41628933  0.91542867  0.39336780  1.0
  Zr  Zr672  1  0.74962267  0.24876200  0.39336780  1.0
  Zr  Zr673  1  0.74962267  0.58209533  0.39336780  1.0
  Zr  Zr674  1  0.74962267  0.91542867  0.39336780  1.0
  Zr  Zr675  1  0.33296800  0.06376633  0.33181340  1.0
  Zr  Zr676  1  0.33296800  0.39709967  0.33181340  1.0
  Zr  Zr677  1  0.33296800  0.73043300  0.33181340  1.0
  Zr  Zr678  1  0.66630133  0.06376633  0.33181340  1.0
  Zr  Zr679  1  0.66630133  0.39709967  0.33181340  1.0
  Zr  Zr680  1  0.66630133  0.73043300  0.33181340  1.0
  Zr  Zr681  1  0.99963467  0.06376633  0.33181340  1.0
  Zr  Zr682  1  0.99963467  0.39709967  0.33181340  1.0
  Zr  Zr683  1  0.99963467  0.73043300  0.33181340  1.0
  Zr  Zr684  1  0.08371067  0.08457133  0.39485340  1.0
  Zr  Zr685  1  0.08371067  0.41790467  0.39485340  1.0
  Zr  Zr686  1  0.08371067  0.75123800  0.39485340  1.0
  Zr  Zr687  1  0.41704400  0.08457133  0.39485340  1.0
  Zr  Zr688  1  0.41704400  0.41790467  0.39485340  1.0
  Zr  Zr689  1  0.41704400  0.75123800  0.39485340  1.0
  Zr  Zr690  1  0.75037733  0.08457133  0.39485340  1.0
  Zr  Zr691  1  0.75037733  0.41790467  0.39485340  1.0
  Zr  Zr692  1  0.75037733  0.75123800  0.39485340  1.0
  Zr  Zr693  1  0.10464233  0.00101367  0.35708700  1.0
  Zr  Zr694  1  0.10464233  0.33434700  0.35708700  1.0
  Zr  Zr695  1  0.10464233  0.66768033  0.35708700  1.0
  Zr  Zr696  1  0.43797567  0.00101367  0.35708700  1.0
  Zr  Zr697  1  0.43797567  0.33434700  0.35708700  1.0
  Zr  Zr698  1  0.43797567  0.66768033  0.35708700  1.0
  Zr  Zr699  1  0.77130900  0.00101367  0.35708700  1.0
  Zr  Zr700  1  0.77130900  0.33434700  0.35708700  1.0
  Zr  Zr701  1  0.77130900  0.66768033  0.35708700  1.0
  Zr  Zr702  1  0.22869100  0.16768033  0.23131340  1.0
  Zr  Zr703  1  0.22869100  0.50101367  0.23131340  1.0
  Zr  Zr704  1  0.22869100  0.83434700  0.23131340  1.0
  Zr  Zr705  1  0.56202433  0.16768033  0.23131340  1.0
  Zr  Zr706  1  0.56202433  0.50101367  0.23131340  1.0
  Zr  Zr707  1  0.56202433  0.83434700  0.23131340  1.0
  Zr  Zr708  1  0.89535767  0.16768033  0.23131340  1.0
  Zr  Zr709  1  0.89535767  0.50101367  0.23131340  1.0
  Zr  Zr710  1  0.89535767  0.83434700  0.23131340  1.0
  Zr  Zr711  1  0.16630133  0.10290033  0.35537060  1.0
  Zr  Zr712  1  0.16630133  0.43623367  0.35537060  1.0
  Zr  Zr713  1  0.16630133  0.76956700  0.35537060  1.0
  Zr  Zr714  1  0.49963467  0.10290033  0.35537060  1.0
  Zr  Zr715  1  0.49963467  0.43623367  0.35537060  1.0
  Zr  Zr716  1  0.49963467  0.76956700  0.35537060  1.0
  Zr  Zr717  1  0.83296800  0.10290033  0.35537060  1.0
  Zr  Zr718  1  0.83296800  0.43623367  0.35537060  1.0
  Zr  Zr719  1  0.83296800  0.76956700  0.35537060  1.0
  Zr  Zr720  1  0.27130900  0.00101367  0.33131340  1.0
  Zr  Zr721  1  0.27130900  0.33434700  0.33131340  1.0
  Zr  Zr722  1  0.27130900  0.66768033  0.33131340  1.0
  Zr  Zr723  1  0.60464233  0.00101367  0.33131340  1.0
  Zr  Zr724  1  0.60464233  0.33434700  0.33131340  1.0
  Zr  Zr725  1  0.60464233  0.66768033  0.33131340  1.0
  Zr  Zr726  1  0.93797567  0.00101367  0.33131340  1.0
  Zr  Zr727  1  0.93797567  0.33434700  0.33131340  1.0
  Zr  Zr728  1  0.93797567  0.66768033  0.33131340  1.0
  Zr  Zr729  1  0.06202433  0.16768033  0.25708700  1.0
  Zr  Zr730  1  0.06202433  0.50101367  0.25708700  1.0
  Zr  Zr731  1  0.06202433  0.83434700  0.25708700  1.0
  Zr  Zr732  1  0.39535767  0.16768033  0.25708700  1.0
  Zr  Zr733  1  0.39535767  0.50101367  0.25708700  1.0
  Zr  Zr734  1  0.39535767  0.83434700  0.25708700  1.0
  Zr  Zr735  1  0.72869100  0.16768033  0.25708700  1.0
  Zr  Zr736  1  0.72869100  0.50101367  0.25708700  1.0
  Zr  Zr737  1  0.72869100  0.83434700  0.25708700  1.0
  Zr  Zr738  1  0.16703200  0.26956700  0.35529380  1.0
  Zr  Zr739  1  0.16703200  0.60290033  0.35529380  1.0
  Zr  Zr740  1  0.16703200  0.93623367  0.35529380  1.0
  Zr  Zr741  1  0.50036533  0.26956700  0.35529380  1.0
  Zr  Zr742  1  0.50036533  0.60290033  0.35529380  1.0
  Zr  Zr743  1  0.50036533  0.93623367  0.35529380  1.0
  Zr  Zr744  1  0.83369867  0.26956700  0.35529380  1.0
  Zr  Zr745  1  0.83369867  0.60290033  0.35529380  1.0
  Zr  Zr746  1  0.83369867  0.93623367  0.35529380  1.0
  Zr  Zr747  1  0.06202433  0.33231967  0.25587060  1.0
  Zr  Zr748  1  0.06202433  0.66565300  0.25587060  1.0
  Zr  Zr749  1  0.06202433  0.99898633  0.25587060  1.0
  Zr  Zr750  1  0.39535767  0.33231967  0.25587060  1.0
  Zr  Zr751  1  0.39535767  0.66565300  0.25587060  1.0
  Zr  Zr752  1  0.39535767  0.99898633  0.25587060  1.0
  Zr  Zr753  1  0.72869100  0.33231967  0.25587060  1.0
  Zr  Zr754  1  0.72869100  0.66565300  0.25587060  1.0
  Zr  Zr755  1  0.72869100  0.99898633  0.25587060  1.0
  Zr  Zr756  1  0.00000000  0.00000000  0.39359200  1.0
  Zr  Zr757  1  0.00000000  0.33333333  0.39359200  1.0
  Zr  Zr758  1  0.00000000  0.66666667  0.39359200  1.0
  Zr  Zr759  1  0.33333333  0.00000000  0.39359200  1.0
  Zr  Zr760  1  0.33333333  0.33333333  0.39359200  1.0
  Zr  Zr761  1  0.33333333  0.66666667  0.39359200  1.0
  Zr  Zr762  1  0.66666667  0.00000000  0.39359200  1.0
  Zr  Zr763  1  0.66666667  0.33333333  0.39359200  1.0
  Zr  Zr764  1  0.66666667  0.66666667  0.39359200  1.0
  Zr  Zr765  1  0.24962267  0.24876200  0.39233060  1.0
  Zr  Zr766  1  0.24962267  0.58209533  0.39233060  1.0
  Zr  Zr767  1  0.24962267  0.91542867  0.39233060  1.0
  Zr  Zr768  1  0.58295600  0.24876200  0.39233060  1.0
  Zr  Zr769  1  0.58295600  0.58209533  0.39233060  1.0
  Zr  Zr770  1  0.58295600  0.91542867  0.39233060  1.0
  Zr  Zr771  1  0.91628933  0.24876200  0.39233060  1.0
  Zr  Zr772  1  0.91628933  0.58209533  0.39233060  1.0
  Zr  Zr773  1  0.91628933  0.91542867  0.39233060  1.0
  Zr  Zr774  1  0.25037733  0.08209533  0.29233060  1.0
  Zr  Zr775  1  0.25037733  0.41542867  0.29233060  1.0
  Zr  Zr776  1  0.25037733  0.74876200  0.29233060  1.0
  Zr  Zr777  1  0.58371067  0.08209533  0.29233060  1.0
  Zr  Zr778  1  0.58371067  0.41542867  0.29233060  1.0
  Zr  Zr779  1  0.58371067  0.74876200  0.29233060  1.0
  Zr  Zr780  1  0.91704400  0.08209533  0.29233060  1.0
  Zr  Zr781  1  0.91704400  0.41542867  0.29233060  1.0
  Zr  Zr782  1  0.91704400  0.74876200  0.29233060  1.0
  Zr  Zr783  1  0.08295600  0.25123800  0.29485340  1.0
  Zr  Zr784  1  0.08295600  0.58457133  0.29485340  1.0
  Zr  Zr785  1  0.08295600  0.91790467  0.29485340  1.0
  Zr  Zr786  1  0.41628933  0.25123800  0.29485340  1.0
  Zr  Zr787  1  0.41628933  0.58457133  0.29485340  1.0
  Zr  Zr788  1  0.41628933  0.91790467  0.29485340  1.0
  Zr  Zr789  1  0.74962267  0.25123800  0.29485340  1.0
  Zr  Zr790  1  0.74962267  0.58457133  0.29485340  1.0
  Zr  Zr791  1  0.74962267  0.91790467  0.29485340  1.0
  Zr  Zr792  1  0.33296800  0.10290033  0.25529380  1.0
  Zr  Zr793  1  0.33296800  0.43623367  0.25529380  1.0
  Zr  Zr794  1  0.33296800  0.76956700  0.25529380  1.0
  Zr  Zr795  1  0.66630133  0.10290033  0.25529380  1.0
  Zr  Zr796  1  0.66630133  0.43623367  0.25529380  1.0
  Zr  Zr797  1  0.66630133  0.76956700  0.25529380  1.0
  Zr  Zr798  1  0.99963467  0.10290033  0.25529380  1.0
  Zr  Zr799  1  0.99963467  0.43623367  0.25529380  1.0
  Zr  Zr800  1  0.99963467  0.76956700  0.25529380  1.0
  Zr  Zr801  1  0.00000000  0.16666667  0.39359200  1.0
  Zr  Zr802  1  0.00000000  0.50000000  0.39359200  1.0
  Zr  Zr803  1  0.00000000  0.83333333  0.39359200  1.0
  Zr  Zr804  1  0.33333333  0.16666667  0.39359200  1.0
  Zr  Zr805  1  0.33333333  0.50000000  0.39359200  1.0
  Zr  Zr806  1  0.33333333  0.83333333  0.39359200  1.0
  Zr  Zr807  1  0.66666667  0.16666667  0.39359200  1.0
  Zr  Zr808  1  0.66666667  0.50000000  0.39359200  1.0
  Zr  Zr809  1  0.66666667  0.83333333  0.39359200  1.0
  Zr  Zr810  1  0.24962267  0.25123800  0.29381620  1.0
  Zr  Zr811  1  0.24962267  0.58457133  0.29381620  1.0
  Zr  Zr812  1  0.24962267  0.91790467  0.29381620  1.0
  Zr  Zr813  1  0.58295600  0.25123800  0.29381620  1.0
  Zr  Zr814  1  0.58295600  0.58457133  0.29381620  1.0
  Zr  Zr815  1  0.58295600  0.91790467  0.29381620  1.0
  Zr  Zr816  1  0.91628933  0.25123800  0.29381620  1.0
  Zr  Zr817  1  0.91628933  0.58457133  0.29381620  1.0
  Zr  Zr818  1  0.91628933  0.91790467  0.29381620  1.0
  Zr  Zr819  1  0.25037733  0.08457133  0.39381620  1.0
  Zr  Zr820  1  0.25037733  0.41790467  0.39381620  1.0
  Zr  Zr821  1  0.25037733  0.75123800  0.39381620  1.0
  Zr  Zr822  1  0.58371067  0.08457133  0.39381620  1.0
  Zr  Zr823  1  0.58371067  0.41790467  0.39381620  1.0
  Zr  Zr824  1  0.58371067  0.75123800  0.39381620  1.0
  Zr  Zr825  1  0.91704400  0.08457133  0.39381620  1.0
  Zr  Zr826  1  0.91704400  0.41790467  0.39381620  1.0
  Zr  Zr827  1  0.91704400  0.75123800  0.39381620  1.0
  Zr  Zr828  1  0.08371067  0.08209533  0.29336780  1.0
  Zr  Zr829  1  0.08371067  0.41542867  0.29336780  1.0
  Zr  Zr830  1  0.08371067  0.74876200  0.29336780  1.0
  Zr  Zr831  1  0.41704400  0.08209533  0.29336780  1.0
  Zr  Zr832  1  0.41704400  0.41542867  0.29336780  1.0
  Zr  Zr833  1  0.41704400  0.74876200  0.29336780  1.0
  Zr  Zr834  1  0.75037733  0.08209533  0.29336780  1.0
  Zr  Zr835  1  0.75037733  0.41542867  0.29336780  1.0
  Zr  Zr836  1  0.75037733  0.74876200  0.29336780  1.0
  Zr  Zr837  1  0.00036533  0.23043300  0.33189020  1.0
  Zr  Zr838  1  0.00036533  0.56376633  0.33189020  1.0
  Zr  Zr839  1  0.00036533  0.89709967  0.33189020  1.0
  Zr  Zr840  1  0.33369867  0.23043300  0.33189020  1.0
  Zr  Zr841  1  0.33369867  0.56376633  0.33189020  1.0
  Zr  Zr842  1  0.33369867  0.89709967  0.33189020  1.0
  Zr  Zr843  1  0.66703200  0.23043300  0.33189020  1.0
  Zr  Zr844  1  0.66703200  0.56376633  0.33189020  1.0
  Zr  Zr845  1  0.66703200  0.89709967  0.33189020  1.0
  Zr  Zr846  1  0.16666667  0.00000000  0.29359200  1.0
  Zr  Zr847  1  0.16666667  0.33333333  0.29359200  1.0
  Zr  Zr848  1  0.16666667  0.66666667  0.29359200  1.0
  Zr  Zr849  1  0.50000000  0.00000000  0.29359200  1.0
  Zr  Zr850  1  0.50000000  0.33333333  0.29359200  1.0
  Zr  Zr851  1  0.50000000  0.66666667  0.29359200  1.0
  Zr  Zr852  1  0.83333333  0.00000000  0.29359200  1.0
  Zr  Zr853  1  0.83333333  0.33333333  0.29359200  1.0
  Zr  Zr854  1  0.83333333  0.66666667  0.29359200  1.0
  Zr  Zr855  1  0.16630133  0.06376633  0.23189020  1.0
  Zr  Zr856  1  0.16630133  0.39709967  0.23189020  1.0
  Zr  Zr857  1  0.16630133  0.73043300  0.23189020  1.0
  Zr  Zr858  1  0.49963467  0.06376633  0.23189020  1.0
  Zr  Zr859  1  0.49963467  0.39709967  0.23189020  1.0
  Zr  Zr860  1  0.49963467  0.73043300  0.23189020  1.0
  Zr  Zr861  1  0.83296800  0.06376633  0.23189020  1.0
  Zr  Zr862  1  0.83296800  0.39709967  0.23189020  1.0
  Zr  Zr863  1  0.83296800  0.73043300  0.23189020  1.0
  Ni  Ni864  1  0.26453167  0.21580967  0.22197340  1.0
  Ni  Ni865  1  0.26453167  0.54914300  0.22197340  1.0
  Ni  Ni866  1  0.26453167  0.88247633  0.22197340  1.0
  Ni  Ni867  1  0.59786500  0.21580967  0.22197340  1.0
  Ni  Ni868  1  0.59786500  0.54914300  0.22197340  1.0
  Ni  Ni869  1  0.59786500  0.88247633  0.22197340  1.0
  Ni  Ni870  1  0.93119833  0.21580967  0.22197340  1.0
  Ni  Ni871  1  0.93119833  0.54914300  0.22197340  1.0
  Ni  Ni872  1  0.93119833  0.88247633  0.22197340  1.0
  Ni  Ni873  1  0.03504433  0.33274400  0.31452200  1.0
  Ni  Ni874  1  0.03504433  0.66607733  0.31452200  1.0
  Ni  Ni875  1  0.03504433  0.99941067  0.31452200  1.0
  Ni  Ni876  1  0.36837767  0.33274400  0.31452200  1.0
  Ni  Ni877  1  0.36837767  0.66607733  0.31452200  1.0
  Ni  Ni878  1  0.36837767  0.99941067  0.31452200  1.0
  Ni  Ni879  1  0.70171100  0.33274400  0.31452200  1.0
  Ni  Ni880  1  0.70171100  0.66607733  0.31452200  1.0
  Ni  Ni881  1  0.70171100  0.99941067  0.31452200  1.0
  Ni  Ni882  1  0.13162233  0.16607733  0.21452200  1.0
  Ni  Ni883  1  0.13162233  0.49941067  0.21452200  1.0
  Ni  Ni884  1  0.13162233  0.83274400  0.21452200  1.0
  Ni  Ni885  1  0.46495567  0.16607733  0.21452200  1.0
  Ni  Ni886  1  0.46495567  0.49941067  0.21452200  1.0
  Ni  Ni887  1  0.46495567  0.83274400  0.21452200  1.0
  Ni  Ni888  1  0.79828900  0.16607733  0.21452200  1.0
  Ni  Ni889  1  0.79828900  0.49941067  0.21452200  1.0
  Ni  Ni890  1  0.79828900  0.83274400  0.21452200  1.0
  Ni  Ni891  1  0.23607400  0.21451967  0.31962300  1.0
  Ni  Ni892  1  0.23607400  0.54785300  0.31962300  1.0
  Ni  Ni893  1  0.23607400  0.88118633  0.31962300  1.0
  Ni  Ni894  1  0.56940733  0.21451967  0.31962300  1.0
  Ni  Ni895  1  0.56940733  0.54785300  0.31962300  1.0
  Ni  Ni896  1  0.56940733  0.88118633  0.31962300  1.0
  Ni  Ni897  1  0.90274067  0.21451967  0.31962300  1.0
  Ni  Ni898  1  0.90274067  0.54785300  0.31962300  1.0
  Ni  Ni899  1  0.90274067  0.88118633  0.31962300  1.0
  Ni  Ni900  1  0.06940733  0.28548033  0.36756100  1.0
  Ni  Ni901  1  0.06940733  0.61881367  0.36756100  1.0
  Ni  Ni902  1  0.06940733  0.95214700  0.36756100  1.0
  Ni  Ni903  1  0.40274067  0.28548033  0.36756100  1.0
  Ni  Ni904  1  0.40274067  0.61881367  0.36756100  1.0
  Ni  Ni905  1  0.40274067  0.95214700  0.36756100  1.0
  Ni  Ni906  1  0.73607400  0.28548033  0.36756100  1.0
  Ni  Ni907  1  0.73607400  0.61881367  0.36756100  1.0
  Ni  Ni908  1  0.73607400  0.95214700  0.36756100  1.0
  Ni  Ni909  1  0.16414600  0.21555400  0.28100020  1.0
  Ni  Ni910  1  0.16414600  0.54888733  0.28100020  1.0
  Ni  Ni911  1  0.16414600  0.88222067  0.28100020  1.0
  Ni  Ni912  1  0.49747933  0.21555400  0.28100020  1.0
  Ni  Ni913  1  0.49747933  0.54888733  0.28100020  1.0
  Ni  Ni914  1  0.49747933  0.88222067  0.28100020  1.0
  Ni  Ni915  1  0.83081267  0.21555400  0.28100020  1.0
  Ni  Ni916  1  0.83081267  0.54888733  0.28100020  1.0
  Ni  Ni917  1  0.83081267  0.88222067  0.28100020  1.0
  Ni  Ni918  1  0.03504433  0.16725600  0.31522920  1.0
  Ni  Ni919  1  0.03504433  0.50058933  0.31522920  1.0
  Ni  Ni920  1  0.03504433  0.83392267  0.31522920  1.0
  Ni  Ni921  1  0.36837767  0.16725600  0.31522920  1.0
  Ni  Ni922  1  0.36837767  0.50058933  0.31522920  1.0
  Ni  Ni923  1  0.36837767  0.83392267  0.31522920  1.0
  Ni  Ni924  1  0.70171100  0.16725600  0.31522920  1.0
  Ni  Ni925  1  0.70171100  0.50058933  0.31522920  1.0
  Ni  Ni926  1  0.70171100  0.83392267  0.31522920  1.0
  Ni  Ni927  1  0.26453167  0.28419033  0.36300180  1.0
  Ni  Ni928  1  0.26453167  0.61752367  0.36300180  1.0
  Ni  Ni929  1  0.26453167  0.95085700  0.36300180  1.0
  Ni  Ni930  1  0.59786500  0.28419033  0.36300180  1.0
  Ni  Ni931  1  0.59786500  0.61752367  0.36300180  1.0
  Ni  Ni932  1  0.59786500  0.95085700  0.36300180  1.0
  Ni  Ni933  1  0.93119833  0.28419033  0.36300180  1.0
  Ni  Ni934  1  0.93119833  0.61752367  0.36300180  1.0
  Ni  Ni935  1  0.93119833  0.95085700  0.36300180  1.0
  Ni  Ni936  1  0.20171100  0.33274400  0.37195480  1.0
  Ni  Ni937  1  0.20171100  0.66607733  0.37195480  1.0
  Ni  Ni938  1  0.20171100  0.99941067  0.37195480  1.0
  Ni  Ni939  1  0.53504433  0.33274400  0.37195480  1.0
  Ni  Ni940  1  0.53504433  0.66607733  0.37195480  1.0
  Ni  Ni941  1  0.53504433  0.99941067  0.37195480  1.0
  Ni  Ni942  1  0.86837767  0.33274400  0.37195480  1.0
  Ni  Ni943  1  0.86837767  0.66607733  0.37195480  1.0
  Ni  Ni944  1  0.86837767  0.99941067  0.37195480  1.0
  Ni  Ni945  1  0.00225267  0.28544667  0.32348020  1.0
  Ni  Ni946  1  0.00225267  0.61878000  0.32348020  1.0
  Ni  Ni947  1  0.00225267  0.95211333  0.32348020  1.0
  Ni  Ni948  1  0.33558600  0.28544667  0.32348020  1.0
  Ni  Ni949  1  0.33558600  0.61878000  0.32348020  1.0
  Ni  Ni950  1  0.33558600  0.95211333  0.32348020  1.0
  Ni  Ni951  1  0.66891933  0.28544667  0.32348020  1.0
  Ni  Ni952  1  0.66891933  0.61878000  0.32348020  1.0
  Ni  Ni953  1  0.66891933  0.95211333  0.32348020  1.0
  Ni  Ni954  1  0.16891933  0.21455333  0.36370380  1.0
  Ni  Ni955  1  0.16891933  0.54788667  0.36370380  1.0
  Ni  Ni956  1  0.16891933  0.88122000  0.36370380  1.0
  Ni  Ni957  1  0.50225267  0.21455333  0.36370380  1.0
  Ni  Ni958  1  0.50225267  0.54788667  0.36370380  1.0
  Ni  Ni959  1  0.50225267  0.88122000  0.36370380  1.0
  Ni  Ni960  1  0.83558600  0.21455333  0.36370380  1.0
  Ni  Ni961  1  0.83558600  0.54788667  0.36370380  1.0
  Ni  Ni962  1  0.83558600  0.88122000  0.36370380  1.0
  Ni  Ni963  1  0.06940733  0.21451967  0.22498460  1.0
  Ni  Ni964  1  0.06940733  0.54785300  0.22498460  1.0
  Ni  Ni965  1  0.06940733  0.88118633  0.22498460  1.0
  Ni  Ni966  1  0.40274067  0.21451967  0.22498460  1.0
  Ni  Ni967  1  0.40274067  0.54785300  0.22498460  1.0
  Ni  Ni968  1  0.40274067  0.88118633  0.22498460  1.0
  Ni  Ni969  1  0.73607400  0.21451967  0.22498460  1.0
  Ni  Ni970  1  0.73607400  0.54785300  0.22498460  1.0
  Ni  Ni971  1  0.73607400  0.88118633  0.22498460  1.0
  Ni  Ni972  1  0.13162233  0.00058933  0.21522920  1.0
  Ni  Ni973  1  0.13162233  0.33392267  0.21522920  1.0
  Ni  Ni974  1  0.13162233  0.66725600  0.21522920  1.0
  Ni  Ni975  1  0.46495567  0.00058933  0.21522920  1.0
  Ni  Ni976  1  0.46495567  0.33392267  0.21522920  1.0
  Ni  Ni977  1  0.46495567  0.66725600  0.21522920  1.0
  Ni  Ni978  1  0.79828900  0.00058933  0.21522920  1.0
  Ni  Ni979  1  0.79828900  0.33392267  0.21522920  1.0
  Ni  Ni980  1  0.79828900  0.66725600  0.21522920  1.0
  Ni  Ni981  1  0.26392600  0.04785300  0.21962300  1.0
  Ni  Ni982  1  0.26392600  0.38118633  0.21962300  1.0
  Ni  Ni983  1  0.26392600  0.71451967  0.21962300  1.0
  Ni  Ni984  1  0.59725933  0.04785300  0.21962300  1.0
  Ni  Ni985  1  0.59725933  0.38118633  0.21962300  1.0
  Ni  Ni986  1  0.59725933  0.71451967  0.21962300  1.0
  Ni  Ni987  1  0.93059267  0.04785300  0.21962300  1.0
  Ni  Ni988  1  0.93059267  0.38118633  0.21962300  1.0
  Ni  Ni989  1  0.93059267  0.71451967  0.21962300  1.0
  Ni  Ni990  1  0.09786500  0.21580967  0.32418220  1.0
  Ni  Ni991  1  0.09786500  0.54914300  0.32418220  1.0
  Ni  Ni992  1  0.09786500  0.88247633  0.32418220  1.0
  Ni  Ni993  1  0.43119833  0.21580967  0.32418220  1.0
  Ni  Ni994  1  0.43119833  0.54914300  0.32418220  1.0
  Ni  Ni995  1  0.43119833  0.88247633  0.32418220  1.0
  Ni  Ni996  1  0.76453167  0.21580967  0.32418220  1.0
  Ni  Ni997  1  0.76453167  0.54914300  0.32418220  1.0
  Ni  Ni998  1  0.76453167  0.88247633  0.32418220  1.0
  Ni  Ni999  1  0.00252067  0.11777933  0.32233540  1.0
  Ni  Ni1000  1  0.00252067  0.45111267  0.32233540  1.0
  Ni  Ni1001  1  0.00252067  0.78444600  0.32233540  1.0
  Ni  Ni1002  1  0.33585400  0.11777933  0.32233540  1.0
  Ni  Ni1003  1  0.33585400  0.45111267  0.32233540  1.0
  Ni  Ni1004  1  0.33585400  0.78444600  0.32233540  1.0
  Ni  Ni1005  1  0.66918733  0.11777933  0.32233540  1.0
  Ni  Ni1006  1  0.66918733  0.45111267  0.32233540  1.0
  Ni  Ni1007  1  0.66918733  0.78444600  0.32233540  1.0
  Ni  Ni1008  1  0.16414600  0.28444600  0.22233540  1.0
  Ni  Ni1009  1  0.16414600  0.61777933  0.22233540  1.0
  Ni  Ni1010  1  0.16414600  0.95111267  0.22233540  1.0
  Ni  Ni1011  1  0.49747933  0.28444600  0.22233540  1.0
  Ni  Ni1012  1  0.49747933  0.61777933  0.22233540  1.0
  Ni  Ni1013  1  0.49747933  0.95111267  0.22233540  1.0
  Ni  Ni1014  1  0.83081267  0.28444600  0.22233540  1.0
  Ni  Ni1015  1  0.83081267  0.61777933  0.22233540  1.0
  Ni  Ni1016  1  0.83081267  0.95111267  0.22233540  1.0
  Ni  Ni1017  1  0.33108067  0.11878000  0.20623980  1.0
  Ni  Ni1018  1  0.33108067  0.45211333  0.20623980  1.0
  Ni  Ni1019  1  0.33108067  0.78544667  0.20623980  1.0
  Ni  Ni1020  1  0.66441400  0.11878000  0.20623980  1.0
  Ni  Ni1021  1  0.66441400  0.45211333  0.20623980  1.0
  Ni  Ni1022  1  0.66441400  0.78544667  0.20623980  1.0
  Ni  Ni1023  1  0.99774733  0.11878000  0.20623980  1.0
  Ni  Ni1024  1  0.99774733  0.45211333  0.20623980  1.0
  Ni  Ni1025  1  0.99774733  0.78544667  0.20623980  1.0
  Ni  Ni1026  1  0.26392600  0.11881367  0.36219940  1.0
  Ni  Ni1027  1  0.26392600  0.45214700  0.36219940  1.0
  Ni  Ni1028  1  0.26392600  0.78548033  0.36219940  1.0
  Ni  Ni1029  1  0.59725933  0.11881367  0.36219940  1.0
  Ni  Ni1030  1  0.59725933  0.45214700  0.36219940  1.0
  Ni  Ni1031  1  0.59725933  0.78548033  0.36219940  1.0
  Ni  Ni1032  1  0.93059267  0.11881367  0.36219940  1.0
  Ni  Ni1033  1  0.93059267  0.45214700  0.36219940  1.0
  Ni  Ni1034  1  0.93059267  0.78548033  0.36219940  1.0
  Ni  Ni1035  1  0.06880167  0.04914300  0.22418220  1.0
  Ni  Ni1036  1  0.06880167  0.38247633  0.22418220  1.0
  Ni  Ni1037  1  0.06880167  0.71580967  0.22418220  1.0
  Ni  Ni1038  1  0.40213500  0.04914300  0.22418220  1.0
  Ni  Ni1039  1  0.40213500  0.38247633  0.22418220  1.0
  Ni  Ni1040  1  0.40213500  0.71580967  0.22418220  1.0
  Ni  Ni1041  1  0.73546833  0.04914300  0.22418220  1.0
  Ni  Ni1042  1  0.73546833  0.38247633  0.22418220  1.0
  Ni  Ni1043  1  0.73546833  0.71580967  0.22418220  1.0
  Ni  Ni1044  1  0.23607400  0.28548033  0.26219940  1.0
  Ni  Ni1045  1  0.23607400  0.61881367  0.26219940  1.0
  Ni  Ni1046  1  0.23607400  0.95214700  0.26219940  1.0
  Ni  Ni1047  1  0.56940733  0.28548033  0.26219940  1.0
  Ni  Ni1048  1  0.56940733  0.61881367  0.26219940  1.0
  Ni  Ni1049  1  0.56940733  0.95214700  0.26219940  1.0
  Ni  Ni1050  1  0.90274067  0.28548033  0.26219940  1.0
  Ni  Ni1051  1  0.90274067  0.61881367  0.26219940  1.0
  Ni  Ni1052  1  0.90274067  0.95214700  0.26219940  1.0
  Ni  Ni1053  1  0.33081267  0.21555400  0.26484860  1.0
  Ni  Ni1054  1  0.33081267  0.54888733  0.26484860  1.0
  Ni  Ni1055  1  0.33081267  0.88222067  0.26484860  1.0
  Ni  Ni1056  1  0.66414600  0.21555400  0.26484860  1.0
  Ni  Ni1057  1  0.66414600  0.54888733  0.26484860  1.0
  Ni  Ni1058  1  0.66414600  0.88222067  0.26484860  1.0
  Ni  Ni1059  1  0.99747933  0.21555400  0.26484860  1.0
  Ni  Ni1060  1  0.99747933  0.54888733  0.26484860  1.0
  Ni  Ni1061  1  0.99747933  0.88222067  0.26484860  1.0
  Ni  Ni1062  1  0.09786500  0.28419033  0.26521060  1.0
  Ni  Ni1063  1  0.09786500  0.61752367  0.26521060  1.0
  Ni  Ni1064  1  0.09786500  0.95085700  0.26521060  1.0
  Ni  Ni1065  1  0.43119833  0.28419033  0.26521060  1.0
  Ni  Ni1066  1  0.43119833  0.61752367  0.26521060  1.0
  Ni  Ni1067  1  0.43119833  0.95085700  0.26521060  1.0
  Ni  Ni1068  1  0.76453167  0.28419033  0.26521060  1.0
  Ni  Ni1069  1  0.76453167  0.61752367  0.26521060  1.0
  Ni  Ni1070  1  0.76453167  0.95085700  0.26521060  1.0
  Ni  Ni1071  1  0.29828900  0.00058933  0.27266200  1.0
  Ni  Ni1072  1  0.29828900  0.33392267  0.27266200  1.0
  Ni  Ni1073  1  0.29828900  0.66725600  0.27266200  1.0
  Ni  Ni1074  1  0.63162233  0.00058933  0.27266200  1.0
  Ni  Ni1075  1  0.63162233  0.33392267  0.27266200  1.0
  Ni  Ni1076  1  0.63162233  0.66725600  0.27266200  1.0
  Ni  Ni1077  1  0.96495567  0.00058933  0.27266200  1.0
  Ni  Ni1078  1  0.96495567  0.33392267  0.27266200  1.0
  Ni  Ni1079  1  0.96495567  0.66725600  0.27266200  1.0
  Ni  Ni1080  1  0.16441400  0.04788667  0.28094420  1.0
  Ni  Ni1081  1  0.16441400  0.38122000  0.28094420  1.0
  Ni  Ni1082  1  0.16441400  0.71455333  0.28094420  1.0
  Ni  Ni1083  1  0.49774733  0.04788667  0.28094420  1.0
  Ni  Ni1084  1  0.49774733  0.38122000  0.28094420  1.0
  Ni  Ni1085  1  0.49774733  0.71455333  0.28094420  1.0
  Ni  Ni1086  1  0.83108067  0.04788667  0.28094420  1.0
  Ni  Ni1087  1  0.83108067  0.38122000  0.28094420  1.0
  Ni  Ni1088  1  0.83108067  0.71455333  0.28094420  1.0
  Ni  Ni1089  1  0.16891933  0.28544667  0.30623980  1.0
  Ni  Ni1090  1  0.16891933  0.61878000  0.30623980  1.0
  Ni  Ni1091  1  0.16891933  0.95211333  0.30623980  1.0
  Ni  Ni1092  1  0.50225267  0.28544667  0.30623980  1.0
  Ni  Ni1093  1  0.50225267  0.61878000  0.30623980  1.0
  Ni  Ni1094  1  0.50225267  0.95211333  0.30623980  1.0
  Ni  Ni1095  1  0.83558600  0.28544667  0.30623980  1.0
  Ni  Ni1096  1  0.83558600  0.61878000  0.30623980  1.0
  Ni  Ni1097  1  0.83558600  0.95211333  0.30623980  1.0
  Ni  Ni1098  1  0.06880167  0.11752367  0.36521060  1.0
  Ni  Ni1099  1  0.06880167  0.45085700  0.36521060  1.0
  Ni  Ni1100  1  0.06880167  0.78419033  0.36521060  1.0
  Ni  Ni1101  1  0.40213500  0.11752367  0.36521060  1.0
  Ni  Ni1102  1  0.40213500  0.45085700  0.36521060  1.0
  Ni  Ni1103  1  0.40213500  0.78419033  0.36521060  1.0
  Ni  Ni1104  1  0.73546833  0.11752367  0.36521060  1.0
  Ni  Ni1105  1  0.73546833  0.45085700  0.36521060  1.0
  Ni  Ni1106  1  0.73546833  0.78419033  0.36521060  1.0
  Ni  Ni1107  1  0.00225267  0.21455333  0.38094420  1.0
  Ni  Ni1108  1  0.00225267  0.54788667  0.38094420  1.0
  Ni  Ni1109  1  0.00225267  0.88122000  0.38094420  1.0
  Ni  Ni1110  1  0.33558600  0.21455333  0.38094420  1.0
  Ni  Ni1111  1  0.33558600  0.54788667  0.38094420  1.0
  Ni  Ni1112  1  0.33558600  0.88122000  0.38094420  1.0
  Ni  Ni1113  1  0.66891933  0.21455333  0.38094420  1.0
  Ni  Ni1114  1  0.66891933  0.54788667  0.38094420  1.0
  Ni  Ni1115  1  0.66891933  0.88122000  0.38094420  1.0
  Ni  Ni1116  1  0.16441400  0.11878000  0.22348020  1.0
  Ni  Ni1117  1  0.16441400  0.45211333  0.22348020  1.0
  Ni  Ni1118  1  0.16441400  0.78544667  0.22348020  1.0
  Ni  Ni1119  1  0.49774733  0.11878000  0.22348020  1.0
  Ni  Ni1120  1  0.49774733  0.45211333  0.22348020  1.0
  Ni  Ni1121  1  0.49774733  0.78544667  0.22348020  1.0
  Ni  Ni1122  1  0.83108067  0.11878000  0.22348020  1.0
  Ni  Ni1123  1  0.83108067  0.45211333  0.22348020  1.0
  Ni  Ni1124  1  0.83108067  0.78544667  0.22348020  1.0
  Ni  Ni1125  1  0.33108067  0.04788667  0.26370380  1.0
  Ni  Ni1126  1  0.33108067  0.38122000  0.26370380  1.0
  Ni  Ni1127  1  0.33108067  0.71455333  0.26370380  1.0
  Ni  Ni1128  1  0.66441400  0.04788667  0.26370380  1.0
  Ni  Ni1129  1  0.66441400  0.38122000  0.26370380  1.0
  Ni  Ni1130  1  0.66441400  0.71455333  0.26370380  1.0
  Ni  Ni1131  1  0.99774733  0.04788667  0.26370380  1.0
  Ni  Ni1132  1  0.99774733  0.38122000  0.26370380  1.0
  Ni  Ni1133  1  0.99774733  0.71455333  0.26370380  1.0
  Ni  Ni1134  1  0.16918733  0.04888733  0.36484860  1.0
  Ni  Ni1135  1  0.16918733  0.38222067  0.36484860  1.0
  Ni  Ni1136  1  0.16918733  0.71555400  0.36484860  1.0
  Ni  Ni1137  1  0.50252067  0.04888733  0.36484860  1.0
  Ni  Ni1138  1  0.50252067  0.38222067  0.36484860  1.0
  Ni  Ni1139  1  0.50252067  0.71555400  0.36484860  1.0
  Ni  Ni1140  1  0.83585400  0.04888733  0.36484860  1.0
  Ni  Ni1141  1  0.83585400  0.38222067  0.36484860  1.0
  Ni  Ni1142  1  0.83585400  0.71555400  0.36484860  1.0
  Ni  Ni1143  1  0.23546833  0.04914300  0.32197340  1.0
  Ni  Ni1144  1  0.23546833  0.38247633  0.32197340  1.0
  Ni  Ni1145  1  0.23546833  0.71580967  0.32197340  1.0
  Ni  Ni1146  1  0.56880167  0.04914300  0.32197340  1.0
  Ni  Ni1147  1  0.56880167  0.38247633  0.32197340  1.0
  Ni  Ni1148  1  0.56880167  0.71580967  0.32197340  1.0
  Ni  Ni1149  1  0.90213500  0.04914300  0.32197340  1.0
  Ni  Ni1150  1  0.90213500  0.38247633  0.32197340  1.0
  Ni  Ni1151  1  0.90213500  0.71580967  0.32197340  1.0
  Ni  Ni1152  1  0.16918733  0.11777933  0.30618380  1.0
  Ni  Ni1153  1  0.16918733  0.45111267  0.30618380  1.0
  Ni  Ni1154  1  0.16918733  0.78444600  0.30618380  1.0
  Ni  Ni1155  1  0.50252067  0.11777933  0.30618380  1.0
  Ni  Ni1156  1  0.50252067  0.45111267  0.30618380  1.0
  Ni  Ni1157  1  0.50252067  0.78444600  0.30618380  1.0
  Ni  Ni1158  1  0.83585400  0.11777933  0.30618380  1.0
  Ni  Ni1159  1  0.83585400  0.45111267  0.30618380  1.0
  Ni  Ni1160  1  0.83585400  0.78444600  0.30618380  1.0
  Ni  Ni1161  1  0.23546833  0.11752367  0.26300180  1.0
  Ni  Ni1162  1  0.23546833  0.45085700  0.26300180  1.0
  Ni  Ni1163  1  0.23546833  0.78419033  0.26300180  1.0
  Ni  Ni1164  1  0.56880167  0.11752367  0.26300180  1.0
  Ni  Ni1165  1  0.56880167  0.45085700  0.26300180  1.0
  Ni  Ni1166  1  0.56880167  0.78419033  0.26300180  1.0
  Ni  Ni1167  1  0.90213500  0.11752367  0.26300180  1.0
  Ni  Ni1168  1  0.90213500  0.45085700  0.26300180  1.0
  Ni  Ni1169  1  0.90213500  0.78419033  0.26300180  1.0
  Ni  Ni1170  1  0.09725933  0.11881367  0.26756100  1.0
  Ni  Ni1171  1  0.09725933  0.45214700  0.26756100  1.0
  Ni  Ni1172  1  0.09725933  0.78548033  0.26756100  1.0
  Ni  Ni1173  1  0.43059267  0.11881367  0.26756100  1.0
  Ni  Ni1174  1  0.43059267  0.45214700  0.26756100  1.0
  Ni  Ni1175  1  0.43059267  0.78548033  0.26756100  1.0
  Ni  Ni1176  1  0.76392600  0.11881367  0.26756100  1.0
  Ni  Ni1177  1  0.76392600  0.45214700  0.26756100  1.0
  Ni  Ni1178  1  0.76392600  0.78548033  0.26756100  1.0
  Ni  Ni1179  1  0.20171100  0.16725600  0.37266200  1.0
  Ni  Ni1180  1  0.20171100  0.50058933  0.37266200  1.0
  Ni  Ni1181  1  0.20171100  0.83392267  0.37266200  1.0
  Ni  Ni1182  1  0.53504433  0.16725600  0.37266200  1.0
  Ni  Ni1183  1  0.53504433  0.50058933  0.37266200  1.0
  Ni  Ni1184  1  0.53504433  0.83392267  0.37266200  1.0
  Ni  Ni1185  1  0.86837767  0.16725600  0.37266200  1.0
  Ni  Ni1186  1  0.86837767  0.50058933  0.37266200  1.0
  Ni  Ni1187  1  0.86837767  0.83392267  0.37266200  1.0
  Ni  Ni1188  1  0.29828900  0.16607733  0.27195480  1.0
  Ni  Ni1189  1  0.29828900  0.49941067  0.27195480  1.0
  Ni  Ni1190  1  0.29828900  0.83274400  0.27195480  1.0
  Ni  Ni1191  1  0.63162233  0.16607733  0.27195480  1.0
  Ni  Ni1192  1  0.63162233  0.49941067  0.27195480  1.0
  Ni  Ni1193  1  0.63162233  0.83274400  0.27195480  1.0
  Ni  Ni1194  1  0.96495567  0.16607733  0.27195480  1.0
  Ni  Ni1195  1  0.96495567  0.49941067  0.27195480  1.0
  Ni  Ni1196  1  0.96495567  0.83274400  0.27195480  1.0
  Ni  Ni1197  1  0.33081267  0.28444600  0.20618380  1.0
  Ni  Ni1198  1  0.33081267  0.61777933  0.20618380  1.0
  Ni  Ni1199  1  0.33081267  0.95111267  0.20618380  1.0
  Ni  Ni1200  1  0.66414600  0.28444600  0.20618380  1.0
  Ni  Ni1201  1  0.66414600  0.61777933  0.20618380  1.0
  Ni  Ni1202  1  0.66414600  0.95111267  0.20618380  1.0
  Ni  Ni1203  1  0.99747933  0.28444600  0.20618380  1.0
  Ni  Ni1204  1  0.99747933  0.61777933  0.20618380  1.0
  Ni  Ni1205  1  0.99747933  0.95111267  0.20618380  1.0
  Ni  Ni1206  1  0.00252067  0.04888733  0.38100020  1.0
  Ni  Ni1207  1  0.00252067  0.38222067  0.38100020  1.0
  Ni  Ni1208  1  0.00252067  0.71555400  0.38100020  1.0
  Ni  Ni1209  1  0.33585400  0.04888733  0.38100020  1.0
  Ni  Ni1210  1  0.33585400  0.38222067  0.38100020  1.0
  Ni  Ni1211  1  0.33585400  0.71555400  0.38100020  1.0
  Ni  Ni1212  1  0.66918733  0.04888733  0.38100020  1.0
  Ni  Ni1213  1  0.66918733  0.38222067  0.38100020  1.0
  Ni  Ni1214  1  0.66918733  0.71555400  0.38100020  1.0
  Ni  Ni1215  1  0.09725933  0.04785300  0.32498460  1.0
  Ni  Ni1216  1  0.09725933  0.38118633  0.32498460  1.0
  Ni  Ni1217  1  0.09725933  0.71451967  0.32498460  1.0
  Ni  Ni1218  1  0.43059267  0.04785300  0.32498460  1.0
  Ni  Ni1219  1  0.43059267  0.38118633  0.32498460  1.0
  Ni  Ni1220  1  0.43059267  0.71451967  0.32498460  1.0
  Ni  Ni1221  1  0.76392600  0.04785300  0.32498460  1.0
  Ni  Ni1222  1  0.76392600  0.38118633  0.32498460  1.0
  Ni  Ni1223  1  0.76392600  0.71451967  0.32498460  1.0
