# generated using pymatgen
data_Zr7Ni10
_symmetry_space_group_name_H-M   'P 1'
_cell_length_a   36.09250972
_cell_length_b   39.04910676
_cell_length_c   35.15101565
_cell_angle_alpha   84.86068851
_cell_angle_beta   84.05407183
_cell_angle_gamma   73.99429331
_symmetry_Int_Tables_number   1
_chemical_formula_structural   Zr7Ni10
_chemical_formula_sum   'Zr504 Ni720'
_cell_volume   47267.90156434
_cell_formula_units_Z   72
loop_
 _symmetry_equiv_pos_site_id
 _symmetry_equiv_pos_as_xyz
  1  'x, y, z'
loop_
 _atom_site_type_symbol
 _atom_site_label
 _atom_site_symmetry_multiplicity
 _atom_site_fract_x
 _atom_site_fract_y
 _atom_site_fract_z
 _atom_site_occupancy
  Ni  Ni0  1  0.00006117  0.23362827  0.80664430  1.0
  Ni  Ni1  1  0.00006117  0.56696160  0.80664430  1.0
  Ni  Ni2  1  0.00006117  0.90029493  0.80664430  1.0
  Ni  Ni3  1  0.33339450  0.23362827  0.80664430  1.0
  Ni  Ni4  1  0.33339450  0.56696160  0.80664430  1.0
  Ni  Ni5  1  0.33339450  0.90029493  0.80664430  1.0
  Ni  Ni6  1  0.66672783  0.23362827  0.80664430  1.0
  Ni  Ni7  1  0.66672783  0.56696160  0.80664430  1.0
  Ni  Ni8  1  0.66672783  0.90029493  0.80664430  1.0
  Ni  Ni9  1  0.16672783  0.10029493  0.90664430  1.0
  Ni  Ni10  1  0.16672783  0.43362827  0.90664430  1.0
  Ni  Ni11  1  0.16672783  0.76696160  0.90664430  1.0
  Ni  Ni12  1  0.50006117  0.10029493  0.90664430  1.0
  Ni  Ni13  1  0.50006117  0.43362827  0.90664430  1.0
  Ni  Ni14  1  0.50006117  0.76696160  0.90664430  1.0
  Ni  Ni15  1  0.83339450  0.10029493  0.90664430  1.0
  Ni  Ni16  1  0.83339450  0.43362827  0.90664430  1.0
  Ni  Ni17  1  0.83339450  0.76696160  0.90664430  1.0
  Ni  Ni18  1  0.02543300  0.21649387  0.93290660  1.0
  Ni  Ni19  1  0.02543300  0.54982720  0.93290660  1.0
  Ni  Ni20  1  0.02543300  0.88316053  0.93290660  1.0
  Ni  Ni21  1  0.35876633  0.21649387  0.93290660  1.0
  Ni  Ni22  1  0.35876633  0.54982720  0.93290660  1.0
  Ni  Ni23  1  0.35876633  0.88316053  0.93290660  1.0
  Ni  Ni24  1  0.69209967  0.21649387  0.93290660  1.0
  Ni  Ni25  1  0.69209967  0.54982720  0.93290660  1.0
  Ni  Ni26  1  0.69209967  0.88316053  0.93290660  1.0
  Ni  Ni27  1  0.19209967  0.01649387  0.83290660  1.0
  Ni  Ni28  1  0.19209967  0.34982720  0.83290660  1.0
  Ni  Ni29  1  0.19209967  0.68316053  0.83290660  1.0
  Ni  Ni30  1  0.52543300  0.01649387  0.83290660  1.0
  Ni  Ni31  1  0.52543300  0.34982720  0.83290660  1.0
  Ni  Ni32  1  0.52543300  0.68316053  0.83290660  1.0
  Ni  Ni33  1  0.85876633  0.01649387  0.83290660  1.0
  Ni  Ni34  1  0.85876633  0.34982720  0.83290660  1.0
  Ni  Ni35  1  0.85876633  0.68316053  0.83290660  1.0
  Ni  Ni36  1  0.07420650  0.03471507  0.82007970  1.0
  Ni  Ni37  1  0.07420650  0.36804840  0.82007970  1.0
  Ni  Ni38  1  0.07420650  0.70138173  0.82007970  1.0
  Ni  Ni39  1  0.40753983  0.03471507  0.82007970  1.0
  Ni  Ni40  1  0.40753983  0.36804840  0.82007970  1.0
  Ni  Ni41  1  0.40753983  0.70138173  0.82007970  1.0
  Ni  Ni42  1  0.74087317  0.03471507  0.82007970  1.0
  Ni  Ni43  1  0.74087317  0.36804840  0.82007970  1.0
  Ni  Ni44  1  0.74087317  0.70138173  0.82007970  1.0
  Ni  Ni45  1  0.24087317  0.23471507  0.92007970  1.0
  Ni  Ni46  1  0.24087317  0.56804840  0.92007970  1.0
  Ni  Ni47  1  0.24087317  0.90138173  0.92007970  1.0
  Ni  Ni48  1  0.57420650  0.23471507  0.92007970  1.0
  Ni  Ni49  1  0.57420650  0.56804840  0.92007970  1.0
  Ni  Ni50  1  0.57420650  0.90138173  0.92007970  1.0
  Ni  Ni51  1  0.90753983  0.23471507  0.92007970  1.0
  Ni  Ni52  1  0.90753983  0.56804840  0.92007970  1.0
  Ni  Ni53  1  0.90753983  0.90138173  0.92007970  1.0
  Ni  Ni54  1  0.25913817  0.14079833  0.99268350  1.0
  Ni  Ni55  1  0.25913817  0.47413167  0.99268350  1.0
  Ni  Ni56  1  0.25913817  0.80746500  0.99268350  1.0
  Ni  Ni57  1  0.59247150  0.14079833  0.99268350  1.0
  Ni  Ni58  1  0.59247150  0.47413167  0.99268350  1.0
  Ni  Ni59  1  0.59247150  0.80746500  0.99268350  1.0
  Ni  Ni60  1  0.92580483  0.14079833  0.99268350  1.0
  Ni  Ni61  1  0.92580483  0.47413167  0.99268350  1.0
  Ni  Ni62  1  0.92580483  0.80746500  0.99268350  1.0
  Ni  Ni63  1  0.09247150  0.27413167  0.89268350  1.0
  Ni  Ni64  1  0.09247150  0.60746500  0.89268350  1.0
  Ni  Ni65  1  0.09247150  0.94079833  0.89268350  1.0
  Ni  Ni66  1  0.42580483  0.27413167  0.89268350  1.0
  Ni  Ni67  1  0.42580483  0.60746500  0.89268350  1.0
  Ni  Ni68  1  0.42580483  0.94079833  0.89268350  1.0
  Ni  Ni69  1  0.75913817  0.27413167  0.89268350  1.0
  Ni  Ni70  1  0.75913817  0.60746500  0.89268350  1.0
  Ni  Ni71  1  0.75913817  0.94079833  0.89268350  1.0
  Ni  Ni72  1  0.30990383  0.21888927  0.87925330  1.0
  Ni  Ni73  1  0.30990383  0.55222260  0.87925330  1.0
  Ni  Ni74  1  0.30990383  0.88555593  0.87925330  1.0
  Ni  Ni75  1  0.64323717  0.21888927  0.87925330  1.0
  Ni  Ni76  1  0.64323717  0.55222260  0.87925330  1.0
  Ni  Ni77  1  0.64323717  0.88555593  0.87925330  1.0
  Ni  Ni78  1  0.97657050  0.21888927  0.87925330  1.0
  Ni  Ni79  1  0.97657050  0.55222260  0.87925330  1.0
  Ni  Ni80  1  0.97657050  0.88555593  0.87925330  1.0
  Ni  Ni81  1  0.14323717  0.08555593  0.97925330  1.0
  Ni  Ni82  1  0.14323717  0.41888927  0.97925330  1.0
  Ni  Ni83  1  0.14323717  0.75222260  0.97925330  1.0
  Ni  Ni84  1  0.47657050  0.08555593  0.97925330  1.0
  Ni  Ni85  1  0.47657050  0.41888927  0.97925330  1.0
  Ni  Ni86  1  0.47657050  0.75222260  0.97925330  1.0
  Ni  Ni87  1  0.80990383  0.08555593  0.97925330  1.0
  Ni  Ni88  1  0.80990383  0.41888927  0.97925330  1.0
  Ni  Ni89  1  0.80990383  0.75222260  0.97925330  1.0
  Ni  Ni90  1  0.09447500  0.10506080  0.89148140  1.0
  Ni  Ni91  1  0.09447500  0.43839413  0.89148140  1.0
  Ni  Ni92  1  0.09447500  0.77172747  0.89148140  1.0
  Ni  Ni93  1  0.42780833  0.10506080  0.89148140  1.0
  Ni  Ni94  1  0.42780833  0.43839413  0.89148140  1.0
  Ni  Ni95  1  0.42780833  0.77172747  0.89148140  1.0
  Ni  Ni96  1  0.76114167  0.10506080  0.89148140  1.0
  Ni  Ni97  1  0.76114167  0.43839413  0.89148140  1.0
  Ni  Ni98  1  0.76114167  0.77172747  0.89148140  1.0
  Ni  Ni99  1  0.26114167  0.30506080  0.99148140  1.0
  Ni  Ni100  1  0.26114167  0.63839413  0.99148140  1.0
  Ni  Ni101  1  0.26114167  0.97172747  0.99148140  1.0
  Ni  Ni102  1  0.59447500  0.30506080  0.99148140  1.0
  Ni  Ni103  1  0.59447500  0.63839413  0.99148140  1.0
  Ni  Ni104  1  0.59447500  0.97172747  0.99148140  1.0
  Ni  Ni105  1  0.92780833  0.30506080  0.99148140  1.0
  Ni  Ni106  1  0.92780833  0.63839413  0.99148140  1.0
  Ni  Ni107  1  0.92780833  0.97172747  0.99148140  1.0
  Ni  Ni108  1  0.29808017  0.10933880  0.82783290  1.0
  Ni  Ni109  1  0.29808017  0.44267213  0.82783290  1.0
  Ni  Ni110  1  0.29808017  0.77600547  0.82783290  1.0
  Ni  Ni111  1  0.63141350  0.10933880  0.82783290  1.0
  Ni  Ni112  1  0.63141350  0.44267213  0.82783290  1.0
  Ni  Ni113  1  0.63141350  0.77600547  0.82783290  1.0
  Ni  Ni114  1  0.96474683  0.10933880  0.82783290  1.0
  Ni  Ni115  1  0.96474683  0.44267213  0.82783290  1.0
  Ni  Ni116  1  0.96474683  0.77600547  0.82783290  1.0
  Ni  Ni117  1  0.13141350  0.30933880  0.92783290  1.0
  Ni  Ni118  1  0.13141350  0.64267213  0.92783290  1.0
  Ni  Ni119  1  0.13141350  0.97600547  0.92783290  1.0
  Ni  Ni120  1  0.46474683  0.30933880  0.92783290  1.0
  Ni  Ni121  1  0.46474683  0.64267213  0.92783290  1.0
  Ni  Ni122  1  0.46474683  0.97600547  0.92783290  1.0
  Ni  Ni123  1  0.79808017  0.30933880  0.92783290  1.0
  Ni  Ni124  1  0.79808017  0.64267213  0.92783290  1.0
  Ni  Ni125  1  0.79808017  0.97600547  0.92783290  1.0
  Ni  Ni126  1  0.26135517  0.07152160  0.99194530  1.0
  Ni  Ni127  1  0.26135517  0.40485493  0.99194530  1.0
  Ni  Ni128  1  0.26135517  0.73818827  0.99194530  1.0
  Ni  Ni129  1  0.59468850  0.07152160  0.99194530  1.0
  Ni  Ni130  1  0.59468850  0.40485493  0.99194530  1.0
  Ni  Ni131  1  0.59468850  0.73818827  0.99194530  1.0
  Ni  Ni132  1  0.92802183  0.07152160  0.99194530  1.0
  Ni  Ni133  1  0.92802183  0.40485493  0.99194530  1.0
  Ni  Ni134  1  0.92802183  0.73818827  0.99194530  1.0
  Ni  Ni135  1  0.09468850  0.20485493  0.89194530  1.0
  Ni  Ni136  1  0.09468850  0.53818827  0.89194530  1.0
  Ni  Ni137  1  0.09468850  0.87152160  0.89194530  1.0
  Ni  Ni138  1  0.42802183  0.20485493  0.89194530  1.0
  Ni  Ni139  1  0.42802183  0.53818827  0.89194530  1.0
  Ni  Ni140  1  0.42802183  0.87152160  0.89194530  1.0
  Ni  Ni141  1  0.76135517  0.20485493  0.89194530  1.0
  Ni  Ni142  1  0.76135517  0.53818827  0.89194530  1.0
  Ni  Ni143  1  0.76135517  0.87152160  0.89194530  1.0
  Ni  Ni144  1  0.30790033  0.05462680  0.88045540  1.0
  Ni  Ni145  1  0.30790033  0.38796013  0.88045540  1.0
  Ni  Ni146  1  0.30790033  0.72129347  0.88045540  1.0
  Ni  Ni147  1  0.64123367  0.05462680  0.88045540  1.0
  Ni  Ni148  1  0.64123367  0.38796013  0.88045540  1.0
  Ni  Ni149  1  0.64123367  0.72129347  0.88045540  1.0
  Ni  Ni150  1  0.97456700  0.05462680  0.88045540  1.0
  Ni  Ni151  1  0.97456700  0.38796013  0.88045540  1.0
  Ni  Ni152  1  0.97456700  0.72129347  0.88045540  1.0
  Ni  Ni153  1  0.14123367  0.25462680  0.98045540  1.0
  Ni  Ni154  1  0.14123367  0.58796013  0.98045540  1.0
  Ni  Ni155  1  0.14123367  0.92129347  0.98045540  1.0
  Ni  Ni156  1  0.47456700  0.25462680  0.98045540  1.0
  Ni  Ni157  1  0.47456700  0.58796013  0.98045540  1.0
  Ni  Ni158  1  0.47456700  0.92129347  0.98045540  1.0
  Ni  Ni159  1  0.80790033  0.25462680  0.98045540  1.0
  Ni  Ni160  1  0.80790033  0.58796013  0.98045540  1.0
  Ni  Ni161  1  0.80790033  0.92129347  0.98045540  1.0
  Ni  Ni162  1  0.02342950  0.05223140  0.93410870  1.0
  Ni  Ni163  1  0.02342950  0.38556473  0.93410870  1.0
  Ni  Ni164  1  0.02342950  0.71889807  0.93410870  1.0
  Ni  Ni165  1  0.35676283  0.05223140  0.93410870  1.0
  Ni  Ni166  1  0.35676283  0.38556473  0.93410870  1.0
  Ni  Ni167  1  0.35676283  0.71889807  0.93410870  1.0
  Ni  Ni168  1  0.69009617  0.05223140  0.93410870  1.0
  Ni  Ni169  1  0.69009617  0.38556473  0.93410870  1.0
  Ni  Ni170  1  0.69009617  0.71889807  0.93410870  1.0
  Ni  Ni171  1  0.19009617  0.18556473  0.83410870  1.0
  Ni  Ni172  1  0.19009617  0.51889807  0.83410870  1.0
  Ni  Ni173  1  0.19009617  0.85223140  0.83410870  1.0
  Ni  Ni174  1  0.52342950  0.18556473  0.83410870  1.0
  Ni  Ni175  1  0.52342950  0.51889807  0.83410870  1.0
  Ni  Ni176  1  0.52342950  0.85223140  0.83410870  1.0
  Ni  Ni177  1  0.85676283  0.18556473  0.83410870  1.0
  Ni  Ni178  1  0.85676283  0.51889807  0.83410870  1.0
  Ni  Ni179  1  0.85676283  0.85223140  0.83410870  1.0
  Ni  Ni180  1  0.30962400  0.31888073  0.87882920  1.0
  Ni  Ni181  1  0.30962400  0.65221407  0.87882920  1.0
  Ni  Ni182  1  0.30962400  0.98554740  0.87882920  1.0
  Ni  Ni183  1  0.64295733  0.31888073  0.87882920  1.0
  Ni  Ni184  1  0.64295733  0.65221407  0.87882920  1.0
  Ni  Ni185  1  0.64295733  0.98554740  0.87882920  1.0
  Ni  Ni186  1  0.97629067  0.31888073  0.87882920  1.0
  Ni  Ni187  1  0.97629067  0.65221407  0.87882920  1.0
  Ni  Ni188  1  0.97629067  0.98554740  0.87882920  1.0
  Ni  Ni189  1  0.14295733  0.18554740  0.97882920  1.0
  Ni  Ni190  1  0.14295733  0.51888073  0.97882920  1.0
  Ni  Ni191  1  0.14295733  0.85221407  0.97882920  1.0
  Ni  Ni192  1  0.47629067  0.18554740  0.97882920  1.0
  Ni  Ni193  1  0.47629067  0.51888073  0.97882920  1.0
  Ni  Ni194  1  0.47629067  0.85221407  0.97882920  1.0
  Ni  Ni195  1  0.80962400  0.18554740  0.97882920  1.0
  Ni  Ni196  1  0.80962400  0.51888073  0.97882920  1.0
  Ni  Ni197  1  0.80962400  0.85221407  0.97882920  1.0
  Ni  Ni198  1  0.07197817  0.19959907  0.82141670  1.0
  Ni  Ni199  1  0.07197817  0.53293240  0.82141670  1.0
  Ni  Ni200  1  0.07197817  0.86626573  0.82141670  1.0
  Ni  Ni201  1  0.40531150  0.19959907  0.82141670  1.0
  Ni  Ni202  1  0.40531150  0.53293240  0.82141670  1.0
  Ni  Ni203  1  0.40531150  0.86626573  0.82141670  1.0
  Ni  Ni204  1  0.73864483  0.19959907  0.82141670  1.0
  Ni  Ni205  1  0.73864483  0.53293240  0.82141670  1.0
  Ni  Ni206  1  0.73864483  0.86626573  0.82141670  1.0
  Ni  Ni207  1  0.23864483  0.06626573  0.92141670  1.0
  Ni  Ni208  1  0.23864483  0.39959907  0.92141670  1.0
  Ni  Ni209  1  0.23864483  0.73293240  0.92141670  1.0
  Ni  Ni210  1  0.57197817  0.06626573  0.92141670  1.0
  Ni  Ni211  1  0.57197817  0.39959907  0.92141670  1.0
  Ni  Ni212  1  0.57197817  0.73293240  0.92141670  1.0
  Ni  Ni213  1  0.90531150  0.06626573  0.92141670  1.0
  Ni  Ni214  1  0.90531150  0.39959907  0.92141670  1.0
  Ni  Ni215  1  0.90531150  0.73293240  0.92141670  1.0
  Ni  Ni216  1  0.25912683  0.23640560  0.99328230  1.0
  Ni  Ni217  1  0.25912683  0.56973893  0.99328230  1.0
  Ni  Ni218  1  0.25912683  0.90307227  0.99328230  1.0
  Ni  Ni219  1  0.59246017  0.23640560  0.99328230  1.0
  Ni  Ni220  1  0.59246017  0.56973893  0.99328230  1.0
  Ni  Ni221  1  0.59246017  0.90307227  0.99328230  1.0
  Ni  Ni222  1  0.92579350  0.23640560  0.99328230  1.0
  Ni  Ni223  1  0.92579350  0.56973893  0.99328230  1.0
  Ni  Ni224  1  0.92579350  0.90307227  0.99328230  1.0
  Ni  Ni225  1  0.09246017  0.03640560  0.89328230  1.0
  Ni  Ni226  1  0.09246017  0.36973893  0.89328230  1.0
  Ni  Ni227  1  0.09246017  0.70307227  0.89328230  1.0
  Ni  Ni228  1  0.42579350  0.03640560  0.89328230  1.0
  Ni  Ni229  1  0.42579350  0.36973893  0.89328230  1.0
  Ni  Ni230  1  0.42579350  0.70307227  0.89328230  1.0
  Ni  Ni231  1  0.75912683  0.03640560  0.89328230  1.0
  Ni  Ni232  1  0.75912683  0.36973893  0.89328230  1.0
  Ni  Ni233  1  0.75912683  0.70307227  0.89328230  1.0
  Ni  Ni234  1  0.30739567  0.15043140  0.88016620  1.0
  Ni  Ni235  1  0.30739567  0.48376473  0.88016620  1.0
  Ni  Ni236  1  0.30739567  0.81709807  0.88016620  1.0
  Ni  Ni237  1  0.64072900  0.15043140  0.88016620  1.0
  Ni  Ni238  1  0.64072900  0.48376473  0.88016620  1.0
  Ni  Ni239  1  0.64072900  0.81709807  0.88016620  1.0
  Ni  Ni240  1  0.97406233  0.15043140  0.88016620  1.0
  Ni  Ni241  1  0.97406233  0.48376473  0.88016620  1.0
  Ni  Ni242  1  0.97406233  0.81709807  0.88016620  1.0
  Ni  Ni243  1  0.14072900  0.01709807  0.98016620  1.0
  Ni  Ni244  1  0.14072900  0.35043140  0.98016620  1.0
  Ni  Ni245  1  0.14072900  0.68376473  0.98016620  1.0
  Ni  Ni246  1  0.47406233  0.01709807  0.98016620  1.0
  Ni  Ni247  1  0.47406233  0.35043140  0.98016620  1.0
  Ni  Ni248  1  0.47406233  0.68376473  0.98016620  1.0
  Ni  Ni249  1  0.80739567  0.01709807  0.98016620  1.0
  Ni  Ni250  1  0.80739567  0.35043140  0.98016620  1.0
  Ni  Ni251  1  0.80739567  0.68376473  0.98016620  1.0
  Ni  Ni252  1  0.33327217  0.30415907  0.80671770  1.0
  Ni  Ni253  1  0.33327217  0.63749240  0.80671770  1.0
  Ni  Ni254  1  0.33327217  0.97082573  0.80671770  1.0
  Ni  Ni255  1  0.66660550  0.30415907  0.80671770  1.0
  Ni  Ni256  1  0.66660550  0.63749240  0.80671770  1.0
  Ni  Ni257  1  0.66660550  0.97082573  0.80671770  1.0
  Ni  Ni258  1  0.99993883  0.30415907  0.80671770  1.0
  Ni  Ni259  1  0.99993883  0.63749240  0.80671770  1.0
  Ni  Ni260  1  0.99993883  0.97082573  0.80671770  1.0
  Ni  Ni261  1  0.16660550  0.17082573  0.90671770  1.0
  Ni  Ni262  1  0.16660550  0.50415907  0.90671770  1.0
  Ni  Ni263  1  0.16660550  0.83749240  0.90671770  1.0
  Ni  Ni264  1  0.49993883  0.17082573  0.90671770  1.0
  Ni  Ni265  1  0.49993883  0.50415907  0.90671770  1.0
  Ni  Ni266  1  0.49993883  0.83749240  0.90671770  1.0
  Ni  Ni267  1  0.83327217  0.17082573  0.90671770  1.0
  Ni  Ni268  1  0.83327217  0.50415907  0.90671770  1.0
  Ni  Ni269  1  0.83327217  0.83749240  0.90671770  1.0
  Ni  Ni270  1  0.03525317  0.16178187  0.98552910  1.0
  Ni  Ni271  1  0.03525317  0.49511520  0.98552910  1.0
  Ni  Ni272  1  0.03525317  0.82844853  0.98552910  1.0
  Ni  Ni273  1  0.36858650  0.16178187  0.98552910  1.0
  Ni  Ni274  1  0.36858650  0.49511520  0.98552910  1.0
  Ni  Ni275  1  0.36858650  0.82844853  0.98552910  1.0
  Ni  Ni276  1  0.70191983  0.16178187  0.98552910  1.0
  Ni  Ni277  1  0.70191983  0.49511520  0.98552910  1.0
  Ni  Ni278  1  0.70191983  0.82844853  0.98552910  1.0
  Ni  Ni279  1  0.20191983  0.29511520  0.88552910  1.0
  Ni  Ni280  1  0.20191983  0.62844853  0.88552910  1.0
  Ni  Ni281  1  0.20191983  0.96178187  0.88552910  1.0
  Ni  Ni282  1  0.53525317  0.29511520  0.88552910  1.0
  Ni  Ni283  1  0.53525317  0.62844853  0.88552910  1.0
  Ni  Ni284  1  0.53525317  0.96178187  0.88552910  1.0
  Ni  Ni285  1  0.86858650  0.29511520  0.88552910  1.0
  Ni  Ni286  1  0.86858650  0.62844853  0.88552910  1.0
  Ni  Ni287  1  0.86858650  0.96178187  0.88552910  1.0
  Ni  Ni288  1  0.02370933  0.28557327  0.93453280  1.0
  Ni  Ni289  1  0.02370933  0.61890660  0.93453280  1.0
  Ni  Ni290  1  0.02370933  0.95223993  0.93453280  1.0
  Ni  Ni291  1  0.35704267  0.28557327  0.93453280  1.0
  Ni  Ni292  1  0.35704267  0.61890660  0.93453280  1.0
  Ni  Ni293  1  0.35704267  0.95223993  0.93453280  1.0
  Ni  Ni294  1  0.69037600  0.28557327  0.93453280  1.0
  Ni  Ni295  1  0.69037600  0.61890660  0.93453280  1.0
  Ni  Ni296  1  0.69037600  0.95223993  0.93453280  1.0
  Ni  Ni297  1  0.19037600  0.08557327  0.83453280  1.0
  Ni  Ni298  1  0.19037600  0.41890660  0.83453280  1.0
  Ni  Ni299  1  0.19037600  0.75223993  0.83453280  1.0
  Ni  Ni300  1  0.52370933  0.08557327  0.83453280  1.0
  Ni  Ni301  1  0.52370933  0.41890660  0.83453280  1.0
  Ni  Ni302  1  0.52370933  0.75223993  0.83453280  1.0
  Ni  Ni303  1  0.85704267  0.08557327  0.83453280  1.0
  Ni  Ni304  1  0.85704267  0.41890660  0.83453280  1.0
  Ni  Ni305  1  0.85704267  0.75223993  0.83453280  1.0
  Ni  Ni306  1  0.02593767  0.12068927  0.93319580  1.0
  Ni  Ni307  1  0.02593767  0.45402260  0.93319580  1.0
  Ni  Ni308  1  0.02593767  0.78735593  0.93319580  1.0
  Ni  Ni309  1  0.35927100  0.12068927  0.93319580  1.0
  Ni  Ni310  1  0.35927100  0.45402260  0.93319580  1.0
  Ni  Ni311  1  0.35927100  0.78735593  0.93319580  1.0
  Ni  Ni312  1  0.69260433  0.12068927  0.93319580  1.0
  Ni  Ni313  1  0.69260433  0.45402260  0.93319580  1.0
  Ni  Ni314  1  0.69260433  0.78735593  0.93319580  1.0
  Ni  Ni315  1  0.19260433  0.25402260  0.83319580  1.0
  Ni  Ni316  1  0.19260433  0.58735593  0.83319580  1.0
  Ni  Ni317  1  0.19260433  0.92068927  0.83319580  1.0
  Ni  Ni318  1  0.52593767  0.25402260  0.83319580  1.0
  Ni  Ni319  1  0.52593767  0.58735593  0.83319580  1.0
  Ni  Ni320  1  0.52593767  0.92068927  0.83319580  1.0
  Ni  Ni321  1  0.85927100  0.25402260  0.83319580  1.0
  Ni  Ni322  1  0.85927100  0.58735593  0.83319580  1.0
  Ni  Ni323  1  0.85927100  0.92068927  0.83319580  1.0
  Ni  Ni324  1  0.23885833  0.16605987  0.92188060  1.0
  Ni  Ni325  1  0.23885833  0.49939320  0.92188060  1.0
  Ni  Ni326  1  0.23885833  0.83272653  0.92188060  1.0
  Ni  Ni327  1  0.57219167  0.16605987  0.92188060  1.0
  Ni  Ni328  1  0.57219167  0.49939320  0.92188060  1.0
  Ni  Ni329  1  0.57219167  0.83272653  0.92188060  1.0
  Ni  Ni330  1  0.90552500  0.16605987  0.92188060  1.0
  Ni  Ni331  1  0.90552500  0.49939320  0.92188060  1.0
  Ni  Ni332  1  0.90552500  0.83272653  0.92188060  1.0
  Ni  Ni333  1  0.07219167  0.29939320  0.82188060  1.0
  Ni  Ni334  1  0.07219167  0.63272653  0.82188060  1.0
  Ni  Ni335  1  0.07219167  0.96605987  0.82188060  1.0
  Ni  Ni336  1  0.40552500  0.29939320  0.82188060  1.0
  Ni  Ni337  1  0.40552500  0.63272653  0.82188060  1.0
  Ni  Ni338  1  0.40552500  0.96605987  0.82188060  1.0
  Ni  Ni339  1  0.73885833  0.29939320  0.82188060  1.0
  Ni  Ni340  1  0.73885833  0.63272653  0.82188060  1.0
  Ni  Ni341  1  0.73885833  0.96605987  0.82188060  1.0
  Ni  Ni342  1  0.07419517  0.13032233  0.82067850  1.0
  Ni  Ni343  1  0.07419517  0.46365567  0.82067850  1.0
  Ni  Ni344  1  0.07419517  0.79698900  0.82067850  1.0
  Ni  Ni345  1  0.40752850  0.13032233  0.82067850  1.0
  Ni  Ni346  1  0.40752850  0.46365567  0.82067850  1.0
  Ni  Ni347  1  0.40752850  0.79698900  0.82067850  1.0
  Ni  Ni348  1  0.74086183  0.13032233  0.82067850  1.0
  Ni  Ni349  1  0.74086183  0.46365567  0.82067850  1.0
  Ni  Ni350  1  0.74086183  0.79698900  0.82067850  1.0
  Ni  Ni351  1  0.24086183  0.33032233  0.92067850  1.0
  Ni  Ni352  1  0.24086183  0.66365567  0.92067850  1.0
  Ni  Ni353  1  0.24086183  0.99698900  0.92067850  1.0
  Ni  Ni354  1  0.57419517  0.33032233  0.92067850  1.0
  Ni  Ni355  1  0.57419517  0.66365567  0.92067850  1.0
  Ni  Ni356  1  0.57419517  0.99698900  0.92067850  1.0
  Ni  Ni357  1  0.90752850  0.33032233  0.92067850  1.0
  Ni  Ni358  1  0.90752850  0.66365567  0.92067850  1.0
  Ni  Ni359  1  0.90752850  0.99698900  0.92067850  1.0
  Ni  Ni360  1  0.00006117  0.16696160  0.60664430  1.0
  Ni  Ni361  1  0.00006117  0.50029493  0.60664430  1.0
  Ni  Ni362  1  0.00006117  0.83362827  0.60664430  1.0
  Ni  Ni363  1  0.33339450  0.16696160  0.60664430  1.0
  Ni  Ni364  1  0.33339450  0.50029493  0.60664430  1.0
  Ni  Ni365  1  0.33339450  0.83362827  0.60664430  1.0
  Ni  Ni366  1  0.66672783  0.16696160  0.60664430  1.0
  Ni  Ni367  1  0.66672783  0.50029493  0.60664430  1.0
  Ni  Ni368  1  0.66672783  0.83362827  0.60664430  1.0
  Ni  Ni369  1  0.16672783  0.03362827  0.70664430  1.0
  Ni  Ni370  1  0.16672783  0.36696160  0.70664430  1.0
  Ni  Ni371  1  0.16672783  0.70029493  0.70664430  1.0
  Ni  Ni372  1  0.50006117  0.03362827  0.70664430  1.0
  Ni  Ni373  1  0.50006117  0.36696160  0.70664430  1.0
  Ni  Ni374  1  0.50006117  0.70029493  0.70664430  1.0
  Ni  Ni375  1  0.83339450  0.03362827  0.70664430  1.0
  Ni  Ni376  1  0.83339450  0.36696160  0.70664430  1.0
  Ni  Ni377  1  0.83339450  0.70029493  0.70664430  1.0
  Ni  Ni378  1  0.02543300  0.14982720  0.73290660  1.0
  Ni  Ni379  1  0.02543300  0.48316053  0.73290660  1.0
  Ni  Ni380  1  0.02543300  0.81649387  0.73290660  1.0
  Ni  Ni381  1  0.35876633  0.14982720  0.73290660  1.0
  Ni  Ni382  1  0.35876633  0.48316053  0.73290660  1.0
  Ni  Ni383  1  0.35876633  0.81649387  0.73290660  1.0
  Ni  Ni384  1  0.69209967  0.14982720  0.73290660  1.0
  Ni  Ni385  1  0.69209967  0.48316053  0.73290660  1.0
  Ni  Ni386  1  0.69209967  0.81649387  0.73290660  1.0
  Ni  Ni387  1  0.19209967  0.28316053  0.63290660  1.0
  Ni  Ni388  1  0.19209967  0.61649387  0.63290660  1.0
  Ni  Ni389  1  0.19209967  0.94982720  0.63290660  1.0
  Ni  Ni390  1  0.52543300  0.28316053  0.63290660  1.0
  Ni  Ni391  1  0.52543300  0.61649387  0.63290660  1.0
  Ni  Ni392  1  0.52543300  0.94982720  0.63290660  1.0
  Ni  Ni393  1  0.85876633  0.28316053  0.63290660  1.0
  Ni  Ni394  1  0.85876633  0.61649387  0.63290660  1.0
  Ni  Ni395  1  0.85876633  0.94982720  0.63290660  1.0
  Ni  Ni396  1  0.07420650  0.30138173  0.62007970  1.0
  Ni  Ni397  1  0.07420650  0.63471507  0.62007970  1.0
  Ni  Ni398  1  0.07420650  0.96804840  0.62007970  1.0
  Ni  Ni399  1  0.40753983  0.30138173  0.62007970  1.0
  Ni  Ni400  1  0.40753983  0.63471507  0.62007970  1.0
  Ni  Ni401  1  0.40753983  0.96804840  0.62007970  1.0
  Ni  Ni402  1  0.74087317  0.30138173  0.62007970  1.0
  Ni  Ni403  1  0.74087317  0.63471507  0.62007970  1.0
  Ni  Ni404  1  0.74087317  0.96804840  0.62007970  1.0
  Ni  Ni405  1  0.24087317  0.16804840  0.72007970  1.0
  Ni  Ni406  1  0.24087317  0.50138173  0.72007970  1.0
  Ni  Ni407  1  0.24087317  0.83471507  0.72007970  1.0
  Ni  Ni408  1  0.57420650  0.16804840  0.72007970  1.0
  Ni  Ni409  1  0.57420650  0.50138173  0.72007970  1.0
  Ni  Ni410  1  0.57420650  0.83471507  0.72007970  1.0
  Ni  Ni411  1  0.90753983  0.16804840  0.72007970  1.0
  Ni  Ni412  1  0.90753983  0.50138173  0.72007970  1.0
  Ni  Ni413  1  0.90753983  0.83471507  0.72007970  1.0
  Ni  Ni414  1  0.25913817  0.07413167  0.79268350  1.0
  Ni  Ni415  1  0.25913817  0.40746500  0.79268350  1.0
  Ni  Ni416  1  0.25913817  0.74079833  0.79268350  1.0
  Ni  Ni417  1  0.59247150  0.07413167  0.79268350  1.0
  Ni  Ni418  1  0.59247150  0.40746500  0.79268350  1.0
  Ni  Ni419  1  0.59247150  0.74079833  0.79268350  1.0
  Ni  Ni420  1  0.92580483  0.07413167  0.79268350  1.0
  Ni  Ni421  1  0.92580483  0.40746500  0.79268350  1.0
  Ni  Ni422  1  0.92580483  0.74079833  0.79268350  1.0
  Ni  Ni423  1  0.09247150  0.20746500  0.69268350  1.0
  Ni  Ni424  1  0.09247150  0.54079833  0.69268350  1.0
  Ni  Ni425  1  0.09247150  0.87413167  0.69268350  1.0
  Ni  Ni426  1  0.42580483  0.20746500  0.69268350  1.0
  Ni  Ni427  1  0.42580483  0.54079833  0.69268350  1.0
  Ni  Ni428  1  0.42580483  0.87413167  0.69268350  1.0
  Ni  Ni429  1  0.75913817  0.20746500  0.69268350  1.0
  Ni  Ni430  1  0.75913817  0.54079833  0.69268350  1.0
  Ni  Ni431  1  0.75913817  0.87413167  0.69268350  1.0
  Ni  Ni432  1  0.30990383  0.15222260  0.67925330  1.0
  Ni  Ni433  1  0.30990383  0.48555593  0.67925330  1.0
  Ni  Ni434  1  0.30990383  0.81888927  0.67925330  1.0
  Ni  Ni435  1  0.64323717  0.15222260  0.67925330  1.0
  Ni  Ni436  1  0.64323717  0.48555593  0.67925330  1.0
  Ni  Ni437  1  0.64323717  0.81888927  0.67925330  1.0
  Ni  Ni438  1  0.97657050  0.15222260  0.67925330  1.0
  Ni  Ni439  1  0.97657050  0.48555593  0.67925330  1.0
  Ni  Ni440  1  0.97657050  0.81888927  0.67925330  1.0
  Ni  Ni441  1  0.14323717  0.01888927  0.77925330  1.0
  Ni  Ni442  1  0.14323717  0.35222260  0.77925330  1.0
  Ni  Ni443  1  0.14323717  0.68555593  0.77925330  1.0
  Ni  Ni444  1  0.47657050  0.01888927  0.77925330  1.0
  Ni  Ni445  1  0.47657050  0.35222260  0.77925330  1.0
  Ni  Ni446  1  0.47657050  0.68555593  0.77925330  1.0
  Ni  Ni447  1  0.80990383  0.01888927  0.77925330  1.0
  Ni  Ni448  1  0.80990383  0.35222260  0.77925330  1.0
  Ni  Ni449  1  0.80990383  0.68555593  0.77925330  1.0
  Ni  Ni450  1  0.09447500  0.03839413  0.69148140  1.0
  Ni  Ni451  1  0.09447500  0.37172747  0.69148140  1.0
  Ni  Ni452  1  0.09447500  0.70506080  0.69148140  1.0
  Ni  Ni453  1  0.42780833  0.03839413  0.69148140  1.0
  Ni  Ni454  1  0.42780833  0.37172747  0.69148140  1.0
  Ni  Ni455  1  0.42780833  0.70506080  0.69148140  1.0
  Ni  Ni456  1  0.76114167  0.03839413  0.69148140  1.0
  Ni  Ni457  1  0.76114167  0.37172747  0.69148140  1.0
  Ni  Ni458  1  0.76114167  0.70506080  0.69148140  1.0
  Ni  Ni459  1  0.26114167  0.23839413  0.79148140  1.0
  Ni  Ni460  1  0.26114167  0.57172747  0.79148140  1.0
  Ni  Ni461  1  0.26114167  0.90506080  0.79148140  1.0
  Ni  Ni462  1  0.59447500  0.23839413  0.79148140  1.0
  Ni  Ni463  1  0.59447500  0.57172747  0.79148140  1.0
  Ni  Ni464  1  0.59447500  0.90506080  0.79148140  1.0
  Ni  Ni465  1  0.92780833  0.23839413  0.79148140  1.0
  Ni  Ni466  1  0.92780833  0.57172747  0.79148140  1.0
  Ni  Ni467  1  0.92780833  0.90506080  0.79148140  1.0
  Ni  Ni468  1  0.29808017  0.04267213  0.62783290  1.0
  Ni  Ni469  1  0.29808017  0.37600547  0.62783290  1.0
  Ni  Ni470  1  0.29808017  0.70933880  0.62783290  1.0
  Ni  Ni471  1  0.63141350  0.04267213  0.62783290  1.0
  Ni  Ni472  1  0.63141350  0.37600547  0.62783290  1.0
  Ni  Ni473  1  0.63141350  0.70933880  0.62783290  1.0
  Ni  Ni474  1  0.96474683  0.04267213  0.62783290  1.0
  Ni  Ni475  1  0.96474683  0.37600547  0.62783290  1.0
  Ni  Ni476  1  0.96474683  0.70933880  0.62783290  1.0
  Ni  Ni477  1  0.13141350  0.24267213  0.72783290  1.0
  Ni  Ni478  1  0.13141350  0.57600547  0.72783290  1.0
  Ni  Ni479  1  0.13141350  0.90933880  0.72783290  1.0
  Ni  Ni480  1  0.46474683  0.24267213  0.72783290  1.0
  Ni  Ni481  1  0.46474683  0.57600547  0.72783290  1.0
  Ni  Ni482  1  0.46474683  0.90933880  0.72783290  1.0
  Ni  Ni483  1  0.79808017  0.24267213  0.72783290  1.0
  Ni  Ni484  1  0.79808017  0.57600547  0.72783290  1.0
  Ni  Ni485  1  0.79808017  0.90933880  0.72783290  1.0
  Ni  Ni486  1  0.26135517  0.00485493  0.79194530  1.0
  Ni  Ni487  1  0.26135517  0.33818827  0.79194530  1.0
  Ni  Ni488  1  0.26135517  0.67152160  0.79194530  1.0
  Ni  Ni489  1  0.59468850  0.00485493  0.79194530  1.0
  Ni  Ni490  1  0.59468850  0.33818827  0.79194530  1.0
  Ni  Ni491  1  0.59468850  0.67152160  0.79194530  1.0
  Ni  Ni492  1  0.92802183  0.00485493  0.79194530  1.0
  Ni  Ni493  1  0.92802183  0.33818827  0.79194530  1.0
  Ni  Ni494  1  0.92802183  0.67152160  0.79194530  1.0
  Ni  Ni495  1  0.09468850  0.13818827  0.69194530  1.0
  Ni  Ni496  1  0.09468850  0.47152160  0.69194530  1.0
  Ni  Ni497  1  0.09468850  0.80485493  0.69194530  1.0
  Ni  Ni498  1  0.42802183  0.13818827  0.69194530  1.0
  Ni  Ni499  1  0.42802183  0.47152160  0.69194530  1.0
  Ni  Ni500  1  0.42802183  0.80485493  0.69194530  1.0
  Ni  Ni501  1  0.76135517  0.13818827  0.69194530  1.0
  Ni  Ni502  1  0.76135517  0.47152160  0.69194530  1.0
  Ni  Ni503  1  0.76135517  0.80485493  0.69194530  1.0
  Ni  Ni504  1  0.30790033  0.32129347  0.68045540  1.0
  Ni  Ni505  1  0.30790033  0.65462680  0.68045540  1.0
  Ni  Ni506  1  0.30790033  0.98796013  0.68045540  1.0
  Ni  Ni507  1  0.64123367  0.32129347  0.68045540  1.0
  Ni  Ni508  1  0.64123367  0.65462680  0.68045540  1.0
  Ni  Ni509  1  0.64123367  0.98796013  0.68045540  1.0
  Ni  Ni510  1  0.97456700  0.32129347  0.68045540  1.0
  Ni  Ni511  1  0.97456700  0.65462680  0.68045540  1.0
  Ni  Ni512  1  0.97456700  0.98796013  0.68045540  1.0
  Ni  Ni513  1  0.14123367  0.18796013  0.78045540  1.0
  Ni  Ni514  1  0.14123367  0.52129347  0.78045540  1.0
  Ni  Ni515  1  0.14123367  0.85462680  0.78045540  1.0
  Ni  Ni516  1  0.47456700  0.18796013  0.78045540  1.0
  Ni  Ni517  1  0.47456700  0.52129347  0.78045540  1.0
  Ni  Ni518  1  0.47456700  0.85462680  0.78045540  1.0
  Ni  Ni519  1  0.80790033  0.18796013  0.78045540  1.0
  Ni  Ni520  1  0.80790033  0.52129347  0.78045540  1.0
  Ni  Ni521  1  0.80790033  0.85462680  0.78045540  1.0
  Ni  Ni522  1  0.02342950  0.31889807  0.73410870  1.0
  Ni  Ni523  1  0.02342950  0.65223140  0.73410870  1.0
  Ni  Ni524  1  0.02342950  0.98556473  0.73410870  1.0
  Ni  Ni525  1  0.35676283  0.31889807  0.73410870  1.0
  Ni  Ni526  1  0.35676283  0.65223140  0.73410870  1.0
  Ni  Ni527  1  0.35676283  0.98556473  0.73410870  1.0
  Ni  Ni528  1  0.69009617  0.31889807  0.73410870  1.0
  Ni  Ni529  1  0.69009617  0.65223140  0.73410870  1.0
  Ni  Ni530  1  0.69009617  0.98556473  0.73410870  1.0
  Ni  Ni531  1  0.19009617  0.11889807  0.63410870  1.0
  Ni  Ni532  1  0.19009617  0.45223140  0.63410870  1.0
  Ni  Ni533  1  0.19009617  0.78556473  0.63410870  1.0
  Ni  Ni534  1  0.52342950  0.11889807  0.63410870  1.0
  Ni  Ni535  1  0.52342950  0.45223140  0.63410870  1.0
  Ni  Ni536  1  0.52342950  0.78556473  0.63410870  1.0
  Ni  Ni537  1  0.85676283  0.11889807  0.63410870  1.0
  Ni  Ni538  1  0.85676283  0.45223140  0.63410870  1.0
  Ni  Ni539  1  0.85676283  0.78556473  0.63410870  1.0
  Ni  Ni540  1  0.30962400  0.25221407  0.67882920  1.0
  Ni  Ni541  1  0.30962400  0.58554740  0.67882920  1.0
  Ni  Ni542  1  0.30962400  0.91888073  0.67882920  1.0
  Ni  Ni543  1  0.64295733  0.25221407  0.67882920  1.0
  Ni  Ni544  1  0.64295733  0.58554740  0.67882920  1.0
  Ni  Ni545  1  0.64295733  0.91888073  0.67882920  1.0
  Ni  Ni546  1  0.97629067  0.25221407  0.67882920  1.0
  Ni  Ni547  1  0.97629067  0.58554740  0.67882920  1.0
  Ni  Ni548  1  0.97629067  0.91888073  0.67882920  1.0
  Ni  Ni549  1  0.14295733  0.11888073  0.77882920  1.0
  Ni  Ni550  1  0.14295733  0.45221407  0.77882920  1.0
  Ni  Ni551  1  0.14295733  0.78554740  0.77882920  1.0
  Ni  Ni552  1  0.47629067  0.11888073  0.77882920  1.0
  Ni  Ni553  1  0.47629067  0.45221407  0.77882920  1.0
  Ni  Ni554  1  0.47629067  0.78554740  0.77882920  1.0
  Ni  Ni555  1  0.80962400  0.11888073  0.77882920  1.0
  Ni  Ni556  1  0.80962400  0.45221407  0.77882920  1.0
  Ni  Ni557  1  0.80962400  0.78554740  0.77882920  1.0
  Ni  Ni558  1  0.07197817  0.13293240  0.62141670  1.0
  Ni  Ni559  1  0.07197817  0.46626573  0.62141670  1.0
  Ni  Ni560  1  0.07197817  0.79959907  0.62141670  1.0
  Ni  Ni561  1  0.40531150  0.13293240  0.62141670  1.0
  Ni  Ni562  1  0.40531150  0.46626573  0.62141670  1.0
  Ni  Ni563  1  0.40531150  0.79959907  0.62141670  1.0
  Ni  Ni564  1  0.73864483  0.13293240  0.62141670  1.0
  Ni  Ni565  1  0.73864483  0.46626573  0.62141670  1.0
  Ni  Ni566  1  0.73864483  0.79959907  0.62141670  1.0
  Ni  Ni567  1  0.23864483  0.33293240  0.72141670  1.0
  Ni  Ni568  1  0.23864483  0.66626573  0.72141670  1.0
  Ni  Ni569  1  0.23864483  0.99959907  0.72141670  1.0
  Ni  Ni570  1  0.57197817  0.33293240  0.72141670  1.0
  Ni  Ni571  1  0.57197817  0.66626573  0.72141670  1.0
  Ni  Ni572  1  0.57197817  0.99959907  0.72141670  1.0
  Ni  Ni573  1  0.90531150  0.33293240  0.72141670  1.0
  Ni  Ni574  1  0.90531150  0.66626573  0.72141670  1.0
  Ni  Ni575  1  0.90531150  0.99959907  0.72141670  1.0
  Ni  Ni576  1  0.25912683  0.16973893  0.79328230  1.0
  Ni  Ni577  1  0.25912683  0.50307227  0.79328230  1.0
  Ni  Ni578  1  0.25912683  0.83640560  0.79328230  1.0
  Ni  Ni579  1  0.59246017  0.16973893  0.79328230  1.0
  Ni  Ni580  1  0.59246017  0.50307227  0.79328230  1.0
  Ni  Ni581  1  0.59246017  0.83640560  0.79328230  1.0
  Ni  Ni582  1  0.92579350  0.16973893  0.79328230  1.0
  Ni  Ni583  1  0.92579350  0.50307227  0.79328230  1.0
  Ni  Ni584  1  0.92579350  0.83640560  0.79328230  1.0
  Ni  Ni585  1  0.09246017  0.30307227  0.69328230  1.0
  Ni  Ni586  1  0.09246017  0.63640560  0.69328230  1.0
  Ni  Ni587  1  0.09246017  0.96973893  0.69328230  1.0
  Ni  Ni588  1  0.42579350  0.30307227  0.69328230  1.0
  Ni  Ni589  1  0.42579350  0.63640560  0.69328230  1.0
  Ni  Ni590  1  0.42579350  0.96973893  0.69328230  1.0
  Ni  Ni591  1  0.75912683  0.30307227  0.69328230  1.0
  Ni  Ni592  1  0.75912683  0.63640560  0.69328230  1.0
  Ni  Ni593  1  0.75912683  0.96973893  0.69328230  1.0
  Ni  Ni594  1  0.30739567  0.08376473  0.68016620  1.0
  Ni  Ni595  1  0.30739567  0.41709807  0.68016620  1.0
  Ni  Ni596  1  0.30739567  0.75043140  0.68016620  1.0
  Ni  Ni597  1  0.64072900  0.08376473  0.68016620  1.0
  Ni  Ni598  1  0.64072900  0.41709807  0.68016620  1.0
  Ni  Ni599  1  0.64072900  0.75043140  0.68016620  1.0
  Ni  Ni600  1  0.97406233  0.08376473  0.68016620  1.0
  Ni  Ni601  1  0.97406233  0.41709807  0.68016620  1.0
  Ni  Ni602  1  0.97406233  0.75043140  0.68016620  1.0
  Ni  Ni603  1  0.14072900  0.28376473  0.78016620  1.0
  Ni  Ni604  1  0.14072900  0.61709807  0.78016620  1.0
  Ni  Ni605  1  0.14072900  0.95043140  0.78016620  1.0
  Ni  Ni606  1  0.47406233  0.28376473  0.78016620  1.0
  Ni  Ni607  1  0.47406233  0.61709807  0.78016620  1.0
  Ni  Ni608  1  0.47406233  0.95043140  0.78016620  1.0
  Ni  Ni609  1  0.80739567  0.28376473  0.78016620  1.0
  Ni  Ni610  1  0.80739567  0.61709807  0.78016620  1.0
  Ni  Ni611  1  0.80739567  0.95043140  0.78016620  1.0
  Ni  Ni612  1  0.33327217  0.23749240  0.60671770  1.0
  Ni  Ni613  1  0.33327217  0.57082573  0.60671770  1.0
  Ni  Ni614  1  0.33327217  0.90415907  0.60671770  1.0
  Ni  Ni615  1  0.66660550  0.23749240  0.60671770  1.0
  Ni  Ni616  1  0.66660550  0.57082573  0.60671770  1.0
  Ni  Ni617  1  0.66660550  0.90415907  0.60671770  1.0
  Ni  Ni618  1  0.99993883  0.23749240  0.60671770  1.0
  Ni  Ni619  1  0.99993883  0.57082573  0.60671770  1.0
  Ni  Ni620  1  0.99993883  0.90415907  0.60671770  1.0
  Ni  Ni621  1  0.16660550  0.10415907  0.70671770  1.0
  Ni  Ni622  1  0.16660550  0.43749240  0.70671770  1.0
  Ni  Ni623  1  0.16660550  0.77082573  0.70671770  1.0
  Ni  Ni624  1  0.49993883  0.10415907  0.70671770  1.0
  Ni  Ni625  1  0.49993883  0.43749240  0.70671770  1.0
  Ni  Ni626  1  0.49993883  0.77082573  0.70671770  1.0
  Ni  Ni627  1  0.83327217  0.10415907  0.70671770  1.0
  Ni  Ni628  1  0.83327217  0.43749240  0.70671770  1.0
  Ni  Ni629  1  0.83327217  0.77082573  0.70671770  1.0
  Ni  Ni630  1  0.03525317  0.09511520  0.78552910  1.0
  Ni  Ni631  1  0.03525317  0.42844853  0.78552910  1.0
  Ni  Ni632  1  0.03525317  0.76178187  0.78552910  1.0
  Ni  Ni633  1  0.36858650  0.09511520  0.78552910  1.0
  Ni  Ni634  1  0.36858650  0.42844853  0.78552910  1.0
  Ni  Ni635  1  0.36858650  0.76178187  0.78552910  1.0
  Ni  Ni636  1  0.70191983  0.09511520  0.78552910  1.0
  Ni  Ni637  1  0.70191983  0.42844853  0.78552910  1.0
  Ni  Ni638  1  0.70191983  0.76178187  0.78552910  1.0
  Ni  Ni639  1  0.20191983  0.22844853  0.68552910  1.0
  Ni  Ni640  1  0.20191983  0.56178187  0.68552910  1.0
  Ni  Ni641  1  0.20191983  0.89511520  0.68552910  1.0
  Ni  Ni642  1  0.53525317  0.22844853  0.68552910  1.0
  Ni  Ni643  1  0.53525317  0.56178187  0.68552910  1.0
  Ni  Ni644  1  0.53525317  0.89511520  0.68552910  1.0
  Ni  Ni645  1  0.86858650  0.22844853  0.68552910  1.0
  Ni  Ni646  1  0.86858650  0.56178187  0.68552910  1.0
  Ni  Ni647  1  0.86858650  0.89511520  0.68552910  1.0
  Ni  Ni648  1  0.02370933  0.21890660  0.73453280  1.0
  Ni  Ni649  1  0.02370933  0.55223993  0.73453280  1.0
  Ni  Ni650  1  0.02370933  0.88557327  0.73453280  1.0
  Ni  Ni651  1  0.35704267  0.21890660  0.73453280  1.0
  Ni  Ni652  1  0.35704267  0.55223993  0.73453280  1.0
  Ni  Ni653  1  0.35704267  0.88557327  0.73453280  1.0
  Ni  Ni654  1  0.69037600  0.21890660  0.73453280  1.0
  Ni  Ni655  1  0.69037600  0.55223993  0.73453280  1.0
  Ni  Ni656  1  0.69037600  0.88557327  0.73453280  1.0
  Ni  Ni657  1  0.19037600  0.01890660  0.63453280  1.0
  Ni  Ni658  1  0.19037600  0.35223993  0.63453280  1.0
  Ni  Ni659  1  0.19037600  0.68557327  0.63453280  1.0
  Ni  Ni660  1  0.52370933  0.01890660  0.63453280  1.0
  Ni  Ni661  1  0.52370933  0.35223993  0.63453280  1.0
  Ni  Ni662  1  0.52370933  0.68557327  0.63453280  1.0
  Ni  Ni663  1  0.85704267  0.01890660  0.63453280  1.0
  Ni  Ni664  1  0.85704267  0.35223993  0.63453280  1.0
  Ni  Ni665  1  0.85704267  0.68557327  0.63453280  1.0
  Ni  Ni666  1  0.02593767  0.05402260  0.73319580  1.0
  Ni  Ni667  1  0.02593767  0.38735593  0.73319580  1.0
  Ni  Ni668  1  0.02593767  0.72068927  0.73319580  1.0
  Ni  Ni669  1  0.35927100  0.05402260  0.73319580  1.0
  Ni  Ni670  1  0.35927100  0.38735593  0.73319580  1.0
  Ni  Ni671  1  0.35927100  0.72068927  0.73319580  1.0
  Ni  Ni672  1  0.69260433  0.05402260  0.73319580  1.0
  Ni  Ni673  1  0.69260433  0.38735593  0.73319580  1.0
  Ni  Ni674  1  0.69260433  0.72068927  0.73319580  1.0
  Ni  Ni675  1  0.19260433  0.18735593  0.63319580  1.0
  Ni  Ni676  1  0.19260433  0.52068927  0.63319580  1.0
  Ni  Ni677  1  0.19260433  0.85402260  0.63319580  1.0
  Ni  Ni678  1  0.52593767  0.18735593  0.63319580  1.0
  Ni  Ni679  1  0.52593767  0.52068927  0.63319580  1.0
  Ni  Ni680  1  0.52593767  0.85402260  0.63319580  1.0
  Ni  Ni681  1  0.85927100  0.18735593  0.63319580  1.0
  Ni  Ni682  1  0.85927100  0.52068927  0.63319580  1.0
  Ni  Ni683  1  0.85927100  0.85402260  0.63319580  1.0
  Ni  Ni684  1  0.23885833  0.09939320  0.72188060  1.0
  Ni  Ni685  1  0.23885833  0.43272653  0.72188060  1.0
  Ni  Ni686  1  0.23885833  0.76605987  0.72188060  1.0
  Ni  Ni687  1  0.57219167  0.09939320  0.72188060  1.0
  Ni  Ni688  1  0.57219167  0.43272653  0.72188060  1.0
  Ni  Ni689  1  0.57219167  0.76605987  0.72188060  1.0
  Ni  Ni690  1  0.90552500  0.09939320  0.72188060  1.0
  Ni  Ni691  1  0.90552500  0.43272653  0.72188060  1.0
  Ni  Ni692  1  0.90552500  0.76605987  0.72188060  1.0
  Ni  Ni693  1  0.07219167  0.23272653  0.62188060  1.0
  Ni  Ni694  1  0.07219167  0.56605987  0.62188060  1.0
  Ni  Ni695  1  0.07219167  0.89939320  0.62188060  1.0
  Ni  Ni696  1  0.40552500  0.23272653  0.62188060  1.0
  Ni  Ni697  1  0.40552500  0.56605987  0.62188060  1.0
  Ni  Ni698  1  0.40552500  0.89939320  0.62188060  1.0
  Ni  Ni699  1  0.73885833  0.23272653  0.62188060  1.0
  Ni  Ni700  1  0.73885833  0.56605987  0.62188060  1.0
  Ni  Ni701  1  0.73885833  0.89939320  0.62188060  1.0
  Ni  Ni702  1  0.07419517  0.06365567  0.62067850  1.0
  Ni  Ni703  1  0.07419517  0.39698900  0.62067850  1.0
  Ni  Ni704  1  0.07419517  0.73032233  0.62067850  1.0
  Ni  Ni705  1  0.40752850  0.06365567  0.62067850  1.0
  Ni  Ni706  1  0.40752850  0.39698900  0.62067850  1.0
  Ni  Ni707  1  0.40752850  0.73032233  0.62067850  1.0
  Ni  Ni708  1  0.74086183  0.06365567  0.62067850  1.0
  Ni  Ni709  1  0.74086183  0.39698900  0.62067850  1.0
  Ni  Ni710  1  0.74086183  0.73032233  0.62067850  1.0
  Ni  Ni711  1  0.24086183  0.26365567  0.72067850  1.0
  Ni  Ni712  1  0.24086183  0.59698900  0.72067850  1.0
  Ni  Ni713  1  0.24086183  0.93032233  0.72067850  1.0
  Ni  Ni714  1  0.57419517  0.26365567  0.72067850  1.0
  Ni  Ni715  1  0.57419517  0.59698900  0.72067850  1.0
  Ni  Ni716  1  0.57419517  0.93032233  0.72067850  1.0
  Ni  Ni717  1  0.90752850  0.26365567  0.72067850  1.0
  Ni  Ni718  1  0.90752850  0.59698900  0.72067850  1.0
  Ni  Ni719  1  0.90752850  0.93032233  0.72067850  1.0
  Zr  Zr720  1  0.13475300  0.14832580  0.84923640  1.0
  Zr  Zr721  1  0.13475300  0.48165913  0.84923640  1.0
  Zr  Zr722  1  0.13475300  0.81499247  0.84923640  1.0
  Zr  Zr723  1  0.46808633  0.14832580  0.84923640  1.0
  Zr  Zr724  1  0.46808633  0.48165913  0.84923640  1.0
  Zr  Zr725  1  0.46808633  0.81499247  0.84923640  1.0
  Zr  Zr726  1  0.80141967  0.14832580  0.84923640  1.0
  Zr  Zr727  1  0.80141967  0.48165913  0.84923640  1.0
  Zr  Zr728  1  0.80141967  0.81499247  0.84923640  1.0
  Zr  Zr729  1  0.30141967  0.01499247  0.94923640  1.0
  Zr  Zr730  1  0.30141967  0.34832580  0.94923640  1.0
  Zr  Zr731  1  0.30141967  0.68165913  0.94923640  1.0
  Zr  Zr732  1  0.63475300  0.01499247  0.94923640  1.0
  Zr  Zr733  1  0.63475300  0.34832580  0.94923640  1.0
  Zr  Zr734  1  0.63475300  0.68165913  0.94923640  1.0
  Zr  Zr735  1  0.96808633  0.01499247  0.94923640  1.0
  Zr  Zr736  1  0.96808633  0.34832580  0.94923640  1.0
  Zr  Zr737  1  0.96808633  0.68165913  0.94923640  1.0
  Zr  Zr738  1  0.30141967  0.18165913  0.94923640  1.0
  Zr  Zr739  1  0.30141967  0.51499247  0.94923640  1.0
  Zr  Zr740  1  0.30141967  0.84832580  0.94923640  1.0
  Zr  Zr741  1  0.63475300  0.18165913  0.94923640  1.0
  Zr  Zr742  1  0.63475300  0.51499247  0.94923640  1.0
  Zr  Zr743  1  0.63475300  0.84832580  0.94923640  1.0
  Zr  Zr744  1  0.96808633  0.18165913  0.94923640  1.0
  Zr  Zr745  1  0.96808633  0.51499247  0.94923640  1.0
  Zr  Zr746  1  0.96808633  0.84832580  0.94923640  1.0
  Zr  Zr747  1  0.13475300  0.31499247  0.84923640  1.0
  Zr  Zr748  1  0.13475300  0.64832580  0.84923640  1.0
  Zr  Zr749  1  0.13475300  0.98165913  0.84923640  1.0
  Zr  Zr750  1  0.46808633  0.31499247  0.84923640  1.0
  Zr  Zr751  1  0.46808633  0.64832580  0.84923640  1.0
  Zr  Zr752  1  0.46808633  0.98165913  0.84923640  1.0
  Zr  Zr753  1  0.80141967  0.31499247  0.84923640  1.0
  Zr  Zr754  1  0.80141967  0.64832580  0.84923640  1.0
  Zr  Zr755  1  0.80141967  0.98165913  0.84923640  1.0
  Zr  Zr756  1  0.33333150  0.03971353  0.80668210  1.0
  Zr  Zr757  1  0.33333150  0.37304687  0.80668210  1.0
  Zr  Zr758  1  0.33333150  0.70638020  0.80668210  1.0
  Zr  Zr759  1  0.66666483  0.03971353  0.80668210  1.0
  Zr  Zr760  1  0.66666483  0.37304687  0.80668210  1.0
  Zr  Zr761  1  0.66666483  0.70638020  0.80668210  1.0
  Zr  Zr762  1  0.99999817  0.03971353  0.80668210  1.0
  Zr  Zr763  1  0.99999817  0.37304687  0.80668210  1.0
  Zr  Zr764  1  0.99999817  0.70638020  0.80668210  1.0
  Zr  Zr765  1  0.16666483  0.23971353  0.90668210  1.0
  Zr  Zr766  1  0.16666483  0.57304687  0.90668210  1.0
  Zr  Zr767  1  0.16666483  0.90638020  0.90668210  1.0
  Zr  Zr768  1  0.49999817  0.23971353  0.90668210  1.0
  Zr  Zr769  1  0.49999817  0.57304687  0.90668210  1.0
  Zr  Zr770  1  0.49999817  0.90638020  0.90668210  1.0
  Zr  Zr771  1  0.83333150  0.23971353  0.90668210  1.0
  Zr  Zr772  1  0.83333150  0.57304687  0.90668210  1.0
  Zr  Zr773  1  0.83333150  0.90638020  0.90668210  1.0
  Zr  Zr774  1  0.00000183  0.16474047  0.80667990  1.0
  Zr  Zr775  1  0.00000183  0.49807380  0.80667990  1.0
  Zr  Zr776  1  0.00000183  0.83140713  0.80667990  1.0
  Zr  Zr777  1  0.33333517  0.16474047  0.80667990  1.0
  Zr  Zr778  1  0.33333517  0.49807380  0.80667990  1.0
  Zr  Zr779  1  0.33333517  0.83140713  0.80667990  1.0
  Zr  Zr780  1  0.66666850  0.16474047  0.80667990  1.0
  Zr  Zr781  1  0.66666850  0.49807380  0.80667990  1.0
  Zr  Zr782  1  0.66666850  0.83140713  0.80667990  1.0
  Zr  Zr783  1  0.16666850  0.03140713  0.90667990  1.0
  Zr  Zr784  1  0.16666850  0.36474047  0.90667990  1.0
  Zr  Zr785  1  0.16666850  0.69807380  0.90667990  1.0
  Zr  Zr786  1  0.50000183  0.03140713  0.90667990  1.0
  Zr  Zr787  1  0.50000183  0.36474047  0.90667990  1.0
  Zr  Zr788  1  0.50000183  0.69807380  0.90667990  1.0
  Zr  Zr789  1  0.83333517  0.03140713  0.90667990  1.0
  Zr  Zr790  1  0.83333517  0.36474047  0.90667990  1.0
  Zr  Zr791  1  0.83333517  0.69807380  0.90667990  1.0
  Zr  Zr792  1  0.03191367  0.25612820  0.86412560  1.0
  Zr  Zr793  1  0.03191367  0.58946153  0.86412560  1.0
  Zr  Zr794  1  0.03191367  0.92279487  0.86412560  1.0
  Zr  Zr795  1  0.36524700  0.25612820  0.86412560  1.0
  Zr  Zr796  1  0.36524700  0.58946153  0.86412560  1.0
  Zr  Zr797  1  0.36524700  0.92279487  0.86412560  1.0
  Zr  Zr798  1  0.69858033  0.25612820  0.86412560  1.0
  Zr  Zr799  1  0.69858033  0.58946153  0.86412560  1.0
  Zr  Zr800  1  0.69858033  0.92279487  0.86412560  1.0
  Zr  Zr801  1  0.19858033  0.12279487  0.96412560  1.0
  Zr  Zr802  1  0.19858033  0.45612820  0.96412560  1.0
  Zr  Zr803  1  0.19858033  0.78946153  0.96412560  1.0
  Zr  Zr804  1  0.53191367  0.12279487  0.96412560  1.0
  Zr  Zr805  1  0.53191367  0.45612820  0.96412560  1.0
  Zr  Zr806  1  0.53191367  0.78946153  0.96412560  1.0
  Zr  Zr807  1  0.86524700  0.12279487  0.96412560  1.0
  Zr  Zr808  1  0.86524700  0.45612820  0.96412560  1.0
  Zr  Zr809  1  0.86524700  0.78946153  0.96412560  1.0
  Zr  Zr810  1  0.04139183  0.00255680  0.88184590  1.0
  Zr  Zr811  1  0.04139183  0.33589013  0.88184590  1.0
  Zr  Zr812  1  0.04139183  0.66922347  0.88184590  1.0
  Zr  Zr813  1  0.37472517  0.00255680  0.88184590  1.0
  Zr  Zr814  1  0.37472517  0.33589013  0.88184590  1.0
  Zr  Zr815  1  0.37472517  0.66922347  0.88184590  1.0
  Zr  Zr816  1  0.70805850  0.00255680  0.88184590  1.0
  Zr  Zr817  1  0.70805850  0.33589013  0.88184590  1.0
  Zr  Zr818  1  0.70805850  0.66922347  0.88184590  1.0
  Zr  Zr819  1  0.20805850  0.20255680  0.98184590  1.0
  Zr  Zr820  1  0.20805850  0.53589013  0.98184590  1.0
  Zr  Zr821  1  0.20805850  0.86922347  0.98184590  1.0
  Zr  Zr822  1  0.54139183  0.20255680  0.98184590  1.0
  Zr  Zr823  1  0.54139183  0.53589013  0.98184590  1.0
  Zr  Zr824  1  0.54139183  0.86922347  0.98184590  1.0
  Zr  Zr825  1  0.87472517  0.20255680  0.98184590  1.0
  Zr  Zr826  1  0.87472517  0.53589013  0.98184590  1.0
  Zr  Zr827  1  0.87472517  0.86922347  0.98184590  1.0
  Zr  Zr828  1  0.29194150  0.26856387  0.93151610  1.0
  Zr  Zr829  1  0.29194150  0.60189720  0.93151610  1.0
  Zr  Zr830  1  0.29194150  0.93523053  0.93151610  1.0
  Zr  Zr831  1  0.62527483  0.26856387  0.93151610  1.0
  Zr  Zr832  1  0.62527483  0.60189720  0.93151610  1.0
  Zr  Zr833  1  0.62527483  0.93523053  0.93151610  1.0
  Zr  Zr834  1  0.95860817  0.26856387  0.93151610  1.0
  Zr  Zr835  1  0.95860817  0.60189720  0.93151610  1.0
  Zr  Zr836  1  0.95860817  0.93523053  0.93151610  1.0
  Zr  Zr837  1  0.12527483  0.06856387  0.83151610  1.0
  Zr  Zr838  1  0.12527483  0.40189720  0.83151610  1.0
  Zr  Zr839  1  0.12527483  0.73523053  0.83151610  1.0
  Zr  Zr840  1  0.45860817  0.06856387  0.83151610  1.0
  Zr  Zr841  1  0.45860817  0.40189720  0.83151610  1.0
  Zr  Zr842  1  0.45860817  0.73523053  0.83151610  1.0
  Zr  Zr843  1  0.79194150  0.06856387  0.83151610  1.0
  Zr  Zr844  1  0.79194150  0.40189720  0.83151610  1.0
  Zr  Zr845  1  0.79194150  0.73523053  0.83151610  1.0
  Zr  Zr846  1  0.22918050  0.12305940  0.86917270  1.0
  Zr  Zr847  1  0.22918050  0.45639273  0.86917270  1.0
  Zr  Zr848  1  0.22918050  0.78972607  0.86917270  1.0
  Zr  Zr849  1  0.56251383  0.12305940  0.86917270  1.0
  Zr  Zr850  1  0.56251383  0.45639273  0.86917270  1.0
  Zr  Zr851  1  0.56251383  0.78972607  0.86917270  1.0
  Zr  Zr852  1  0.89584717  0.12305940  0.86917270  1.0
  Zr  Zr853  1  0.89584717  0.45639273  0.86917270  1.0
  Zr  Zr854  1  0.89584717  0.78972607  0.86917270  1.0
  Zr  Zr855  1  0.06251383  0.32305940  0.96917270  1.0
  Zr  Zr856  1  0.06251383  0.65639273  0.96917270  1.0
  Zr  Zr857  1  0.06251383  0.98972607  0.96917270  1.0
  Zr  Zr858  1  0.39584717  0.32305940  0.96917270  1.0
  Zr  Zr859  1  0.39584717  0.65639273  0.96917270  1.0
  Zr  Zr860  1  0.39584717  0.98972607  0.96917270  1.0
  Zr  Zr861  1  0.72918050  0.32305940  0.96917270  1.0
  Zr  Zr862  1  0.72918050  0.65639273  0.96917270  1.0
  Zr  Zr863  1  0.72918050  0.98972607  0.96917270  1.0
  Zr  Zr864  1  0.08333333  0.23556033  0.95668100  1.0
  Zr  Zr865  1  0.08333333  0.56889367  0.95668100  1.0
  Zr  Zr866  1  0.08333333  0.90222700  0.95668100  1.0
  Zr  Zr867  1  0.41666667  0.23556033  0.95668100  1.0
  Zr  Zr868  1  0.41666667  0.56889367  0.95668100  1.0
  Zr  Zr869  1  0.41666667  0.90222700  0.95668100  1.0
  Zr  Zr870  1  0.75000000  0.23556033  0.95668100  1.0
  Zr  Zr871  1  0.75000000  0.56889367  0.95668100  1.0
  Zr  Zr872  1  0.75000000  0.90222700  0.95668100  1.0
  Zr  Zr873  1  0.25000000  0.03556033  0.85668100  1.0
  Zr  Zr874  1  0.25000000  0.36889367  0.85668100  1.0
  Zr  Zr875  1  0.25000000  0.70222700  0.85668100  1.0
  Zr  Zr876  1  0.58333333  0.03556033  0.85668100  1.0
  Zr  Zr877  1  0.58333333  0.36889367  0.85668100  1.0
  Zr  Zr878  1  0.58333333  0.70222700  0.85668100  1.0
  Zr  Zr879  1  0.91666667  0.03556033  0.85668100  1.0
  Zr  Zr880  1  0.91666667  0.36889367  0.85668100  1.0
  Zr  Zr881  1  0.91666667  0.70222700  0.85668100  1.0
  Zr  Zr882  1  0.04194150  0.16856387  0.88151610  1.0
  Zr  Zr883  1  0.04194150  0.50189720  0.88151610  1.0
  Zr  Zr884  1  0.04194150  0.83523053  0.88151610  1.0
  Zr  Zr885  1  0.37527483  0.16856387  0.88151610  1.0
  Zr  Zr886  1  0.37527483  0.50189720  0.88151610  1.0
  Zr  Zr887  1  0.37527483  0.83523053  0.88151610  1.0
  Zr  Zr888  1  0.70860817  0.16856387  0.88151610  1.0
  Zr  Zr889  1  0.70860817  0.50189720  0.88151610  1.0
  Zr  Zr890  1  0.70860817  0.83523053  0.88151610  1.0
  Zr  Zr891  1  0.20860817  0.03523053  0.98151610  1.0
  Zr  Zr892  1  0.20860817  0.36856387  0.98151610  1.0
  Zr  Zr893  1  0.20860817  0.70189720  0.98151610  1.0
  Zr  Zr894  1  0.54194150  0.03523053  0.98151610  1.0
  Zr  Zr895  1  0.54194150  0.36856387  0.98151610  1.0
  Zr  Zr896  1  0.54194150  0.70189720  0.98151610  1.0
  Zr  Zr897  1  0.87527483  0.03523053  0.98151610  1.0
  Zr  Zr898  1  0.87527483  0.36856387  0.98151610  1.0
  Zr  Zr899  1  0.87527483  0.70189720  0.98151610  1.0
  Zr  Zr900  1  0.03191367  0.08946153  0.86412560  1.0
  Zr  Zr901  1  0.03191367  0.42279487  0.86412560  1.0
  Zr  Zr902  1  0.03191367  0.75612820  0.86412560  1.0
  Zr  Zr903  1  0.36524700  0.08946153  0.86412560  1.0
  Zr  Zr904  1  0.36524700  0.42279487  0.86412560  1.0
  Zr  Zr905  1  0.36524700  0.75612820  0.86412560  1.0
  Zr  Zr906  1  0.69858033  0.08946153  0.86412560  1.0
  Zr  Zr907  1  0.69858033  0.42279487  0.86412560  1.0
  Zr  Zr908  1  0.69858033  0.75612820  0.86412560  1.0
  Zr  Zr909  1  0.19858033  0.28946153  0.96412560  1.0
  Zr  Zr910  1  0.19858033  0.62279487  0.96412560  1.0
  Zr  Zr911  1  0.19858033  0.95612820  0.96412560  1.0
  Zr  Zr912  1  0.53191367  0.28946153  0.96412560  1.0
  Zr  Zr913  1  0.53191367  0.62279487  0.96412560  1.0
  Zr  Zr914  1  0.53191367  0.95612820  0.96412560  1.0
  Zr  Zr915  1  0.86524700  0.28946153  0.96412560  1.0
  Zr  Zr916  1  0.86524700  0.62279487  0.96412560  1.0
  Zr  Zr917  1  0.86524700  0.95612820  0.96412560  1.0
  Zr  Zr918  1  0.29139183  0.10255680  0.93184590  1.0
  Zr  Zr919  1  0.29139183  0.43589013  0.93184590  1.0
  Zr  Zr920  1  0.29139183  0.76922347  0.93184590  1.0
  Zr  Zr921  1  0.62472517  0.10255680  0.93184590  1.0
  Zr  Zr922  1  0.62472517  0.43589013  0.93184590  1.0
  Zr  Zr923  1  0.62472517  0.76922347  0.93184590  1.0
  Zr  Zr924  1  0.95805850  0.10255680  0.93184590  1.0
  Zr  Zr925  1  0.95805850  0.43589013  0.93184590  1.0
  Zr  Zr926  1  0.95805850  0.76922347  0.93184590  1.0
  Zr  Zr927  1  0.12472517  0.23589013  0.83184590  1.0
  Zr  Zr928  1  0.12472517  0.56922347  0.83184590  1.0
  Zr  Zr929  1  0.12472517  0.90255680  0.83184590  1.0
  Zr  Zr930  1  0.45805850  0.23589013  0.83184590  1.0
  Zr  Zr931  1  0.45805850  0.56922347  0.83184590  1.0
  Zr  Zr932  1  0.45805850  0.90255680  0.83184590  1.0
  Zr  Zr933  1  0.79139183  0.23589013  0.83184590  1.0
  Zr  Zr934  1  0.79139183  0.56922347  0.83184590  1.0
  Zr  Zr935  1  0.79139183  0.90255680  0.83184590  1.0
  Zr  Zr936  1  0.10415283  0.14806127  0.94418930  1.0
  Zr  Zr937  1  0.10415283  0.48139460  0.94418930  1.0
  Zr  Zr938  1  0.10415283  0.81472793  0.94418930  1.0
  Zr  Zr939  1  0.43748617  0.14806127  0.94418930  1.0
  Zr  Zr940  1  0.43748617  0.48139460  0.94418930  1.0
  Zr  Zr941  1  0.43748617  0.81472793  0.94418930  1.0
  Zr  Zr942  1  0.77081950  0.14806127  0.94418930  1.0
  Zr  Zr943  1  0.77081950  0.48139460  0.94418930  1.0
  Zr  Zr944  1  0.77081950  0.81472793  0.94418930  1.0
  Zr  Zr945  1  0.27081950  0.28139460  0.84418930  1.0
  Zr  Zr946  1  0.27081950  0.61472793  0.84418930  1.0
  Zr  Zr947  1  0.27081950  0.94806127  0.84418930  1.0
  Zr  Zr948  1  0.60415283  0.28139460  0.84418930  1.0
  Zr  Zr949  1  0.60415283  0.61472793  0.84418930  1.0
  Zr  Zr950  1  0.60415283  0.94806127  0.84418930  1.0
  Zr  Zr951  1  0.93748617  0.28139460  0.84418930  1.0
  Zr  Zr952  1  0.93748617  0.61472793  0.84418930  1.0
  Zr  Zr953  1  0.93748617  0.94806127  0.84418930  1.0
  Zr  Zr954  1  0.08333333  0.06889367  0.95668100  1.0
  Zr  Zr955  1  0.08333333  0.40222700  0.95668100  1.0
  Zr  Zr956  1  0.08333333  0.73556033  0.95668100  1.0
  Zr  Zr957  1  0.41666667  0.06889367  0.95668100  1.0
  Zr  Zr958  1  0.41666667  0.40222700  0.95668100  1.0
  Zr  Zr959  1  0.41666667  0.73556033  0.95668100  1.0
  Zr  Zr960  1  0.75000000  0.06889367  0.95668100  1.0
  Zr  Zr961  1  0.75000000  0.40222700  0.95668100  1.0
  Zr  Zr962  1  0.75000000  0.73556033  0.95668100  1.0
  Zr  Zr963  1  0.25000000  0.20222700  0.85668100  1.0
  Zr  Zr964  1  0.25000000  0.53556033  0.85668100  1.0
  Zr  Zr965  1  0.25000000  0.86889367  0.85668100  1.0
  Zr  Zr966  1  0.58333333  0.20222700  0.85668100  1.0
  Zr  Zr967  1  0.58333333  0.53556033  0.85668100  1.0
  Zr  Zr968  1  0.58333333  0.86889367  0.85668100  1.0
  Zr  Zr969  1  0.91666667  0.20222700  0.85668100  1.0
  Zr  Zr970  1  0.91666667  0.53556033  0.85668100  1.0
  Zr  Zr971  1  0.91666667  0.86889367  0.85668100  1.0
  Zr  Zr972  1  0.13475300  0.08165913  0.64923640  1.0
  Zr  Zr973  1  0.13475300  0.41499247  0.64923640  1.0
  Zr  Zr974  1  0.13475300  0.74832580  0.64923640  1.0
  Zr  Zr975  1  0.46808633  0.08165913  0.64923640  1.0
  Zr  Zr976  1  0.46808633  0.41499247  0.64923640  1.0
  Zr  Zr977  1  0.46808633  0.74832580  0.64923640  1.0
  Zr  Zr978  1  0.80141967  0.08165913  0.64923640  1.0
  Zr  Zr979  1  0.80141967  0.41499247  0.64923640  1.0
  Zr  Zr980  1  0.80141967  0.74832580  0.64923640  1.0
  Zr  Zr981  1  0.30141967  0.28165913  0.74923640  1.0
  Zr  Zr982  1  0.30141967  0.61499247  0.74923640  1.0
  Zr  Zr983  1  0.30141967  0.94832580  0.74923640  1.0
  Zr  Zr984  1  0.63475300  0.28165913  0.74923640  1.0
  Zr  Zr985  1  0.63475300  0.61499247  0.74923640  1.0
  Zr  Zr986  1  0.63475300  0.94832580  0.74923640  1.0
  Zr  Zr987  1  0.96808633  0.28165913  0.74923640  1.0
  Zr  Zr988  1  0.96808633  0.61499247  0.74923640  1.0
  Zr  Zr989  1  0.96808633  0.94832580  0.74923640  1.0
  Zr  Zr990  1  0.30141967  0.11499247  0.74923640  1.0
  Zr  Zr991  1  0.30141967  0.44832580  0.74923640  1.0
  Zr  Zr992  1  0.30141967  0.78165913  0.74923640  1.0
  Zr  Zr993  1  0.63475300  0.11499247  0.74923640  1.0
  Zr  Zr994  1  0.63475300  0.44832580  0.74923640  1.0
  Zr  Zr995  1  0.63475300  0.78165913  0.74923640  1.0
  Zr  Zr996  1  0.96808633  0.11499247  0.74923640  1.0
  Zr  Zr997  1  0.96808633  0.44832580  0.74923640  1.0
  Zr  Zr998  1  0.96808633  0.78165913  0.74923640  1.0
  Zr  Zr999  1  0.13475300  0.24832580  0.64923640  1.0
  Zr  Zr1000  1  0.13475300  0.58165913  0.64923640  1.0
  Zr  Zr1001  1  0.13475300  0.91499247  0.64923640  1.0
  Zr  Zr1002  1  0.46808633  0.24832580  0.64923640  1.0
  Zr  Zr1003  1  0.46808633  0.58165913  0.64923640  1.0
  Zr  Zr1004  1  0.46808633  0.91499247  0.64923640  1.0
  Zr  Zr1005  1  0.80141967  0.24832580  0.64923640  1.0
  Zr  Zr1006  1  0.80141967  0.58165913  0.64923640  1.0
  Zr  Zr1007  1  0.80141967  0.91499247  0.64923640  1.0
  Zr  Zr1008  1  0.33333150  0.30638020  0.60668210  1.0
  Zr  Zr1009  1  0.33333150  0.63971353  0.60668210  1.0
  Zr  Zr1010  1  0.33333150  0.97304687  0.60668210  1.0
  Zr  Zr1011  1  0.66666483  0.30638020  0.60668210  1.0
  Zr  Zr1012  1  0.66666483  0.63971353  0.60668210  1.0
  Zr  Zr1013  1  0.66666483  0.97304687  0.60668210  1.0
  Zr  Zr1014  1  0.99999817  0.30638020  0.60668210  1.0
  Zr  Zr1015  1  0.99999817  0.63971353  0.60668210  1.0
  Zr  Zr1016  1  0.99999817  0.97304687  0.60668210  1.0
  Zr  Zr1017  1  0.16666483  0.17304687  0.70668210  1.0
  Zr  Zr1018  1  0.16666483  0.50638020  0.70668210  1.0
  Zr  Zr1019  1  0.16666483  0.83971353  0.70668210  1.0
  Zr  Zr1020  1  0.49999817  0.17304687  0.70668210  1.0
  Zr  Zr1021  1  0.49999817  0.50638020  0.70668210  1.0
  Zr  Zr1022  1  0.49999817  0.83971353  0.70668210  1.0
  Zr  Zr1023  1  0.83333150  0.17304687  0.70668210  1.0
  Zr  Zr1024  1  0.83333150  0.50638020  0.70668210  1.0
  Zr  Zr1025  1  0.83333150  0.83971353  0.70668210  1.0
  Zr  Zr1026  1  0.00000183  0.09807380  0.60667990  1.0
  Zr  Zr1027  1  0.00000183  0.43140713  0.60667990  1.0
  Zr  Zr1028  1  0.00000183  0.76474047  0.60667990  1.0
  Zr  Zr1029  1  0.33333517  0.09807380  0.60667990  1.0
  Zr  Zr1030  1  0.33333517  0.43140713  0.60667990  1.0
  Zr  Zr1031  1  0.33333517  0.76474047  0.60667990  1.0
  Zr  Zr1032  1  0.66666850  0.09807380  0.60667990  1.0
  Zr  Zr1033  1  0.66666850  0.43140713  0.60667990  1.0
  Zr  Zr1034  1  0.66666850  0.76474047  0.60667990  1.0
  Zr  Zr1035  1  0.16666850  0.29807380  0.70667990  1.0
  Zr  Zr1036  1  0.16666850  0.63140713  0.70667990  1.0
  Zr  Zr1037  1  0.16666850  0.96474047  0.70667990  1.0
  Zr  Zr1038  1  0.50000183  0.29807380  0.70667990  1.0
  Zr  Zr1039  1  0.50000183  0.63140713  0.70667990  1.0
  Zr  Zr1040  1  0.50000183  0.96474047  0.70667990  1.0
  Zr  Zr1041  1  0.83333517  0.29807380  0.70667990  1.0
  Zr  Zr1042  1  0.83333517  0.63140713  0.70667990  1.0
  Zr  Zr1043  1  0.83333517  0.96474047  0.70667990  1.0
  Zr  Zr1044  1  0.03191367  0.18946153  0.66412560  1.0
  Zr  Zr1045  1  0.03191367  0.52279487  0.66412560  1.0
  Zr  Zr1046  1  0.03191367  0.85612820  0.66412560  1.0
  Zr  Zr1047  1  0.36524700  0.18946153  0.66412560  1.0
  Zr  Zr1048  1  0.36524700  0.52279487  0.66412560  1.0
  Zr  Zr1049  1  0.36524700  0.85612820  0.66412560  1.0
  Zr  Zr1050  1  0.69858033  0.18946153  0.66412560  1.0
  Zr  Zr1051  1  0.69858033  0.52279487  0.66412560  1.0
  Zr  Zr1052  1  0.69858033  0.85612820  0.66412560  1.0
  Zr  Zr1053  1  0.19858033  0.05612820  0.76412560  1.0
  Zr  Zr1054  1  0.19858033  0.38946153  0.76412560  1.0
  Zr  Zr1055  1  0.19858033  0.72279487  0.76412560  1.0
  Zr  Zr1056  1  0.53191367  0.05612820  0.76412560  1.0
  Zr  Zr1057  1  0.53191367  0.38946153  0.76412560  1.0
  Zr  Zr1058  1  0.53191367  0.72279487  0.76412560  1.0
  Zr  Zr1059  1  0.86524700  0.05612820  0.76412560  1.0
  Zr  Zr1060  1  0.86524700  0.38946153  0.76412560  1.0
  Zr  Zr1061  1  0.86524700  0.72279487  0.76412560  1.0
  Zr  Zr1062  1  0.04139183  0.26922347  0.68184590  1.0
  Zr  Zr1063  1  0.04139183  0.60255680  0.68184590  1.0
  Zr  Zr1064  1  0.04139183  0.93589013  0.68184590  1.0
  Zr  Zr1065  1  0.37472517  0.26922347  0.68184590  1.0
  Zr  Zr1066  1  0.37472517  0.60255680  0.68184590  1.0
  Zr  Zr1067  1  0.37472517  0.93589013  0.68184590  1.0
  Zr  Zr1068  1  0.70805850  0.26922347  0.68184590  1.0
  Zr  Zr1069  1  0.70805850  0.60255680  0.68184590  1.0
  Zr  Zr1070  1  0.70805850  0.93589013  0.68184590  1.0
  Zr  Zr1071  1  0.20805850  0.13589013  0.78184590  1.0
  Zr  Zr1072  1  0.20805850  0.46922347  0.78184590  1.0
  Zr  Zr1073  1  0.20805850  0.80255680  0.78184590  1.0
  Zr  Zr1074  1  0.54139183  0.13589013  0.78184590  1.0
  Zr  Zr1075  1  0.54139183  0.46922347  0.78184590  1.0
  Zr  Zr1076  1  0.54139183  0.80255680  0.78184590  1.0
  Zr  Zr1077  1  0.87472517  0.13589013  0.78184590  1.0
  Zr  Zr1078  1  0.87472517  0.46922347  0.78184590  1.0
  Zr  Zr1079  1  0.87472517  0.80255680  0.78184590  1.0
  Zr  Zr1080  1  0.29194150  0.20189720  0.73151610  1.0
  Zr  Zr1081  1  0.29194150  0.53523053  0.73151610  1.0
  Zr  Zr1082  1  0.29194150  0.86856387  0.73151610  1.0
  Zr  Zr1083  1  0.62527483  0.20189720  0.73151610  1.0
  Zr  Zr1084  1  0.62527483  0.53523053  0.73151610  1.0
  Zr  Zr1085  1  0.62527483  0.86856387  0.73151610  1.0
  Zr  Zr1086  1  0.95860817  0.20189720  0.73151610  1.0
  Zr  Zr1087  1  0.95860817  0.53523053  0.73151610  1.0
  Zr  Zr1088  1  0.95860817  0.86856387  0.73151610  1.0
  Zr  Zr1089  1  0.12527483  0.00189720  0.63151610  1.0
  Zr  Zr1090  1  0.12527483  0.33523053  0.63151610  1.0
  Zr  Zr1091  1  0.12527483  0.66856387  0.63151610  1.0
  Zr  Zr1092  1  0.45860817  0.00189720  0.63151610  1.0
  Zr  Zr1093  1  0.45860817  0.33523053  0.63151610  1.0
  Zr  Zr1094  1  0.45860817  0.66856387  0.63151610  1.0
  Zr  Zr1095  1  0.79194150  0.00189720  0.63151610  1.0
  Zr  Zr1096  1  0.79194150  0.33523053  0.63151610  1.0
  Zr  Zr1097  1  0.79194150  0.66856387  0.63151610  1.0
  Zr  Zr1098  1  0.22918050  0.05639273  0.66917270  1.0
  Zr  Zr1099  1  0.22918050  0.38972607  0.66917270  1.0
  Zr  Zr1100  1  0.22918050  0.72305940  0.66917270  1.0
  Zr  Zr1101  1  0.56251383  0.05639273  0.66917270  1.0
  Zr  Zr1102  1  0.56251383  0.38972607  0.66917270  1.0
  Zr  Zr1103  1  0.56251383  0.72305940  0.66917270  1.0
  Zr  Zr1104  1  0.89584717  0.05639273  0.66917270  1.0
  Zr  Zr1105  1  0.89584717  0.38972607  0.66917270  1.0
  Zr  Zr1106  1  0.89584717  0.72305940  0.66917270  1.0
  Zr  Zr1107  1  0.06251383  0.25639273  0.76917270  1.0
  Zr  Zr1108  1  0.06251383  0.58972607  0.76917270  1.0
  Zr  Zr1109  1  0.06251383  0.92305940  0.76917270  1.0
  Zr  Zr1110  1  0.39584717  0.25639273  0.76917270  1.0
  Zr  Zr1111  1  0.39584717  0.58972607  0.76917270  1.0
  Zr  Zr1112  1  0.39584717  0.92305940  0.76917270  1.0
  Zr  Zr1113  1  0.72918050  0.25639273  0.76917270  1.0
  Zr  Zr1114  1  0.72918050  0.58972607  0.76917270  1.0
  Zr  Zr1115  1  0.72918050  0.92305940  0.76917270  1.0
  Zr  Zr1116  1  0.08333333  0.16889367  0.75668100  1.0
  Zr  Zr1117  1  0.08333333  0.50222700  0.75668100  1.0
  Zr  Zr1118  1  0.08333333  0.83556033  0.75668100  1.0
  Zr  Zr1119  1  0.41666667  0.16889367  0.75668100  1.0
  Zr  Zr1120  1  0.41666667  0.50222700  0.75668100  1.0
  Zr  Zr1121  1  0.41666667  0.83556033  0.75668100  1.0
  Zr  Zr1122  1  0.75000000  0.16889367  0.75668100  1.0
  Zr  Zr1123  1  0.75000000  0.50222700  0.75668100  1.0
  Zr  Zr1124  1  0.75000000  0.83556033  0.75668100  1.0
  Zr  Zr1125  1  0.25000000  0.30222700  0.65668100  1.0
  Zr  Zr1126  1  0.25000000  0.63556033  0.65668100  1.0
  Zr  Zr1127  1  0.25000000  0.96889367  0.65668100  1.0
  Zr  Zr1128  1  0.58333333  0.30222700  0.65668100  1.0
  Zr  Zr1129  1  0.58333333  0.63556033  0.65668100  1.0
  Zr  Zr1130  1  0.58333333  0.96889367  0.65668100  1.0
  Zr  Zr1131  1  0.91666667  0.30222700  0.65668100  1.0
  Zr  Zr1132  1  0.91666667  0.63556033  0.65668100  1.0
  Zr  Zr1133  1  0.91666667  0.96889367  0.65668100  1.0
  Zr  Zr1134  1  0.04194150  0.10189720  0.68151610  1.0
  Zr  Zr1135  1  0.04194150  0.43523053  0.68151610  1.0
  Zr  Zr1136  1  0.04194150  0.76856387  0.68151610  1.0
  Zr  Zr1137  1  0.37527483  0.10189720  0.68151610  1.0
  Zr  Zr1138  1  0.37527483  0.43523053  0.68151610  1.0
  Zr  Zr1139  1  0.37527483  0.76856387  0.68151610  1.0
  Zr  Zr1140  1  0.70860817  0.10189720  0.68151610  1.0
  Zr  Zr1141  1  0.70860817  0.43523053  0.68151610  1.0
  Zr  Zr1142  1  0.70860817  0.76856387  0.68151610  1.0
  Zr  Zr1143  1  0.20860817  0.30189720  0.78151610  1.0
  Zr  Zr1144  1  0.20860817  0.63523053  0.78151610  1.0
  Zr  Zr1145  1  0.20860817  0.96856387  0.78151610  1.0
  Zr  Zr1146  1  0.54194150  0.30189720  0.78151610  1.0
  Zr  Zr1147  1  0.54194150  0.63523053  0.78151610  1.0
  Zr  Zr1148  1  0.54194150  0.96856387  0.78151610  1.0
  Zr  Zr1149  1  0.87527483  0.30189720  0.78151610  1.0
  Zr  Zr1150  1  0.87527483  0.63523053  0.78151610  1.0
  Zr  Zr1151  1  0.87527483  0.96856387  0.78151610  1.0
  Zr  Zr1152  1  0.03191367  0.02279487  0.66412560  1.0
  Zr  Zr1153  1  0.03191367  0.35612820  0.66412560  1.0
  Zr  Zr1154  1  0.03191367  0.68946153  0.66412560  1.0
  Zr  Zr1155  1  0.36524700  0.02279487  0.66412560  1.0
  Zr  Zr1156  1  0.36524700  0.35612820  0.66412560  1.0
  Zr  Zr1157  1  0.36524700  0.68946153  0.66412560  1.0
  Zr  Zr1158  1  0.69858033  0.02279487  0.66412560  1.0
  Zr  Zr1159  1  0.69858033  0.35612820  0.66412560  1.0
  Zr  Zr1160  1  0.69858033  0.68946153  0.66412560  1.0
  Zr  Zr1161  1  0.19858033  0.22279487  0.76412560  1.0
  Zr  Zr1162  1  0.19858033  0.55612820  0.76412560  1.0
  Zr  Zr1163  1  0.19858033  0.88946153  0.76412560  1.0
  Zr  Zr1164  1  0.53191367  0.22279487  0.76412560  1.0
  Zr  Zr1165  1  0.53191367  0.55612820  0.76412560  1.0
  Zr  Zr1166  1  0.53191367  0.88946153  0.76412560  1.0
  Zr  Zr1167  1  0.86524700  0.22279487  0.76412560  1.0
  Zr  Zr1168  1  0.86524700  0.55612820  0.76412560  1.0
  Zr  Zr1169  1  0.86524700  0.88946153  0.76412560  1.0
  Zr  Zr1170  1  0.29139183  0.03589013  0.73184590  1.0
  Zr  Zr1171  1  0.29139183  0.36922347  0.73184590  1.0
  Zr  Zr1172  1  0.29139183  0.70255680  0.73184590  1.0
  Zr  Zr1173  1  0.62472517  0.03589013  0.73184590  1.0
  Zr  Zr1174  1  0.62472517  0.36922347  0.73184590  1.0
  Zr  Zr1175  1  0.62472517  0.70255680  0.73184590  1.0
  Zr  Zr1176  1  0.95805850  0.03589013  0.73184590  1.0
  Zr  Zr1177  1  0.95805850  0.36922347  0.73184590  1.0
  Zr  Zr1178  1  0.95805850  0.70255680  0.73184590  1.0
  Zr  Zr1179  1  0.12472517  0.16922347  0.63184590  1.0
  Zr  Zr1180  1  0.12472517  0.50255680  0.63184590  1.0
  Zr  Zr1181  1  0.12472517  0.83589013  0.63184590  1.0
  Zr  Zr1182  1  0.45805850  0.16922347  0.63184590  1.0
  Zr  Zr1183  1  0.45805850  0.50255680  0.63184590  1.0
  Zr  Zr1184  1  0.45805850  0.83589013  0.63184590  1.0
  Zr  Zr1185  1  0.79139183  0.16922347  0.63184590  1.0
  Zr  Zr1186  1  0.79139183  0.50255680  0.63184590  1.0
  Zr  Zr1187  1  0.79139183  0.83589013  0.63184590  1.0
  Zr  Zr1188  1  0.10415283  0.08139460  0.74418930  1.0
  Zr  Zr1189  1  0.10415283  0.41472793  0.74418930  1.0
  Zr  Zr1190  1  0.10415283  0.74806127  0.74418930  1.0
  Zr  Zr1191  1  0.43748617  0.08139460  0.74418930  1.0
  Zr  Zr1192  1  0.43748617  0.41472793  0.74418930  1.0
  Zr  Zr1193  1  0.43748617  0.74806127  0.74418930  1.0
  Zr  Zr1194  1  0.77081950  0.08139460  0.74418930  1.0
  Zr  Zr1195  1  0.77081950  0.41472793  0.74418930  1.0
  Zr  Zr1196  1  0.77081950  0.74806127  0.74418930  1.0
  Zr  Zr1197  1  0.27081950  0.21472793  0.64418930  1.0
  Zr  Zr1198  1  0.27081950  0.54806127  0.64418930  1.0
  Zr  Zr1199  1  0.27081950  0.88139460  0.64418930  1.0
  Zr  Zr1200  1  0.60415283  0.21472793  0.64418930  1.0
  Zr  Zr1201  1  0.60415283  0.54806127  0.64418930  1.0
  Zr  Zr1202  1  0.60415283  0.88139460  0.64418930  1.0
  Zr  Zr1203  1  0.93748617  0.21472793  0.64418930  1.0
  Zr  Zr1204  1  0.93748617  0.54806127  0.64418930  1.0
  Zr  Zr1205  1  0.93748617  0.88139460  0.64418930  1.0
  Zr  Zr1206  1  0.08333333  0.00222700  0.75668100  1.0
  Zr  Zr1207  1  0.08333333  0.33556033  0.75668100  1.0
  Zr  Zr1208  1  0.08333333  0.66889367  0.75668100  1.0
  Zr  Zr1209  1  0.41666667  0.00222700  0.75668100  1.0
  Zr  Zr1210  1  0.41666667  0.33556033  0.75668100  1.0
  Zr  Zr1211  1  0.41666667  0.66889367  0.75668100  1.0
  Zr  Zr1212  1  0.75000000  0.00222700  0.75668100  1.0
  Zr  Zr1213  1  0.75000000  0.33556033  0.75668100  1.0
  Zr  Zr1214  1  0.75000000  0.66889367  0.75668100  1.0
  Zr  Zr1215  1  0.25000000  0.13556033  0.65668100  1.0
  Zr  Zr1216  1  0.25000000  0.46889367  0.65668100  1.0
  Zr  Zr1217  1  0.25000000  0.80222700  0.65668100  1.0
  Zr  Zr1218  1  0.58333333  0.13556033  0.65668100  1.0
  Zr  Zr1219  1  0.58333333  0.46889367  0.65668100  1.0
  Zr  Zr1220  1  0.58333333  0.80222700  0.65668100  1.0
  Zr  Zr1221  1  0.91666667  0.13556033  0.65668100  1.0
  Zr  Zr1222  1  0.91666667  0.46889367  0.65668100  1.0
  Zr  Zr1223  1  0.91666667  0.80222700  0.65668100  1.0
