# generated using pymatgen
data_Zr7Ni10
_symmetry_space_group_name_H-M   'P 1'
_cell_length_a   27.52235399
_cell_length_b   60.03938346
_cell_length_c   38.56151250
_cell_angle_alpha   96.47189725
_cell_angle_beta   53.50364367
_cell_angle_gamma   76.74987565
_symmetry_Int_Tables_number   1
_chemical_formula_structural   Zr7Ni10
_chemical_formula_sum   'Zr504 Ni720'
_cell_volume   47267.90156434
_cell_formula_units_Z   72
loop_
 _symmetry_equiv_pos_site_id
 _symmetry_equiv_pos_as_xyz
  1  'x, y, z'
loop_
 _atom_site_type_symbol
 _atom_site_label
 _atom_site_symmetry_multiplicity
 _atom_site_fract_x
 _atom_site_fract_y
 _atom_site_fract_z
 _atom_site_occupancy
  Zr  Zr0  1  0.26950600  0.00000000  0.07229725  1.0
  Zr  Zr1  1  0.26950600  0.33333333  0.07229725  1.0
  Zr  Zr2  1  0.26950600  0.66666667  0.07229725  1.0
  Zr  Zr3  1  0.60283933  0.00000000  0.07229725  1.0
  Zr  Zr4  1  0.60283933  0.33333333  0.07229725  1.0
  Zr  Zr5  1  0.60283933  0.66666667  0.07229725  1.0
  Zr  Zr6  1  0.93617267  0.00000000  0.07229725  1.0
  Zr  Zr7  1  0.93617267  0.33333333  0.07229725  1.0
  Zr  Zr8  1  0.93617267  0.66666667  0.07229725  1.0
  Zr  Zr9  1  0.10283933  0.16666667  0.17229725  1.0
  Zr  Zr10  1  0.10283933  0.50000000  0.17229725  1.0
  Zr  Zr11  1  0.10283933  0.83333333  0.17229725  1.0
  Zr  Zr12  1  0.43617267  0.16666667  0.17229725  1.0
  Zr  Zr13  1  0.43617267  0.50000000  0.17229725  1.0
  Zr  Zr14  1  0.43617267  0.83333333  0.17229725  1.0
  Zr  Zr15  1  0.76950600  0.16666667  0.17229725  1.0
  Zr  Zr16  1  0.76950600  0.50000000  0.17229725  1.0
  Zr  Zr17  1  0.76950600  0.83333333  0.17229725  1.0
  Zr  Zr18  1  0.18617267  0.25000000  0.02229725  1.0
  Zr  Zr19  1  0.18617267  0.58333333  0.02229725  1.0
  Zr  Zr20  1  0.18617267  0.91666667  0.02229725  1.0
  Zr  Zr21  1  0.51950600  0.25000000  0.02229725  1.0
  Zr  Zr22  1  0.51950600  0.58333333  0.02229725  1.0
  Zr  Zr23  1  0.51950600  0.91666667  0.02229725  1.0
  Zr  Zr24  1  0.85283933  0.25000000  0.02229725  1.0
  Zr  Zr25  1  0.85283933  0.58333333  0.02229725  1.0
  Zr  Zr26  1  0.85283933  0.91666667  0.02229725  1.0
  Zr  Zr27  1  0.01950600  0.08333333  0.12229725  1.0
  Zr  Zr28  1  0.01950600  0.41666667  0.12229725  1.0
  Zr  Zr29  1  0.01950600  0.75000000  0.12229725  1.0
  Zr  Zr30  1  0.35283933  0.08333333  0.12229725  1.0
  Zr  Zr31  1  0.35283933  0.41666667  0.12229725  1.0
  Zr  Zr32  1  0.35283933  0.75000000  0.12229725  1.0
  Zr  Zr33  1  0.68617267  0.08333333  0.12229725  1.0
  Zr  Zr34  1  0.68617267  0.41666667  0.12229725  1.0
  Zr  Zr35  1  0.68617267  0.75000000  0.12229725  1.0
  Zr  Zr36  1  0.21874583  0.21874217  0.12694975  1.0
  Zr  Zr37  1  0.21874583  0.55207550  0.12694975  1.0
  Zr  Zr38  1  0.21874583  0.88540883  0.12694975  1.0
  Zr  Zr39  1  0.55207917  0.21874217  0.12694975  1.0
  Zr  Zr40  1  0.55207917  0.55207550  0.12694975  1.0
  Zr  Zr41  1  0.55207917  0.88540883  0.12694975  1.0
  Zr  Zr42  1  0.88541250  0.21874217  0.12694975  1.0
  Zr  Zr43  1  0.88541250  0.55207550  0.12694975  1.0
  Zr  Zr44  1  0.88541250  0.88540883  0.12694975  1.0
  Zr  Zr45  1  0.05207917  0.05207550  0.02694975  1.0
  Zr  Zr46  1  0.05207917  0.38540883  0.02694975  1.0
  Zr  Zr47  1  0.05207917  0.71874217  0.02694975  1.0
  Zr  Zr48  1  0.38541250  0.05207550  0.02694975  1.0
  Zr  Zr49  1  0.38541250  0.38540883  0.02694975  1.0
  Zr  Zr50  1  0.38541250  0.71874217  0.02694975  1.0
  Zr  Zr51  1  0.71874583  0.05207550  0.02694975  1.0
  Zr  Zr52  1  0.71874583  0.38540883  0.02694975  1.0
  Zr  Zr53  1  0.71874583  0.71874217  0.02694975  1.0
  Zr  Zr54  1  0.28125417  0.28125783  0.16445915  1.0
  Zr  Zr55  1  0.28125417  0.61459117  0.16445915  1.0
  Zr  Zr56  1  0.28125417  0.94792450  0.16445915  1.0
  Zr  Zr57  1  0.61458750  0.28125783  0.16445915  1.0
  Zr  Zr58  1  0.61458750  0.61459117  0.16445915  1.0
  Zr  Zr59  1  0.61458750  0.94792450  0.16445915  1.0
  Zr  Zr60  1  0.94792083  0.28125783  0.16445915  1.0
  Zr  Zr61  1  0.94792083  0.61459117  0.16445915  1.0
  Zr  Zr62  1  0.94792083  0.94792450  0.16445915  1.0
  Zr  Zr63  1  0.11458750  0.11459117  0.06445915  1.0
  Zr  Zr64  1  0.11458750  0.44792450  0.06445915  1.0
  Zr  Zr65  1  0.11458750  0.78125783  0.06445915  1.0
  Zr  Zr66  1  0.44792083  0.11459117  0.06445915  1.0
  Zr  Zr67  1  0.44792083  0.44792450  0.06445915  1.0
  Zr  Zr68  1  0.44792083  0.78125783  0.06445915  1.0
  Zr  Zr69  1  0.78125417  0.11459117  0.06445915  1.0
  Zr  Zr70  1  0.78125417  0.44792450  0.06445915  1.0
  Zr  Zr71  1  0.78125417  0.78125783  0.06445915  1.0
  Zr  Zr72  1  0.06382733  0.00000000  0.11911165  1.0
  Zr  Zr73  1  0.06382733  0.33333333  0.11911165  1.0
  Zr  Zr74  1  0.06382733  0.66666667  0.11911165  1.0
  Zr  Zr75  1  0.39716067  0.00000000  0.11911165  1.0
  Zr  Zr76  1  0.39716067  0.33333333  0.11911165  1.0
  Zr  Zr77  1  0.39716067  0.66666667  0.11911165  1.0
  Zr  Zr78  1  0.73049400  0.00000000  0.11911165  1.0
  Zr  Zr79  1  0.73049400  0.33333333  0.11911165  1.0
  Zr  Zr80  1  0.73049400  0.66666667  0.11911165  1.0
  Zr  Zr81  1  0.23049400  0.16666667  0.01911165  1.0
  Zr  Zr82  1  0.23049400  0.50000000  0.01911165  1.0
  Zr  Zr83  1  0.23049400  0.83333333  0.01911165  1.0
  Zr  Zr84  1  0.56382733  0.16666667  0.01911165  1.0
  Zr  Zr85  1  0.56382733  0.50000000  0.01911165  1.0
  Zr  Zr86  1  0.56382733  0.83333333  0.01911165  1.0
  Zr  Zr87  1  0.89716067  0.16666667  0.01911165  1.0
  Zr  Zr88  1  0.89716067  0.50000000  0.01911165  1.0
  Zr  Zr89  1  0.89716067  0.83333333  0.01911165  1.0
  Zr  Zr90  1  0.29221633  0.20833333  0.02070445  1.0
  Zr  Zr91  1  0.29221633  0.54166667  0.02070445  1.0
  Zr  Zr92  1  0.29221633  0.87500000  0.02070445  1.0
  Zr  Zr93  1  0.62554967  0.20833333  0.02070445  1.0
  Zr  Zr94  1  0.62554967  0.54166667  0.02070445  1.0
  Zr  Zr95  1  0.62554967  0.87500000  0.02070445  1.0
  Zr  Zr96  1  0.95888300  0.20833333  0.02070445  1.0
  Zr  Zr97  1  0.95888300  0.54166667  0.02070445  1.0
  Zr  Zr98  1  0.95888300  0.87500000  0.02070445  1.0
  Zr  Zr99  1  0.12554967  0.04166667  0.12070445  1.0
  Zr  Zr100  1  0.12554967  0.37500000  0.12070445  1.0
  Zr  Zr101  1  0.12554967  0.70833333  0.12070445  1.0
  Zr  Zr102  1  0.45888300  0.04166667  0.12070445  1.0
  Zr  Zr103  1  0.45888300  0.37500000  0.12070445  1.0
  Zr  Zr104  1  0.45888300  0.70833333  0.12070445  1.0
  Zr  Zr105  1  0.79221633  0.04166667  0.12070445  1.0
  Zr  Zr106  1  0.79221633  0.37500000  0.12070445  1.0
  Zr  Zr107  1  0.79221633  0.70833333  0.12070445  1.0
  Zr  Zr108  1  0.20778367  0.29166667  0.07070445  1.0
  Zr  Zr109  1  0.20778367  0.62500000  0.07070445  1.0
  Zr  Zr110  1  0.20778367  0.95833333  0.07070445  1.0
  Zr  Zr111  1  0.54111700  0.29166667  0.07070445  1.0
  Zr  Zr112  1  0.54111700  0.62500000  0.07070445  1.0
  Zr  Zr113  1  0.54111700  0.95833333  0.07070445  1.0
  Zr  Zr114  1  0.87445033  0.29166667  0.07070445  1.0
  Zr  Zr115  1  0.87445033  0.62500000  0.07070445  1.0
  Zr  Zr116  1  0.87445033  0.95833333  0.07070445  1.0
  Zr  Zr117  1  0.04111700  0.12500000  0.17070445  1.0
  Zr  Zr118  1  0.04111700  0.45833333  0.17070445  1.0
  Zr  Zr119  1  0.04111700  0.79166667  0.17070445  1.0
  Zr  Zr120  1  0.37445033  0.12500000  0.17070445  1.0
  Zr  Zr121  1  0.37445033  0.45833333  0.17070445  1.0
  Zr  Zr122  1  0.37445033  0.79166667  0.17070445  1.0
  Zr  Zr123  1  0.70778367  0.12500000  0.17070445  1.0
  Zr  Zr124  1  0.70778367  0.45833333  0.17070445  1.0
  Zr  Zr125  1  0.70778367  0.79166667  0.17070445  1.0
  Zr  Zr126  1  0.07289683  0.19792450  0.11445915  1.0
  Zr  Zr127  1  0.07289683  0.53125783  0.11445915  1.0
  Zr  Zr128  1  0.07289683  0.86459117  0.11445915  1.0
  Zr  Zr129  1  0.40623017  0.19792450  0.11445915  1.0
  Zr  Zr130  1  0.40623017  0.53125783  0.11445915  1.0
  Zr  Zr131  1  0.40623017  0.86459117  0.11445915  1.0
  Zr  Zr132  1  0.73956350  0.19792450  0.11445915  1.0
  Zr  Zr133  1  0.73956350  0.53125783  0.11445915  1.0
  Zr  Zr134  1  0.73956350  0.86459117  0.11445915  1.0
  Zr  Zr135  1  0.23956350  0.03125783  0.01445915  1.0
  Zr  Zr136  1  0.23956350  0.36459117  0.01445915  1.0
  Zr  Zr137  1  0.23956350  0.69792450  0.01445915  1.0
  Zr  Zr138  1  0.57289683  0.03125783  0.01445915  1.0
  Zr  Zr139  1  0.57289683  0.36459117  0.01445915  1.0
  Zr  Zr140  1  0.57289683  0.69792450  0.01445915  1.0
  Zr  Zr141  1  0.90623017  0.03125783  0.01445915  1.0
  Zr  Zr142  1  0.90623017  0.36459117  0.01445915  1.0
  Zr  Zr143  1  0.90623017  0.69792450  0.01445915  1.0
  Zr  Zr144  1  0.16666667  0.00000000  0.19570445  1.0
  Zr  Zr145  1  0.16666667  0.33333333  0.19570445  1.0
  Zr  Zr146  1  0.16666667  0.66666667  0.19570445  1.0
  Zr  Zr147  1  0.50000000  0.00000000  0.19570445  1.0
  Zr  Zr148  1  0.50000000  0.33333333  0.19570445  1.0
  Zr  Zr149  1  0.50000000  0.66666667  0.19570445  1.0
  Zr  Zr150  1  0.83333333  0.00000000  0.19570445  1.0
  Zr  Zr151  1  0.83333333  0.33333333  0.19570445  1.0
  Zr  Zr152  1  0.83333333  0.66666667  0.19570445  1.0
  Zr  Zr153  1  0.33333333  0.16666667  0.09570445  1.0
  Zr  Zr154  1  0.33333333  0.50000000  0.09570445  1.0
  Zr  Zr155  1  0.33333333  0.83333333  0.09570445  1.0
  Zr  Zr156  1  0.66666667  0.16666667  0.09570445  1.0
  Zr  Zr157  1  0.66666667  0.50000000  0.09570445  1.0
  Zr  Zr158  1  0.66666667  0.83333333  0.09570445  1.0
  Zr  Zr159  1  1.00000000  0.16666667  0.09570445  1.0
  Zr  Zr160  1  1.00000000  0.50000000  0.09570445  1.0
  Zr  Zr161  1  1.00000000  0.83333333  0.09570445  1.0
  Zr  Zr162  1  0.04111700  0.29166667  0.07070445  1.0
  Zr  Zr163  1  0.04111700  0.62500000  0.07070445  1.0
  Zr  Zr164  1  0.04111700  0.95833333  0.07070445  1.0
  Zr  Zr165  1  0.37445033  0.29166667  0.07070445  1.0
  Zr  Zr166  1  0.37445033  0.62500000  0.07070445  1.0
  Zr  Zr167  1  0.37445033  0.95833333  0.07070445  1.0
  Zr  Zr168  1  0.70778367  0.29166667  0.07070445  1.0
  Zr  Zr169  1  0.70778367  0.62500000  0.07070445  1.0
  Zr  Zr170  1  0.70778367  0.95833333  0.07070445  1.0
  Zr  Zr171  1  0.20778367  0.12500000  0.17070445  1.0
  Zr  Zr172  1  0.20778367  0.45833333  0.17070445  1.0
  Zr  Zr173  1  0.20778367  0.79166667  0.17070445  1.0
  Zr  Zr174  1  0.54111700  0.12500000  0.17070445  1.0
  Zr  Zr175  1  0.54111700  0.45833333  0.17070445  1.0
  Zr  Zr176  1  0.54111700  0.79166667  0.17070445  1.0
  Zr  Zr177  1  0.87445033  0.12500000  0.17070445  1.0
  Zr  Zr178  1  0.87445033  0.45833333  0.17070445  1.0
  Zr  Zr179  1  0.87445033  0.79166667  0.17070445  1.0
  Zr  Zr180  1  0.31382733  0.25000000  0.06911165  1.0
  Zr  Zr181  1  0.31382733  0.58333333  0.06911165  1.0
  Zr  Zr182  1  0.31382733  0.91666667  0.06911165  1.0
  Zr  Zr183  1  0.64716067  0.25000000  0.06911165  1.0
  Zr  Zr184  1  0.64716067  0.58333333  0.06911165  1.0
  Zr  Zr185  1  0.64716067  0.91666667  0.06911165  1.0
  Zr  Zr186  1  0.98049400  0.25000000  0.06911165  1.0
  Zr  Zr187  1  0.98049400  0.58333333  0.06911165  1.0
  Zr  Zr188  1  0.98049400  0.91666667  0.06911165  1.0
  Zr  Zr189  1  0.14716067  0.08333333  0.16911165  1.0
  Zr  Zr190  1  0.14716067  0.41666667  0.16911165  1.0
  Zr  Zr191  1  0.14716067  0.75000000  0.16911165  1.0
  Zr  Zr192  1  0.48049400  0.08333333  0.16911165  1.0
  Zr  Zr193  1  0.48049400  0.41666667  0.16911165  1.0
  Zr  Zr194  1  0.48049400  0.75000000  0.16911165  1.0
  Zr  Zr195  1  0.81382733  0.08333333  0.16911165  1.0
  Zr  Zr196  1  0.81382733  0.41666667  0.16911165  1.0
  Zr  Zr197  1  0.81382733  0.75000000  0.16911165  1.0
  Zr  Zr198  1  0.12554967  0.20833333  0.02070445  1.0
  Zr  Zr199  1  0.12554967  0.54166667  0.02070445  1.0
  Zr  Zr200  1  0.12554967  0.87500000  0.02070445  1.0
  Zr  Zr201  1  0.45888300  0.20833333  0.02070445  1.0
  Zr  Zr202  1  0.45888300  0.54166667  0.02070445  1.0
  Zr  Zr203  1  0.45888300  0.87500000  0.02070445  1.0
  Zr  Zr204  1  0.79221633  0.20833333  0.02070445  1.0
  Zr  Zr205  1  0.79221633  0.54166667  0.02070445  1.0
  Zr  Zr206  1  0.79221633  0.87500000  0.02070445  1.0
  Zr  Zr207  1  0.29221633  0.04166667  0.12070445  1.0
  Zr  Zr208  1  0.29221633  0.37500000  0.12070445  1.0
  Zr  Zr209  1  0.29221633  0.70833333  0.12070445  1.0
  Zr  Zr210  1  0.62554967  0.04166667  0.12070445  1.0
  Zr  Zr211  1  0.62554967  0.37500000  0.12070445  1.0
  Zr  Zr212  1  0.62554967  0.70833333  0.12070445  1.0
  Zr  Zr213  1  0.95888300  0.04166667  0.12070445  1.0
  Zr  Zr214  1  0.95888300  0.37500000  0.12070445  1.0
  Zr  Zr215  1  0.95888300  0.70833333  0.12070445  1.0
  Zr  Zr216  1  0.09376983  0.30207550  0.17694975  1.0
  Zr  Zr217  1  0.09376983  0.63540883  0.17694975  1.0
  Zr  Zr218  1  0.09376983  0.96874217  0.17694975  1.0
  Zr  Zr219  1  0.42710317  0.30207550  0.17694975  1.0
  Zr  Zr220  1  0.42710317  0.63540883  0.17694975  1.0
  Zr  Zr221  1  0.42710317  0.96874217  0.17694975  1.0
  Zr  Zr222  1  0.76043650  0.30207550  0.17694975  1.0
  Zr  Zr223  1  0.76043650  0.63540883  0.17694975  1.0
  Zr  Zr224  1  0.76043650  0.96874217  0.17694975  1.0
  Zr  Zr225  1  0.26043650  0.13540883  0.07694975  1.0
  Zr  Zr226  1  0.26043650  0.46874217  0.07694975  1.0
  Zr  Zr227  1  0.26043650  0.80207550  0.07694975  1.0
  Zr  Zr228  1  0.59376983  0.13540883  0.07694975  1.0
  Zr  Zr229  1  0.59376983  0.46874217  0.07694975  1.0
  Zr  Zr230  1  0.59376983  0.80207550  0.07694975  1.0
  Zr  Zr231  1  0.92710317  0.13540883  0.07694975  1.0
  Zr  Zr232  1  0.92710317  0.46874217  0.07694975  1.0
  Zr  Zr233  1  0.92710317  0.80207550  0.07694975  1.0
  Zr  Zr234  1  0.08333333  0.25000000  0.14570445  1.0
  Zr  Zr235  1  0.08333333  0.58333333  0.14570445  1.0
  Zr  Zr236  1  0.08333333  0.91666667  0.14570445  1.0
  Zr  Zr237  1  0.41666667  0.25000000  0.14570445  1.0
  Zr  Zr238  1  0.41666667  0.58333333  0.14570445  1.0
  Zr  Zr239  1  0.41666667  0.91666667  0.14570445  1.0
  Zr  Zr240  1  0.75000000  0.25000000  0.14570445  1.0
  Zr  Zr241  1  0.75000000  0.58333333  0.14570445  1.0
  Zr  Zr242  1  0.75000000  0.91666667  0.14570445  1.0
  Zr  Zr243  1  0.25000000  0.08333333  0.04570445  1.0
  Zr  Zr244  1  0.25000000  0.41666667  0.04570445  1.0
  Zr  Zr245  1  0.25000000  0.75000000  0.04570445  1.0
  Zr  Zr246  1  0.58333333  0.08333333  0.04570445  1.0
  Zr  Zr247  1  0.58333333  0.41666667  0.04570445  1.0
  Zr  Zr248  1  0.58333333  0.75000000  0.04570445  1.0
  Zr  Zr249  1  0.91666667  0.08333333  0.04570445  1.0
  Zr  Zr250  1  0.91666667  0.41666667  0.04570445  1.0
  Zr  Zr251  1  0.91666667  0.75000000  0.04570445  1.0
  Ni  Ni252  1  0.31561500  0.31573733  0.18514685  1.0
  Ni  Ni253  1  0.31561500  0.64907067  0.18514685  1.0
  Ni  Ni254  1  0.31561500  0.98240400  0.18514685  1.0
  Ni  Ni255  1  0.64894833  0.31573733  0.18514685  1.0
  Ni  Ni256  1  0.64894833  0.64907067  0.18514685  1.0
  Ni  Ni257  1  0.64894833  0.98240400  0.18514685  1.0
  Ni  Ni258  1  0.98228167  0.31573733  0.18514685  1.0
  Ni  Ni259  1  0.98228167  0.64907067  0.18514685  1.0
  Ni  Ni260  1  0.98228167  0.98240400  0.18514685  1.0
  Ni  Ni261  1  0.14894833  0.14907067  0.08514685  1.0
  Ni  Ni262  1  0.14894833  0.48240400  0.08514685  1.0
  Ni  Ni263  1  0.14894833  0.81573733  0.08514685  1.0
  Ni  Ni264  1  0.48228167  0.14907067  0.08514685  1.0
  Ni  Ni265  1  0.48228167  0.48240400  0.08514685  1.0
  Ni  Ni266  1  0.48228167  0.81573733  0.08514685  1.0
  Ni  Ni267  1  0.81561500  0.14907067  0.08514685  1.0
  Ni  Ni268  1  0.81561500  0.48240400  0.08514685  1.0
  Ni  Ni269  1  0.81561500  0.81573733  0.08514685  1.0
  Ni  Ni270  1  0.15042200  0.29881233  0.03350645  1.0
  Ni  Ni271  1  0.15042200  0.63214567  0.03350645  1.0
  Ni  Ni272  1  0.15042200  0.96547900  0.03350645  1.0
  Ni  Ni273  1  0.48375533  0.29881233  0.03350645  1.0
  Ni  Ni274  1  0.48375533  0.63214567  0.03350645  1.0
  Ni  Ni275  1  0.48375533  0.96547900  0.03350645  1.0
  Ni  Ni276  1  0.81708867  0.29881233  0.03350645  1.0
  Ni  Ni277  1  0.81708867  0.63214567  0.03350645  1.0
  Ni  Ni278  1  0.81708867  0.96547900  0.03350645  1.0
  Ni  Ni279  1  0.31708867  0.13214567  0.13350645  1.0
  Ni  Ni280  1  0.31708867  0.46547900  0.13350645  1.0
  Ni  Ni281  1  0.31708867  0.79881233  0.13350645  1.0
  Ni  Ni282  1  0.65042200  0.13214567  0.13350645  1.0
  Ni  Ni283  1  0.65042200  0.46547900  0.13350645  1.0
  Ni  Ni284  1  0.65042200  0.79881233  0.13350645  1.0
  Ni  Ni285  1  0.98375533  0.13214567  0.13350645  1.0
  Ni  Ni286  1  0.98375533  0.46547900  0.13350645  1.0
  Ni  Ni287  1  0.98375533  0.79881233  0.13350645  1.0
  Ni  Ni288  1  0.19923883  0.25111417  0.08845035  1.0
  Ni  Ni289  1  0.19923883  0.58444750  0.08845035  1.0
  Ni  Ni290  1  0.19923883  0.91778083  0.08845035  1.0
  Ni  Ni291  1  0.53257217  0.25111417  0.08845035  1.0
  Ni  Ni292  1  0.53257217  0.58444750  0.08845035  1.0
  Ni  Ni293  1  0.53257217  0.91778083  0.08845035  1.0
  Ni  Ni294  1  0.86590550  0.25111417  0.08845035  1.0
  Ni  Ni295  1  0.86590550  0.58444750  0.08845035  1.0
  Ni  Ni296  1  0.86590550  0.91778083  0.08845035  1.0
  Ni  Ni297  1  0.03257217  0.08444750  0.18845035  1.0
  Ni  Ni298  1  0.03257217  0.41778083  0.18845035  1.0
  Ni  Ni299  1  0.03257217  0.75111417  0.18845035  1.0
  Ni  Ni300  1  0.36590550  0.08444750  0.18845035  1.0
  Ni  Ni301  1  0.36590550  0.41778083  0.18845035  1.0
  Ni  Ni302  1  0.36590550  0.75111417  0.18845035  1.0
  Ni  Ni303  1  0.69923883  0.08444750  0.18845035  1.0
  Ni  Ni304  1  0.69923883  0.41778083  0.18845035  1.0
  Ni  Ni305  1  0.69923883  0.75111417  0.18845035  1.0
  Ni  Ni306  1  0.25205367  0.20118767  0.17493165  1.0
  Ni  Ni307  1  0.25205367  0.53452100  0.17493165  1.0
  Ni  Ni308  1  0.25205367  0.86785433  0.17493165  1.0
  Ni  Ni309  1  0.58538700  0.20118767  0.17493165  1.0
  Ni  Ni310  1  0.58538700  0.53452100  0.17493165  1.0
  Ni  Ni311  1  0.58538700  0.86785433  0.17493165  1.0
  Ni  Ni312  1  0.91872033  0.20118767  0.17493165  1.0
  Ni  Ni313  1  0.91872033  0.53452100  0.17493165  1.0
  Ni  Ni314  1  0.91872033  0.86785433  0.17493165  1.0
  Ni  Ni315  1  0.08538700  0.03452100  0.07493165  1.0
  Ni  Ni316  1  0.08538700  0.36785433  0.07493165  1.0
  Ni  Ni317  1  0.08538700  0.70118767  0.07493165  1.0
  Ni  Ni318  1  0.41872033  0.03452100  0.07493165  1.0
  Ni  Ni319  1  0.41872033  0.36785433  0.07493165  1.0
  Ni  Ni320  1  0.41872033  0.70118767  0.07493165  1.0
  Ni  Ni321  1  0.75205367  0.03452100  0.07493165  1.0
  Ni  Ni322  1  0.75205367  0.36785433  0.07493165  1.0
  Ni  Ni323  1  0.75205367  0.70118767  0.07493165  1.0
  Ni  Ni324  1  0.09557100  0.28452100  0.10790245  1.0
  Ni  Ni325  1  0.09557100  0.61785433  0.10790245  1.0
  Ni  Ni326  1  0.09557100  0.95118767  0.10790245  1.0
  Ni  Ni327  1  0.42890433  0.28452100  0.10790245  1.0
  Ni  Ni328  1  0.42890433  0.61785433  0.10790245  1.0
  Ni  Ni329  1  0.42890433  0.95118767  0.10790245  1.0
  Ni  Ni330  1  0.76223767  0.28452100  0.10790245  1.0
  Ni  Ni331  1  0.76223767  0.61785433  0.10790245  1.0
  Ni  Ni332  1  0.76223767  0.95118767  0.10790245  1.0
  Ni  Ni333  1  0.26223767  0.11785433  0.00790245  1.0
  Ni  Ni334  1  0.26223767  0.45118767  0.00790245  1.0
  Ni  Ni335  1  0.26223767  0.78452100  0.00790245  1.0
  Ni  Ni336  1  0.59557100  0.11785433  0.00790245  1.0
  Ni  Ni337  1  0.59557100  0.45118767  0.00790245  1.0
  Ni  Ni338  1  0.59557100  0.78452100  0.00790245  1.0
  Ni  Ni339  1  0.92890433  0.11785433  0.00790245  1.0
  Ni  Ni340  1  0.92890433  0.45118767  0.00790245  1.0
  Ni  Ni341  1  0.92890433  0.78452100  0.00790245  1.0
  Ni  Ni342  1  0.33138000  0.28452100  0.02493165  1.0
  Ni  Ni343  1  0.33138000  0.61785433  0.02493165  1.0
  Ni  Ni344  1  0.33138000  0.95118767  0.02493165  1.0
  Ni  Ni345  1  0.66471333  0.28452100  0.02493165  1.0
  Ni  Ni346  1  0.66471333  0.61785433  0.02493165  1.0
  Ni  Ni347  1  0.66471333  0.95118767  0.02493165  1.0
  Ni  Ni348  1  0.99804667  0.28452100  0.02493165  1.0
  Ni  Ni349  1  0.99804667  0.61785433  0.02493165  1.0
  Ni  Ni350  1  0.99804667  0.95118767  0.02493165  1.0
  Ni  Ni351  1  0.16471333  0.11785433  0.12493165  1.0
  Ni  Ni352  1  0.16471333  0.45118767  0.12493165  1.0
  Ni  Ni353  1  0.16471333  0.78452100  0.12493165  1.0
  Ni  Ni354  1  0.49804667  0.11785433  0.12493165  1.0
  Ni  Ni355  1  0.49804667  0.45118767  0.12493165  1.0
  Ni  Ni356  1  0.49804667  0.78452100  0.12493165  1.0
  Ni  Ni357  1  0.83138000  0.11785433  0.12493165  1.0
  Ni  Ni358  1  0.83138000  0.45118767  0.12493165  1.0
  Ni  Ni359  1  0.83138000  0.78452100  0.12493165  1.0
  Ni  Ni360  1  0.30291033  0.23240400  0.13514685  1.0
  Ni  Ni361  1  0.30291033  0.56573733  0.13514685  1.0
  Ni  Ni362  1  0.30291033  0.89907067  0.13514685  1.0
  Ni  Ni363  1  0.63624367  0.23240400  0.13514685  1.0
  Ni  Ni364  1  0.63624367  0.56573733  0.13514685  1.0
  Ni  Ni365  1  0.63624367  0.89907067  0.13514685  1.0
  Ni  Ni366  1  0.96957700  0.23240400  0.13514685  1.0
  Ni  Ni367  1  0.96957700  0.56573733  0.13514685  1.0
  Ni  Ni368  1  0.96957700  0.89907067  0.13514685  1.0
  Ni  Ni369  1  0.13624367  0.06573733  0.03514685  1.0
  Ni  Ni370  1  0.13624367  0.39907067  0.03514685  1.0
  Ni  Ni371  1  0.13624367  0.73240400  0.03514685  1.0
  Ni  Ni372  1  0.46957700  0.06573733  0.03514685  1.0
  Ni  Ni373  1  0.46957700  0.39907067  0.03514685  1.0
  Ni  Ni374  1  0.46957700  0.73240400  0.03514685  1.0
  Ni  Ni375  1  0.80291033  0.06573733  0.03514685  1.0
  Ni  Ni376  1  0.80291033  0.39907067  0.03514685  1.0
  Ni  Ni377  1  0.80291033  0.73240400  0.03514685  1.0
  Ni  Ni378  1  0.21519950  0.16778083  0.15429555  1.0
  Ni  Ni379  1  0.21519950  0.50111417  0.15429555  1.0
  Ni  Ni380  1  0.21519950  0.83444750  0.15429555  1.0
  Ni  Ni381  1  0.54853283  0.16778083  0.15429555  1.0
  Ni  Ni382  1  0.54853283  0.50111417  0.15429555  1.0
  Ni  Ni383  1  0.54853283  0.83444750  0.15429555  1.0
  Ni  Ni384  1  0.88186617  0.16778083  0.15429555  1.0
  Ni  Ni385  1  0.88186617  0.50111417  0.15429555  1.0
  Ni  Ni386  1  0.88186617  0.83444750  0.15429555  1.0
  Ni  Ni387  1  0.04853283  0.00111417  0.05429555  1.0
  Ni  Ni388  1  0.04853283  0.33444750  0.05429555  1.0
  Ni  Ni389  1  0.04853283  0.66778083  0.05429555  1.0
  Ni  Ni390  1  0.38186617  0.00111417  0.05429555  1.0
  Ni  Ni391  1  0.38186617  0.33444750  0.05429555  1.0
  Ni  Ni392  1  0.38186617  0.66778083  0.05429555  1.0
  Ni  Ni393  1  0.71519950  0.00111417  0.05429555  1.0
  Ni  Ni394  1  0.71519950  0.33444750  0.05429555  1.0
  Ni  Ni395  1  0.71519950  0.66778083  0.05429555  1.0
  Ni  Ni396  1  0.01624467  0.20118767  0.05790245  1.0
  Ni  Ni397  1  0.01624467  0.53452100  0.05790245  1.0
  Ni  Ni398  1  0.01624467  0.86785433  0.05790245  1.0
  Ni  Ni399  1  0.34957800  0.20118767  0.05790245  1.0
  Ni  Ni400  1  0.34957800  0.53452100  0.05790245  1.0
  Ni  Ni401  1  0.34957800  0.86785433  0.05790245  1.0
  Ni  Ni402  1  0.68291133  0.20118767  0.05790245  1.0
  Ni  Ni403  1  0.68291133  0.53452100  0.05790245  1.0
  Ni  Ni404  1  0.68291133  0.86785433  0.05790245  1.0
  Ni  Ni405  1  0.18291133  0.03452100  0.15790245  1.0
  Ni  Ni406  1  0.18291133  0.36785433  0.15790245  1.0
  Ni  Ni407  1  0.18291133  0.70118767  0.15790245  1.0
  Ni  Ni408  1  0.51624467  0.03452100  0.15790245  1.0
  Ni  Ni409  1  0.51624467  0.36785433  0.15790245  1.0
  Ni  Ni410  1  0.51624467  0.70118767  0.15790245  1.0
  Ni  Ni411  1  0.84957800  0.03452100  0.15790245  1.0
  Ni  Ni412  1  0.84957800  0.36785433  0.15790245  1.0
  Ni  Ni413  1  0.84957800  0.70118767  0.15790245  1.0
  Ni  Ni414  1  0.07109567  0.21547900  0.18350645  1.0
  Ni  Ni415  1  0.07109567  0.54881233  0.18350645  1.0
  Ni  Ni416  1  0.07109567  0.88214567  0.18350645  1.0
  Ni  Ni417  1  0.40442900  0.21547900  0.18350645  1.0
  Ni  Ni418  1  0.40442900  0.54881233  0.18350645  1.0
  Ni  Ni419  1  0.40442900  0.88214567  0.18350645  1.0
  Ni  Ni420  1  0.73776233  0.21547900  0.18350645  1.0
  Ni  Ni421  1  0.73776233  0.54881233  0.18350645  1.0
  Ni  Ni422  1  0.73776233  0.88214567  0.18350645  1.0
  Ni  Ni423  1  0.23776233  0.04881233  0.08350645  1.0
  Ni  Ni424  1  0.23776233  0.38214567  0.08350645  1.0
  Ni  Ni425  1  0.23776233  0.71547900  0.08350645  1.0
  Ni  Ni426  1  0.57109567  0.04881233  0.08350645  1.0
  Ni  Ni427  1  0.57109567  0.38214567  0.08350645  1.0
  Ni  Ni428  1  0.57109567  0.71547900  0.08350645  1.0
  Ni  Ni429  1  0.90442900  0.04881233  0.08350645  1.0
  Ni  Ni430  1  0.90442900  0.38214567  0.08350645  1.0
  Ni  Ni431  1  0.90442900  0.71547900  0.08350645  1.0
  Ni  Ni432  1  0.31173717  0.16778083  0.03845035  1.0
  Ni  Ni433  1  0.31173717  0.50111417  0.03845035  1.0
  Ni  Ni434  1  0.31173717  0.83444750  0.03845035  1.0
  Ni  Ni435  1  0.64507050  0.16778083  0.03845035  1.0
  Ni  Ni436  1  0.64507050  0.50111417  0.03845035  1.0
  Ni  Ni437  1  0.64507050  0.83444750  0.03845035  1.0
  Ni  Ni438  1  0.97840383  0.16778083  0.03845035  1.0
  Ni  Ni439  1  0.97840383  0.50111417  0.03845035  1.0
  Ni  Ni440  1  0.97840383  0.83444750  0.03845035  1.0
  Ni  Ni441  1  0.14507050  0.00111417  0.13845035  1.0
  Ni  Ni442  1  0.14507050  0.33444750  0.13845035  1.0
  Ni  Ni443  1  0.14507050  0.66778083  0.13845035  1.0
  Ni  Ni444  1  0.47840383  0.00111417  0.13845035  1.0
  Ni  Ni445  1  0.47840383  0.33444750  0.13845035  1.0
  Ni  Ni446  1  0.47840383  0.66778083  0.13845035  1.0
  Ni  Ni447  1  0.81173717  0.00111417  0.13845035  1.0
  Ni  Ni448  1  0.81173717  0.33444750  0.13845035  1.0
  Ni  Ni449  1  0.81173717  0.66778083  0.13845035  1.0
  Ni  Ni450  1  0.28480050  0.33221917  0.13711335  1.0
  Ni  Ni451  1  0.28480050  0.66555250  0.13711335  1.0
  Ni  Ni452  1  0.28480050  0.99888583  0.13711335  1.0
  Ni  Ni453  1  0.61813383  0.33221917  0.13711335  1.0
  Ni  Ni454  1  0.61813383  0.66555250  0.13711335  1.0
  Ni  Ni455  1  0.61813383  0.99888583  0.13711335  1.0
  Ni  Ni456  1  0.95146717  0.33221917  0.13711335  1.0
  Ni  Ni457  1  0.95146717  0.66555250  0.13711335  1.0
  Ni  Ni458  1  0.95146717  0.99888583  0.13711335  1.0
  Ni  Ni459  1  0.11813383  0.16555250  0.03711335  1.0
  Ni  Ni460  1  0.11813383  0.49888583  0.03711335  1.0
  Ni  Ni461  1  0.11813383  0.83221917  0.03711335  1.0
  Ni  Ni462  1  0.45146717  0.16555250  0.03711335  1.0
  Ni  Ni463  1  0.45146717  0.49888583  0.03711335  1.0
  Ni  Ni464  1  0.45146717  0.83221917  0.03711335  1.0
  Ni  Ni465  1  0.78480050  0.16555250  0.03711335  1.0
  Ni  Ni466  1  0.78480050  0.49888583  0.03711335  1.0
  Ni  Ni467  1  0.78480050  0.83221917  0.03711335  1.0
  Ni  Ni468  1  0.30076117  0.24888583  0.00295855  1.0
  Ni  Ni469  1  0.30076117  0.58221917  0.00295855  1.0
  Ni  Ni470  1  0.30076117  0.91555250  0.00295855  1.0
  Ni  Ni471  1  0.63409450  0.24888583  0.00295855  1.0
  Ni  Ni472  1  0.63409450  0.58221917  0.00295855  1.0
  Ni  Ni473  1  0.63409450  0.91555250  0.00295855  1.0
  Ni  Ni474  1  0.96742783  0.24888583  0.00295855  1.0
  Ni  Ni475  1  0.96742783  0.58221917  0.00295855  1.0
  Ni  Ni476  1  0.96742783  0.91555250  0.00295855  1.0
  Ni  Ni477  1  0.13409450  0.08221917  0.10295855  1.0
  Ni  Ni478  1  0.13409450  0.41555250  0.10295855  1.0
  Ni  Ni479  1  0.13409450  0.74888583  0.10295855  1.0
  Ni  Ni480  1  0.46742783  0.08221917  0.10295855  1.0
  Ni  Ni481  1  0.46742783  0.41555250  0.10295855  1.0
  Ni  Ni482  1  0.46742783  0.74888583  0.10295855  1.0
  Ni  Ni483  1  0.80076117  0.08221917  0.10295855  1.0
  Ni  Ni484  1  0.80076117  0.41555250  0.10295855  1.0
  Ni  Ni485  1  0.80076117  0.74888583  0.10295855  1.0
  Ni  Ni486  1  0.06396550  0.24888583  0.08711335  1.0
  Ni  Ni487  1  0.06396550  0.58221917  0.08711335  1.0
  Ni  Ni488  1  0.06396550  0.91555250  0.08711335  1.0
  Ni  Ni489  1  0.39729883  0.24888583  0.08711335  1.0
  Ni  Ni490  1  0.39729883  0.58221917  0.08711335  1.0
  Ni  Ni491  1  0.39729883  0.91555250  0.08711335  1.0
  Ni  Ni492  1  0.73063217  0.24888583  0.08711335  1.0
  Ni  Ni493  1  0.73063217  0.58221917  0.08711335  1.0
  Ni  Ni494  1  0.73063217  0.91555250  0.08711335  1.0
  Ni  Ni495  1  0.23063217  0.08221917  0.18711335  1.0
  Ni  Ni496  1  0.23063217  0.41555250  0.18711335  1.0
  Ni  Ni497  1  0.23063217  0.74888583  0.18711335  1.0
  Ni  Ni498  1  0.56396550  0.08221917  0.18711335  1.0
  Ni  Ni499  1  0.56396550  0.41555250  0.18711335  1.0
  Ni  Ni500  1  0.56396550  0.74888583  0.18711335  1.0
  Ni  Ni501  1  0.89729883  0.08221917  0.18711335  1.0
  Ni  Ni502  1  0.89729883  0.41555250  0.18711335  1.0
  Ni  Ni503  1  0.89729883  0.74888583  0.18711335  1.0
  Ni  Ni504  1  0.18438500  0.18426267  0.10626205  1.0
  Ni  Ni505  1  0.18438500  0.51759600  0.10626205  1.0
  Ni  Ni506  1  0.18438500  0.85092933  0.10626205  1.0
  Ni  Ni507  1  0.51771833  0.18426267  0.10626205  1.0
  Ni  Ni508  1  0.51771833  0.51759600  0.10626205  1.0
  Ni  Ni509  1  0.51771833  0.85092933  0.10626205  1.0
  Ni  Ni510  1  0.85105167  0.18426267  0.10626205  1.0
  Ni  Ni511  1  0.85105167  0.51759600  0.10626205  1.0
  Ni  Ni512  1  0.85105167  0.85092933  0.10626205  1.0
  Ni  Ni513  1  0.01771833  0.01759600  0.00626205  1.0
  Ni  Ni514  1  0.01771833  0.35092933  0.00626205  1.0
  Ni  Ni515  1  0.01771833  0.68426267  0.00626205  1.0
  Ni  Ni516  1  0.35105167  0.01759600  0.00626205  1.0
  Ni  Ni517  1  0.35105167  0.35092933  0.00626205  1.0
  Ni  Ni518  1  0.35105167  0.68426267  0.00626205  1.0
  Ni  Ni519  1  0.68438500  0.01759600  0.00626205  1.0
  Ni  Ni520  1  0.68438500  0.35092933  0.00626205  1.0
  Ni  Ni521  1  0.68438500  0.68426267  0.00626205  1.0
  Ni  Ni522  1  0.19708967  0.26759600  0.15626205  1.0
  Ni  Ni523  1  0.19708967  0.60092933  0.15626205  1.0
  Ni  Ni524  1  0.19708967  0.93426267  0.15626205  1.0
  Ni  Ni525  1  0.53042300  0.26759600  0.15626205  1.0
  Ni  Ni526  1  0.53042300  0.60092933  0.15626205  1.0
  Ni  Ni527  1  0.53042300  0.93426267  0.15626205  1.0
  Ni  Ni528  1  0.86375633  0.26759600  0.15626205  1.0
  Ni  Ni529  1  0.86375633  0.60092933  0.15626205  1.0
  Ni  Ni530  1  0.86375633  0.93426267  0.15626205  1.0
  Ni  Ni531  1  0.03042300  0.10092933  0.05626205  1.0
  Ni  Ni532  1  0.03042300  0.43426267  0.05626205  1.0
  Ni  Ni533  1  0.03042300  0.76759600  0.05626205  1.0
  Ni  Ni534  1  0.36375633  0.10092933  0.05626205  1.0
  Ni  Ni535  1  0.36375633  0.43426267  0.05626205  1.0
  Ni  Ni536  1  0.36375633  0.76759600  0.05626205  1.0
  Ni  Ni537  1  0.69708967  0.10092933  0.05626205  1.0
  Ni  Ni538  1  0.69708967  0.43426267  0.05626205  1.0
  Ni  Ni539  1  0.69708967  0.76759600  0.05626205  1.0
  Ni  Ni540  1  0.18826283  0.33221917  0.05295855  1.0
  Ni  Ni541  1  0.18826283  0.66555250  0.05295855  1.0
  Ni  Ni542  1  0.18826283  0.99888583  0.05295855  1.0
  Ni  Ni543  1  0.52159617  0.33221917  0.05295855  1.0
  Ni  Ni544  1  0.52159617  0.66555250  0.05295855  1.0
  Ni  Ni545  1  0.52159617  0.99888583  0.05295855  1.0
  Ni  Ni546  1  0.85492950  0.33221917  0.05295855  1.0
  Ni  Ni547  1  0.85492950  0.66555250  0.05295855  1.0
  Ni  Ni548  1  0.85492950  0.99888583  0.05295855  1.0
  Ni  Ni549  1  0.02159617  0.16555250  0.15295855  1.0
  Ni  Ni550  1  0.02159617  0.49888583  0.15295855  1.0
  Ni  Ni551  1  0.02159617  0.83221917  0.15295855  1.0
  Ni  Ni552  1  0.35492950  0.16555250  0.15295855  1.0
  Ni  Ni553  1  0.35492950  0.49888583  0.15295855  1.0
  Ni  Ni554  1  0.35492950  0.83221917  0.15295855  1.0
  Ni  Ni555  1  0.68826283  0.16555250  0.15295855  1.0
  Ni  Ni556  1  0.68826283  0.49888583  0.15295855  1.0
  Ni  Ni557  1  0.68826283  0.83221917  0.15295855  1.0
  Ni  Ni558  1  0.10270117  0.25111417  0.00429555  1.0
  Ni  Ni559  1  0.10270117  0.58444750  0.00429555  1.0
  Ni  Ni560  1  0.10270117  0.91778083  0.00429555  1.0
  Ni  Ni561  1  0.43603450  0.25111417  0.00429555  1.0
  Ni  Ni562  1  0.43603450  0.58444750  0.00429555  1.0
  Ni  Ni563  1  0.43603450  0.91778083  0.00429555  1.0
  Ni  Ni564  1  0.76936783  0.25111417  0.00429555  1.0
  Ni  Ni565  1  0.76936783  0.58444750  0.00429555  1.0
  Ni  Ni566  1  0.76936783  0.91778083  0.00429555  1.0
  Ni  Ni567  1  0.26936783  0.08444750  0.10429555  1.0
  Ni  Ni568  1  0.26936783  0.41778083  0.10429555  1.0
  Ni  Ni569  1  0.26936783  0.75111417  0.10429555  1.0
  Ni  Ni570  1  0.60270117  0.08444750  0.10429555  1.0
  Ni  Ni571  1  0.60270117  0.41778083  0.10429555  1.0
  Ni  Ni572  1  0.60270117  0.75111417  0.10429555  1.0
  Ni  Ni573  1  0.93603450  0.08444750  0.10429555  1.0
  Ni  Ni574  1  0.93603450  0.41778083  0.10429555  1.0
  Ni  Ni575  1  0.93603450  0.75111417  0.10429555  1.0
  Ni  Ni576  1  0.16862000  0.21547900  0.06647725  1.0
  Ni  Ni577  1  0.16862000  0.54881233  0.06647725  1.0
  Ni  Ni578  1  0.16862000  0.88214567  0.06647725  1.0
  Ni  Ni579  1  0.50195333  0.21547900  0.06647725  1.0
  Ni  Ni580  1  0.50195333  0.54881233  0.06647725  1.0
  Ni  Ni581  1  0.50195333  0.88214567  0.06647725  1.0
  Ni  Ni582  1  0.83528667  0.21547900  0.06647725  1.0
  Ni  Ni583  1  0.83528667  0.54881233  0.06647725  1.0
  Ni  Ni584  1  0.83528667  0.88214567  0.06647725  1.0
  Ni  Ni585  1  0.00195333  0.04881233  0.16647725  1.0
  Ni  Ni586  1  0.00195333  0.38214567  0.16647725  1.0
  Ni  Ni587  1  0.00195333  0.71547900  0.16647725  1.0
  Ni  Ni588  1  0.33528667  0.04881233  0.16647725  1.0
  Ni  Ni589  1  0.33528667  0.38214567  0.16647725  1.0
  Ni  Ni590  1  0.33528667  0.71547900  0.16647725  1.0
  Ni  Ni591  1  0.66862000  0.04881233  0.16647725  1.0
  Ni  Ni592  1  0.66862000  0.38214567  0.16647725  1.0
  Ni  Ni593  1  0.66862000  0.71547900  0.16647725  1.0
  Ni  Ni594  1  0.24794633  0.29881233  0.11647725  1.0
  Ni  Ni595  1  0.24794633  0.63214567  0.11647725  1.0
  Ni  Ni596  1  0.24794633  0.96547900  0.11647725  1.0
  Ni  Ni597  1  0.58127967  0.29881233  0.11647725  1.0
  Ni  Ni598  1  0.58127967  0.63214567  0.11647725  1.0
  Ni  Ni599  1  0.58127967  0.96547900  0.11647725  1.0
  Ni  Ni600  1  0.91461300  0.29881233  0.11647725  1.0
  Ni  Ni601  1  0.91461300  0.63214567  0.11647725  1.0
  Ni  Ni602  1  0.91461300  0.96547900  0.11647725  1.0
  Ni  Ni603  1  0.08127967  0.13214567  0.01647725  1.0
  Ni  Ni604  1  0.08127967  0.46547900  0.01647725  1.0
  Ni  Ni605  1  0.08127967  0.79881233  0.01647725  1.0
  Ni  Ni606  1  0.41461300  0.13214567  0.01647725  1.0
  Ni  Ni607  1  0.41461300  0.46547900  0.01647725  1.0
  Ni  Ni608  1  0.41461300  0.79881233  0.01647725  1.0
  Ni  Ni609  1  0.74794633  0.13214567  0.01647725  1.0
  Ni  Ni610  1  0.74794633  0.46547900  0.01647725  1.0
  Ni  Ni611  1  0.74794633  0.79881233  0.01647725  1.0
  Zr  Zr612  1  0.26950600  0.00000000  0.27229725  1.0
  Zr  Zr613  1  0.26950600  0.33333333  0.27229725  1.0
  Zr  Zr614  1  0.26950600  0.66666667  0.27229725  1.0
  Zr  Zr615  1  0.60283933  0.00000000  0.27229725  1.0
  Zr  Zr616  1  0.60283933  0.33333333  0.27229725  1.0
  Zr  Zr617  1  0.60283933  0.66666667  0.27229725  1.0
  Zr  Zr618  1  0.93617267  0.00000000  0.27229725  1.0
  Zr  Zr619  1  0.93617267  0.33333333  0.27229725  1.0
  Zr  Zr620  1  0.93617267  0.66666667  0.27229725  1.0
  Zr  Zr621  1  0.10283933  0.16666667  0.37229725  1.0
  Zr  Zr622  1  0.10283933  0.50000000  0.37229725  1.0
  Zr  Zr623  1  0.10283933  0.83333333  0.37229725  1.0
  Zr  Zr624  1  0.43617267  0.16666667  0.37229725  1.0
  Zr  Zr625  1  0.43617267  0.50000000  0.37229725  1.0
  Zr  Zr626  1  0.43617267  0.83333333  0.37229725  1.0
  Zr  Zr627  1  0.76950600  0.16666667  0.37229725  1.0
  Zr  Zr628  1  0.76950600  0.50000000  0.37229725  1.0
  Zr  Zr629  1  0.76950600  0.83333333  0.37229725  1.0
  Zr  Zr630  1  0.18617267  0.25000000  0.22229725  1.0
  Zr  Zr631  1  0.18617267  0.58333333  0.22229725  1.0
  Zr  Zr632  1  0.18617267  0.91666667  0.22229725  1.0
  Zr  Zr633  1  0.51950600  0.25000000  0.22229725  1.0
  Zr  Zr634  1  0.51950600  0.58333333  0.22229725  1.0
  Zr  Zr635  1  0.51950600  0.91666667  0.22229725  1.0
  Zr  Zr636  1  0.85283933  0.25000000  0.22229725  1.0
  Zr  Zr637  1  0.85283933  0.58333333  0.22229725  1.0
  Zr  Zr638  1  0.85283933  0.91666667  0.22229725  1.0
  Zr  Zr639  1  0.01950600  0.08333333  0.32229725  1.0
  Zr  Zr640  1  0.01950600  0.41666667  0.32229725  1.0
  Zr  Zr641  1  0.01950600  0.75000000  0.32229725  1.0
  Zr  Zr642  1  0.35283933  0.08333333  0.32229725  1.0
  Zr  Zr643  1  0.35283933  0.41666667  0.32229725  1.0
  Zr  Zr644  1  0.35283933  0.75000000  0.32229725  1.0
  Zr  Zr645  1  0.68617267  0.08333333  0.32229725  1.0
  Zr  Zr646  1  0.68617267  0.41666667  0.32229725  1.0
  Zr  Zr647  1  0.68617267  0.75000000  0.32229725  1.0
  Zr  Zr648  1  0.21874583  0.21874217  0.32694975  1.0
  Zr  Zr649  1  0.21874583  0.55207550  0.32694975  1.0
  Zr  Zr650  1  0.21874583  0.88540883  0.32694975  1.0
  Zr  Zr651  1  0.55207917  0.21874217  0.32694975  1.0
  Zr  Zr652  1  0.55207917  0.55207550  0.32694975  1.0
  Zr  Zr653  1  0.55207917  0.88540883  0.32694975  1.0
  Zr  Zr654  1  0.88541250  0.21874217  0.32694975  1.0
  Zr  Zr655  1  0.88541250  0.55207550  0.32694975  1.0
  Zr  Zr656  1  0.88541250  0.88540883  0.32694975  1.0
  Zr  Zr657  1  0.05207917  0.05207550  0.22694975  1.0
  Zr  Zr658  1  0.05207917  0.38540883  0.22694975  1.0
  Zr  Zr659  1  0.05207917  0.71874217  0.22694975  1.0
  Zr  Zr660  1  0.38541250  0.05207550  0.22694975  1.0
  Zr  Zr661  1  0.38541250  0.38540883  0.22694975  1.0
  Zr  Zr662  1  0.38541250  0.71874217  0.22694975  1.0
  Zr  Zr663  1  0.71874583  0.05207550  0.22694975  1.0
  Zr  Zr664  1  0.71874583  0.38540883  0.22694975  1.0
  Zr  Zr665  1  0.71874583  0.71874217  0.22694975  1.0
  Zr  Zr666  1  0.28125417  0.28125783  0.36445915  1.0
  Zr  Zr667  1  0.28125417  0.61459117  0.36445915  1.0
  Zr  Zr668  1  0.28125417  0.94792450  0.36445915  1.0
  Zr  Zr669  1  0.61458750  0.28125783  0.36445915  1.0
  Zr  Zr670  1  0.61458750  0.61459117  0.36445915  1.0
  Zr  Zr671  1  0.61458750  0.94792450  0.36445915  1.0
  Zr  Zr672  1  0.94792083  0.28125783  0.36445915  1.0
  Zr  Zr673  1  0.94792083  0.61459117  0.36445915  1.0
  Zr  Zr674  1  0.94792083  0.94792450  0.36445915  1.0
  Zr  Zr675  1  0.11458750  0.11459117  0.26445915  1.0
  Zr  Zr676  1  0.11458750  0.44792450  0.26445915  1.0
  Zr  Zr677  1  0.11458750  0.78125783  0.26445915  1.0
  Zr  Zr678  1  0.44792083  0.11459117  0.26445915  1.0
  Zr  Zr679  1  0.44792083  0.44792450  0.26445915  1.0
  Zr  Zr680  1  0.44792083  0.78125783  0.26445915  1.0
  Zr  Zr681  1  0.78125417  0.11459117  0.26445915  1.0
  Zr  Zr682  1  0.78125417  0.44792450  0.26445915  1.0
  Zr  Zr683  1  0.78125417  0.78125783  0.26445915  1.0
  Zr  Zr684  1  0.06382733  0.00000000  0.31911165  1.0
  Zr  Zr685  1  0.06382733  0.33333333  0.31911165  1.0
  Zr  Zr686  1  0.06382733  0.66666667  0.31911165  1.0
  Zr  Zr687  1  0.39716067  0.00000000  0.31911165  1.0
  Zr  Zr688  1  0.39716067  0.33333333  0.31911165  1.0
  Zr  Zr689  1  0.39716067  0.66666667  0.31911165  1.0
  Zr  Zr690  1  0.73049400  0.00000000  0.31911165  1.0
  Zr  Zr691  1  0.73049400  0.33333333  0.31911165  1.0
  Zr  Zr692  1  0.73049400  0.66666667  0.31911165  1.0
  Zr  Zr693  1  0.23049400  0.16666667  0.21911165  1.0
  Zr  Zr694  1  0.23049400  0.50000000  0.21911165  1.0
  Zr  Zr695  1  0.23049400  0.83333333  0.21911165  1.0
  Zr  Zr696  1  0.56382733  0.16666667  0.21911165  1.0
  Zr  Zr697  1  0.56382733  0.50000000  0.21911165  1.0
  Zr  Zr698  1  0.56382733  0.83333333  0.21911165  1.0
  Zr  Zr699  1  0.89716067  0.16666667  0.21911165  1.0
  Zr  Zr700  1  0.89716067  0.50000000  0.21911165  1.0
  Zr  Zr701  1  0.89716067  0.83333333  0.21911165  1.0
  Zr  Zr702  1  0.29221633  0.20833333  0.22070445  1.0
  Zr  Zr703  1  0.29221633  0.54166667  0.22070445  1.0
  Zr  Zr704  1  0.29221633  0.87500000  0.22070445  1.0
  Zr  Zr705  1  0.62554967  0.20833333  0.22070445  1.0
  Zr  Zr706  1  0.62554967  0.54166667  0.22070445  1.0
  Zr  Zr707  1  0.62554967  0.87500000  0.22070445  1.0
  Zr  Zr708  1  0.95888300  0.20833333  0.22070445  1.0
  Zr  Zr709  1  0.95888300  0.54166667  0.22070445  1.0
  Zr  Zr710  1  0.95888300  0.87500000  0.22070445  1.0
  Zr  Zr711  1  0.12554967  0.04166667  0.32070445  1.0
  Zr  Zr712  1  0.12554967  0.37500000  0.32070445  1.0
  Zr  Zr713  1  0.12554967  0.70833333  0.32070445  1.0
  Zr  Zr714  1  0.45888300  0.04166667  0.32070445  1.0
  Zr  Zr715  1  0.45888300  0.37500000  0.32070445  1.0
  Zr  Zr716  1  0.45888300  0.70833333  0.32070445  1.0
  Zr  Zr717  1  0.79221633  0.04166667  0.32070445  1.0
  Zr  Zr718  1  0.79221633  0.37500000  0.32070445  1.0
  Zr  Zr719  1  0.79221633  0.70833333  0.32070445  1.0
  Zr  Zr720  1  0.20778367  0.29166667  0.27070445  1.0
  Zr  Zr721  1  0.20778367  0.62500000  0.27070445  1.0
  Zr  Zr722  1  0.20778367  0.95833333  0.27070445  1.0
  Zr  Zr723  1  0.54111700  0.29166667  0.27070445  1.0
  Zr  Zr724  1  0.54111700  0.62500000  0.27070445  1.0
  Zr  Zr725  1  0.54111700  0.95833333  0.27070445  1.0
  Zr  Zr726  1  0.87445033  0.29166667  0.27070445  1.0
  Zr  Zr727  1  0.87445033  0.62500000  0.27070445  1.0
  Zr  Zr728  1  0.87445033  0.95833333  0.27070445  1.0
  Zr  Zr729  1  0.04111700  0.12500000  0.37070445  1.0
  Zr  Zr730  1  0.04111700  0.45833333  0.37070445  1.0
  Zr  Zr731  1  0.04111700  0.79166667  0.37070445  1.0
  Zr  Zr732  1  0.37445033  0.12500000  0.37070445  1.0
  Zr  Zr733  1  0.37445033  0.45833333  0.37070445  1.0
  Zr  Zr734  1  0.37445033  0.79166667  0.37070445  1.0
  Zr  Zr735  1  0.70778367  0.12500000  0.37070445  1.0
  Zr  Zr736  1  0.70778367  0.45833333  0.37070445  1.0
  Zr  Zr737  1  0.70778367  0.79166667  0.37070445  1.0
  Zr  Zr738  1  0.07289683  0.19792450  0.31445915  1.0
  Zr  Zr739  1  0.07289683  0.53125783  0.31445915  1.0
  Zr  Zr740  1  0.07289683  0.86459117  0.31445915  1.0
  Zr  Zr741  1  0.40623017  0.19792450  0.31445915  1.0
  Zr  Zr742  1  0.40623017  0.53125783  0.31445915  1.0
  Zr  Zr743  1  0.40623017  0.86459117  0.31445915  1.0
  Zr  Zr744  1  0.73956350  0.19792450  0.31445915  1.0
  Zr  Zr745  1  0.73956350  0.53125783  0.31445915  1.0
  Zr  Zr746  1  0.73956350  0.86459117  0.31445915  1.0
  Zr  Zr747  1  0.23956350  0.03125783  0.21445915  1.0
  Zr  Zr748  1  0.23956350  0.36459117  0.21445915  1.0
  Zr  Zr749  1  0.23956350  0.69792450  0.21445915  1.0
  Zr  Zr750  1  0.57289683  0.03125783  0.21445915  1.0
  Zr  Zr751  1  0.57289683  0.36459117  0.21445915  1.0
  Zr  Zr752  1  0.57289683  0.69792450  0.21445915  1.0
  Zr  Zr753  1  0.90623017  0.03125783  0.21445915  1.0
  Zr  Zr754  1  0.90623017  0.36459117  0.21445915  1.0
  Zr  Zr755  1  0.90623017  0.69792450  0.21445915  1.0
  Zr  Zr756  1  0.16666667  0.00000000  0.39570445  1.0
  Zr  Zr757  1  0.16666667  0.33333333  0.39570445  1.0
  Zr  Zr758  1  0.16666667  0.66666667  0.39570445  1.0
  Zr  Zr759  1  0.50000000  0.00000000  0.39570445  1.0
  Zr  Zr760  1  0.50000000  0.33333333  0.39570445  1.0
  Zr  Zr761  1  0.50000000  0.66666667  0.39570445  1.0
  Zr  Zr762  1  0.83333333  0.00000000  0.39570445  1.0
  Zr  Zr763  1  0.83333333  0.33333333  0.39570445  1.0
  Zr  Zr764  1  0.83333333  0.66666667  0.39570445  1.0
  Zr  Zr765  1  0.33333333  0.16666667  0.29570445  1.0
  Zr  Zr766  1  0.33333333  0.50000000  0.29570445  1.0
  Zr  Zr767  1  0.33333333  0.83333333  0.29570445  1.0
  Zr  Zr768  1  0.66666667  0.16666667  0.29570445  1.0
  Zr  Zr769  1  0.66666667  0.50000000  0.29570445  1.0
  Zr  Zr770  1  0.66666667  0.83333333  0.29570445  1.0
  Zr  Zr771  1  1.00000000  0.16666667  0.29570445  1.0
  Zr  Zr772  1  1.00000000  0.50000000  0.29570445  1.0
  Zr  Zr773  1  1.00000000  0.83333333  0.29570445  1.0
  Zr  Zr774  1  0.04111700  0.29166667  0.27070445  1.0
  Zr  Zr775  1  0.04111700  0.62500000  0.27070445  1.0
  Zr  Zr776  1  0.04111700  0.95833333  0.27070445  1.0
  Zr  Zr777  1  0.37445033  0.29166667  0.27070445  1.0
  Zr  Zr778  1  0.37445033  0.62500000  0.27070445  1.0
  Zr  Zr779  1  0.37445033  0.95833333  0.27070445  1.0
  Zr  Zr780  1  0.70778367  0.29166667  0.27070445  1.0
  Zr  Zr781  1  0.70778367  0.62500000  0.27070445  1.0
  Zr  Zr782  1  0.70778367  0.95833333  0.27070445  1.0
  Zr  Zr783  1  0.20778367  0.12500000  0.37070445  1.0
  Zr  Zr784  1  0.20778367  0.45833333  0.37070445  1.0
  Zr  Zr785  1  0.20778367  0.79166667  0.37070445  1.0
  Zr  Zr786  1  0.54111700  0.12500000  0.37070445  1.0
  Zr  Zr787  1  0.54111700  0.45833333  0.37070445  1.0
  Zr  Zr788  1  0.54111700  0.79166667  0.37070445  1.0
  Zr  Zr789  1  0.87445033  0.12500000  0.37070445  1.0
  Zr  Zr790  1  0.87445033  0.45833333  0.37070445  1.0
  Zr  Zr791  1  0.87445033  0.79166667  0.37070445  1.0
  Zr  Zr792  1  0.31382733  0.25000000  0.26911165  1.0
  Zr  Zr793  1  0.31382733  0.58333333  0.26911165  1.0
  Zr  Zr794  1  0.31382733  0.91666667  0.26911165  1.0
  Zr  Zr795  1  0.64716067  0.25000000  0.26911165  1.0
  Zr  Zr796  1  0.64716067  0.58333333  0.26911165  1.0
  Zr  Zr797  1  0.64716067  0.91666667  0.26911165  1.0
  Zr  Zr798  1  0.98049400  0.25000000  0.26911165  1.0
  Zr  Zr799  1  0.98049400  0.58333333  0.26911165  1.0
  Zr  Zr800  1  0.98049400  0.91666667  0.26911165  1.0
  Zr  Zr801  1  0.14716067  0.08333333  0.36911165  1.0
  Zr  Zr802  1  0.14716067  0.41666667  0.36911165  1.0
  Zr  Zr803  1  0.14716067  0.75000000  0.36911165  1.0
  Zr  Zr804  1  0.48049400  0.08333333  0.36911165  1.0
  Zr  Zr805  1  0.48049400  0.41666667  0.36911165  1.0
  Zr  Zr806  1  0.48049400  0.75000000  0.36911165  1.0
  Zr  Zr807  1  0.81382733  0.08333333  0.36911165  1.0
  Zr  Zr808  1  0.81382733  0.41666667  0.36911165  1.0
  Zr  Zr809  1  0.81382733  0.75000000  0.36911165  1.0
  Zr  Zr810  1  0.12554967  0.20833333  0.22070445  1.0
  Zr  Zr811  1  0.12554967  0.54166667  0.22070445  1.0
  Zr  Zr812  1  0.12554967  0.87500000  0.22070445  1.0
  Zr  Zr813  1  0.45888300  0.20833333  0.22070445  1.0
  Zr  Zr814  1  0.45888300  0.54166667  0.22070445  1.0
  Zr  Zr815  1  0.45888300  0.87500000  0.22070445  1.0
  Zr  Zr816  1  0.79221633  0.20833333  0.22070445  1.0
  Zr  Zr817  1  0.79221633  0.54166667  0.22070445  1.0
  Zr  Zr818  1  0.79221633  0.87500000  0.22070445  1.0
  Zr  Zr819  1  0.29221633  0.04166667  0.32070445  1.0
  Zr  Zr820  1  0.29221633  0.37500000  0.32070445  1.0
  Zr  Zr821  1  0.29221633  0.70833333  0.32070445  1.0
  Zr  Zr822  1  0.62554967  0.04166667  0.32070445  1.0
  Zr  Zr823  1  0.62554967  0.37500000  0.32070445  1.0
  Zr  Zr824  1  0.62554967  0.70833333  0.32070445  1.0
  Zr  Zr825  1  0.95888300  0.04166667  0.32070445  1.0
  Zr  Zr826  1  0.95888300  0.37500000  0.32070445  1.0
  Zr  Zr827  1  0.95888300  0.70833333  0.32070445  1.0
  Zr  Zr828  1  0.09376983  0.30207550  0.37694975  1.0
  Zr  Zr829  1  0.09376983  0.63540883  0.37694975  1.0
  Zr  Zr830  1  0.09376983  0.96874217  0.37694975  1.0
  Zr  Zr831  1  0.42710317  0.30207550  0.37694975  1.0
  Zr  Zr832  1  0.42710317  0.63540883  0.37694975  1.0
  Zr  Zr833  1  0.42710317  0.96874217  0.37694975  1.0
  Zr  Zr834  1  0.76043650  0.30207550  0.37694975  1.0
  Zr  Zr835  1  0.76043650  0.63540883  0.37694975  1.0
  Zr  Zr836  1  0.76043650  0.96874217  0.37694975  1.0
  Zr  Zr837  1  0.26043650  0.13540883  0.27694975  1.0
  Zr  Zr838  1  0.26043650  0.46874217  0.27694975  1.0
  Zr  Zr839  1  0.26043650  0.80207550  0.27694975  1.0
  Zr  Zr840  1  0.59376983  0.13540883  0.27694975  1.0
  Zr  Zr841  1  0.59376983  0.46874217  0.27694975  1.0
  Zr  Zr842  1  0.59376983  0.80207550  0.27694975  1.0
  Zr  Zr843  1  0.92710317  0.13540883  0.27694975  1.0
  Zr  Zr844  1  0.92710317  0.46874217  0.27694975  1.0
  Zr  Zr845  1  0.92710317  0.80207550  0.27694975  1.0
  Zr  Zr846  1  0.08333333  0.25000000  0.34570445  1.0
  Zr  Zr847  1  0.08333333  0.58333333  0.34570445  1.0
  Zr  Zr848  1  0.08333333  0.91666667  0.34570445  1.0
  Zr  Zr849  1  0.41666667  0.25000000  0.34570445  1.0
  Zr  Zr850  1  0.41666667  0.58333333  0.34570445  1.0
  Zr  Zr851  1  0.41666667  0.91666667  0.34570445  1.0
  Zr  Zr852  1  0.75000000  0.25000000  0.34570445  1.0
  Zr  Zr853  1  0.75000000  0.58333333  0.34570445  1.0
  Zr  Zr854  1  0.75000000  0.91666667  0.34570445  1.0
  Zr  Zr855  1  0.25000000  0.08333333  0.24570445  1.0
  Zr  Zr856  1  0.25000000  0.41666667  0.24570445  1.0
  Zr  Zr857  1  0.25000000  0.75000000  0.24570445  1.0
  Zr  Zr858  1  0.58333333  0.08333333  0.24570445  1.0
  Zr  Zr859  1  0.58333333  0.41666667  0.24570445  1.0
  Zr  Zr860  1  0.58333333  0.75000000  0.24570445  1.0
  Zr  Zr861  1  0.91666667  0.08333333  0.24570445  1.0
  Zr  Zr862  1  0.91666667  0.41666667  0.24570445  1.0
  Zr  Zr863  1  0.91666667  0.75000000  0.24570445  1.0
  Ni  Ni864  1  0.31561500  0.31573733  0.38514685  1.0
  Ni  Ni865  1  0.31561500  0.64907067  0.38514685  1.0
  Ni  Ni866  1  0.31561500  0.98240400  0.38514685  1.0
  Ni  Ni867  1  0.64894833  0.31573733  0.38514685  1.0
  Ni  Ni868  1  0.64894833  0.64907067  0.38514685  1.0
  Ni  Ni869  1  0.64894833  0.98240400  0.38514685  1.0
  Ni  Ni870  1  0.98228167  0.31573733  0.38514685  1.0
  Ni  Ni871  1  0.98228167  0.64907067  0.38514685  1.0
  Ni  Ni872  1  0.98228167  0.98240400  0.38514685  1.0
  Ni  Ni873  1  0.14894833  0.14907067  0.28514685  1.0
  Ni  Ni874  1  0.14894833  0.48240400  0.28514685  1.0
  Ni  Ni875  1  0.14894833  0.81573733  0.28514685  1.0
  Ni  Ni876  1  0.48228167  0.14907067  0.28514685  1.0
  Ni  Ni877  1  0.48228167  0.48240400  0.28514685  1.0
  Ni  Ni878  1  0.48228167  0.81573733  0.28514685  1.0
  Ni  Ni879  1  0.81561500  0.14907067  0.28514685  1.0
  Ni  Ni880  1  0.81561500  0.48240400  0.28514685  1.0
  Ni  Ni881  1  0.81561500  0.81573733  0.28514685  1.0
  Ni  Ni882  1  0.15042200  0.29881233  0.23350645  1.0
  Ni  Ni883  1  0.15042200  0.63214567  0.23350645  1.0
  Ni  Ni884  1  0.15042200  0.96547900  0.23350645  1.0
  Ni  Ni885  1  0.48375533  0.29881233  0.23350645  1.0
  Ni  Ni886  1  0.48375533  0.63214567  0.23350645  1.0
  Ni  Ni887  1  0.48375533  0.96547900  0.23350645  1.0
  Ni  Ni888  1  0.81708867  0.29881233  0.23350645  1.0
  Ni  Ni889  1  0.81708867  0.63214567  0.23350645  1.0
  Ni  Ni890  1  0.81708867  0.96547900  0.23350645  1.0
  Ni  Ni891  1  0.31708867  0.13214567  0.33350645  1.0
  Ni  Ni892  1  0.31708867  0.46547900  0.33350645  1.0
  Ni  Ni893  1  0.31708867  0.79881233  0.33350645  1.0
  Ni  Ni894  1  0.65042200  0.13214567  0.33350645  1.0
  Ni  Ni895  1  0.65042200  0.46547900  0.33350645  1.0
  Ni  Ni896  1  0.65042200  0.79881233  0.33350645  1.0
  Ni  Ni897  1  0.98375533  0.13214567  0.33350645  1.0
  Ni  Ni898  1  0.98375533  0.46547900  0.33350645  1.0
  Ni  Ni899  1  0.98375533  0.79881233  0.33350645  1.0
  Ni  Ni900  1  0.19923883  0.25111417  0.28845035  1.0
  Ni  Ni901  1  0.19923883  0.58444750  0.28845035  1.0
  Ni  Ni902  1  0.19923883  0.91778083  0.28845035  1.0
  Ni  Ni903  1  0.53257217  0.25111417  0.28845035  1.0
  Ni  Ni904  1  0.53257217  0.58444750  0.28845035  1.0
  Ni  Ni905  1  0.53257217  0.91778083  0.28845035  1.0
  Ni  Ni906  1  0.86590550  0.25111417  0.28845035  1.0
  Ni  Ni907  1  0.86590550  0.58444750  0.28845035  1.0
  Ni  Ni908  1  0.86590550  0.91778083  0.28845035  1.0
  Ni  Ni909  1  0.03257217  0.08444750  0.38845035  1.0
  Ni  Ni910  1  0.03257217  0.41778083  0.38845035  1.0
  Ni  Ni911  1  0.03257217  0.75111417  0.38845035  1.0
  Ni  Ni912  1  0.36590550  0.08444750  0.38845035  1.0
  Ni  Ni913  1  0.36590550  0.41778083  0.38845035  1.0
  Ni  Ni914  1  0.36590550  0.75111417  0.38845035  1.0
  Ni  Ni915  1  0.69923883  0.08444750  0.38845035  1.0
  Ni  Ni916  1  0.69923883  0.41778083  0.38845035  1.0
  Ni  Ni917  1  0.69923883  0.75111417  0.38845035  1.0
  Ni  Ni918  1  0.25205367  0.20118767  0.37493165  1.0
  Ni  Ni919  1  0.25205367  0.53452100  0.37493165  1.0
  Ni  Ni920  1  0.25205367  0.86785433  0.37493165  1.0
  Ni  Ni921  1  0.58538700  0.20118767  0.37493165  1.0
  Ni  Ni922  1  0.58538700  0.53452100  0.37493165  1.0
  Ni  Ni923  1  0.58538700  0.86785433  0.37493165  1.0
  Ni  Ni924  1  0.91872033  0.20118767  0.37493165  1.0
  Ni  Ni925  1  0.91872033  0.53452100  0.37493165  1.0
  Ni  Ni926  1  0.91872033  0.86785433  0.37493165  1.0
  Ni  Ni927  1  0.08538700  0.03452100  0.27493165  1.0
  Ni  Ni928  1  0.08538700  0.36785433  0.27493165  1.0
  Ni  Ni929  1  0.08538700  0.70118767  0.27493165  1.0
  Ni  Ni930  1  0.41872033  0.03452100  0.27493165  1.0
  Ni  Ni931  1  0.41872033  0.36785433  0.27493165  1.0
  Ni  Ni932  1  0.41872033  0.70118767  0.27493165  1.0
  Ni  Ni933  1  0.75205367  0.03452100  0.27493165  1.0
  Ni  Ni934  1  0.75205367  0.36785433  0.27493165  1.0
  Ni  Ni935  1  0.75205367  0.70118767  0.27493165  1.0
  Ni  Ni936  1  0.09557100  0.28452100  0.30790245  1.0
  Ni  Ni937  1  0.09557100  0.61785433  0.30790245  1.0
  Ni  Ni938  1  0.09557100  0.95118767  0.30790245  1.0
  Ni  Ni939  1  0.42890433  0.28452100  0.30790245  1.0
  Ni  Ni940  1  0.42890433  0.61785433  0.30790245  1.0
  Ni  Ni941  1  0.42890433  0.95118767  0.30790245  1.0
  Ni  Ni942  1  0.76223767  0.28452100  0.30790245  1.0
  Ni  Ni943  1  0.76223767  0.61785433  0.30790245  1.0
  Ni  Ni944  1  0.76223767  0.95118767  0.30790245  1.0
  Ni  Ni945  1  0.26223767  0.11785433  0.20790245  1.0
  Ni  Ni946  1  0.26223767  0.45118767  0.20790245  1.0
  Ni  Ni947  1  0.26223767  0.78452100  0.20790245  1.0
  Ni  Ni948  1  0.59557100  0.11785433  0.20790245  1.0
  Ni  Ni949  1  0.59557100  0.45118767  0.20790245  1.0
  Ni  Ni950  1  0.59557100  0.78452100  0.20790245  1.0
  Ni  Ni951  1  0.92890433  0.11785433  0.20790245  1.0
  Ni  Ni952  1  0.92890433  0.45118767  0.20790245  1.0
  Ni  Ni953  1  0.92890433  0.78452100  0.20790245  1.0
  Ni  Ni954  1  0.33138000  0.28452100  0.22493165  1.0
  Ni  Ni955  1  0.33138000  0.61785433  0.22493165  1.0
  Ni  Ni956  1  0.33138000  0.95118767  0.22493165  1.0
  Ni  Ni957  1  0.66471333  0.28452100  0.22493165  1.0
  Ni  Ni958  1  0.66471333  0.61785433  0.22493165  1.0
  Ni  Ni959  1  0.66471333  0.95118767  0.22493165  1.0
  Ni  Ni960  1  0.99804667  0.28452100  0.22493165  1.0
  Ni  Ni961  1  0.99804667  0.61785433  0.22493165  1.0
  Ni  Ni962  1  0.99804667  0.95118767  0.22493165  1.0
  Ni  Ni963  1  0.16471333  0.11785433  0.32493165  1.0
  Ni  Ni964  1  0.16471333  0.45118767  0.32493165  1.0
  Ni  Ni965  1  0.16471333  0.78452100  0.32493165  1.0
  Ni  Ni966  1  0.49804667  0.11785433  0.32493165  1.0
  Ni  Ni967  1  0.49804667  0.45118767  0.32493165  1.0
  Ni  Ni968  1  0.49804667  0.78452100  0.32493165  1.0
  Ni  Ni969  1  0.83138000  0.11785433  0.32493165  1.0
  Ni  Ni970  1  0.83138000  0.45118767  0.32493165  1.0
  Ni  Ni971  1  0.83138000  0.78452100  0.32493165  1.0
  Ni  Ni972  1  0.30291033  0.23240400  0.33514685  1.0
  Ni  Ni973  1  0.30291033  0.56573733  0.33514685  1.0
  Ni  Ni974  1  0.30291033  0.89907067  0.33514685  1.0
  Ni  Ni975  1  0.63624367  0.23240400  0.33514685  1.0
  Ni  Ni976  1  0.63624367  0.56573733  0.33514685  1.0
  Ni  Ni977  1  0.63624367  0.89907067  0.33514685  1.0
  Ni  Ni978  1  0.96957700  0.23240400  0.33514685  1.0
  Ni  Ni979  1  0.96957700  0.56573733  0.33514685  1.0
  Ni  Ni980  1  0.96957700  0.89907067  0.33514685  1.0
  Ni  Ni981  1  0.13624367  0.06573733  0.23514685  1.0
  Ni  Ni982  1  0.13624367  0.39907067  0.23514685  1.0
  Ni  Ni983  1  0.13624367  0.73240400  0.23514685  1.0
  Ni  Ni984  1  0.46957700  0.06573733  0.23514685  1.0
  Ni  Ni985  1  0.46957700  0.39907067  0.23514685  1.0
  Ni  Ni986  1  0.46957700  0.73240400  0.23514685  1.0
  Ni  Ni987  1  0.80291033  0.06573733  0.23514685  1.0
  Ni  Ni988  1  0.80291033  0.39907067  0.23514685  1.0
  Ni  Ni989  1  0.80291033  0.73240400  0.23514685  1.0
  Ni  Ni990  1  0.21519950  0.16778083  0.35429555  1.0
  Ni  Ni991  1  0.21519950  0.50111417  0.35429555  1.0
  Ni  Ni992  1  0.21519950  0.83444750  0.35429555  1.0
  Ni  Ni993  1  0.54853283  0.16778083  0.35429555  1.0
  Ni  Ni994  1  0.54853283  0.50111417  0.35429555  1.0
  Ni  Ni995  1  0.54853283  0.83444750  0.35429555  1.0
  Ni  Ni996  1  0.88186617  0.16778083  0.35429555  1.0
  Ni  Ni997  1  0.88186617  0.50111417  0.35429555  1.0
  Ni  Ni998  1  0.88186617  0.83444750  0.35429555  1.0
  Ni  Ni999  1  0.04853283  0.00111417  0.25429555  1.0
  Ni  Ni1000  1  0.04853283  0.33444750  0.25429555  1.0
  Ni  Ni1001  1  0.04853283  0.66778083  0.25429555  1.0
  Ni  Ni1002  1  0.38186617  0.00111417  0.25429555  1.0
  Ni  Ni1003  1  0.38186617  0.33444750  0.25429555  1.0
  Ni  Ni1004  1  0.38186617  0.66778083  0.25429555  1.0
  Ni  Ni1005  1  0.71519950  0.00111417  0.25429555  1.0
  Ni  Ni1006  1  0.71519950  0.33444750  0.25429555  1.0
  Ni  Ni1007  1  0.71519950  0.66778083  0.25429555  1.0
  Ni  Ni1008  1  0.01624467  0.20118767  0.25790245  1.0
  Ni  Ni1009  1  0.01624467  0.53452100  0.25790245  1.0
  Ni  Ni1010  1  0.01624467  0.86785433  0.25790245  1.0
  Ni  Ni1011  1  0.34957800  0.20118767  0.25790245  1.0
  Ni  Ni1012  1  0.34957800  0.53452100  0.25790245  1.0
  Ni  Ni1013  1  0.34957800  0.86785433  0.25790245  1.0
  Ni  Ni1014  1  0.68291133  0.20118767  0.25790245  1.0
  Ni  Ni1015  1  0.68291133  0.53452100  0.25790245  1.0
  Ni  Ni1016  1  0.68291133  0.86785433  0.25790245  1.0
  Ni  Ni1017  1  0.18291133  0.03452100  0.35790245  1.0
  Ni  Ni1018  1  0.18291133  0.36785433  0.35790245  1.0
  Ni  Ni1019  1  0.18291133  0.70118767  0.35790245  1.0
  Ni  Ni1020  1  0.51624467  0.03452100  0.35790245  1.0
  Ni  Ni1021  1  0.51624467  0.36785433  0.35790245  1.0
  Ni  Ni1022  1  0.51624467  0.70118767  0.35790245  1.0
  Ni  Ni1023  1  0.84957800  0.03452100  0.35790245  1.0
  Ni  Ni1024  1  0.84957800  0.36785433  0.35790245  1.0
  Ni  Ni1025  1  0.84957800  0.70118767  0.35790245  1.0
  Ni  Ni1026  1  0.07109567  0.21547900  0.38350645  1.0
  Ni  Ni1027  1  0.07109567  0.54881233  0.38350645  1.0
  Ni  Ni1028  1  0.07109567  0.88214567  0.38350645  1.0
  Ni  Ni1029  1  0.40442900  0.21547900  0.38350645  1.0
  Ni  Ni1030  1  0.40442900  0.54881233  0.38350645  1.0
  Ni  Ni1031  1  0.40442900  0.88214567  0.38350645  1.0
  Ni  Ni1032  1  0.73776233  0.21547900  0.38350645  1.0
  Ni  Ni1033  1  0.73776233  0.54881233  0.38350645  1.0
  Ni  Ni1034  1  0.73776233  0.88214567  0.38350645  1.0
  Ni  Ni1035  1  0.23776233  0.04881233  0.28350645  1.0
  Ni  Ni1036  1  0.23776233  0.38214567  0.28350645  1.0
  Ni  Ni1037  1  0.23776233  0.71547900  0.28350645  1.0
  Ni  Ni1038  1  0.57109567  0.04881233  0.28350645  1.0
  Ni  Ni1039  1  0.57109567  0.38214567  0.28350645  1.0
  Ni  Ni1040  1  0.57109567  0.71547900  0.28350645  1.0
  Ni  Ni1041  1  0.90442900  0.04881233  0.28350645  1.0
  Ni  Ni1042  1  0.90442900  0.38214567  0.28350645  1.0
  Ni  Ni1043  1  0.90442900  0.71547900  0.28350645  1.0
  Ni  Ni1044  1  0.31173717  0.16778083  0.23845035  1.0
  Ni  Ni1045  1  0.31173717  0.50111417  0.23845035  1.0
  Ni  Ni1046  1  0.31173717  0.83444750  0.23845035  1.0
  Ni  Ni1047  1  0.64507050  0.16778083  0.23845035  1.0
  Ni  Ni1048  1  0.64507050  0.50111417  0.23845035  1.0
  Ni  Ni1049  1  0.64507050  0.83444750  0.23845035  1.0
  Ni  Ni1050  1  0.97840383  0.16778083  0.23845035  1.0
  Ni  Ni1051  1  0.97840383  0.50111417  0.23845035  1.0
  Ni  Ni1052  1  0.97840383  0.83444750  0.23845035  1.0
  Ni  Ni1053  1  0.14507050  0.00111417  0.33845035  1.0
  Ni  Ni1054  1  0.14507050  0.33444750  0.33845035  1.0
  Ni  Ni1055  1  0.14507050  0.66778083  0.33845035  1.0
  Ni  Ni1056  1  0.47840383  0.00111417  0.33845035  1.0
  Ni  Ni1057  1  0.47840383  0.33444750  0.33845035  1.0
  Ni  Ni1058  1  0.47840383  0.66778083  0.33845035  1.0
  Ni  Ni1059  1  0.81173717  0.00111417  0.33845035  1.0
  Ni  Ni1060  1  0.81173717  0.33444750  0.33845035  1.0
  Ni  Ni1061  1  0.81173717  0.66778083  0.33845035  1.0
  Ni  Ni1062  1  0.28480050  0.33221917  0.33711335  1.0
  Ni  Ni1063  1  0.28480050  0.66555250  0.33711335  1.0
  Ni  Ni1064  1  0.28480050  0.99888583  0.33711335  1.0
  Ni  Ni1065  1  0.61813383  0.33221917  0.33711335  1.0
  Ni  Ni1066  1  0.61813383  0.66555250  0.33711335  1.0
  Ni  Ni1067  1  0.61813383  0.99888583  0.33711335  1.0
  Ni  Ni1068  1  0.95146717  0.33221917  0.33711335  1.0
  Ni  Ni1069  1  0.95146717  0.66555250  0.33711335  1.0
  Ni  Ni1070  1  0.95146717  0.99888583  0.33711335  1.0
  Ni  Ni1071  1  0.11813383  0.16555250  0.23711335  1.0
  Ni  Ni1072  1  0.11813383  0.49888583  0.23711335  1.0
  Ni  Ni1073  1  0.11813383  0.83221917  0.23711335  1.0
  Ni  Ni1074  1  0.45146717  0.16555250  0.23711335  1.0
  Ni  Ni1075  1  0.45146717  0.49888583  0.23711335  1.0
  Ni  Ni1076  1  0.45146717  0.83221917  0.23711335  1.0
  Ni  Ni1077  1  0.78480050  0.16555250  0.23711335  1.0
  Ni  Ni1078  1  0.78480050  0.49888583  0.23711335  1.0
  Ni  Ni1079  1  0.78480050  0.83221917  0.23711335  1.0
  Ni  Ni1080  1  0.30076117  0.24888583  0.20295855  1.0
  Ni  Ni1081  1  0.30076117  0.58221917  0.20295855  1.0
  Ni  Ni1082  1  0.30076117  0.91555250  0.20295855  1.0
  Ni  Ni1083  1  0.63409450  0.24888583  0.20295855  1.0
  Ni  Ni1084  1  0.63409450  0.58221917  0.20295855  1.0
  Ni  Ni1085  1  0.63409450  0.91555250  0.20295855  1.0
  Ni  Ni1086  1  0.96742783  0.24888583  0.20295855  1.0
  Ni  Ni1087  1  0.96742783  0.58221917  0.20295855  1.0
  Ni  Ni1088  1  0.96742783  0.91555250  0.20295855  1.0
  Ni  Ni1089  1  0.13409450  0.08221917  0.30295855  1.0
  Ni  Ni1090  1  0.13409450  0.41555250  0.30295855  1.0
  Ni  Ni1091  1  0.13409450  0.74888583  0.30295855  1.0
  Ni  Ni1092  1  0.46742783  0.08221917  0.30295855  1.0
  Ni  Ni1093  1  0.46742783  0.41555250  0.30295855  1.0
  Ni  Ni1094  1  0.46742783  0.74888583  0.30295855  1.0
  Ni  Ni1095  1  0.80076117  0.08221917  0.30295855  1.0
  Ni  Ni1096  1  0.80076117  0.41555250  0.30295855  1.0
  Ni  Ni1097  1  0.80076117  0.74888583  0.30295855  1.0
  Ni  Ni1098  1  0.06396550  0.24888583  0.28711335  1.0
  Ni  Ni1099  1  0.06396550  0.58221917  0.28711335  1.0
  Ni  Ni1100  1  0.06396550  0.91555250  0.28711335  1.0
  Ni  Ni1101  1  0.39729883  0.24888583  0.28711335  1.0
  Ni  Ni1102  1  0.39729883  0.58221917  0.28711335  1.0
  Ni  Ni1103  1  0.39729883  0.91555250  0.28711335  1.0
  Ni  Ni1104  1  0.73063217  0.24888583  0.28711335  1.0
  Ni  Ni1105  1  0.73063217  0.58221917  0.28711335  1.0
  Ni  Ni1106  1  0.73063217  0.91555250  0.28711335  1.0
  Ni  Ni1107  1  0.23063217  0.08221917  0.38711335  1.0
  Ni  Ni1108  1  0.23063217  0.41555250  0.38711335  1.0
  Ni  Ni1109  1  0.23063217  0.74888583  0.38711335  1.0
  Ni  Ni1110  1  0.56396550  0.08221917  0.38711335  1.0
  Ni  Ni1111  1  0.56396550  0.41555250  0.38711335  1.0
  Ni  Ni1112  1  0.56396550  0.74888583  0.38711335  1.0
  Ni  Ni1113  1  0.89729883  0.08221917  0.38711335  1.0
  Ni  Ni1114  1  0.89729883  0.41555250  0.38711335  1.0
  Ni  Ni1115  1  0.89729883  0.74888583  0.38711335  1.0
  Ni  Ni1116  1  0.18438500  0.18426267  0.30626205  1.0
  Ni  Ni1117  1  0.18438500  0.51759600  0.30626205  1.0
  Ni  Ni1118  1  0.18438500  0.85092933  0.30626205  1.0
  Ni  Ni1119  1  0.51771833  0.18426267  0.30626205  1.0
  Ni  Ni1120  1  0.51771833  0.51759600  0.30626205  1.0
  Ni  Ni1121  1  0.51771833  0.85092933  0.30626205  1.0
  Ni  Ni1122  1  0.85105167  0.18426267  0.30626205  1.0
  Ni  Ni1123  1  0.85105167  0.51759600  0.30626205  1.0
  Ni  Ni1124  1  0.85105167  0.85092933  0.30626205  1.0
  Ni  Ni1125  1  0.01771833  0.01759600  0.20626205  1.0
  Ni  Ni1126  1  0.01771833  0.35092933  0.20626205  1.0
  Ni  Ni1127  1  0.01771833  0.68426267  0.20626205  1.0
  Ni  Ni1128  1  0.35105167  0.01759600  0.20626205  1.0
  Ni  Ni1129  1  0.35105167  0.35092933  0.20626205  1.0
  Ni  Ni1130  1  0.35105167  0.68426267  0.20626205  1.0
  Ni  Ni1131  1  0.68438500  0.01759600  0.20626205  1.0
  Ni  Ni1132  1  0.68438500  0.35092933  0.20626205  1.0
  Ni  Ni1133  1  0.68438500  0.68426267  0.20626205  1.0
  Ni  Ni1134  1  0.19708967  0.26759600  0.35626205  1.0
  Ni  Ni1135  1  0.19708967  0.60092933  0.35626205  1.0
  Ni  Ni1136  1  0.19708967  0.93426267  0.35626205  1.0
  Ni  Ni1137  1  0.53042300  0.26759600  0.35626205  1.0
  Ni  Ni1138  1  0.53042300  0.60092933  0.35626205  1.0
  Ni  Ni1139  1  0.53042300  0.93426267  0.35626205  1.0
  Ni  Ni1140  1  0.86375633  0.26759600  0.35626205  1.0
  Ni  Ni1141  1  0.86375633  0.60092933  0.35626205  1.0
  Ni  Ni1142  1  0.86375633  0.93426267  0.35626205  1.0
  Ni  Ni1143  1  0.03042300  0.10092933  0.25626205  1.0
  Ni  Ni1144  1  0.03042300  0.43426267  0.25626205  1.0
  Ni  Ni1145  1  0.03042300  0.76759600  0.25626205  1.0
  Ni  Ni1146  1  0.36375633  0.10092933  0.25626205  1.0
  Ni  Ni1147  1  0.36375633  0.43426267  0.25626205  1.0
  Ni  Ni1148  1  0.36375633  0.76759600  0.25626205  1.0
  Ni  Ni1149  1  0.69708967  0.10092933  0.25626205  1.0
  Ni  Ni1150  1  0.69708967  0.43426267  0.25626205  1.0
  Ni  Ni1151  1  0.69708967  0.76759600  0.25626205  1.0
  Ni  Ni1152  1  0.18826283  0.33221917  0.25295855  1.0
  Ni  Ni1153  1  0.18826283  0.66555250  0.25295855  1.0
  Ni  Ni1154  1  0.18826283  0.99888583  0.25295855  1.0
  Ni  Ni1155  1  0.52159617  0.33221917  0.25295855  1.0
  Ni  Ni1156  1  0.52159617  0.66555250  0.25295855  1.0
  Ni  Ni1157  1  0.52159617  0.99888583  0.25295855  1.0
  Ni  Ni1158  1  0.85492950  0.33221917  0.25295855  1.0
  Ni  Ni1159  1  0.85492950  0.66555250  0.25295855  1.0
  Ni  Ni1160  1  0.85492950  0.99888583  0.25295855  1.0
  Ni  Ni1161  1  0.02159617  0.16555250  0.35295855  1.0
  Ni  Ni1162  1  0.02159617  0.49888583  0.35295855  1.0
  Ni  Ni1163  1  0.02159617  0.83221917  0.35295855  1.0
  Ni  Ni1164  1  0.35492950  0.16555250  0.35295855  1.0
  Ni  Ni1165  1  0.35492950  0.49888583  0.35295855  1.0
  Ni  Ni1166  1  0.35492950  0.83221917  0.35295855  1.0
  Ni  Ni1167  1  0.68826283  0.16555250  0.35295855  1.0
  Ni  Ni1168  1  0.68826283  0.49888583  0.35295855  1.0
  Ni  Ni1169  1  0.68826283  0.83221917  0.35295855  1.0
  Ni  Ni1170  1  0.10270117  0.25111417  0.20429555  1.0
  Ni  Ni1171  1  0.10270117  0.58444750  0.20429555  1.0
  Ni  Ni1172  1  0.10270117  0.91778083  0.20429555  1.0
  Ni  Ni1173  1  0.43603450  0.25111417  0.20429555  1.0
  Ni  Ni1174  1  0.43603450  0.58444750  0.20429555  1.0
  Ni  Ni1175  1  0.43603450  0.91778083  0.20429555  1.0
  Ni  Ni1176  1  0.76936783  0.25111417  0.20429555  1.0
  Ni  Ni1177  1  0.76936783  0.58444750  0.20429555  1.0
  Ni  Ni1178  1  0.76936783  0.91778083  0.20429555  1.0
  Ni  Ni1179  1  0.26936783  0.08444750  0.30429555  1.0
  Ni  Ni1180  1  0.26936783  0.41778083  0.30429555  1.0
  Ni  Ni1181  1  0.26936783  0.75111417  0.30429555  1.0
  Ni  Ni1182  1  0.60270117  0.08444750  0.30429555  1.0
  Ni  Ni1183  1  0.60270117  0.41778083  0.30429555  1.0
  Ni  Ni1184  1  0.60270117  0.75111417  0.30429555  1.0
  Ni  Ni1185  1  0.93603450  0.08444750  0.30429555  1.0
  Ni  Ni1186  1  0.93603450  0.41778083  0.30429555  1.0
  Ni  Ni1187  1  0.93603450  0.75111417  0.30429555  1.0
  Ni  Ni1188  1  0.16862000  0.21547900  0.26647725  1.0
  Ni  Ni1189  1  0.16862000  0.54881233  0.26647725  1.0
  Ni  Ni1190  1  0.16862000  0.88214567  0.26647725  1.0
  Ni  Ni1191  1  0.50195333  0.21547900  0.26647725  1.0
  Ni  Ni1192  1  0.50195333  0.54881233  0.26647725  1.0
  Ni  Ni1193  1  0.50195333  0.88214567  0.26647725  1.0
  Ni  Ni1194  1  0.83528667  0.21547900  0.26647725  1.0
  Ni  Ni1195  1  0.83528667  0.54881233  0.26647725  1.0
  Ni  Ni1196  1  0.83528667  0.88214567  0.26647725  1.0
  Ni  Ni1197  1  0.00195333  0.04881233  0.36647725  1.0
  Ni  Ni1198  1  0.00195333  0.38214567  0.36647725  1.0
  Ni  Ni1199  1  0.00195333  0.71547900  0.36647725  1.0
  Ni  Ni1200  1  0.33528667  0.04881233  0.36647725  1.0
  Ni  Ni1201  1  0.33528667  0.38214567  0.36647725  1.0
  Ni  Ni1202  1  0.33528667  0.71547900  0.36647725  1.0
  Ni  Ni1203  1  0.66862000  0.04881233  0.36647725  1.0
  Ni  Ni1204  1  0.66862000  0.38214567  0.36647725  1.0
  Ni  Ni1205  1  0.66862000  0.71547900  0.36647725  1.0
  Ni  Ni1206  1  0.24794633  0.29881233  0.31647725  1.0
  Ni  Ni1207  1  0.24794633  0.63214567  0.31647725  1.0
  Ni  Ni1208  1  0.24794633  0.96547900  0.31647725  1.0
  Ni  Ni1209  1  0.58127967  0.29881233  0.31647725  1.0
  Ni  Ni1210  1  0.58127967  0.63214567  0.31647725  1.0
  Ni  Ni1211  1  0.58127967  0.96547900  0.31647725  1.0
  Ni  Ni1212  1  0.91461300  0.29881233  0.31647725  1.0
  Ni  Ni1213  1  0.91461300  0.63214567  0.31647725  1.0
  Ni  Ni1214  1  0.91461300  0.96547900  0.31647725  1.0
  Ni  Ni1215  1  0.08127967  0.13214567  0.21647725  1.0
  Ni  Ni1216  1  0.08127967  0.46547900  0.21647725  1.0
  Ni  Ni1217  1  0.08127967  0.79881233  0.21647725  1.0
  Ni  Ni1218  1  0.41461300  0.13214567  0.21647725  1.0
  Ni  Ni1219  1  0.41461300  0.46547900  0.21647725  1.0
  Ni  Ni1220  1  0.41461300  0.79881233  0.21647725  1.0
  Ni  Ni1221  1  0.74794633  0.13214567  0.21647725  1.0
  Ni  Ni1222  1  0.74794633  0.46547900  0.21647725  1.0
  Ni  Ni1223  1  0.74794633  0.79881233  0.21647725  1.0
