# generated using pymatgen
data_Zr7Ni10
_symmetry_space_group_name_H-M   'P 1'
_cell_length_a   27.43948500
_cell_length_b   79.10131948
_cell_length_c   36.53614000
_cell_angle_alpha   110.26836754
_cell_angle_beta   90.00000000
_cell_angle_gamma   90.00000000
_symmetry_Int_Tables_number   1
_chemical_formula_structural   Zr7Ni10
_chemical_formula_sum   'Zr1008 Ni1440'
_cell_volume   74391.33921068
_cell_formula_units_Z   144
loop_
 _symmetry_equiv_pos_site_id
 _symmetry_equiv_pos_as_xyz
  1  'x, y, z'
loop_
 _atom_site_type_symbol
 _atom_site_label
 _atom_site_symmetry_multiplicity
 _atom_site_fract_x
 _atom_site_fract_y
 _atom_site_fract_z
 _atom_site_occupancy
  Zr  Zr0  1  0.27130900  0.08282650  0.10439238  1.0
  Zr  Zr1  1  0.27130900  0.41615983  0.10439238  1.0
  Zr  Zr2  1  0.27130900  0.74949317  0.10439238  1.0
  Zr  Zr3  1  0.60464233  0.08282650  0.10439238  1.0
  Zr  Zr4  1  0.60464233  0.41615983  0.10439237  1.0
  Zr  Zr5  1  0.60464233  0.74949317  0.10439238  1.0
  Zr  Zr6  1  0.93797567  0.08282650  0.10439238  1.0
  Zr  Zr7  1  0.93797567  0.41615983  0.10439238  1.0
  Zr  Zr8  1  0.93797567  0.74949317  0.10439238  1.0
  Zr  Zr9  1  0.27130900  0.24949317  0.22939238  1.0
  Zr  Zr10  1  0.27130900  0.58282650  0.22939238  1.0
  Zr  Zr11  1  0.27130900  0.91615983  0.22939238  1.0
  Zr  Zr12  1  0.60464233  0.24949317  0.22939238  1.0
  Zr  Zr13  1  0.60464233  0.58282650  0.22939238  1.0
  Zr  Zr14  1  0.60464233  0.91615983  0.22939238  1.0
  Zr  Zr15  1  0.93797567  0.24949317  0.22939238  1.0
  Zr  Zr16  1  0.93797567  0.58282650  0.22939238  1.0
  Zr  Zr17  1  0.93797567  0.91615983  0.22939238  1.0
  Zr  Zr18  1  0.16703200  0.11521650  0.20724538  1.0
  Zr  Zr19  1  0.16703200  0.44854983  0.20724537  1.0
  Zr  Zr20  1  0.16703200  0.78188317  0.20724537  1.0
  Zr  Zr21  1  0.50036533  0.11521650  0.20724538  1.0
  Zr  Zr22  1  0.50036533  0.44854983  0.20724537  1.0
  Zr  Zr23  1  0.50036533  0.78188317  0.20724537  1.0
  Zr  Zr24  1  0.83369867  0.11521650  0.20724538  1.0
  Zr  Zr25  1  0.83369867  0.44854983  0.20724537  1.0
  Zr  Zr26  1  0.83369867  0.78188317  0.20724537  1.0
  Zr  Zr27  1  0.16703200  0.28188317  0.08224537  1.0
  Zr  Zr28  1  0.16703200  0.61521650  0.08224537  1.0
  Zr  Zr29  1  0.16703200  0.94854983  0.08224537  1.0
  Zr  Zr30  1  0.50036533  0.28188317  0.08224537  1.0
  Zr  Zr31  1  0.50036533  0.61521650  0.08224537  1.0
  Zr  Zr32  1  0.50036533  0.94854983  0.08224537  1.0
  Zr  Zr33  1  0.83369867  0.28188317  0.08224537  1.0
  Zr  Zr34  1  0.83369867  0.61521650  0.08224537  1.0
  Zr  Zr35  1  0.83369867  0.94854983  0.08224537  1.0
  Zr  Zr36  1  0.16666667  0.08333333  0.05838100  1.0
  Zr  Zr37  1  0.16666667  0.41666667  0.05838100  1.0
  Zr  Zr38  1  0.16666667  0.75000000  0.05838100  1.0
  Zr  Zr39  1  0.50000000  0.08333333  0.05838100  1.0
  Zr  Zr40  1  0.50000000  0.41666667  0.05838100  1.0
  Zr  Zr41  1  0.50000000  0.75000000  0.05838100  1.0
  Zr  Zr42  1  0.83333333  0.08333333  0.05838100  1.0
  Zr  Zr43  1  0.83333333  0.41666667  0.05838100  1.0
  Zr  Zr44  1  0.83333333  0.75000000  0.05838100  1.0
  Zr  Zr45  1  0.16666667  0.25000000  0.18338100  1.0
  Zr  Zr46  1  0.16666667  0.58333333  0.18338100  1.0
  Zr  Zr47  1  0.16666667  0.91666667  0.18338100  1.0
  Zr  Zr48  1  0.50000000  0.25000000  0.18338100  1.0
  Zr  Zr49  1  0.50000000  0.58333333  0.18338100  1.0
  Zr  Zr50  1  0.50000000  0.91666667  0.18338100  1.0
  Zr  Zr51  1  0.83333333  0.25000000  0.18338100  1.0
  Zr  Zr52  1  0.83333333  0.58333333  0.18338100  1.0
  Zr  Zr53  1  0.83333333  0.91666667  0.18338100  1.0
  Zr  Zr54  1  0.10464233  0.08282650  0.13660938  1.0
  Zr  Zr55  1  0.10464233  0.41615983  0.13660938  1.0
  Zr  Zr56  1  0.10464233  0.74949317  0.13660938  1.0
  Zr  Zr57  1  0.43797567  0.08282650  0.13660938  1.0
  Zr  Zr58  1  0.43797567  0.41615983  0.13660938  1.0
  Zr  Zr59  1  0.43797567  0.74949317  0.13660938  1.0
  Zr  Zr60  1  0.77130900  0.08282650  0.13660938  1.0
  Zr  Zr61  1  0.77130900  0.41615983  0.13660937  1.0
  Zr  Zr62  1  0.77130900  0.74949317  0.13660938  1.0
  Zr  Zr63  1  0.10464233  0.24949317  0.01160938  1.0
  Zr  Zr64  1  0.10464233  0.58282650  0.01160938  1.0
  Zr  Zr65  1  0.10464233  0.91615983  0.01160938  1.0
  Zr  Zr66  1  0.43797567  0.24949317  0.01160938  1.0
  Zr  Zr67  1  0.43797567  0.58282650  0.01160938  1.0
  Zr  Zr68  1  0.43797567  0.91615983  0.01160938  1.0
  Zr  Zr69  1  0.77130900  0.24949317  0.01160938  1.0
  Zr  Zr70  1  0.77130900  0.58282650  0.01160938  1.0
  Zr  Zr71  1  0.77130900  0.91615983  0.01160938  1.0
  Zr  Zr72  1  0.00036533  0.13478350  0.22201662  1.0
  Zr  Zr73  1  0.00036533  0.46811683  0.22201662  1.0
  Zr  Zr74  1  0.00036533  0.80145017  0.22201663  1.0
  Zr  Zr75  1  0.33369867  0.13478350  0.22201663  1.0
  Zr  Zr76  1  0.33369867  0.46811683  0.22201662  1.0
  Zr  Zr77  1  0.33369867  0.80145017  0.22201663  1.0
  Zr  Zr78  1  0.66703200  0.13478350  0.22201662  1.0
  Zr  Zr79  1  0.66703200  0.46811683  0.22201662  1.0
  Zr  Zr80  1  0.66703200  0.80145017  0.22201663  1.0
  Zr  Zr81  1  0.00036533  0.30145017  0.09701662  1.0
  Zr  Zr82  1  0.00036533  0.63478350  0.09701662  1.0
  Zr  Zr83  1  0.00036533  0.96811683  0.09701663  1.0
  Zr  Zr84  1  0.33369867  0.30145017  0.09701662  1.0
  Zr  Zr85  1  0.33369867  0.63478350  0.09701662  1.0
  Zr  Zr86  1  0.33369867  0.96811683  0.09701663  1.0
  Zr  Zr87  1  0.66703200  0.30145017  0.09701662  1.0
  Zr  Zr88  1  0.66703200  0.63478350  0.09701662  1.0
  Zr  Zr89  1  0.66703200  0.96811683  0.09701663  1.0
  Zr  Zr90  1  0.22869100  0.16615983  0.16689238  1.0
  Zr  Zr91  1  0.22869100  0.49949317  0.16689238  1.0
  Zr  Zr92  1  0.22869100  0.83282650  0.16689238  1.0
  Zr  Zr93  1  0.56202433  0.16615983  0.16689238  1.0
  Zr  Zr94  1  0.56202433  0.49949317  0.16689238  1.0
  Zr  Zr95  1  0.56202433  0.83282650  0.16689238  1.0
  Zr  Zr96  1  0.89535767  0.16615983  0.16689238  1.0
  Zr  Zr97  1  0.89535767  0.49949317  0.16689238  1.0
  Zr  Zr98  1  0.89535767  0.83282650  0.16689238  1.0
  Zr  Zr99  1  0.22869100  0.33282650  0.04189238  1.0
  Zr  Zr100  1  0.22869100  0.66615983  0.04189238  1.0
  Zr  Zr101  1  0.22869100  0.99949317  0.04189238  1.0
  Zr  Zr102  1  0.56202433  0.33282650  0.04189238  1.0
  Zr  Zr103  1  0.56202433  0.66615983  0.04189238  1.0
  Zr  Zr104  1  0.56202433  0.99949317  0.04189238  1.0
  Zr  Zr105  1  0.89535767  0.33282650  0.04189238  1.0
  Zr  Zr106  1  0.89535767  0.66615983  0.04189237  1.0
  Zr  Zr107  1  0.89535767  0.99949317  0.04189238  1.0
  Zr  Zr108  1  0.08295600  0.12438100  0.15231500  1.0
  Zr  Zr109  1  0.08295600  0.45771433  0.15231500  1.0
  Zr  Zr110  1  0.08295600  0.79104767  0.15231500  1.0
  Zr  Zr111  1  0.41628933  0.12438100  0.15231500  1.0
  Zr  Zr112  1  0.41628933  0.45771433  0.15231500  1.0
  Zr  Zr113  1  0.41628933  0.79104767  0.15231500  1.0
  Zr  Zr114  1  0.74962267  0.12438100  0.15231500  1.0
  Zr  Zr115  1  0.74962267  0.45771433  0.15231500  1.0
  Zr  Zr116  1  0.74962267  0.79104767  0.15231500  1.0
  Zr  Zr117  1  0.08295600  0.29104767  0.02731500  1.0
  Zr  Zr118  1  0.08295600  0.62438100  0.02731500  1.0
  Zr  Zr119  1  0.08295600  0.95771433  0.02731500  1.0
  Zr  Zr120  1  0.41628933  0.29104767  0.02731500  1.0
  Zr  Zr121  1  0.41628933  0.62438100  0.02731500  1.0
  Zr  Zr122  1  0.41628933  0.95771433  0.02731500  1.0
  Zr  Zr123  1  0.74962267  0.29104767  0.02731500  1.0
  Zr  Zr124  1  0.74962267  0.62438100  0.02731500  1.0
  Zr  Zr125  1  0.74962267  0.95771433  0.02731500  1.0
  Zr  Zr126  1  0.33296800  0.03188317  0.14474538  1.0
  Zr  Zr127  1  0.33296800  0.36521650  0.14474538  1.0
  Zr  Zr128  1  0.33296800  0.69854983  0.14474537  1.0
  Zr  Zr129  1  0.66630133  0.03188317  0.14474538  1.0
  Zr  Zr130  1  0.66630133  0.36521650  0.14474537  1.0
  Zr  Zr131  1  0.66630133  0.69854983  0.14474537  1.0
  Zr  Zr132  1  0.99963467  0.03188317  0.14474538  1.0
  Zr  Zr133  1  0.99963467  0.36521650  0.14474538  1.0
  Zr  Zr134  1  0.99963467  0.69854983  0.14474537  1.0
  Zr  Zr135  1  0.33296800  0.19854983  0.01974538  1.0
  Zr  Zr136  1  0.33296800  0.53188317  0.01974538  1.0
  Zr  Zr137  1  0.33296800  0.86521650  0.01974538  1.0
  Zr  Zr138  1  0.66630133  0.19854983  0.01974538  1.0
  Zr  Zr139  1  0.66630133  0.53188317  0.01974537  1.0
  Zr  Zr140  1  0.66630133  0.86521650  0.01974538  1.0
  Zr  Zr141  1  0.99963467  0.19854983  0.01974538  1.0
  Zr  Zr142  1  0.99963467  0.53188317  0.01974538  1.0
  Zr  Zr143  1  0.99963467  0.86521650  0.01974538  1.0
  Zr  Zr144  1  0.08371067  0.04228567  0.21574350  1.0
  Zr  Zr145  1  0.08371067  0.37561900  0.21574350  1.0
  Zr  Zr146  1  0.08371067  0.70895233  0.21574350  1.0
  Zr  Zr147  1  0.41704400  0.04228567  0.21574350  1.0
  Zr  Zr148  1  0.41704400  0.37561900  0.21574350  1.0
  Zr  Zr149  1  0.41704400  0.70895233  0.21574350  1.0
  Zr  Zr150  1  0.75037733  0.04228567  0.21574350  1.0
  Zr  Zr151  1  0.75037733  0.37561900  0.21574350  1.0
  Zr  Zr152  1  0.75037733  0.70895233  0.21574350  1.0
  Zr  Zr153  1  0.08371067  0.20895233  0.09074350  1.0
  Zr  Zr154  1  0.08371067  0.54228567  0.09074350  1.0
  Zr  Zr155  1  0.08371067  0.87561900  0.09074350  1.0
  Zr  Zr156  1  0.41704400  0.20895233  0.09074350  1.0
  Zr  Zr157  1  0.41704400  0.54228567  0.09074350  1.0
  Zr  Zr158  1  0.41704400  0.87561900  0.09074350  1.0
  Zr  Zr159  1  0.75037733  0.20895233  0.09074350  1.0
  Zr  Zr160  1  0.75037733  0.54228567  0.09074350  1.0
  Zr  Zr161  1  0.75037733  0.87561900  0.09074350  1.0
  Zr  Zr162  1  0.10464233  0.00050683  0.19986962  1.0
  Zr  Zr163  1  0.10464233  0.33384017  0.19986962  1.0
  Zr  Zr164  1  0.10464233  0.66717350  0.19986962  1.0
  Zr  Zr165  1  0.43797567  0.00050683  0.19986962  1.0
  Zr  Zr166  1  0.43797567  0.33384017  0.19986962  1.0
  Zr  Zr167  1  0.43797567  0.66717350  0.19986962  1.0
  Zr  Zr168  1  0.77130900  0.00050683  0.19986962  1.0
  Zr  Zr169  1  0.77130900  0.33384017  0.19986962  1.0
  Zr  Zr170  1  0.77130900  0.66717350  0.19986962  1.0
  Zr  Zr171  1  0.10464233  0.16717350  0.07486962  1.0
  Zr  Zr172  1  0.10464233  0.50050683  0.07486962  1.0
  Zr  Zr173  1  0.10464233  0.83384017  0.07486962  1.0
  Zr  Zr174  1  0.43797567  0.16717350  0.07486962  1.0
  Zr  Zr175  1  0.43797567  0.50050683  0.07486962  1.0
  Zr  Zr176  1  0.43797567  0.83384017  0.07486962  1.0
  Zr  Zr177  1  0.77130900  0.16717350  0.07486962  1.0
  Zr  Zr178  1  0.77130900  0.50050683  0.07486962  1.0
  Zr  Zr179  1  0.77130900  0.83384017  0.07486962  1.0
  Zr  Zr180  1  0.22869100  0.08384017  0.23015263  1.0
  Zr  Zr181  1  0.22869100  0.41717350  0.23015263  1.0
  Zr  Zr182  1  0.22869100  0.75050683  0.23015263  1.0
  Zr  Zr183  1  0.56202433  0.08384017  0.23015263  1.0
  Zr  Zr184  1  0.56202433  0.41717350  0.23015263  1.0
  Zr  Zr185  1  0.56202433  0.75050683  0.23015263  1.0
  Zr  Zr186  1  0.89535767  0.08384017  0.23015263  1.0
  Zr  Zr187  1  0.89535767  0.41717350  0.23015263  1.0
  Zr  Zr188  1  0.89535767  0.75050683  0.23015263  1.0
  Zr  Zr189  1  0.22869100  0.25050683  0.10515263  1.0
  Zr  Zr190  1  0.22869100  0.58384017  0.10515262  1.0
  Zr  Zr191  1  0.22869100  0.91717350  0.10515263  1.0
  Zr  Zr192  1  0.56202433  0.25050683  0.10515263  1.0
  Zr  Zr193  1  0.56202433  0.58384017  0.10515262  1.0
  Zr  Zr194  1  0.56202433  0.91717350  0.10515263  1.0
  Zr  Zr195  1  0.89535767  0.25050683  0.10515263  1.0
  Zr  Zr196  1  0.89535767  0.58384017  0.10515262  1.0
  Zr  Zr197  1  0.89535767  0.91717350  0.10515263  1.0
  Zr  Zr198  1  0.16630133  0.05145017  0.15951662  1.0
  Zr  Zr199  1  0.16630133  0.38478350  0.15951662  1.0
  Zr  Zr200  1  0.16630133  0.71811683  0.15951662  1.0
  Zr  Zr201  1  0.49963467  0.05145017  0.15951662  1.0
  Zr  Zr202  1  0.49963467  0.38478350  0.15951662  1.0
  Zr  Zr203  1  0.49963467  0.71811683  0.15951662  1.0
  Zr  Zr204  1  0.83296800  0.05145017  0.15951662  1.0
  Zr  Zr205  1  0.83296800  0.38478350  0.15951662  1.0
  Zr  Zr206  1  0.83296800  0.71811683  0.15951662  1.0
  Zr  Zr207  1  0.16630133  0.21811683  0.03451662  1.0
  Zr  Zr208  1  0.16630133  0.55145017  0.03451662  1.0
  Zr  Zr209  1  0.16630133  0.88478350  0.03451663  1.0
  Zr  Zr210  1  0.49963467  0.21811683  0.03451662  1.0
  Zr  Zr211  1  0.49963467  0.55145017  0.03451662  1.0
  Zr  Zr212  1  0.49963467  0.88478350  0.03451663  1.0
  Zr  Zr213  1  0.83296800  0.21811683  0.03451662  1.0
  Zr  Zr214  1  0.83296800  0.55145017  0.03451662  1.0
  Zr  Zr215  1  0.83296800  0.88478350  0.03451663  1.0
  Zr  Zr216  1  0.27130900  0.00050683  0.16765263  1.0
  Zr  Zr217  1  0.27130900  0.33384017  0.16765263  1.0
  Zr  Zr218  1  0.27130900  0.66717350  0.16765263  1.0
  Zr  Zr219  1  0.60464233  0.00050683  0.16765263  1.0
  Zr  Zr220  1  0.60464233  0.33384017  0.16765262  1.0
  Zr  Zr221  1  0.60464233  0.66717350  0.16765263  1.0
  Zr  Zr222  1  0.93797567  0.00050683  0.16765263  1.0
  Zr  Zr223  1  0.93797567  0.33384017  0.16765263  1.0
  Zr  Zr224  1  0.93797567  0.66717350  0.16765263  1.0
  Zr  Zr225  1  0.27130900  0.16717350  0.04265263  1.0
  Zr  Zr226  1  0.27130900  0.50050683  0.04265262  1.0
  Zr  Zr227  1  0.27130900  0.83384017  0.04265263  1.0
  Zr  Zr228  1  0.60464233  0.16717350  0.04265263  1.0
  Zr  Zr229  1  0.60464233  0.50050683  0.04265262  1.0
  Zr  Zr230  1  0.60464233  0.83384017  0.04265263  1.0
  Zr  Zr231  1  0.93797567  0.16717350  0.04265263  1.0
  Zr  Zr232  1  0.93797567  0.50050683  0.04265262  1.0
  Zr  Zr233  1  0.93797567  0.83384017  0.04265263  1.0
  Zr  Zr234  1  0.06202433  0.08384017  0.01236963  1.0
  Zr  Zr235  1  0.06202433  0.41717350  0.01236962  1.0
  Zr  Zr236  1  0.06202433  0.75050683  0.01236963  1.0
  Zr  Zr237  1  0.39535767  0.08384017  0.01236963  1.0
  Zr  Zr238  1  0.39535767  0.41717350  0.01236962  1.0
  Zr  Zr239  1  0.39535767  0.75050683  0.01236963  1.0
  Zr  Zr240  1  0.72869100  0.08384017  0.01236963  1.0
  Zr  Zr241  1  0.72869100  0.41717350  0.01236962  1.0
  Zr  Zr242  1  0.72869100  0.75050683  0.01236963  1.0
  Zr  Zr243  1  0.06202433  0.25050683  0.13736963  1.0
  Zr  Zr244  1  0.06202433  0.58384017  0.13736962  1.0
  Zr  Zr245  1  0.06202433  0.91717350  0.13736963  1.0
  Zr  Zr246  1  0.39535767  0.25050683  0.13736963  1.0
  Zr  Zr247  1  0.39535767  0.58384017  0.13736962  1.0
  Zr  Zr248  1  0.39535767  0.91717350  0.13736963  1.0
  Zr  Zr249  1  0.72869100  0.25050683  0.13736963  1.0
  Zr  Zr250  1  0.72869100  0.58384017  0.13736962  1.0
  Zr  Zr251  1  0.72869100  0.91717350  0.13736963  1.0
  Zr  Zr252  1  0.16703200  0.13478350  0.09692062  1.0
  Zr  Zr253  1  0.16703200  0.46811683  0.09692062  1.0
  Zr  Zr254  1  0.16703200  0.80145017  0.09692062  1.0
  Zr  Zr255  1  0.50036533  0.13478350  0.09692062  1.0
  Zr  Zr256  1  0.50036533  0.46811683  0.09692062  1.0
  Zr  Zr257  1  0.50036533  0.80145017  0.09692062  1.0
  Zr  Zr258  1  0.83369867  0.13478350  0.09692062  1.0
  Zr  Zr259  1  0.83369867  0.46811683  0.09692062  1.0
  Zr  Zr260  1  0.83369867  0.80145017  0.09692062  1.0
  Zr  Zr261  1  0.16703200  0.30145017  0.22192063  1.0
  Zr  Zr262  1  0.16703200  0.63478350  0.22192062  1.0
  Zr  Zr263  1  0.16703200  0.96811683  0.22192063  1.0
  Zr  Zr264  1  0.50036533  0.30145017  0.22192063  1.0
  Zr  Zr265  1  0.50036533  0.63478350  0.22192062  1.0
  Zr  Zr266  1  0.50036533  0.96811683  0.22192063  1.0
  Zr  Zr267  1  0.83369867  0.30145017  0.22192063  1.0
  Zr  Zr268  1  0.83369867  0.63478350  0.22192062  1.0
  Zr  Zr269  1  0.83369867  0.96811683  0.22192063  1.0
  Zr  Zr270  1  0.06202433  0.16615983  0.19910938  1.0
  Zr  Zr271  1  0.06202433  0.49949317  0.19910937  1.0
  Zr  Zr272  1  0.06202433  0.83282650  0.19910938  1.0
  Zr  Zr273  1  0.39535767  0.16615983  0.19910938  1.0
  Zr  Zr274  1  0.39535767  0.49949317  0.19910937  1.0
  Zr  Zr275  1  0.39535767  0.83282650  0.19910938  1.0
  Zr  Zr276  1  0.72869100  0.16615983  0.19910938  1.0
  Zr  Zr277  1  0.72869100  0.49949317  0.19910937  1.0
  Zr  Zr278  1  0.72869100  0.83282650  0.19910938  1.0
  Zr  Zr279  1  0.06202433  0.33282650  0.07410938  1.0
  Zr  Zr280  1  0.06202433  0.66615983  0.07410938  1.0
  Zr  Zr281  1  0.06202433  0.99949317  0.07410938  1.0
  Zr  Zr282  1  0.39535767  0.33282650  0.07410938  1.0
  Zr  Zr283  1  0.39535767  0.66615983  0.07410938  1.0
  Zr  Zr284  1  0.39535767  0.99949317  0.07410938  1.0
  Zr  Zr285  1  0.72869100  0.33282650  0.07410938  1.0
  Zr  Zr286  1  0.72869100  0.66615983  0.07410938  1.0
  Zr  Zr287  1  0.72869100  0.99949317  0.07410938  1.0
  Zr  Zr288  1  0.00000000  0.00000000  0.24588100  1.0
  Zr  Zr289  1  0.00000000  0.33333333  0.24588100  1.0
  Zr  Zr290  1  0.00000000  0.66666667  0.24588100  1.0
  Zr  Zr291  1  0.33333333  0.00000000  0.24588100  1.0
  Zr  Zr292  1  0.33333333  0.33333333  0.24588100  1.0
  Zr  Zr293  1  0.33333333  0.66666667  0.24588100  1.0
  Zr  Zr294  1  0.66666667  0.00000000  0.24588100  1.0
  Zr  Zr295  1  0.66666667  0.33333333  0.24588100  1.0
  Zr  Zr296  1  0.66666667  0.66666667  0.24588100  1.0
  Zr  Zr297  1  0.00000000  0.16666667  0.12088100  1.0
  Zr  Zr298  1  0.00000000  0.50000000  0.12088100  1.0
  Zr  Zr299  1  0.00000000  0.83333333  0.12088100  1.0
  Zr  Zr300  1  0.33333333  0.16666667  0.12088100  1.0
  Zr  Zr301  1  0.33333333  0.50000000  0.12088100  1.0
  Zr  Zr302  1  0.33333333  0.83333333  0.12088100  1.0
  Zr  Zr303  1  0.66666667  0.16666667  0.12088100  1.0
  Zr  Zr304  1  0.66666667  0.50000000  0.12088100  1.0
  Zr  Zr305  1  0.66666667  0.83333333  0.12088100  1.0
  Zr  Zr306  1  0.24962267  0.12438100  0.15101850  1.0
  Zr  Zr307  1  0.24962267  0.45771433  0.15101850  1.0
  Zr  Zr308  1  0.24962267  0.79104767  0.15101850  1.0
  Zr  Zr309  1  0.58295600  0.12438100  0.15101850  1.0
  Zr  Zr310  1  0.58295600  0.45771433  0.15101850  1.0
  Zr  Zr311  1  0.58295600  0.79104767  0.15101850  1.0
  Zr  Zr312  1  0.91628933  0.12438100  0.15101850  1.0
  Zr  Zr313  1  0.91628933  0.45771433  0.15101850  1.0
  Zr  Zr314  1  0.91628933  0.79104767  0.15101850  1.0
  Zr  Zr315  1  0.24962267  0.29104767  0.02601850  1.0
  Zr  Zr316  1  0.24962267  0.62438100  0.02601850  1.0
  Zr  Zr317  1  0.24962267  0.95771433  0.02601850  1.0
  Zr  Zr318  1  0.58295600  0.29104767  0.02601850  1.0
  Zr  Zr319  1  0.58295600  0.62438100  0.02601850  1.0
  Zr  Zr320  1  0.58295600  0.95771433  0.02601850  1.0
  Zr  Zr321  1  0.91628933  0.29104767  0.02601850  1.0
  Zr  Zr322  1  0.91628933  0.62438100  0.02601850  1.0
  Zr  Zr323  1  0.91628933  0.95771433  0.02601850  1.0
  Zr  Zr324  1  0.25037733  0.04104767  0.08851850  1.0
  Zr  Zr325  1  0.25037733  0.37438100  0.08851850  1.0
  Zr  Zr326  1  0.25037733  0.70771433  0.08851850  1.0
  Zr  Zr327  1  0.58371067  0.04104767  0.08851850  1.0
  Zr  Zr328  1  0.58371067  0.37438100  0.08851850  1.0
  Zr  Zr329  1  0.58371067  0.70771433  0.08851850  1.0
  Zr  Zr330  1  0.91704400  0.04104767  0.08851850  1.0
  Zr  Zr331  1  0.91704400  0.37438100  0.08851850  1.0
  Zr  Zr332  1  0.91704400  0.70771433  0.08851850  1.0
  Zr  Zr333  1  0.25037733  0.20771433  0.21351850  1.0
  Zr  Zr334  1  0.25037733  0.54104767  0.21351850  1.0
  Zr  Zr335  1  0.25037733  0.87438100  0.21351850  1.0
  Zr  Zr336  1  0.58371067  0.20771433  0.21351850  1.0
  Zr  Zr337  1  0.58371067  0.54104767  0.21351850  1.0
  Zr  Zr338  1  0.58371067  0.87438100  0.21351850  1.0
  Zr  Zr339  1  0.91704400  0.20771433  0.21351850  1.0
  Zr  Zr340  1  0.91704400  0.54104767  0.21351850  1.0
  Zr  Zr341  1  0.91704400  0.87438100  0.21351850  1.0
  Zr  Zr342  1  0.08295600  0.12561900  0.02824350  1.0
  Zr  Zr343  1  0.08295600  0.45895233  0.02824350  1.0
  Zr  Zr344  1  0.08295600  0.79228567  0.02824350  1.0
  Zr  Zr345  1  0.41628933  0.12561900  0.02824350  1.0
  Zr  Zr346  1  0.41628933  0.45895233  0.02824350  1.0
  Zr  Zr347  1  0.41628933  0.79228567  0.02824350  1.0
  Zr  Zr348  1  0.74962267  0.12561900  0.02824350  1.0
  Zr  Zr349  1  0.74962267  0.45895233  0.02824350  1.0
  Zr  Zr350  1  0.74962267  0.79228567  0.02824350  1.0
  Zr  Zr351  1  0.08295600  0.29228567  0.15324350  1.0
  Zr  Zr352  1  0.08295600  0.62561900  0.15324350  1.0
  Zr  Zr353  1  0.08295600  0.95895233  0.15324350  1.0
  Zr  Zr354  1  0.41628933  0.29228567  0.15324350  1.0
  Zr  Zr355  1  0.41628933  0.62561900  0.15324350  1.0
  Zr  Zr356  1  0.41628933  0.95895233  0.15324350  1.0
  Zr  Zr357  1  0.74962267  0.29228567  0.15324350  1.0
  Zr  Zr358  1  0.74962267  0.62561900  0.15324350  1.0
  Zr  Zr359  1  0.74962267  0.95895233  0.15324350  1.0
  Zr  Zr360  1  0.33296800  0.05145017  0.03442062  1.0
  Zr  Zr361  1  0.33296800  0.38478350  0.03442062  1.0
  Zr  Zr362  1  0.33296800  0.71811683  0.03442062  1.0
  Zr  Zr363  1  0.66630133  0.05145017  0.03442062  1.0
  Zr  Zr364  1  0.66630133  0.38478350  0.03442062  1.0
  Zr  Zr365  1  0.66630133  0.71811683  0.03442062  1.0
  Zr  Zr366  1  0.99963467  0.05145017  0.03442062  1.0
  Zr  Zr367  1  0.99963467  0.38478350  0.03442062  1.0
  Zr  Zr368  1  0.99963467  0.71811683  0.03442062  1.0
  Zr  Zr369  1  0.33296800  0.21811683  0.15942062  1.0
  Zr  Zr370  1  0.33296800  0.55145017  0.15942062  1.0
  Zr  Zr371  1  0.33296800  0.88478350  0.15942062  1.0
  Zr  Zr372  1  0.66630133  0.21811683  0.15942063  1.0
  Zr  Zr373  1  0.66630133  0.55145017  0.15942062  1.0
  Zr  Zr374  1  0.66630133  0.88478350  0.15942062  1.0
  Zr  Zr375  1  0.99963467  0.21811683  0.15942062  1.0
  Zr  Zr376  1  0.99963467  0.55145017  0.15942062  1.0
  Zr  Zr377  1  0.99963467  0.88478350  0.15942062  1.0
  Zr  Zr378  1  0.00000000  0.08333333  0.18338100  1.0
  Zr  Zr379  1  0.00000000  0.41666667  0.18338100  1.0
  Zr  Zr380  1  0.00000000  0.75000000  0.18338100  1.0
  Zr  Zr381  1  0.33333333  0.08333333  0.18338100  1.0
  Zr  Zr382  1  0.33333333  0.41666667  0.18338100  1.0
  Zr  Zr383  1  0.33333333  0.75000000  0.18338100  1.0
  Zr  Zr384  1  0.66666667  0.08333333  0.18338100  1.0
  Zr  Zr385  1  0.66666667  0.41666667  0.18338100  1.0
  Zr  Zr386  1  0.66666667  0.75000000  0.18338100  1.0
  Zr  Zr387  1  0.00000000  0.25000000  0.05838100  1.0
  Zr  Zr388  1  0.00000000  0.58333333  0.05838100  1.0
  Zr  Zr389  1  0.00000000  0.91666667  0.05838100  1.0
  Zr  Zr390  1  0.33333333  0.25000000  0.05838100  1.0
  Zr  Zr391  1  0.33333333  0.58333333  0.05838100  1.0
  Zr  Zr392  1  0.33333333  0.91666667  0.05838100  1.0
  Zr  Zr393  1  0.66666667  0.25000000  0.05838100  1.0
  Zr  Zr394  1  0.66666667  0.58333333  0.05838100  1.0
  Zr  Zr395  1  0.66666667  0.91666667  0.05838100  1.0
  Zr  Zr396  1  0.24962267  0.12561900  0.02694700  1.0
  Zr  Zr397  1  0.24962267  0.45895233  0.02694700  1.0
  Zr  Zr398  1  0.24962267  0.79228567  0.02694700  1.0
  Zr  Zr399  1  0.58295600  0.12561900  0.02694700  1.0
  Zr  Zr400  1  0.58295600  0.45895233  0.02694700  1.0
  Zr  Zr401  1  0.58295600  0.79228567  0.02694700  1.0
  Zr  Zr402  1  0.91628933  0.12561900  0.02694700  1.0
  Zr  Zr403  1  0.91628933  0.45895233  0.02694700  1.0
  Zr  Zr404  1  0.91628933  0.79228567  0.02694700  1.0
  Zr  Zr405  1  0.24962267  0.29228567  0.15194700  1.0
  Zr  Zr406  1  0.24962267  0.62561900  0.15194700  1.0
  Zr  Zr407  1  0.24962267  0.95895233  0.15194700  1.0
  Zr  Zr408  1  0.58295600  0.29228567  0.15194700  1.0
  Zr  Zr409  1  0.58295600  0.62561900  0.15194700  1.0
  Zr  Zr410  1  0.58295600  0.95895233  0.15194700  1.0
  Zr  Zr411  1  0.91628933  0.29228567  0.15194700  1.0
  Zr  Zr412  1  0.91628933  0.62561900  0.15194700  1.0
  Zr  Zr413  1  0.91628933  0.95895233  0.15194700  1.0
  Zr  Zr414  1  0.25037733  0.04228567  0.21444700  1.0
  Zr  Zr415  1  0.25037733  0.37561900  0.21444700  1.0
  Zr  Zr416  1  0.25037733  0.70895233  0.21444700  1.0
  Zr  Zr417  1  0.58371067  0.04228567  0.21444700  1.0
  Zr  Zr418  1  0.58371067  0.37561900  0.21444700  1.0
  Zr  Zr419  1  0.58371067  0.70895233  0.21444700  1.0
  Zr  Zr420  1  0.91704400  0.04228567  0.21444700  1.0
  Zr  Zr421  1  0.91704400  0.37561900  0.21444700  1.0
  Zr  Zr422  1  0.91704400  0.70895233  0.21444700  1.0
  Zr  Zr423  1  0.25037733  0.20895233  0.08944700  1.0
  Zr  Zr424  1  0.25037733  0.54228567  0.08944700  1.0
  Zr  Zr425  1  0.25037733  0.87561900  0.08944700  1.0
  Zr  Zr426  1  0.58371067  0.20895233  0.08944700  1.0
  Zr  Zr427  1  0.58371067  0.54228567  0.08944700  1.0
  Zr  Zr428  1  0.58371067  0.87561900  0.08944700  1.0
  Zr  Zr429  1  0.91704400  0.20895233  0.08944700  1.0
  Zr  Zr430  1  0.91704400  0.54228567  0.08944700  1.0
  Zr  Zr431  1  0.91704400  0.87561900  0.08944700  1.0
  Zr  Zr432  1  0.08371067  0.04104767  0.08981500  1.0
  Zr  Zr433  1  0.08371067  0.37438100  0.08981500  1.0
  Zr  Zr434  1  0.08371067  0.70771433  0.08981500  1.0
  Zr  Zr435  1  0.41704400  0.04104767  0.08981500  1.0
  Zr  Zr436  1  0.41704400  0.37438100  0.08981500  1.0
  Zr  Zr437  1  0.41704400  0.70771433  0.08981500  1.0
  Zr  Zr438  1  0.75037733  0.04104767  0.08981500  1.0
  Zr  Zr439  1  0.75037733  0.37438100  0.08981500  1.0
  Zr  Zr440  1  0.75037733  0.70771433  0.08981500  1.0
  Zr  Zr441  1  0.08371067  0.20771433  0.21481500  1.0
  Zr  Zr442  1  0.08371067  0.54104767  0.21481500  1.0
  Zr  Zr443  1  0.08371067  0.87438100  0.21481500  1.0
  Zr  Zr444  1  0.41704400  0.20771433  0.21481500  1.0
  Zr  Zr445  1  0.41704400  0.54104767  0.21481500  1.0
  Zr  Zr446  1  0.41704400  0.87438100  0.21481500  1.0
  Zr  Zr447  1  0.75037733  0.20771433  0.21481500  1.0
  Zr  Zr448  1  0.75037733  0.54104767  0.21481500  1.0
  Zr  Zr449  1  0.75037733  0.87438100  0.21481500  1.0
  Zr  Zr450  1  0.00036533  0.11521650  0.08234138  1.0
  Zr  Zr451  1  0.00036533  0.44854983  0.08234137  1.0
  Zr  Zr452  1  0.00036533  0.78188317  0.08234137  1.0
  Zr  Zr453  1  0.33369867  0.11521650  0.08234138  1.0
  Zr  Zr454  1  0.33369867  0.44854983  0.08234137  1.0
  Zr  Zr455  1  0.33369867  0.78188317  0.08234137  1.0
  Zr  Zr456  1  0.66703200  0.11521650  0.08234138  1.0
  Zr  Zr457  1  0.66703200  0.44854983  0.08234137  1.0
  Zr  Zr458  1  0.66703200  0.78188317  0.08234137  1.0
  Zr  Zr459  1  0.00036533  0.28188317  0.20734138  1.0
  Zr  Zr460  1  0.00036533  0.61521650  0.20734137  1.0
  Zr  Zr461  1  0.00036533  0.94854983  0.20734137  1.0
  Zr  Zr462  1  0.33369867  0.28188317  0.20734138  1.0
  Zr  Zr463  1  0.33369867  0.61521650  0.20734137  1.0
  Zr  Zr464  1  0.33369867  0.94854983  0.20734137  1.0
  Zr  Zr465  1  0.66703200  0.28188317  0.20734138  1.0
  Zr  Zr466  1  0.66703200  0.61521650  0.20734137  1.0
  Zr  Zr467  1  0.66703200  0.94854983  0.20734137  1.0
  Zr  Zr468  1  0.16666667  0.00000000  0.12088100  1.0
  Zr  Zr469  1  0.16666667  0.33333333  0.12088100  1.0
  Zr  Zr470  1  0.16666667  0.66666667  0.12088100  1.0
  Zr  Zr471  1  0.50000000  0.00000000  0.12088100  1.0
  Zr  Zr472  1  0.50000000  0.33333333  0.12088100  1.0
  Zr  Zr473  1  0.50000000  0.66666667  0.12088100  1.0
  Zr  Zr474  1  0.83333333  0.00000000  0.12088100  1.0
  Zr  Zr475  1  0.83333333  0.33333333  0.12088100  1.0
  Zr  Zr476  1  0.83333333  0.66666667  0.12088100  1.0
  Zr  Zr477  1  0.16666667  0.16666667  0.24588100  1.0
  Zr  Zr478  1  0.16666667  0.50000000  0.24588100  1.0
  Zr  Zr479  1  0.16666667  0.83333333  0.24588100  1.0
  Zr  Zr480  1  0.50000000  0.16666667  0.24588100  1.0
  Zr  Zr481  1  0.50000000  0.50000000  0.24588100  1.0
  Zr  Zr482  1  0.50000000  0.83333333  0.24588100  1.0
  Zr  Zr483  1  0.83333333  0.16666667  0.24588100  1.0
  Zr  Zr484  1  0.83333333  0.50000000  0.24588100  1.0
  Zr  Zr485  1  0.83333333  0.83333333  0.24588100  1.0
  Zr  Zr486  1  0.16630133  0.03188317  0.01984138  1.0
  Zr  Zr487  1  0.16630133  0.36521650  0.01984138  1.0
  Zr  Zr488  1  0.16630133  0.69854983  0.01984137  1.0
  Zr  Zr489  1  0.49963467  0.03188317  0.01984138  1.0
  Zr  Zr490  1  0.49963467  0.36521650  0.01984138  1.0
  Zr  Zr491  1  0.49963467  0.69854983  0.01984137  1.0
  Zr  Zr492  1  0.83296800  0.03188317  0.01984138  1.0
  Zr  Zr493  1  0.83296800  0.36521650  0.01984138  1.0
  Zr  Zr494  1  0.83296800  0.69854983  0.01984137  1.0
  Zr  Zr495  1  0.16630133  0.19854983  0.14484138  1.0
  Zr  Zr496  1  0.16630133  0.53188317  0.14484137  1.0
  Zr  Zr497  1  0.16630133  0.86521650  0.14484137  1.0
  Zr  Zr498  1  0.49963467  0.19854983  0.14484138  1.0
  Zr  Zr499  1  0.49963467  0.53188317  0.14484137  1.0
  Zr  Zr500  1  0.49963467  0.86521650  0.14484137  1.0
  Zr  Zr501  1  0.83296800  0.19854983  0.14484138  1.0
  Zr  Zr502  1  0.83296800  0.53188317  0.14484137  1.0
  Zr  Zr503  1  0.83296800  0.86521650  0.14484137  1.0
  Ni  Ni504  1  0.26453167  0.10790483  0.20042913  1.0
  Ni  Ni505  1  0.26453167  0.44123817  0.20042913  1.0
  Ni  Ni506  1  0.26453167  0.77457150  0.20042912  1.0
  Ni  Ni507  1  0.59786500  0.10790483  0.20042913  1.0
  Ni  Ni508  1  0.59786500  0.44123817  0.20042913  1.0
  Ni  Ni509  1  0.59786500  0.77457150  0.20042912  1.0
  Ni  Ni510  1  0.93119833  0.10790483  0.20042913  1.0
  Ni  Ni511  1  0.93119833  0.44123817  0.20042913  1.0
  Ni  Ni512  1  0.93119833  0.77457150  0.20042912  1.0
  Ni  Ni513  1  0.26453167  0.27457150  0.07542913  1.0
  Ni  Ni514  1  0.26453167  0.60790483  0.07542912  1.0
  Ni  Ni515  1  0.26453167  0.94123817  0.07542913  1.0
  Ni  Ni516  1  0.59786500  0.27457150  0.07542913  1.0
  Ni  Ni517  1  0.59786500  0.60790483  0.07542912  1.0
  Ni  Ni518  1  0.59786500  0.94123817  0.07542913  1.0
  Ni  Ni519  1  0.93119833  0.27457150  0.07542912  1.0
  Ni  Ni520  1  0.93119833  0.60790483  0.07542912  1.0
  Ni  Ni521  1  0.93119833  0.94123817  0.07542913  1.0
  Ni  Ni522  1  0.03504433  0.16637200  0.02226450  1.0
  Ni  Ni523  1  0.03504433  0.49970533  0.02226450  1.0
  Ni  Ni524  1  0.03504433  0.83303867  0.02226450  1.0
  Ni  Ni525  1  0.36837767  0.16637200  0.02226450  1.0
  Ni  Ni526  1  0.36837767  0.49970533  0.02226450  1.0
  Ni  Ni527  1  0.36837767  0.83303867  0.02226450  1.0
  Ni  Ni528  1  0.70171100  0.16637200  0.02226450  1.0
  Ni  Ni529  1  0.70171100  0.49970533  0.02226450  1.0
  Ni  Ni530  1  0.70171100  0.83303867  0.02226450  1.0
  Ni  Ni531  1  0.03504433  0.33303867  0.14726450  1.0
  Ni  Ni532  1  0.03504433  0.66637200  0.14726450  1.0
  Ni  Ni533  1  0.03504433  0.99970533  0.14726450  1.0
  Ni  Ni534  1  0.36837767  0.33303867  0.14726450  1.0
  Ni  Ni535  1  0.36837767  0.66637200  0.14726450  1.0
  Ni  Ni536  1  0.36837767  0.99970533  0.14726450  1.0
  Ni  Ni537  1  0.70171100  0.33303867  0.14726450  1.0
  Ni  Ni538  1  0.70171100  0.66637200  0.14726450  1.0
  Ni  Ni539  1  0.70171100  0.99970533  0.14726450  1.0
  Ni  Ni540  1  0.13162233  0.08303867  0.20976450  1.0
  Ni  Ni541  1  0.13162233  0.41637200  0.20976450  1.0
  Ni  Ni542  1  0.13162233  0.74970533  0.20976450  1.0
  Ni  Ni543  1  0.46495567  0.08303867  0.20976450  1.0
  Ni  Ni544  1  0.46495567  0.41637200  0.20976450  1.0
  Ni  Ni545  1  0.46495567  0.74970533  0.20976450  1.0
  Ni  Ni546  1  0.79828900  0.08303867  0.20976450  1.0
  Ni  Ni547  1  0.79828900  0.41637200  0.20976450  1.0
  Ni  Ni548  1  0.79828900  0.74970533  0.20976450  1.0
  Ni  Ni549  1  0.13162233  0.24970533  0.08476450  1.0
  Ni  Ni550  1  0.13162233  0.58303867  0.08476450  1.0
  Ni  Ni551  1  0.13162233  0.91637200  0.08476450  1.0
  Ni  Ni552  1  0.46495567  0.24970533  0.08476450  1.0
  Ni  Ni553  1  0.46495567  0.58303867  0.08476450  1.0
  Ni  Ni554  1  0.46495567  0.91637200  0.08476450  1.0
  Ni  Ni555  1  0.79828900  0.24970533  0.08476450  1.0
  Ni  Ni556  1  0.79828900  0.58303867  0.08476450  1.0
  Ni  Ni557  1  0.79828900  0.91637200  0.08476450  1.0
  Ni  Ni558  1  0.23607400  0.10725983  0.07297488  1.0
  Ni  Ni559  1  0.23607400  0.44059317  0.07297487  1.0
  Ni  Ni560  1  0.23607400  0.77392650  0.07297487  1.0
  Ni  Ni561  1  0.56940733  0.10725983  0.07297488  1.0
  Ni  Ni562  1  0.56940733  0.44059317  0.07297487  1.0
  Ni  Ni563  1  0.56940733  0.77392650  0.07297487  1.0
  Ni  Ni564  1  0.90274067  0.10725983  0.07297488  1.0
  Ni  Ni565  1  0.90274067  0.44059317  0.07297487  1.0
  Ni  Ni566  1  0.90274067  0.77392650  0.07297487  1.0
  Ni  Ni567  1  0.23607400  0.27392650  0.19797488  1.0
  Ni  Ni568  1  0.23607400  0.60725983  0.19797488  1.0
  Ni  Ni569  1  0.23607400  0.94059317  0.19797488  1.0
  Ni  Ni570  1  0.56940733  0.27392650  0.19797488  1.0
  Ni  Ni571  1  0.56940733  0.60725983  0.19797488  1.0
  Ni  Ni572  1  0.56940733  0.94059317  0.19797488  1.0
  Ni  Ni573  1  0.90274067  0.27392650  0.19797488  1.0
  Ni  Ni574  1  0.90274067  0.60725983  0.19797487  1.0
  Ni  Ni575  1  0.90274067  0.94059317  0.19797488  1.0
  Ni  Ni576  1  0.06940733  0.14274017  0.10628713  1.0
  Ni  Ni577  1  0.06940733  0.47607350  0.10628712  1.0
  Ni  Ni578  1  0.06940733  0.80940683  0.10628713  1.0
  Ni  Ni579  1  0.40274067  0.14274017  0.10628713  1.0
  Ni  Ni580  1  0.40274067  0.47607350  0.10628712  1.0
  Ni  Ni581  1  0.40274067  0.80940683  0.10628713  1.0
  Ni  Ni582  1  0.73607400  0.14274017  0.10628713  1.0
  Ni  Ni583  1  0.73607400  0.47607350  0.10628712  1.0
  Ni  Ni584  1  0.73607400  0.80940683  0.10628713  1.0
  Ni  Ni585  1  0.06940733  0.30940683  0.23128712  1.0
  Ni  Ni586  1  0.06940733  0.64274017  0.23128712  1.0
  Ni  Ni587  1  0.06940733  0.97607350  0.23128712  1.0
  Ni  Ni588  1  0.40274067  0.30940683  0.23128712  1.0
  Ni  Ni589  1  0.40274067  0.64274017  0.23128712  1.0
  Ni  Ni590  1  0.40274067  0.97607350  0.23128712  1.0
  Ni  Ni591  1  0.73607400  0.30940683  0.23128712  1.0
  Ni  Ni592  1  0.73607400  0.64274017  0.23128712  1.0
  Ni  Ni593  1  0.73607400  0.97607350  0.23128712  1.0
  Ni  Ni594  1  0.16414600  0.10777700  0.02430850  1.0
  Ni  Ni595  1  0.16414600  0.44111033  0.02430850  1.0
  Ni  Ni596  1  0.16414600  0.77444367  0.02430850  1.0
  Ni  Ni597  1  0.49747933  0.10777700  0.02430850  1.0
  Ni  Ni598  1  0.49747933  0.44111033  0.02430850  1.0
  Ni  Ni599  1  0.49747933  0.77444367  0.02430850  1.0
  Ni  Ni600  1  0.83081267  0.10777700  0.02430850  1.0
  Ni  Ni601  1  0.83081267  0.44111033  0.02430850  1.0
  Ni  Ni602  1  0.83081267  0.77444367  0.02430850  1.0
  Ni  Ni603  1  0.16414600  0.27444367  0.14930850  1.0
  Ni  Ni604  1  0.16414600  0.60777700  0.14930850  1.0
  Ni  Ni605  1  0.16414600  0.94111033  0.14930850  1.0
  Ni  Ni606  1  0.49747933  0.27444367  0.14930850  1.0
  Ni  Ni607  1  0.49747933  0.60777700  0.14930850  1.0
  Ni  Ni608  1  0.49747933  0.94111033  0.14930850  1.0
  Ni  Ni609  1  0.83081267  0.27444367  0.14930850  1.0
  Ni  Ni610  1  0.83081267  0.60777700  0.14930850  1.0
  Ni  Ni611  1  0.83081267  0.94111033  0.14930850  1.0
  Ni  Ni612  1  0.03504433  0.08362800  0.08520650  1.0
  Ni  Ni613  1  0.03504433  0.41696133  0.08520650  1.0
  Ni  Ni614  1  0.03504433  0.75029467  0.08520650  1.0
  Ni  Ni615  1  0.36837767  0.08362800  0.08520650  1.0
  Ni  Ni616  1  0.36837767  0.41696133  0.08520650  1.0
  Ni  Ni617  1  0.36837767  0.75029467  0.08520650  1.0
  Ni  Ni618  1  0.70171100  0.08362800  0.08520650  1.0
  Ni  Ni619  1  0.70171100  0.41696133  0.08520650  1.0
  Ni  Ni620  1  0.70171100  0.75029467  0.08520650  1.0
  Ni  Ni621  1  0.03504433  0.25029467  0.21020650  1.0
  Ni  Ni622  1  0.03504433  0.58362800  0.21020650  1.0
  Ni  Ni623  1  0.03504433  0.91696133  0.21020650  1.0
  Ni  Ni624  1  0.36837767  0.25029467  0.21020650  1.0
  Ni  Ni625  1  0.36837767  0.58362800  0.21020650  1.0
  Ni  Ni626  1  0.36837767  0.91696133  0.21020650  1.0
  Ni  Ni627  1  0.70171100  0.25029467  0.21020650  1.0
  Ni  Ni628  1  0.70171100  0.58362800  0.21020650  1.0
  Ni  Ni629  1  0.70171100  0.91696133  0.21020650  1.0
  Ni  Ni630  1  0.26453167  0.14209517  0.10107188  1.0
  Ni  Ni631  1  0.26453167  0.47542850  0.10107188  1.0
  Ni  Ni632  1  0.26453167  0.80876183  0.10107187  1.0
  Ni  Ni633  1  0.59786500  0.14209517  0.10107188  1.0
  Ni  Ni634  1  0.59786500  0.47542850  0.10107188  1.0
  Ni  Ni635  1  0.59786500  0.80876183  0.10107187  1.0
  Ni  Ni636  1  0.93119833  0.14209517  0.10107188  1.0
  Ni  Ni637  1  0.93119833  0.47542850  0.10107188  1.0
  Ni  Ni638  1  0.93119833  0.80876183  0.10107187  1.0
  Ni  Ni639  1  0.26453167  0.30876183  0.22607188  1.0
  Ni  Ni640  1  0.26453167  0.64209517  0.22607188  1.0
  Ni  Ni641  1  0.26453167  0.97542850  0.22607187  1.0
  Ni  Ni642  1  0.59786500  0.30876183  0.22607188  1.0
  Ni  Ni643  1  0.59786500  0.64209517  0.22607188  1.0
  Ni  Ni644  1  0.59786500  0.97542850  0.22607187  1.0
  Ni  Ni645  1  0.93119833  0.30876183  0.22607188  1.0
  Ni  Ni646  1  0.93119833  0.64209517  0.22607188  1.0
  Ni  Ni647  1  0.93119833  0.97542850  0.22607187  1.0
  Ni  Ni648  1  0.20171100  0.16637200  0.09405550  1.0
  Ni  Ni649  1  0.20171100  0.49970533  0.09405550  1.0
  Ni  Ni650  1  0.20171100  0.83303867  0.09405550  1.0
  Ni  Ni651  1  0.53504433  0.16637200  0.09405550  1.0
  Ni  Ni652  1  0.53504433  0.49970533  0.09405550  1.0
  Ni  Ni653  1  0.53504433  0.83303867  0.09405550  1.0
  Ni  Ni654  1  0.86837767  0.16637200  0.09405550  1.0
  Ni  Ni655  1  0.86837767  0.49970533  0.09405550  1.0
  Ni  Ni656  1  0.86837767  0.83303867  0.09405550  1.0
  Ni  Ni657  1  0.20171100  0.33303867  0.21905550  1.0
  Ni  Ni658  1  0.20171100  0.66637200  0.21905550  1.0
  Ni  Ni659  1  0.20171100  0.99970533  0.21905550  1.0
  Ni  Ni660  1  0.53504433  0.33303867  0.21905550  1.0
  Ni  Ni661  1  0.53504433  0.66637200  0.21905550  1.0
  Ni  Ni662  1  0.53504433  0.99970533  0.21905550  1.0
  Ni  Ni663  1  0.86837767  0.33303867  0.21905550  1.0
  Ni  Ni664  1  0.86837767  0.66637200  0.21905550  1.0
  Ni  Ni665  1  0.86837767  0.99970533  0.21905550  1.0
  Ni  Ni666  1  0.00225267  0.14272333  0.05119875  1.0
  Ni  Ni667  1  0.00225267  0.47605667  0.05119875  1.0
  Ni  Ni668  1  0.00225267  0.80939000  0.05119875  1.0
  Ni  Ni669  1  0.33558600  0.14272333  0.05119875  1.0
  Ni  Ni670  1  0.33558600  0.47605667  0.05119875  1.0
  Ni  Ni671  1  0.33558600  0.80939000  0.05119875  1.0
  Ni  Ni672  1  0.66891933  0.14272333  0.05119875  1.0
  Ni  Ni673  1  0.66891933  0.47605667  0.05119875  1.0
  Ni  Ni674  1  0.66891933  0.80939000  0.05119875  1.0
  Ni  Ni675  1  0.00225267  0.30939000  0.17619875  1.0
  Ni  Ni676  1  0.00225267  0.64272333  0.17619875  1.0
  Ni  Ni677  1  0.00225267  0.97605667  0.17619875  1.0
  Ni  Ni678  1  0.33558600  0.30939000  0.17619875  1.0
  Ni  Ni679  1  0.33558600  0.64272333  0.17619875  1.0
  Ni  Ni680  1  0.33558600  0.97605667  0.17619875  1.0
  Ni  Ni681  1  0.66891933  0.30939000  0.17619875  1.0
  Ni  Ni682  1  0.66891933  0.64272333  0.17619875  1.0
  Ni  Ni683  1  0.66891933  0.97605667  0.17619875  1.0
  Ni  Ni684  1  0.16891933  0.10727667  0.12806325  1.0
  Ni  Ni685  1  0.16891933  0.44061000  0.12806325  1.0
  Ni  Ni686  1  0.16891933  0.77394333  0.12806325  1.0
  Ni  Ni687  1  0.50225267  0.10727667  0.12806325  1.0
  Ni  Ni688  1  0.50225267  0.44061000  0.12806325  1.0
  Ni  Ni689  1  0.50225267  0.77394333  0.12806325  1.0
  Ni  Ni690  1  0.83558600  0.10727667  0.12806325  1.0
  Ni  Ni691  1  0.83558600  0.44061000  0.12806325  1.0
  Ni  Ni692  1  0.83558600  0.77394333  0.12806325  1.0
  Ni  Ni693  1  0.16891933  0.27394333  0.00306325  1.0
  Ni  Ni694  1  0.16891933  0.60727667  0.00306325  1.0
  Ni  Ni695  1  0.16891933  0.94061000  0.00306325  1.0
  Ni  Ni696  1  0.50225267  0.27394333  0.00306325  1.0
  Ni  Ni697  1  0.50225267  0.60727667  0.00306325  1.0
  Ni  Ni698  1  0.50225267  0.94061000  0.00306325  1.0
  Ni  Ni699  1  0.83558600  0.27394333  0.00306325  1.0
  Ni  Ni700  1  0.83558600  0.60727667  0.00306325  1.0
  Ni  Ni701  1  0.83558600  0.94061000  0.00306325  1.0
  Ni  Ni702  1  0.06940733  0.10725983  0.20467687  1.0
  Ni  Ni703  1  0.06940733  0.44059317  0.20467688  1.0
  Ni  Ni704  1  0.06940733  0.77392650  0.20467687  1.0
  Ni  Ni705  1  0.40274067  0.10725983  0.20467688  1.0
  Ni  Ni706  1  0.40274067  0.44059317  0.20467688  1.0
  Ni  Ni707  1  0.40274067  0.77392650  0.20467687  1.0
  Ni  Ni708  1  0.73607400  0.10725983  0.20467687  1.0
  Ni  Ni709  1  0.73607400  0.44059317  0.20467688  1.0
  Ni  Ni710  1  0.73607400  0.77392650  0.20467687  1.0
  Ni  Ni711  1  0.06940733  0.27392650  0.07967688  1.0
  Ni  Ni712  1  0.06940733  0.60725983  0.07967687  1.0
  Ni  Ni713  1  0.06940733  0.94059317  0.07967687  1.0
  Ni  Ni714  1  0.40274067  0.27392650  0.07967688  1.0
  Ni  Ni715  1  0.40274067  0.60725983  0.07967687  1.0
  Ni  Ni716  1  0.40274067  0.94059317  0.07967687  1.0
  Ni  Ni717  1  0.73607400  0.27392650  0.07967688  1.0
  Ni  Ni718  1  0.73607400  0.60725983  0.07967687  1.0
  Ni  Ni719  1  0.73607400  0.94059317  0.07967687  1.0
  Ni  Ni720  1  0.13162233  0.00029467  0.02270650  1.0
  Ni  Ni721  1  0.13162233  0.33362800  0.02270650  1.0
  Ni  Ni722  1  0.13162233  0.66696133  0.02270650  1.0
  Ni  Ni723  1  0.46495567  0.00029467  0.02270650  1.0
  Ni  Ni724  1  0.46495567  0.33362800  0.02270650  1.0
  Ni  Ni725  1  0.46495567  0.66696133  0.02270650  1.0
  Ni  Ni726  1  0.79828900  0.00029467  0.02270650  1.0
  Ni  Ni727  1  0.79828900  0.33362800  0.02270650  1.0
  Ni  Ni728  1  0.79828900  0.66696133  0.02270650  1.0
  Ni  Ni729  1  0.13162233  0.16696133  0.14770650  1.0
  Ni  Ni730  1  0.13162233  0.50029467  0.14770650  1.0
  Ni  Ni731  1  0.13162233  0.83362800  0.14770650  1.0
  Ni  Ni732  1  0.46495567  0.16696133  0.14770650  1.0
  Ni  Ni733  1  0.46495567  0.50029467  0.14770650  1.0
  Ni  Ni734  1  0.46495567  0.83362800  0.14770650  1.0
  Ni  Ni735  1  0.79828900  0.16696133  0.14770650  1.0
  Ni  Ni736  1  0.79828900  0.50029467  0.14770650  1.0
  Ni  Ni737  1  0.79828900  0.83362800  0.14770650  1.0
  Ni  Ni738  1  0.26392600  0.02392650  0.01047488  1.0
  Ni  Ni739  1  0.26392600  0.35725983  0.01047488  1.0
  Ni  Ni740  1  0.26392600  0.69059317  0.01047488  1.0
  Ni  Ni741  1  0.59725933  0.02392650  0.01047488  1.0
  Ni  Ni742  1  0.59725933  0.35725983  0.01047488  1.0
  Ni  Ni743  1  0.59725933  0.69059317  0.01047488  1.0
  Ni  Ni744  1  0.93059267  0.02392650  0.01047488  1.0
  Ni  Ni745  1  0.93059267  0.35725983  0.01047488  1.0
  Ni  Ni746  1  0.93059267  0.69059317  0.01047488  1.0
  Ni  Ni747  1  0.26392600  0.19059317  0.13547488  1.0
  Ni  Ni748  1  0.26392600  0.52392650  0.13547487  1.0
  Ni  Ni749  1  0.26392600  0.85725983  0.13547487  1.0
  Ni  Ni750  1  0.59725933  0.19059317  0.13547488  1.0
  Ni  Ni751  1  0.59725933  0.52392650  0.13547487  1.0
  Ni  Ni752  1  0.59725933  0.85725983  0.13547487  1.0
  Ni  Ni753  1  0.93059267  0.19059317  0.13547487  1.0
  Ni  Ni754  1  0.93059267  0.52392650  0.13547487  1.0
  Ni  Ni755  1  0.93059267  0.85725983  0.13547487  1.0
  Ni  Ni756  1  0.09786500  0.10790483  0.07819013  1.0
  Ni  Ni757  1  0.09786500  0.44123817  0.07819012  1.0
  Ni  Ni758  1  0.09786500  0.77457150  0.07819012  1.0
  Ni  Ni759  1  0.43119833  0.10790483  0.07819013  1.0
  Ni  Ni760  1  0.43119833  0.44123817  0.07819012  1.0
  Ni  Ni761  1  0.43119833  0.77457150  0.07819012  1.0
  Ni  Ni762  1  0.76453167  0.10790483  0.07819013  1.0
  Ni  Ni763  1  0.76453167  0.44123817  0.07819012  1.0
  Ni  Ni764  1  0.76453167  0.77457150  0.07819012  1.0
  Ni  Ni765  1  0.09786500  0.27457150  0.20319013  1.0
  Ni  Ni766  1  0.09786500  0.60790483  0.20319013  1.0
  Ni  Ni767  1  0.09786500  0.94123817  0.20319012  1.0
  Ni  Ni768  1  0.43119833  0.27457150  0.20319013  1.0
  Ni  Ni769  1  0.43119833  0.60790483  0.20319013  1.0
  Ni  Ni770  1  0.43119833  0.94123817  0.20319012  1.0
  Ni  Ni771  1  0.76453167  0.27457150  0.20319013  1.0
  Ni  Ni772  1  0.76453167  0.60790483  0.20319012  1.0
  Ni  Ni773  1  0.76453167  0.94123817  0.20319012  1.0
  Ni  Ni774  1  0.00252067  0.05888967  0.11264300  1.0
  Ni  Ni775  1  0.00252067  0.39222300  0.11264300  1.0
  Ni  Ni776  1  0.00252067  0.72555633  0.11264300  1.0
  Ni  Ni777  1  0.33585400  0.05888967  0.11264300  1.0
  Ni  Ni778  1  0.33585400  0.39222300  0.11264300  1.0
  Ni  Ni779  1  0.33585400  0.72555633  0.11264300  1.0
  Ni  Ni780  1  0.66918733  0.05888967  0.11264300  1.0
  Ni  Ni781  1  0.66918733  0.39222300  0.11264300  1.0
  Ni  Ni782  1  0.66918733  0.72555633  0.11264300  1.0
  Ni  Ni783  1  0.00252067  0.22555633  0.23764300  1.0
  Ni  Ni784  1  0.00252067  0.55888967  0.23764300  1.0
  Ni  Ni785  1  0.00252067  0.89222300  0.23764300  1.0
  Ni  Ni786  1  0.33585400  0.22555633  0.23764300  1.0
  Ni  Ni787  1  0.33585400  0.55888967  0.23764300  1.0
  Ni  Ni788  1  0.33585400  0.89222300  0.23764300  1.0
  Ni  Ni789  1  0.66918733  0.22555633  0.23764300  1.0
  Ni  Ni790  1  0.66918733  0.55888967  0.23764300  1.0
  Ni  Ni791  1  0.66918733  0.89222300  0.23764300  1.0
  Ni  Ni792  1  0.16414600  0.14222300  0.17514300  1.0
  Ni  Ni793  1  0.16414600  0.47555633  0.17514300  1.0
  Ni  Ni794  1  0.16414600  0.80888967  0.17514300  1.0
  Ni  Ni795  1  0.49747933  0.14222300  0.17514300  1.0
  Ni  Ni796  1  0.49747933  0.47555633  0.17514300  1.0
  Ni  Ni797  1  0.49747933  0.80888967  0.17514300  1.0
  Ni  Ni798  1  0.83081267  0.14222300  0.17514300  1.0
  Ni  Ni799  1  0.83081267  0.47555633  0.17514300  1.0
  Ni  Ni800  1  0.83081267  0.80888967  0.17514300  1.0
  Ni  Ni801  1  0.16414600  0.30888967  0.05014300  1.0
  Ni  Ni802  1  0.16414600  0.64222300  0.05014300  1.0
  Ni  Ni803  1  0.16414600  0.97555633  0.05014300  1.0
  Ni  Ni804  1  0.49747933  0.30888967  0.05014300  1.0
  Ni  Ni805  1  0.49747933  0.64222300  0.05014300  1.0
  Ni  Ni806  1  0.49747933  0.97555633  0.05014300  1.0
  Ni  Ni807  1  0.83081267  0.30888967  0.05014300  1.0
  Ni  Ni808  1  0.83081267  0.64222300  0.05014300  1.0
  Ni  Ni809  1  0.83081267  0.97555633  0.05014300  1.0
  Ni  Ni810  1  0.33108067  0.05939000  0.21714825  1.0
  Ni  Ni811  1  0.33108067  0.39272333  0.21714825  1.0
  Ni  Ni812  1  0.33108067  0.72605667  0.21714825  1.0
  Ni  Ni813  1  0.66441400  0.05939000  0.21714825  1.0
  Ni  Ni814  1  0.66441400  0.39272333  0.21714825  1.0
  Ni  Ni815  1  0.66441400  0.72605667  0.21714825  1.0
  Ni  Ni816  1  0.99774733  0.05939000  0.21714825  1.0
  Ni  Ni817  1  0.99774733  0.39272333  0.21714825  1.0
  Ni  Ni818  1  0.99774733  0.72605667  0.21714825  1.0
  Ni  Ni819  1  0.33108067  0.22605667  0.09214825  1.0
  Ni  Ni820  1  0.33108067  0.55939000  0.09214825  1.0
  Ni  Ni821  1  0.33108067  0.89272333  0.09214825  1.0
  Ni  Ni822  1  0.66441400  0.22605667  0.09214825  1.0
  Ni  Ni823  1  0.66441400  0.55939000  0.09214825  1.0
  Ni  Ni824  1  0.66441400  0.89272333  0.09214825  1.0
  Ni  Ni825  1  0.99774733  0.22605667  0.09214825  1.0
  Ni  Ni826  1  0.99774733  0.55939000  0.09214825  1.0
  Ni  Ni827  1  0.99774733  0.89272333  0.09214825  1.0
  Ni  Ni828  1  0.26392600  0.05940683  0.16208512  1.0
  Ni  Ni829  1  0.26392600  0.39274017  0.16208512  1.0
  Ni  Ni830  1  0.26392600  0.72607350  0.16208512  1.0
  Ni  Ni831  1  0.59725933  0.05940683  0.16208512  1.0
  Ni  Ni832  1  0.59725933  0.39274017  0.16208512  1.0
  Ni  Ni833  1  0.59725933  0.72607350  0.16208512  1.0
  Ni  Ni834  1  0.93059267  0.05940683  0.16208512  1.0
  Ni  Ni835  1  0.93059267  0.39274017  0.16208512  1.0
  Ni  Ni836  1  0.93059267  0.72607350  0.16208512  1.0
  Ni  Ni837  1  0.26392600  0.22607350  0.03708513  1.0
  Ni  Ni838  1  0.26392600  0.55940683  0.03708512  1.0
  Ni  Ni839  1  0.26392600  0.89274017  0.03708513  1.0
  Ni  Ni840  1  0.59725933  0.22607350  0.03708513  1.0
  Ni  Ni841  1  0.59725933  0.55940683  0.03708512  1.0
  Ni  Ni842  1  0.59725933  0.89274017  0.03708513  1.0
  Ni  Ni843  1  0.93059267  0.22607350  0.03708513  1.0
  Ni  Ni844  1  0.93059267  0.55940683  0.03708512  1.0
  Ni  Ni845  1  0.93059267  0.89274017  0.03708513  1.0
  Ni  Ni846  1  0.06880167  0.02457150  0.01569013  1.0
  Ni  Ni847  1  0.06880167  0.35790483  0.01569012  1.0
  Ni  Ni848  1  0.06880167  0.69123817  0.01569012  1.0
  Ni  Ni849  1  0.40213500  0.02457150  0.01569013  1.0
  Ni  Ni850  1  0.40213500  0.35790483  0.01569012  1.0
  Ni  Ni851  1  0.40213500  0.69123817  0.01569012  1.0
  Ni  Ni852  1  0.73546833  0.02457150  0.01569013  1.0
  Ni  Ni853  1  0.73546833  0.35790483  0.01569012  1.0
  Ni  Ni854  1  0.73546833  0.69123817  0.01569012  1.0
  Ni  Ni855  1  0.06880167  0.19123817  0.14069013  1.0
  Ni  Ni856  1  0.06880167  0.52457150  0.14069012  1.0
  Ni  Ni857  1  0.06880167  0.85790483  0.14069012  1.0
  Ni  Ni858  1  0.40213500  0.19123817  0.14069013  1.0
  Ni  Ni859  1  0.40213500  0.52457150  0.14069012  1.0
  Ni  Ni860  1  0.40213500  0.85790483  0.14069012  1.0
  Ni  Ni861  1  0.73546833  0.19123817  0.14069013  1.0
  Ni  Ni862  1  0.73546833  0.52457150  0.14069012  1.0
  Ni  Ni863  1  0.73546833  0.85790483  0.14069012  1.0
  Ni  Ni864  1  0.23607400  0.14274017  0.22458513  1.0
  Ni  Ni865  1  0.23607400  0.47607350  0.22458512  1.0
  Ni  Ni866  1  0.23607400  0.80940683  0.22458513  1.0
  Ni  Ni867  1  0.56940733  0.14274017  0.22458513  1.0
  Ni  Ni868  1  0.56940733  0.47607350  0.22458512  1.0
  Ni  Ni869  1  0.56940733  0.80940683  0.22458513  1.0
  Ni  Ni870  1  0.90274067  0.14274017  0.22458513  1.0
  Ni  Ni871  1  0.90274067  0.47607350  0.22458512  1.0
  Ni  Ni872  1  0.90274067  0.80940683  0.22458513  1.0
  Ni  Ni873  1  0.23607400  0.30940683  0.09958512  1.0
  Ni  Ni874  1  0.23607400  0.64274017  0.09958512  1.0
  Ni  Ni875  1  0.23607400  0.97607350  0.09958512  1.0
  Ni  Ni876  1  0.56940733  0.30940683  0.09958512  1.0
  Ni  Ni877  1  0.56940733  0.64274017  0.09958512  1.0
  Ni  Ni878  1  0.56940733  0.97607350  0.09958512  1.0
  Ni  Ni879  1  0.90274067  0.30940683  0.09958512  1.0
  Ni  Ni880  1  0.90274067  0.64274017  0.09958512  1.0
  Ni  Ni881  1  0.90274067  0.97607350  0.09958512  1.0
  Ni  Ni882  1  0.33081267  0.10777700  0.00411900  1.0
  Ni  Ni883  1  0.33081267  0.44111033  0.00411900  1.0
  Ni  Ni884  1  0.33081267  0.77444367  0.00411900  1.0
  Ni  Ni885  1  0.66414600  0.10777700  0.00411900  1.0
  Ni  Ni886  1  0.66414600  0.44111033  0.00411900  1.0
  Ni  Ni887  1  0.66414600  0.77444367  0.00411900  1.0
  Ni  Ni888  1  0.99747933  0.10777700  0.00411900  1.0
  Ni  Ni889  1  0.99747933  0.44111033  0.00411900  1.0
  Ni  Ni890  1  0.99747933  0.77444367  0.00411900  1.0
  Ni  Ni891  1  0.33081267  0.27444367  0.12911900  1.0
  Ni  Ni892  1  0.33081267  0.60777700  0.12911900  1.0
  Ni  Ni893  1  0.33081267  0.94111033  0.12911900  1.0
  Ni  Ni894  1  0.66414600  0.27444367  0.12911900  1.0
  Ni  Ni895  1  0.66414600  0.60777700  0.12911900  1.0
  Ni  Ni896  1  0.66414600  0.94111033  0.12911900  1.0
  Ni  Ni897  1  0.99747933  0.27444367  0.12911900  1.0
  Ni  Ni898  1  0.99747933  0.60777700  0.12911900  1.0
  Ni  Ni899  1  0.99747933  0.94111033  0.12911900  1.0
  Ni  Ni900  1  0.09786500  0.14209517  0.22883288  1.0
  Ni  Ni901  1  0.09786500  0.47542850  0.22883288  1.0
  Ni  Ni902  1  0.09786500  0.80876183  0.22883287  1.0
  Ni  Ni903  1  0.43119833  0.14209517  0.22883288  1.0
  Ni  Ni904  1  0.43119833  0.47542850  0.22883288  1.0
  Ni  Ni905  1  0.43119833  0.80876183  0.22883287  1.0
  Ni  Ni906  1  0.76453167  0.14209517  0.22883287  1.0
  Ni  Ni907  1  0.76453167  0.47542850  0.22883287  1.0
  Ni  Ni908  1  0.76453167  0.80876183  0.22883287  1.0
  Ni  Ni909  1  0.09786500  0.30876183  0.10383287  1.0
  Ni  Ni910  1  0.09786500  0.64209517  0.10383287  1.0
  Ni  Ni911  1  0.09786500  0.97542850  0.10383287  1.0
  Ni  Ni912  1  0.43119833  0.30876183  0.10383287  1.0
  Ni  Ni913  1  0.43119833  0.64209517  0.10383287  1.0
  Ni  Ni914  1  0.43119833  0.97542850  0.10383287  1.0
  Ni  Ni915  1  0.76453167  0.30876183  0.10383287  1.0
  Ni  Ni916  1  0.76453167  0.64209517  0.10383287  1.0
  Ni  Ni917  1  0.76453167  0.97542850  0.10383287  1.0
  Ni  Ni918  1  0.29828900  0.00029467  0.09449750  1.0
  Ni  Ni919  1  0.29828900  0.33362800  0.09449750  1.0
  Ni  Ni920  1  0.29828900  0.66696133  0.09449750  1.0
  Ni  Ni921  1  0.63162233  0.00029467  0.09449750  1.0
  Ni  Ni922  1  0.63162233  0.33362800  0.09449750  1.0
  Ni  Ni923  1  0.63162233  0.66696133  0.09449750  1.0
  Ni  Ni924  1  0.96495567  0.00029467  0.09449750  1.0
  Ni  Ni925  1  0.96495567  0.33362800  0.09449750  1.0
  Ni  Ni926  1  0.96495567  0.66696133  0.09449750  1.0
  Ni  Ni927  1  0.29828900  0.16696133  0.21949750  1.0
  Ni  Ni928  1  0.29828900  0.50029467  0.21949750  1.0
  Ni  Ni929  1  0.29828900  0.83362800  0.21949750  1.0
  Ni  Ni930  1  0.63162233  0.16696133  0.21949750  1.0
  Ni  Ni931  1  0.63162233  0.50029467  0.21949750  1.0
  Ni  Ni932  1  0.63162233  0.83362800  0.21949750  1.0
  Ni  Ni933  1  0.96495567  0.16696133  0.21949750  1.0
  Ni  Ni934  1  0.96495567  0.50029467  0.21949750  1.0
  Ni  Ni935  1  0.96495567  0.83362800  0.21949750  1.0
  Ni  Ni936  1  0.16441400  0.02394333  0.08711375  1.0
  Ni  Ni937  1  0.16441400  0.35727667  0.08711375  1.0
  Ni  Ni938  1  0.16441400  0.69061000  0.08711375  1.0
  Ni  Ni939  1  0.49774733  0.02394333  0.08711375  1.0
  Ni  Ni940  1  0.49774733  0.35727667  0.08711375  1.0
  Ni  Ni941  1  0.49774733  0.69061000  0.08711375  1.0
  Ni  Ni942  1  0.83108067  0.02394333  0.08711375  1.0
  Ni  Ni943  1  0.83108067  0.35727667  0.08711375  1.0
  Ni  Ni944  1  0.83108067  0.69061000  0.08711375  1.0
  Ni  Ni945  1  0.16441400  0.19061000  0.21211375  1.0
  Ni  Ni946  1  0.16441400  0.52394333  0.21211375  1.0
  Ni  Ni947  1  0.16441400  0.85727667  0.21211375  1.0
  Ni  Ni948  1  0.49774733  0.19061000  0.21211375  1.0
  Ni  Ni949  1  0.49774733  0.52394333  0.21211375  1.0
  Ni  Ni950  1  0.49774733  0.85727667  0.21211375  1.0
  Ni  Ni951  1  0.83108067  0.19061000  0.21211375  1.0
  Ni  Ni952  1  0.83108067  0.52394333  0.21211375  1.0
  Ni  Ni953  1  0.83108067  0.85727667  0.21211375  1.0
  Ni  Ni954  1  0.16891933  0.14272333  0.02964825  1.0
  Ni  Ni955  1  0.16891933  0.47605667  0.02964825  1.0
  Ni  Ni956  1  0.16891933  0.80939000  0.02964825  1.0
  Ni  Ni957  1  0.50225267  0.14272333  0.02964825  1.0
  Ni  Ni958  1  0.50225267  0.47605667  0.02964825  1.0
  Ni  Ni959  1  0.50225267  0.80939000  0.02964825  1.0
  Ni  Ni960  1  0.83558600  0.14272333  0.02964825  1.0
  Ni  Ni961  1  0.83558600  0.47605667  0.02964825  1.0
  Ni  Ni962  1  0.83558600  0.80939000  0.02964825  1.0
  Ni  Ni963  1  0.16891933  0.30939000  0.15464825  1.0
  Ni  Ni964  1  0.16891933  0.64272333  0.15464825  1.0
  Ni  Ni965  1  0.16891933  0.97605667  0.15464825  1.0
  Ni  Ni966  1  0.50225267  0.30939000  0.15464825  1.0
  Ni  Ni967  1  0.50225267  0.64272333  0.15464825  1.0
  Ni  Ni968  1  0.50225267  0.97605667  0.15464825  1.0
  Ni  Ni969  1  0.83558600  0.30939000  0.15464825  1.0
  Ni  Ni970  1  0.83558600  0.64272333  0.15464825  1.0
  Ni  Ni971  1  0.83558600  0.97605667  0.15464825  1.0
  Ni  Ni972  1  0.06880167  0.05876183  0.16633287  1.0
  Ni  Ni973  1  0.06880167  0.39209517  0.16633287  1.0
  Ni  Ni974  1  0.06880167  0.72542850  0.16633287  1.0
  Ni  Ni975  1  0.40213500  0.05876183  0.16633287  1.0
  Ni  Ni976  1  0.40213500  0.39209517  0.16633287  1.0
  Ni  Ni977  1  0.40213500  0.72542850  0.16633287  1.0
  Ni  Ni978  1  0.73546833  0.05876183  0.16633287  1.0
  Ni  Ni979  1  0.73546833  0.39209517  0.16633287  1.0
  Ni  Ni980  1  0.73546833  0.72542850  0.16633287  1.0
  Ni  Ni981  1  0.06880167  0.22542850  0.04133287  1.0
  Ni  Ni982  1  0.06880167  0.55876183  0.04133287  1.0
  Ni  Ni983  1  0.06880167  0.89209517  0.04133287  1.0
  Ni  Ni984  1  0.40213500  0.22542850  0.04133287  1.0
  Ni  Ni985  1  0.40213500  0.55876183  0.04133287  1.0
  Ni  Ni986  1  0.40213500  0.89209517  0.04133287  1.0
  Ni  Ni987  1  0.73546833  0.22542850  0.04133287  1.0
  Ni  Ni988  1  0.73546833  0.55876183  0.04133287  1.0
  Ni  Ni989  1  0.73546833  0.89209517  0.04133287  1.0
  Ni  Ni990  1  0.00225267  0.10727667  0.14961375  1.0
  Ni  Ni991  1  0.00225267  0.44061000  0.14961375  1.0
  Ni  Ni992  1  0.00225267  0.77394333  0.14961375  1.0
  Ni  Ni993  1  0.33558600  0.10727667  0.14961375  1.0
  Ni  Ni994  1  0.33558600  0.44061000  0.14961375  1.0
  Ni  Ni995  1  0.33558600  0.77394333  0.14961375  1.0
  Ni  Ni996  1  0.66891933  0.10727667  0.14961375  1.0
  Ni  Ni997  1  0.66891933  0.44061000  0.14961375  1.0
  Ni  Ni998  1  0.66891933  0.77394333  0.14961375  1.0
  Ni  Ni999  1  0.00225267  0.27394333  0.02461375  1.0
  Ni  Ni1000  1  0.00225267  0.60727667  0.02461375  1.0
  Ni  Ni1001  1  0.00225267  0.94061000  0.02461375  1.0
  Ni  Ni1002  1  0.33558600  0.27394333  0.02461375  1.0
  Ni  Ni1003  1  0.33558600  0.60727667  0.02461375  1.0
  Ni  Ni1004  1  0.33558600  0.94061000  0.02461375  1.0
  Ni  Ni1005  1  0.66891933  0.27394333  0.02461375  1.0
  Ni  Ni1006  1  0.66891933  0.60727667  0.02461375  1.0
  Ni  Ni1007  1  0.66891933  0.94061000  0.02461375  1.0
  Ni  Ni1008  1  0.16441400  0.05939000  0.23869875  1.0
  Ni  Ni1009  1  0.16441400  0.39272333  0.23869875  1.0
  Ni  Ni1010  1  0.16441400  0.72605667  0.23869875  1.0
  Ni  Ni1011  1  0.49774733  0.05939000  0.23869875  1.0
  Ni  Ni1012  1  0.49774733  0.39272333  0.23869875  1.0
  Ni  Ni1013  1  0.49774733  0.72605667  0.23869875  1.0
  Ni  Ni1014  1  0.83108067  0.05939000  0.23869875  1.0
  Ni  Ni1015  1  0.83108067  0.39272333  0.23869875  1.0
  Ni  Ni1016  1  0.83108067  0.72605667  0.23869875  1.0
  Ni  Ni1017  1  0.16441400  0.22605667  0.11369875  1.0
  Ni  Ni1018  1  0.16441400  0.55939000  0.11369875  1.0
  Ni  Ni1019  1  0.16441400  0.89272333  0.11369875  1.0
  Ni  Ni1020  1  0.49774733  0.22605667  0.11369875  1.0
  Ni  Ni1021  1  0.49774733  0.55939000  0.11369875  1.0
  Ni  Ni1022  1  0.49774733  0.89272333  0.11369875  1.0
  Ni  Ni1023  1  0.83108067  0.22605667  0.11369875  1.0
  Ni  Ni1024  1  0.83108067  0.55939000  0.11369875  1.0
  Ni  Ni1025  1  0.83108067  0.89272333  0.11369875  1.0
  Ni  Ni1026  1  0.33108067  0.02394333  0.06556325  1.0
  Ni  Ni1027  1  0.33108067  0.35727667  0.06556325  1.0
  Ni  Ni1028  1  0.33108067  0.69061000  0.06556325  1.0
  Ni  Ni1029  1  0.66441400  0.02394333  0.06556325  1.0
  Ni  Ni1030  1  0.66441400  0.35727667  0.06556325  1.0
  Ni  Ni1031  1  0.66441400  0.69061000  0.06556325  1.0
  Ni  Ni1032  1  0.99774733  0.02394333  0.06556325  1.0
  Ni  Ni1033  1  0.99774733  0.35727667  0.06556325  1.0
  Ni  Ni1034  1  0.99774733  0.69061000  0.06556325  1.0
  Ni  Ni1035  1  0.33108067  0.19061000  0.19056325  1.0
  Ni  Ni1036  1  0.33108067  0.52394333  0.19056325  1.0
  Ni  Ni1037  1  0.33108067  0.85727667  0.19056325  1.0
  Ni  Ni1038  1  0.66441400  0.19061000  0.19056325  1.0
  Ni  Ni1039  1  0.66441400  0.52394333  0.19056325  1.0
  Ni  Ni1040  1  0.66441400  0.85727667  0.19056325  1.0
  Ni  Ni1041  1  0.99774733  0.19061000  0.19056325  1.0
  Ni  Ni1042  1  0.99774733  0.52394333  0.19056325  1.0
  Ni  Ni1043  1  0.99774733  0.85727667  0.19056325  1.0
  Ni  Ni1044  1  0.16918733  0.02444367  0.19161900  1.0
  Ni  Ni1045  1  0.16918733  0.35777700  0.19161900  1.0
  Ni  Ni1046  1  0.16918733  0.69111033  0.19161900  1.0
  Ni  Ni1047  1  0.50252067  0.02444367  0.19161900  1.0
  Ni  Ni1048  1  0.50252067  0.35777700  0.19161900  1.0
  Ni  Ni1049  1  0.50252067  0.69111033  0.19161900  1.0
  Ni  Ni1050  1  0.83585400  0.02444367  0.19161900  1.0
  Ni  Ni1051  1  0.83585400  0.35777700  0.19161900  1.0
  Ni  Ni1052  1  0.83585400  0.69111033  0.19161900  1.0
  Ni  Ni1053  1  0.16918733  0.19111033  0.06661900  1.0
  Ni  Ni1054  1  0.16918733  0.52444367  0.06661900  1.0
  Ni  Ni1055  1  0.16918733  0.85777700  0.06661900  1.0
  Ni  Ni1056  1  0.50252067  0.19111033  0.06661900  1.0
  Ni  Ni1057  1  0.50252067  0.52444367  0.06661900  1.0
  Ni  Ni1058  1  0.50252067  0.85777700  0.06661900  1.0
  Ni  Ni1059  1  0.83585400  0.19111033  0.06661900  1.0
  Ni  Ni1060  1  0.83585400  0.52444367  0.06661900  1.0
  Ni  Ni1061  1  0.83585400  0.85777700  0.06661900  1.0
  Ni  Ni1062  1  0.23546833  0.02457150  0.13792913  1.0
  Ni  Ni1063  1  0.23546833  0.35790483  0.13792912  1.0
  Ni  Ni1064  1  0.23546833  0.69123817  0.13792912  1.0
  Ni  Ni1065  1  0.56880167  0.02457150  0.13792913  1.0
  Ni  Ni1066  1  0.56880167  0.35790483  0.13792912  1.0
  Ni  Ni1067  1  0.56880167  0.69123817  0.13792912  1.0
  Ni  Ni1068  1  0.90213500  0.02457150  0.13792913  1.0
  Ni  Ni1069  1  0.90213500  0.35790483  0.13792912  1.0
  Ni  Ni1070  1  0.90213500  0.69123817  0.13792912  1.0
  Ni  Ni1071  1  0.23546833  0.19123817  0.01292913  1.0
  Ni  Ni1072  1  0.23546833  0.52457150  0.01292912  1.0
  Ni  Ni1073  1  0.23546833  0.85790483  0.01292912  1.0
  Ni  Ni1074  1  0.56880167  0.19123817  0.01292913  1.0
  Ni  Ni1075  1  0.56880167  0.52457150  0.01292912  1.0
  Ni  Ni1076  1  0.56880167  0.85790483  0.01292912  1.0
  Ni  Ni1077  1  0.90213500  0.19123817  0.01292913  1.0
  Ni  Ni1078  1  0.90213500  0.52457150  0.01292912  1.0
  Ni  Ni1079  1  0.90213500  0.85790483  0.01292912  1.0
  Ni  Ni1080  1  0.16918733  0.05888967  0.09245350  1.0
  Ni  Ni1081  1  0.16918733  0.39222300  0.09245350  1.0
  Ni  Ni1082  1  0.16918733  0.72555633  0.09245350  1.0
  Ni  Ni1083  1  0.50252067  0.05888967  0.09245350  1.0
  Ni  Ni1084  1  0.50252067  0.39222300  0.09245350  1.0
  Ni  Ni1085  1  0.50252067  0.72555633  0.09245350  1.0
  Ni  Ni1086  1  0.83585400  0.05888967  0.09245350  1.0
  Ni  Ni1087  1  0.83585400  0.39222300  0.09245350  1.0
  Ni  Ni1088  1  0.83585400  0.72555633  0.09245350  1.0
  Ni  Ni1089  1  0.16918733  0.22555633  0.21745350  1.0
  Ni  Ni1090  1  0.16918733  0.55888967  0.21745350  1.0
  Ni  Ni1091  1  0.16918733  0.89222300  0.21745350  1.0
  Ni  Ni1092  1  0.50252067  0.22555633  0.21745350  1.0
  Ni  Ni1093  1  0.50252067  0.55888967  0.21745350  1.0
  Ni  Ni1094  1  0.50252067  0.89222300  0.21745350  1.0
  Ni  Ni1095  1  0.83585400  0.22555633  0.21745350  1.0
  Ni  Ni1096  1  0.83585400  0.55888967  0.21745350  1.0
  Ni  Ni1097  1  0.83585400  0.89222300  0.21745350  1.0
  Ni  Ni1098  1  0.23546833  0.05876183  0.03857188  1.0
  Ni  Ni1099  1  0.23546833  0.39209517  0.03857187  1.0
  Ni  Ni1100  1  0.23546833  0.72542850  0.03857187  1.0
  Ni  Ni1101  1  0.56880167  0.05876183  0.03857188  1.0
  Ni  Ni1102  1  0.56880167  0.39209517  0.03857187  1.0
  Ni  Ni1103  1  0.56880167  0.72542850  0.03857187  1.0
  Ni  Ni1104  1  0.90213500  0.05876183  0.03857188  1.0
  Ni  Ni1105  1  0.90213500  0.39209517  0.03857187  1.0
  Ni  Ni1106  1  0.90213500  0.72542850  0.03857187  1.0
  Ni  Ni1107  1  0.23546833  0.22542850  0.16357188  1.0
  Ni  Ni1108  1  0.23546833  0.55876183  0.16357187  1.0
  Ni  Ni1109  1  0.23546833  0.89209517  0.16357187  1.0
  Ni  Ni1110  1  0.56880167  0.22542850  0.16357188  1.0
  Ni  Ni1111  1  0.56880167  0.55876183  0.16357187  1.0
  Ni  Ni1112  1  0.56880167  0.89209517  0.16357187  1.0
  Ni  Ni1113  1  0.90213500  0.22542850  0.16357188  1.0
  Ni  Ni1114  1  0.90213500  0.55876183  0.16357188  1.0
  Ni  Ni1115  1  0.90213500  0.89209517  0.16357187  1.0
  Ni  Ni1116  1  0.09725933  0.05940683  0.04378713  1.0
  Ni  Ni1117  1  0.09725933  0.39274017  0.04378713  1.0
  Ni  Ni1118  1  0.09725933  0.72607350  0.04378713  1.0
  Ni  Ni1119  1  0.43059267  0.05940683  0.04378713  1.0
  Ni  Ni1120  1  0.43059267  0.39274017  0.04378713  1.0
  Ni  Ni1121  1  0.43059267  0.72607350  0.04378713  1.0
  Ni  Ni1122  1  0.76392600  0.05940683  0.04378713  1.0
  Ni  Ni1123  1  0.76392600  0.39274017  0.04378713  1.0
  Ni  Ni1124  1  0.76392600  0.72607350  0.04378713  1.0
  Ni  Ni1125  1  0.09725933  0.22607350  0.16878713  1.0
  Ni  Ni1126  1  0.09725933  0.55940683  0.16878712  1.0
  Ni  Ni1127  1  0.09725933  0.89274017  0.16878713  1.0
  Ni  Ni1128  1  0.43059267  0.22607350  0.16878713  1.0
  Ni  Ni1129  1  0.43059267  0.55940683  0.16878712  1.0
  Ni  Ni1130  1  0.43059267  0.89274017  0.16878713  1.0
  Ni  Ni1131  1  0.76392600  0.22607350  0.16878713  1.0
  Ni  Ni1132  1  0.76392600  0.55940683  0.16878712  1.0
  Ni  Ni1133  1  0.76392600  0.89274017  0.16878713  1.0
  Ni  Ni1134  1  0.20171100  0.08362800  0.15699750  1.0
  Ni  Ni1135  1  0.20171100  0.41696133  0.15699750  1.0
  Ni  Ni1136  1  0.20171100  0.75029467  0.15699750  1.0
  Ni  Ni1137  1  0.53504433  0.08362800  0.15699750  1.0
  Ni  Ni1138  1  0.53504433  0.41696133  0.15699750  1.0
  Ni  Ni1139  1  0.53504433  0.75029467  0.15699750  1.0
  Ni  Ni1140  1  0.86837767  0.08362800  0.15699750  1.0
  Ni  Ni1141  1  0.86837767  0.41696133  0.15699750  1.0
  Ni  Ni1142  1  0.86837767  0.75029467  0.15699750  1.0
  Ni  Ni1143  1  0.20171100  0.25029467  0.03199750  1.0
  Ni  Ni1144  1  0.20171100  0.58362800  0.03199750  1.0
  Ni  Ni1145  1  0.20171100  0.91696133  0.03199750  1.0
  Ni  Ni1146  1  0.53504433  0.25029467  0.03199750  1.0
  Ni  Ni1147  1  0.53504433  0.58362800  0.03199750  1.0
  Ni  Ni1148  1  0.53504433  0.91696133  0.03199750  1.0
  Ni  Ni1149  1  0.86837767  0.25029467  0.03199750  1.0
  Ni  Ni1150  1  0.86837767  0.58362800  0.03199750  1.0
  Ni  Ni1151  1  0.86837767  0.91696133  0.03199750  1.0
  Ni  Ni1152  1  0.29828900  0.08303867  0.03155550  1.0
  Ni  Ni1153  1  0.29828900  0.41637200  0.03155550  1.0
  Ni  Ni1154  1  0.29828900  0.74970533  0.03155550  1.0
  Ni  Ni1155  1  0.63162233  0.08303867  0.03155550  1.0
  Ni  Ni1156  1  0.63162233  0.41637200  0.03155550  1.0
  Ni  Ni1157  1  0.63162233  0.74970533  0.03155550  1.0
  Ni  Ni1158  1  0.96495567  0.08303867  0.03155550  1.0
  Ni  Ni1159  1  0.96495567  0.41637200  0.03155550  1.0
  Ni  Ni1160  1  0.96495567  0.74970533  0.03155550  1.0
  Ni  Ni1161  1  0.29828900  0.24970533  0.15655550  1.0
  Ni  Ni1162  1  0.29828900  0.58303867  0.15655550  1.0
  Ni  Ni1163  1  0.29828900  0.91637200  0.15655550  1.0
  Ni  Ni1164  1  0.63162233  0.24970533  0.15655550  1.0
  Ni  Ni1165  1  0.63162233  0.58303867  0.15655550  1.0
  Ni  Ni1166  1  0.63162233  0.91637200  0.15655550  1.0
  Ni  Ni1167  1  0.96495567  0.24970533  0.15655550  1.0
  Ni  Ni1168  1  0.96495567  0.58303867  0.15655550  1.0
  Ni  Ni1169  1  0.96495567  0.91637200  0.15655550  1.0
  Ni  Ni1170  1  0.33081267  0.14222300  0.15495350  1.0
  Ni  Ni1171  1  0.33081267  0.47555633  0.15495350  1.0
  Ni  Ni1172  1  0.33081267  0.80888967  0.15495350  1.0
  Ni  Ni1173  1  0.66414600  0.14222300  0.15495350  1.0
  Ni  Ni1174  1  0.66414600  0.47555633  0.15495350  1.0
  Ni  Ni1175  1  0.66414600  0.80888967  0.15495350  1.0
  Ni  Ni1176  1  0.99747933  0.14222300  0.15495350  1.0
  Ni  Ni1177  1  0.99747933  0.47555633  0.15495350  1.0
  Ni  Ni1178  1  0.99747933  0.80888967  0.15495350  1.0
  Ni  Ni1179  1  0.33081267  0.30888967  0.02995350  1.0
  Ni  Ni1180  1  0.33081267  0.64222300  0.02995350  1.0
  Ni  Ni1181  1  0.33081267  0.97555633  0.02995350  1.0
  Ni  Ni1182  1  0.66414600  0.30888967  0.02995350  1.0
  Ni  Ni1183  1  0.66414600  0.64222300  0.02995350  1.0
  Ni  Ni1184  1  0.66414600  0.97555633  0.02995350  1.0
  Ni  Ni1185  1  0.99747933  0.30888967  0.02995350  1.0
  Ni  Ni1186  1  0.99747933  0.64222300  0.02995350  1.0
  Ni  Ni1187  1  0.99747933  0.97555633  0.02995350  1.0
  Ni  Ni1188  1  0.00252067  0.02444367  0.21180850  1.0
  Ni  Ni1189  1  0.00252067  0.35777700  0.21180850  1.0
  Ni  Ni1190  1  0.00252067  0.69111033  0.21180850  1.0
  Ni  Ni1191  1  0.33585400  0.02444367  0.21180850  1.0
  Ni  Ni1192  1  0.33585400  0.35777700  0.21180850  1.0
  Ni  Ni1193  1  0.33585400  0.69111033  0.21180850  1.0
  Ni  Ni1194  1  0.66918733  0.02444367  0.21180850  1.0
  Ni  Ni1195  1  0.66918733  0.35777700  0.21180850  1.0
  Ni  Ni1196  1  0.66918733  0.69111033  0.21180850  1.0
  Ni  Ni1197  1  0.00252067  0.19111033  0.08680850  1.0
  Ni  Ni1198  1  0.00252067  0.52444367  0.08680850  1.0
  Ni  Ni1199  1  0.00252067  0.85777700  0.08680850  1.0
  Ni  Ni1200  1  0.33585400  0.19111033  0.08680850  1.0
  Ni  Ni1201  1  0.33585400  0.52444367  0.08680850  1.0
  Ni  Ni1202  1  0.33585400  0.85777700  0.08680850  1.0
  Ni  Ni1203  1  0.66918733  0.19111033  0.08680850  1.0
  Ni  Ni1204  1  0.66918733  0.52444367  0.08680850  1.0
  Ni  Ni1205  1  0.66918733  0.85777700  0.08680850  1.0
  Ni  Ni1206  1  0.09725933  0.02392650  0.14217687  1.0
  Ni  Ni1207  1  0.09725933  0.35725983  0.14217688  1.0
  Ni  Ni1208  1  0.09725933  0.69059317  0.14217688  1.0
  Ni  Ni1209  1  0.43059267  0.02392650  0.14217687  1.0
  Ni  Ni1210  1  0.43059267  0.35725983  0.14217688  1.0
  Ni  Ni1211  1  0.43059267  0.69059317  0.14217688  1.0
  Ni  Ni1212  1  0.76392600  0.02392650  0.14217687  1.0
  Ni  Ni1213  1  0.76392600  0.35725983  0.14217687  1.0
  Ni  Ni1214  1  0.76392600  0.69059317  0.14217688  1.0
  Ni  Ni1215  1  0.09725933  0.19059317  0.01717688  1.0
  Ni  Ni1216  1  0.09725933  0.52392650  0.01717687  1.0
  Ni  Ni1217  1  0.09725933  0.85725983  0.01717687  1.0
  Ni  Ni1218  1  0.43059267  0.19059317  0.01717688  1.0
  Ni  Ni1219  1  0.43059267  0.52392650  0.01717687  1.0
  Ni  Ni1220  1  0.43059267  0.85725983  0.01717687  1.0
  Ni  Ni1221  1  0.76392600  0.19059317  0.01717688  1.0
  Ni  Ni1222  1  0.76392600  0.52392650  0.01717687  1.0
  Ni  Ni1223  1  0.76392600  0.85725983  0.01717687  1.0
  Zr  Zr1224  1  0.27130900  0.08282650  0.35439237  1.0
  Zr  Zr1225  1  0.27130900  0.41615983  0.35439237  1.0
  Zr  Zr1226  1  0.27130900  0.74949317  0.35439237  1.0
  Zr  Zr1227  1  0.60464233  0.08282650  0.35439237  1.0
  Zr  Zr1228  1  0.60464233  0.41615983  0.35439237  1.0
  Zr  Zr1229  1  0.60464233  0.74949317  0.35439237  1.0
  Zr  Zr1230  1  0.93797567  0.08282650  0.35439237  1.0
  Zr  Zr1231  1  0.93797567  0.41615983  0.35439237  1.0
  Zr  Zr1232  1  0.93797567  0.74949317  0.35439237  1.0
  Zr  Zr1233  1  0.27130900  0.24949317  0.47939238  1.0
  Zr  Zr1234  1  0.27130900  0.58282650  0.47939238  1.0
  Zr  Zr1235  1  0.27130900  0.91615983  0.47939238  1.0
  Zr  Zr1236  1  0.60464233  0.24949317  0.47939238  1.0
  Zr  Zr1237  1  0.60464233  0.58282650  0.47939238  1.0
  Zr  Zr1238  1  0.60464233  0.91615983  0.47939238  1.0
  Zr  Zr1239  1  0.93797567  0.24949317  0.47939238  1.0
  Zr  Zr1240  1  0.93797567  0.58282650  0.47939238  1.0
  Zr  Zr1241  1  0.93797567  0.91615983  0.47939238  1.0
  Zr  Zr1242  1  0.16703200  0.11521650  0.45724538  1.0
  Zr  Zr1243  1  0.16703200  0.44854983  0.45724537  1.0
  Zr  Zr1244  1  0.16703200  0.78188317  0.45724537  1.0
  Zr  Zr1245  1  0.50036533  0.11521650  0.45724538  1.0
  Zr  Zr1246  1  0.50036533  0.44854983  0.45724537  1.0
  Zr  Zr1247  1  0.50036533  0.78188317  0.45724537  1.0
  Zr  Zr1248  1  0.83369867  0.11521650  0.45724538  1.0
  Zr  Zr1249  1  0.83369867  0.44854983  0.45724537  1.0
  Zr  Zr1250  1  0.83369867  0.78188317  0.45724537  1.0
  Zr  Zr1251  1  0.16703200  0.28188317  0.33224537  1.0
  Zr  Zr1252  1  0.16703200  0.61521650  0.33224537  1.0
  Zr  Zr1253  1  0.16703200  0.94854983  0.33224537  1.0
  Zr  Zr1254  1  0.50036533  0.28188317  0.33224537  1.0
  Zr  Zr1255  1  0.50036533  0.61521650  0.33224537  1.0
  Zr  Zr1256  1  0.50036533  0.94854983  0.33224537  1.0
  Zr  Zr1257  1  0.83369867  0.28188317  0.33224537  1.0
  Zr  Zr1258  1  0.83369867  0.61521650  0.33224537  1.0
  Zr  Zr1259  1  0.83369867  0.94854983  0.33224537  1.0
  Zr  Zr1260  1  0.16666667  0.08333333  0.30838100  1.0
  Zr  Zr1261  1  0.16666667  0.41666667  0.30838100  1.0
  Zr  Zr1262  1  0.16666667  0.75000000  0.30838100  1.0
  Zr  Zr1263  1  0.50000000  0.08333333  0.30838100  1.0
  Zr  Zr1264  1  0.50000000  0.41666667  0.30838100  1.0
  Zr  Zr1265  1  0.50000000  0.75000000  0.30838100  1.0
  Zr  Zr1266  1  0.83333333  0.08333333  0.30838100  1.0
  Zr  Zr1267  1  0.83333333  0.41666667  0.30838100  1.0
  Zr  Zr1268  1  0.83333333  0.75000000  0.30838100  1.0
  Zr  Zr1269  1  0.16666667  0.25000000  0.43338100  1.0
  Zr  Zr1270  1  0.16666667  0.58333333  0.43338100  1.0
  Zr  Zr1271  1  0.16666667  0.91666667  0.43338100  1.0
  Zr  Zr1272  1  0.50000000  0.25000000  0.43338100  1.0
  Zr  Zr1273  1  0.50000000  0.58333333  0.43338100  1.0
  Zr  Zr1274  1  0.50000000  0.91666667  0.43338100  1.0
  Zr  Zr1275  1  0.83333333  0.25000000  0.43338100  1.0
  Zr  Zr1276  1  0.83333333  0.58333333  0.43338100  1.0
  Zr  Zr1277  1  0.83333333  0.91666667  0.43338100  1.0
  Zr  Zr1278  1  0.10464233  0.08282650  0.38660938  1.0
  Zr  Zr1279  1  0.10464233  0.41615983  0.38660938  1.0
  Zr  Zr1280  1  0.10464233  0.74949317  0.38660938  1.0
  Zr  Zr1281  1  0.43797567  0.08282650  0.38660938  1.0
  Zr  Zr1282  1  0.43797567  0.41615983  0.38660938  1.0
  Zr  Zr1283  1  0.43797567  0.74949317  0.38660938  1.0
  Zr  Zr1284  1  0.77130900  0.08282650  0.38660938  1.0
  Zr  Zr1285  1  0.77130900  0.41615983  0.38660938  1.0
  Zr  Zr1286  1  0.77130900  0.74949317  0.38660938  1.0
  Zr  Zr1287  1  0.10464233  0.24949317  0.26160938  1.0
  Zr  Zr1288  1  0.10464233  0.58282650  0.26160938  1.0
  Zr  Zr1289  1  0.10464233  0.91615983  0.26160938  1.0
  Zr  Zr1290  1  0.43797567  0.24949317  0.26160938  1.0
  Zr  Zr1291  1  0.43797567  0.58282650  0.26160938  1.0
  Zr  Zr1292  1  0.43797567  0.91615983  0.26160938  1.0
  Zr  Zr1293  1  0.77130900  0.24949317  0.26160938  1.0
  Zr  Zr1294  1  0.77130900  0.58282650  0.26160938  1.0
  Zr  Zr1295  1  0.77130900  0.91615983  0.26160938  1.0
  Zr  Zr1296  1  0.00036533  0.13478350  0.47201663  1.0
  Zr  Zr1297  1  0.00036533  0.46811683  0.47201662  1.0
  Zr  Zr1298  1  0.00036533  0.80145017  0.47201663  1.0
  Zr  Zr1299  1  0.33369867  0.13478350  0.47201662  1.0
  Zr  Zr1300  1  0.33369867  0.46811683  0.47201662  1.0
  Zr  Zr1301  1  0.33369867  0.80145017  0.47201663  1.0
  Zr  Zr1302  1  0.66703200  0.13478350  0.47201663  1.0
  Zr  Zr1303  1  0.66703200  0.46811683  0.47201662  1.0
  Zr  Zr1304  1  0.66703200  0.80145017  0.47201663  1.0
  Zr  Zr1305  1  0.00036533  0.30145017  0.34701663  1.0
  Zr  Zr1306  1  0.00036533  0.63478350  0.34701662  1.0
  Zr  Zr1307  1  0.00036533  0.96811683  0.34701663  1.0
  Zr  Zr1308  1  0.33369867  0.30145017  0.34701662  1.0
  Zr  Zr1309  1  0.33369867  0.63478350  0.34701662  1.0
  Zr  Zr1310  1  0.33369867  0.96811683  0.34701663  1.0
  Zr  Zr1311  1  0.66703200  0.30145017  0.34701662  1.0
  Zr  Zr1312  1  0.66703200  0.63478350  0.34701662  1.0
  Zr  Zr1313  1  0.66703200  0.96811683  0.34701663  1.0
  Zr  Zr1314  1  0.22869100  0.16615983  0.41689237  1.0
  Zr  Zr1315  1  0.22869100  0.49949317  0.41689237  1.0
  Zr  Zr1316  1  0.22869100  0.83282650  0.41689238  1.0
  Zr  Zr1317  1  0.56202433  0.16615983  0.41689237  1.0
  Zr  Zr1318  1  0.56202433  0.49949317  0.41689237  1.0
  Zr  Zr1319  1  0.56202433  0.83282650  0.41689238  1.0
  Zr  Zr1320  1  0.89535767  0.16615983  0.41689237  1.0
  Zr  Zr1321  1  0.89535767  0.49949317  0.41689237  1.0
  Zr  Zr1322  1  0.89535767  0.83282650  0.41689238  1.0
  Zr  Zr1323  1  0.22869100  0.33282650  0.29189238  1.0
  Zr  Zr1324  1  0.22869100  0.66615983  0.29189237  1.0
  Zr  Zr1325  1  0.22869100  0.99949317  0.29189238  1.0
  Zr  Zr1326  1  0.56202433  0.33282650  0.29189238  1.0
  Zr  Zr1327  1  0.56202433  0.66615983  0.29189237  1.0
  Zr  Zr1328  1  0.56202433  0.99949317  0.29189238  1.0
  Zr  Zr1329  1  0.89535767  0.33282650  0.29189238  1.0
  Zr  Zr1330  1  0.89535767  0.66615983  0.29189237  1.0
  Zr  Zr1331  1  0.89535767  0.99949317  0.29189238  1.0
  Zr  Zr1332  1  0.08295600  0.12438100  0.40231500  1.0
  Zr  Zr1333  1  0.08295600  0.45771433  0.40231500  1.0
  Zr  Zr1334  1  0.08295600  0.79104767  0.40231500  1.0
  Zr  Zr1335  1  0.41628933  0.12438100  0.40231500  1.0
  Zr  Zr1336  1  0.41628933  0.45771433  0.40231500  1.0
  Zr  Zr1337  1  0.41628933  0.79104767  0.40231500  1.0
  Zr  Zr1338  1  0.74962267  0.12438100  0.40231500  1.0
  Zr  Zr1339  1  0.74962267  0.45771433  0.40231500  1.0
  Zr  Zr1340  1  0.74962267  0.79104767  0.40231500  1.0
  Zr  Zr1341  1  0.08295600  0.29104767  0.27731500  1.0
  Zr  Zr1342  1  0.08295600  0.62438100  0.27731500  1.0
  Zr  Zr1343  1  0.08295600  0.95771433  0.27731500  1.0
  Zr  Zr1344  1  0.41628933  0.29104767  0.27731500  1.0
  Zr  Zr1345  1  0.41628933  0.62438100  0.27731500  1.0
  Zr  Zr1346  1  0.41628933  0.95771433  0.27731500  1.0
  Zr  Zr1347  1  0.74962267  0.29104767  0.27731500  1.0
  Zr  Zr1348  1  0.74962267  0.62438100  0.27731500  1.0
  Zr  Zr1349  1  0.74962267  0.95771433  0.27731500  1.0
  Zr  Zr1350  1  0.33296800  0.03188317  0.39474538  1.0
  Zr  Zr1351  1  0.33296800  0.36521650  0.39474538  1.0
  Zr  Zr1352  1  0.33296800  0.69854983  0.39474537  1.0
  Zr  Zr1353  1  0.66630133  0.03188317  0.39474538  1.0
  Zr  Zr1354  1  0.66630133  0.36521650  0.39474537  1.0
  Zr  Zr1355  1  0.66630133  0.69854983  0.39474537  1.0
  Zr  Zr1356  1  0.99963467  0.03188317  0.39474538  1.0
  Zr  Zr1357  1  0.99963467  0.36521650  0.39474538  1.0
  Zr  Zr1358  1  0.99963467  0.69854983  0.39474537  1.0
  Zr  Zr1359  1  0.33296800  0.19854983  0.26974538  1.0
  Zr  Zr1360  1  0.33296800  0.53188317  0.26974538  1.0
  Zr  Zr1361  1  0.33296800  0.86521650  0.26974538  1.0
  Zr  Zr1362  1  0.66630133  0.19854983  0.26974538  1.0
  Zr  Zr1363  1  0.66630133  0.53188317  0.26974537  1.0
  Zr  Zr1364  1  0.66630133  0.86521650  0.26974538  1.0
  Zr  Zr1365  1  0.99963467  0.19854983  0.26974538  1.0
  Zr  Zr1366  1  0.99963467  0.53188317  0.26974538  1.0
  Zr  Zr1367  1  0.99963467  0.86521650  0.26974538  1.0
  Zr  Zr1368  1  0.08371067  0.04228567  0.46574350  1.0
  Zr  Zr1369  1  0.08371067  0.37561900  0.46574350  1.0
  Zr  Zr1370  1  0.08371067  0.70895233  0.46574350  1.0
  Zr  Zr1371  1  0.41704400  0.04228567  0.46574350  1.0
  Zr  Zr1372  1  0.41704400  0.37561900  0.46574350  1.0
  Zr  Zr1373  1  0.41704400  0.70895233  0.46574350  1.0
  Zr  Zr1374  1  0.75037733  0.04228567  0.46574350  1.0
  Zr  Zr1375  1  0.75037733  0.37561900  0.46574350  1.0
  Zr  Zr1376  1  0.75037733  0.70895233  0.46574350  1.0
  Zr  Zr1377  1  0.08371067  0.20895233  0.34074350  1.0
  Zr  Zr1378  1  0.08371067  0.54228567  0.34074350  1.0
  Zr  Zr1379  1  0.08371067  0.87561900  0.34074350  1.0
  Zr  Zr1380  1  0.41704400  0.20895233  0.34074350  1.0
  Zr  Zr1381  1  0.41704400  0.54228567  0.34074350  1.0
  Zr  Zr1382  1  0.41704400  0.87561900  0.34074350  1.0
  Zr  Zr1383  1  0.75037733  0.20895233  0.34074350  1.0
  Zr  Zr1384  1  0.75037733  0.54228567  0.34074350  1.0
  Zr  Zr1385  1  0.75037733  0.87561900  0.34074350  1.0
  Zr  Zr1386  1  0.10464233  0.00050683  0.44986963  1.0
  Zr  Zr1387  1  0.10464233  0.33384017  0.44986963  1.0
  Zr  Zr1388  1  0.10464233  0.66717350  0.44986963  1.0
  Zr  Zr1389  1  0.43797567  0.00050683  0.44986963  1.0
  Zr  Zr1390  1  0.43797567  0.33384017  0.44986963  1.0
  Zr  Zr1391  1  0.43797567  0.66717350  0.44986963  1.0
  Zr  Zr1392  1  0.77130900  0.00050683  0.44986963  1.0
  Zr  Zr1393  1  0.77130900  0.33384017  0.44986963  1.0
  Zr  Zr1394  1  0.77130900  0.66717350  0.44986963  1.0
  Zr  Zr1395  1  0.10464233  0.16717350  0.32486962  1.0
  Zr  Zr1396  1  0.10464233  0.50050683  0.32486962  1.0
  Zr  Zr1397  1  0.10464233  0.83384017  0.32486962  1.0
  Zr  Zr1398  1  0.43797567  0.16717350  0.32486962  1.0
  Zr  Zr1399  1  0.43797567  0.50050683  0.32486962  1.0
  Zr  Zr1400  1  0.43797567  0.83384017  0.32486962  1.0
  Zr  Zr1401  1  0.77130900  0.16717350  0.32486962  1.0
  Zr  Zr1402  1  0.77130900  0.50050683  0.32486962  1.0
  Zr  Zr1403  1  0.77130900  0.83384017  0.32486962  1.0
  Zr  Zr1404  1  0.22869100  0.08384017  0.48015263  1.0
  Zr  Zr1405  1  0.22869100  0.41717350  0.48015263  1.0
  Zr  Zr1406  1  0.22869100  0.75050683  0.48015263  1.0
  Zr  Zr1407  1  0.56202433  0.08384017  0.48015263  1.0
  Zr  Zr1408  1  0.56202433  0.41717350  0.48015263  1.0
  Zr  Zr1409  1  0.56202433  0.75050683  0.48015263  1.0
  Zr  Zr1410  1  0.89535767  0.08384017  0.48015263  1.0
  Zr  Zr1411  1  0.89535767  0.41717350  0.48015262  1.0
  Zr  Zr1412  1  0.89535767  0.75050683  0.48015263  1.0
  Zr  Zr1413  1  0.22869100  0.25050683  0.35515262  1.0
  Zr  Zr1414  1  0.22869100  0.58384017  0.35515262  1.0
  Zr  Zr1415  1  0.22869100  0.91717350  0.35515263  1.0
  Zr  Zr1416  1  0.56202433  0.25050683  0.35515262  1.0
  Zr  Zr1417  1  0.56202433  0.58384017  0.35515262  1.0
  Zr  Zr1418  1  0.56202433  0.91717350  0.35515263  1.0
  Zr  Zr1419  1  0.89535767  0.25050683  0.35515262  1.0
  Zr  Zr1420  1  0.89535767  0.58384017  0.35515262  1.0
  Zr  Zr1421  1  0.89535767  0.91717350  0.35515263  1.0
  Zr  Zr1422  1  0.16630133  0.05145017  0.40951662  1.0
  Zr  Zr1423  1  0.16630133  0.38478350  0.40951663  1.0
  Zr  Zr1424  1  0.16630133  0.71811683  0.40951662  1.0
  Zr  Zr1425  1  0.49963467  0.05145017  0.40951662  1.0
  Zr  Zr1426  1  0.49963467  0.38478350  0.40951663  1.0
  Zr  Zr1427  1  0.49963467  0.71811683  0.40951662  1.0
  Zr  Zr1428  1  0.83296800  0.05145017  0.40951663  1.0
  Zr  Zr1429  1  0.83296800  0.38478350  0.40951662  1.0
  Zr  Zr1430  1  0.83296800  0.71811683  0.40951662  1.0
  Zr  Zr1431  1  0.16630133  0.21811683  0.28451662  1.0
  Zr  Zr1432  1  0.16630133  0.55145017  0.28451662  1.0
  Zr  Zr1433  1  0.16630133  0.88478350  0.28451662  1.0
  Zr  Zr1434  1  0.49963467  0.21811683  0.28451662  1.0
  Zr  Zr1435  1  0.49963467  0.55145017  0.28451662  1.0
  Zr  Zr1436  1  0.49963467  0.88478350  0.28451662  1.0
  Zr  Zr1437  1  0.83296800  0.21811683  0.28451662  1.0
  Zr  Zr1438  1  0.83296800  0.55145017  0.28451662  1.0
  Zr  Zr1439  1  0.83296800  0.88478350  0.28451662  1.0
  Zr  Zr1440  1  0.27130900  0.00050683  0.41765262  1.0
  Zr  Zr1441  1  0.27130900  0.33384017  0.41765263  1.0
  Zr  Zr1442  1  0.27130900  0.66717350  0.41765263  1.0
  Zr  Zr1443  1  0.60464233  0.00050683  0.41765262  1.0
  Zr  Zr1444  1  0.60464233  0.33384017  0.41765262  1.0
  Zr  Zr1445  1  0.60464233  0.66717350  0.41765263  1.0
  Zr  Zr1446  1  0.93797567  0.00050683  0.41765263  1.0
  Zr  Zr1447  1  0.93797567  0.33384017  0.41765263  1.0
  Zr  Zr1448  1  0.93797567  0.66717350  0.41765263  1.0
  Zr  Zr1449  1  0.27130900  0.16717350  0.29265263  1.0
  Zr  Zr1450  1  0.27130900  0.50050683  0.29265262  1.0
  Zr  Zr1451  1  0.27130900  0.83384017  0.29265263  1.0
  Zr  Zr1452  1  0.60464233  0.16717350  0.29265263  1.0
  Zr  Zr1453  1  0.60464233  0.50050683  0.29265262  1.0
  Zr  Zr1454  1  0.60464233  0.83384017  0.29265263  1.0
  Zr  Zr1455  1  0.93797567  0.16717350  0.29265262  1.0
  Zr  Zr1456  1  0.93797567  0.50050683  0.29265262  1.0
  Zr  Zr1457  1  0.93797567  0.83384017  0.29265263  1.0
  Zr  Zr1458  1  0.06202433  0.08384017  0.26236963  1.0
  Zr  Zr1459  1  0.06202433  0.41717350  0.26236962  1.0
  Zr  Zr1460  1  0.06202433  0.75050683  0.26236963  1.0
  Zr  Zr1461  1  0.39535767  0.08384017  0.26236963  1.0
  Zr  Zr1462  1  0.39535767  0.41717350  0.26236962  1.0
  Zr  Zr1463  1  0.39535767  0.75050683  0.26236963  1.0
  Zr  Zr1464  1  0.72869100  0.08384017  0.26236963  1.0
  Zr  Zr1465  1  0.72869100  0.41717350  0.26236962  1.0
  Zr  Zr1466  1  0.72869100  0.75050683  0.26236963  1.0
  Zr  Zr1467  1  0.06202433  0.25050683  0.38736963  1.0
  Zr  Zr1468  1  0.06202433  0.58384017  0.38736962  1.0
  Zr  Zr1469  1  0.06202433  0.91717350  0.38736963  1.0
  Zr  Zr1470  1  0.39535767  0.25050683  0.38736963  1.0
  Zr  Zr1471  1  0.39535767  0.58384017  0.38736962  1.0
  Zr  Zr1472  1  0.39535767  0.91717350  0.38736963  1.0
  Zr  Zr1473  1  0.72869100  0.25050683  0.38736963  1.0
  Zr  Zr1474  1  0.72869100  0.58384017  0.38736962  1.0
  Zr  Zr1475  1  0.72869100  0.91717350  0.38736963  1.0
  Zr  Zr1476  1  0.16703200  0.13478350  0.34692063  1.0
  Zr  Zr1477  1  0.16703200  0.46811683  0.34692062  1.0
  Zr  Zr1478  1  0.16703200  0.80145017  0.34692062  1.0
  Zr  Zr1479  1  0.50036533  0.13478350  0.34692062  1.0
  Zr  Zr1480  1  0.50036533  0.46811683  0.34692062  1.0
  Zr  Zr1481  1  0.50036533  0.80145017  0.34692062  1.0
  Zr  Zr1482  1  0.83369867  0.13478350  0.34692063  1.0
  Zr  Zr1483  1  0.83369867  0.46811683  0.34692062  1.0
  Zr  Zr1484  1  0.83369867  0.80145017  0.34692062  1.0
  Zr  Zr1485  1  0.16703200  0.30145017  0.47192063  1.0
  Zr  Zr1486  1  0.16703200  0.63478350  0.47192063  1.0
  Zr  Zr1487  1  0.16703200  0.96811683  0.47192063  1.0
  Zr  Zr1488  1  0.50036533  0.30145017  0.47192062  1.0
  Zr  Zr1489  1  0.50036533  0.63478350  0.47192063  1.0
  Zr  Zr1490  1  0.50036533  0.96811683  0.47192063  1.0
  Zr  Zr1491  1  0.83369867  0.30145017  0.47192063  1.0
  Zr  Zr1492  1  0.83369867  0.63478350  0.47192062  1.0
  Zr  Zr1493  1  0.83369867  0.96811683  0.47192063  1.0
  Zr  Zr1494  1  0.06202433  0.16615983  0.44910938  1.0
  Zr  Zr1495  1  0.06202433  0.49949317  0.44910938  1.0
  Zr  Zr1496  1  0.06202433  0.83282650  0.44910938  1.0
  Zr  Zr1497  1  0.39535767  0.16615983  0.44910938  1.0
  Zr  Zr1498  1  0.39535767  0.49949317  0.44910938  1.0
  Zr  Zr1499  1  0.39535767  0.83282650  0.44910938  1.0
  Zr  Zr1500  1  0.72869100  0.16615983  0.44910938  1.0
  Zr  Zr1501  1  0.72869100  0.49949317  0.44910938  1.0
  Zr  Zr1502  1  0.72869100  0.83282650  0.44910938  1.0
  Zr  Zr1503  1  0.06202433  0.33282650  0.32410938  1.0
  Zr  Zr1504  1  0.06202433  0.66615983  0.32410938  1.0
  Zr  Zr1505  1  0.06202433  0.99949317  0.32410938  1.0
  Zr  Zr1506  1  0.39535767  0.33282650  0.32410938  1.0
  Zr  Zr1507  1  0.39535767  0.66615983  0.32410938  1.0
  Zr  Zr1508  1  0.39535767  0.99949317  0.32410938  1.0
  Zr  Zr1509  1  0.72869100  0.33282650  0.32410938  1.0
  Zr  Zr1510  1  0.72869100  0.66615983  0.32410938  1.0
  Zr  Zr1511  1  0.72869100  0.99949317  0.32410938  1.0
  Zr  Zr1512  1  0.00000000  0.00000000  0.49588100  1.0
  Zr  Zr1513  1  0.00000000  0.33333333  0.49588100  1.0
  Zr  Zr1514  1  0.00000000  0.66666667  0.49588100  1.0
  Zr  Zr1515  1  0.33333333  0.00000000  0.49588100  1.0
  Zr  Zr1516  1  0.33333333  0.33333333  0.49588100  1.0
  Zr  Zr1517  1  0.33333333  0.66666667  0.49588100  1.0
  Zr  Zr1518  1  0.66666667  0.00000000  0.49588100  1.0
  Zr  Zr1519  1  0.66666667  0.33333333  0.49588100  1.0
  Zr  Zr1520  1  0.66666667  0.66666667  0.49588100  1.0
  Zr  Zr1521  1  0.00000000  0.16666667  0.37088100  1.0
  Zr  Zr1522  1  0.00000000  0.50000000  0.37088100  1.0
  Zr  Zr1523  1  0.00000000  0.83333333  0.37088100  1.0
  Zr  Zr1524  1  0.33333333  0.16666667  0.37088100  1.0
  Zr  Zr1525  1  0.33333333  0.50000000  0.37088100  1.0
  Zr  Zr1526  1  0.33333333  0.83333333  0.37088100  1.0
  Zr  Zr1527  1  0.66666667  0.16666667  0.37088100  1.0
  Zr  Zr1528  1  0.66666667  0.50000000  0.37088100  1.0
  Zr  Zr1529  1  0.66666667  0.83333333  0.37088100  1.0
  Zr  Zr1530  1  0.24962267  0.12438100  0.40101850  1.0
  Zr  Zr1531  1  0.24962267  0.45771433  0.40101850  1.0
  Zr  Zr1532  1  0.24962267  0.79104767  0.40101850  1.0
  Zr  Zr1533  1  0.58295600  0.12438100  0.40101850  1.0
  Zr  Zr1534  1  0.58295600  0.45771433  0.40101850  1.0
  Zr  Zr1535  1  0.58295600  0.79104767  0.40101850  1.0
  Zr  Zr1536  1  0.91628933  0.12438100  0.40101850  1.0
  Zr  Zr1537  1  0.91628933  0.45771433  0.40101850  1.0
  Zr  Zr1538  1  0.91628933  0.79104767  0.40101850  1.0
  Zr  Zr1539  1  0.24962267  0.29104767  0.27601850  1.0
  Zr  Zr1540  1  0.24962267  0.62438100  0.27601850  1.0
  Zr  Zr1541  1  0.24962267  0.95771433  0.27601850  1.0
  Zr  Zr1542  1  0.58295600  0.29104767  0.27601850  1.0
  Zr  Zr1543  1  0.58295600  0.62438100  0.27601850  1.0
  Zr  Zr1544  1  0.58295600  0.95771433  0.27601850  1.0
  Zr  Zr1545  1  0.91628933  0.29104767  0.27601850  1.0
  Zr  Zr1546  1  0.91628933  0.62438100  0.27601850  1.0
  Zr  Zr1547  1  0.91628933  0.95771433  0.27601850  1.0
  Zr  Zr1548  1  0.25037733  0.04104767  0.33851850  1.0
  Zr  Zr1549  1  0.25037733  0.37438100  0.33851850  1.0
  Zr  Zr1550  1  0.25037733  0.70771433  0.33851850  1.0
  Zr  Zr1551  1  0.58371067  0.04104767  0.33851850  1.0
  Zr  Zr1552  1  0.58371067  0.37438100  0.33851850  1.0
  Zr  Zr1553  1  0.58371067  0.70771433  0.33851850  1.0
  Zr  Zr1554  1  0.91704400  0.04104767  0.33851850  1.0
  Zr  Zr1555  1  0.91704400  0.37438100  0.33851850  1.0
  Zr  Zr1556  1  0.91704400  0.70771433  0.33851850  1.0
  Zr  Zr1557  1  0.25037733  0.20771433  0.46351850  1.0
  Zr  Zr1558  1  0.25037733  0.54104767  0.46351850  1.0
  Zr  Zr1559  1  0.25037733  0.87438100  0.46351850  1.0
  Zr  Zr1560  1  0.58371067  0.20771433  0.46351850  1.0
  Zr  Zr1561  1  0.58371067  0.54104767  0.46351850  1.0
  Zr  Zr1562  1  0.58371067  0.87438100  0.46351850  1.0
  Zr  Zr1563  1  0.91704400  0.20771433  0.46351850  1.0
  Zr  Zr1564  1  0.91704400  0.54104767  0.46351850  1.0
  Zr  Zr1565  1  0.91704400  0.87438100  0.46351850  1.0
  Zr  Zr1566  1  0.08295600  0.12561900  0.27824350  1.0
  Zr  Zr1567  1  0.08295600  0.45895233  0.27824350  1.0
  Zr  Zr1568  1  0.08295600  0.79228567  0.27824350  1.0
  Zr  Zr1569  1  0.41628933  0.12561900  0.27824350  1.0
  Zr  Zr1570  1  0.41628933  0.45895233  0.27824350  1.0
  Zr  Zr1571  1  0.41628933  0.79228567  0.27824350  1.0
  Zr  Zr1572  1  0.74962267  0.12561900  0.27824350  1.0
  Zr  Zr1573  1  0.74962267  0.45895233  0.27824350  1.0
  Zr  Zr1574  1  0.74962267  0.79228567  0.27824350  1.0
  Zr  Zr1575  1  0.08295600  0.29228567  0.40324350  1.0
  Zr  Zr1576  1  0.08295600  0.62561900  0.40324350  1.0
  Zr  Zr1577  1  0.08295600  0.95895233  0.40324350  1.0
  Zr  Zr1578  1  0.41628933  0.29228567  0.40324350  1.0
  Zr  Zr1579  1  0.41628933  0.62561900  0.40324350  1.0
  Zr  Zr1580  1  0.41628933  0.95895233  0.40324350  1.0
  Zr  Zr1581  1  0.74962267  0.29228567  0.40324350  1.0
  Zr  Zr1582  1  0.74962267  0.62561900  0.40324350  1.0
  Zr  Zr1583  1  0.74962267  0.95895233  0.40324350  1.0
  Zr  Zr1584  1  0.33296800  0.05145017  0.28442062  1.0
  Zr  Zr1585  1  0.33296800  0.38478350  0.28442062  1.0
  Zr  Zr1586  1  0.33296800  0.71811683  0.28442062  1.0
  Zr  Zr1587  1  0.66630133  0.05145017  0.28442062  1.0
  Zr  Zr1588  1  0.66630133  0.38478350  0.28442062  1.0
  Zr  Zr1589  1  0.66630133  0.71811683  0.28442062  1.0
  Zr  Zr1590  1  0.99963467  0.05145017  0.28442063  1.0
  Zr  Zr1591  1  0.99963467  0.38478350  0.28442062  1.0
  Zr  Zr1592  1  0.99963467  0.71811683  0.28442062  1.0
  Zr  Zr1593  1  0.33296800  0.21811683  0.40942062  1.0
  Zr  Zr1594  1  0.33296800  0.55145017  0.40942062  1.0
  Zr  Zr1595  1  0.33296800  0.88478350  0.40942063  1.0
  Zr  Zr1596  1  0.66630133  0.21811683  0.40942062  1.0
  Zr  Zr1597  1  0.66630133  0.55145017  0.40942062  1.0
  Zr  Zr1598  1  0.66630133  0.88478350  0.40942063  1.0
  Zr  Zr1599  1  0.99963467  0.21811683  0.40942062  1.0
  Zr  Zr1600  1  0.99963467  0.55145017  0.40942062  1.0
  Zr  Zr1601  1  0.99963467  0.88478350  0.40942063  1.0
  Zr  Zr1602  1  0.00000000  0.08333333  0.43338100  1.0
  Zr  Zr1603  1  0.00000000  0.41666667  0.43338100  1.0
  Zr  Zr1604  1  0.00000000  0.75000000  0.43338100  1.0
  Zr  Zr1605  1  0.33333333  0.08333333  0.43338100  1.0
  Zr  Zr1606  1  0.33333333  0.41666667  0.43338100  1.0
  Zr  Zr1607  1  0.33333333  0.75000000  0.43338100  1.0
  Zr  Zr1608  1  0.66666667  0.08333333  0.43338100  1.0
  Zr  Zr1609  1  0.66666667  0.41666667  0.43338100  1.0
  Zr  Zr1610  1  0.66666667  0.75000000  0.43338100  1.0
  Zr  Zr1611  1  0.00000000  0.25000000  0.30838100  1.0
  Zr  Zr1612  1  0.00000000  0.58333333  0.30838100  1.0
  Zr  Zr1613  1  0.00000000  0.91666667  0.30838100  1.0
  Zr  Zr1614  1  0.33333333  0.25000000  0.30838100  1.0
  Zr  Zr1615  1  0.33333333  0.58333333  0.30838100  1.0
  Zr  Zr1616  1  0.33333333  0.91666667  0.30838100  1.0
  Zr  Zr1617  1  0.66666667  0.25000000  0.30838100  1.0
  Zr  Zr1618  1  0.66666667  0.58333333  0.30838100  1.0
  Zr  Zr1619  1  0.66666667  0.91666667  0.30838100  1.0
  Zr  Zr1620  1  0.24962267  0.12561900  0.27694700  1.0
  Zr  Zr1621  1  0.24962267  0.45895233  0.27694700  1.0
  Zr  Zr1622  1  0.24962267  0.79228567  0.27694700  1.0
  Zr  Zr1623  1  0.58295600  0.12561900  0.27694700  1.0
  Zr  Zr1624  1  0.58295600  0.45895233  0.27694700  1.0
  Zr  Zr1625  1  0.58295600  0.79228567  0.27694700  1.0
  Zr  Zr1626  1  0.91628933  0.12561900  0.27694700  1.0
  Zr  Zr1627  1  0.91628933  0.45895233  0.27694700  1.0
  Zr  Zr1628  1  0.91628933  0.79228567  0.27694700  1.0
  Zr  Zr1629  1  0.24962267  0.29228567  0.40194700  1.0
  Zr  Zr1630  1  0.24962267  0.62561900  0.40194700  1.0
  Zr  Zr1631  1  0.24962267  0.95895233  0.40194700  1.0
  Zr  Zr1632  1  0.58295600  0.29228567  0.40194700  1.0
  Zr  Zr1633  1  0.58295600  0.62561900  0.40194700  1.0
  Zr  Zr1634  1  0.58295600  0.95895233  0.40194700  1.0
  Zr  Zr1635  1  0.91628933  0.29228567  0.40194700  1.0
  Zr  Zr1636  1  0.91628933  0.62561900  0.40194700  1.0
  Zr  Zr1637  1  0.91628933  0.95895233  0.40194700  1.0
  Zr  Zr1638  1  0.25037733  0.04228567  0.46444700  1.0
  Zr  Zr1639  1  0.25037733  0.37561900  0.46444700  1.0
  Zr  Zr1640  1  0.25037733  0.70895233  0.46444700  1.0
  Zr  Zr1641  1  0.58371067  0.04228567  0.46444700  1.0
  Zr  Zr1642  1  0.58371067  0.37561900  0.46444700  1.0
  Zr  Zr1643  1  0.58371067  0.70895233  0.46444700  1.0
  Zr  Zr1644  1  0.91704400  0.04228567  0.46444700  1.0
  Zr  Zr1645  1  0.91704400  0.37561900  0.46444700  1.0
  Zr  Zr1646  1  0.91704400  0.70895233  0.46444700  1.0
  Zr  Zr1647  1  0.25037733  0.20895233  0.33944700  1.0
  Zr  Zr1648  1  0.25037733  0.54228567  0.33944700  1.0
  Zr  Zr1649  1  0.25037733  0.87561900  0.33944700  1.0
  Zr  Zr1650  1  0.58371067  0.20895233  0.33944700  1.0
  Zr  Zr1651  1  0.58371067  0.54228567  0.33944700  1.0
  Zr  Zr1652  1  0.58371067  0.87561900  0.33944700  1.0
  Zr  Zr1653  1  0.91704400  0.20895233  0.33944700  1.0
  Zr  Zr1654  1  0.91704400  0.54228567  0.33944700  1.0
  Zr  Zr1655  1  0.91704400  0.87561900  0.33944700  1.0
  Zr  Zr1656  1  0.08371067  0.04104767  0.33981500  1.0
  Zr  Zr1657  1  0.08371067  0.37438100  0.33981500  1.0
  Zr  Zr1658  1  0.08371067  0.70771433  0.33981500  1.0
  Zr  Zr1659  1  0.41704400  0.04104767  0.33981500  1.0
  Zr  Zr1660  1  0.41704400  0.37438100  0.33981500  1.0
  Zr  Zr1661  1  0.41704400  0.70771433  0.33981500  1.0
  Zr  Zr1662  1  0.75037733  0.04104767  0.33981500  1.0
  Zr  Zr1663  1  0.75037733  0.37438100  0.33981500  1.0
  Zr  Zr1664  1  0.75037733  0.70771433  0.33981500  1.0
  Zr  Zr1665  1  0.08371067  0.20771433  0.46481500  1.0
  Zr  Zr1666  1  0.08371067  0.54104767  0.46481500  1.0
  Zr  Zr1667  1  0.08371067  0.87438100  0.46481500  1.0
  Zr  Zr1668  1  0.41704400  0.20771433  0.46481500  1.0
  Zr  Zr1669  1  0.41704400  0.54104767  0.46481500  1.0
  Zr  Zr1670  1  0.41704400  0.87438100  0.46481500  1.0
  Zr  Zr1671  1  0.75037733  0.20771433  0.46481500  1.0
  Zr  Zr1672  1  0.75037733  0.54104767  0.46481500  1.0
  Zr  Zr1673  1  0.75037733  0.87438100  0.46481500  1.0
  Zr  Zr1674  1  0.00036533  0.11521650  0.33234138  1.0
  Zr  Zr1675  1  0.00036533  0.44854983  0.33234137  1.0
  Zr  Zr1676  1  0.00036533  0.78188317  0.33234137  1.0
  Zr  Zr1677  1  0.33369867  0.11521650  0.33234137  1.0
  Zr  Zr1678  1  0.33369867  0.44854983  0.33234137  1.0
  Zr  Zr1679  1  0.33369867  0.78188317  0.33234137  1.0
  Zr  Zr1680  1  0.66703200  0.11521650  0.33234138  1.0
  Zr  Zr1681  1  0.66703200  0.44854983  0.33234137  1.0
  Zr  Zr1682  1  0.66703200  0.78188317  0.33234137  1.0
  Zr  Zr1683  1  0.00036533  0.28188317  0.45734138  1.0
  Zr  Zr1684  1  0.00036533  0.61521650  0.45734137  1.0
  Zr  Zr1685  1  0.00036533  0.94854983  0.45734137  1.0
  Zr  Zr1686  1  0.33369867  0.28188317  0.45734137  1.0
  Zr  Zr1687  1  0.33369867  0.61521650  0.45734137  1.0
  Zr  Zr1688  1  0.33369867  0.94854983  0.45734137  1.0
  Zr  Zr1689  1  0.66703200  0.28188317  0.45734138  1.0
  Zr  Zr1690  1  0.66703200  0.61521650  0.45734137  1.0
  Zr  Zr1691  1  0.66703200  0.94854983  0.45734137  1.0
  Zr  Zr1692  1  0.16666667  0.00000000  0.37088100  1.0
  Zr  Zr1693  1  0.16666667  0.33333333  0.37088100  1.0
  Zr  Zr1694  1  0.16666667  0.66666667  0.37088100  1.0
  Zr  Zr1695  1  0.50000000  0.00000000  0.37088100  1.0
  Zr  Zr1696  1  0.50000000  0.33333333  0.37088100  1.0
  Zr  Zr1697  1  0.50000000  0.66666667  0.37088100  1.0
  Zr  Zr1698  1  0.83333333  0.00000000  0.37088100  1.0
  Zr  Zr1699  1  0.83333333  0.33333333  0.37088100  1.0
  Zr  Zr1700  1  0.83333333  0.66666667  0.37088100  1.0
  Zr  Zr1701  1  0.16666667  0.16666667  0.49588100  1.0
  Zr  Zr1702  1  0.16666667  0.50000000  0.49588100  1.0
  Zr  Zr1703  1  0.16666667  0.83333333  0.49588100  1.0
  Zr  Zr1704  1  0.50000000  0.16666667  0.49588100  1.0
  Zr  Zr1705  1  0.50000000  0.50000000  0.49588100  1.0
  Zr  Zr1706  1  0.50000000  0.83333333  0.49588100  1.0
  Zr  Zr1707  1  0.83333333  0.16666667  0.49588100  1.0
  Zr  Zr1708  1  0.83333333  0.50000000  0.49588100  1.0
  Zr  Zr1709  1  0.83333333  0.83333333  0.49588100  1.0
  Zr  Zr1710  1  0.16630133  0.03188317  0.26984137  1.0
  Zr  Zr1711  1  0.16630133  0.36521650  0.26984138  1.0
  Zr  Zr1712  1  0.16630133  0.69854983  0.26984137  1.0
  Zr  Zr1713  1  0.49963467  0.03188317  0.26984137  1.0
  Zr  Zr1714  1  0.49963467  0.36521650  0.26984138  1.0
  Zr  Zr1715  1  0.49963467  0.69854983  0.26984137  1.0
  Zr  Zr1716  1  0.83296800  0.03188317  0.26984137  1.0
  Zr  Zr1717  1  0.83296800  0.36521650  0.26984137  1.0
  Zr  Zr1718  1  0.83296800  0.69854983  0.26984137  1.0
  Zr  Zr1719  1  0.16630133  0.19854983  0.39484138  1.0
  Zr  Zr1720  1  0.16630133  0.53188317  0.39484137  1.0
  Zr  Zr1721  1  0.16630133  0.86521650  0.39484137  1.0
  Zr  Zr1722  1  0.49963467  0.19854983  0.39484137  1.0
  Zr  Zr1723  1  0.49963467  0.53188317  0.39484137  1.0
  Zr  Zr1724  1  0.49963467  0.86521650  0.39484137  1.0
  Zr  Zr1725  1  0.83296800  0.19854983  0.39484138  1.0
  Zr  Zr1726  1  0.83296800  0.53188317  0.39484137  1.0
  Zr  Zr1727  1  0.83296800  0.86521650  0.39484137  1.0
  Ni  Ni1728  1  0.26453167  0.10790483  0.45042912  1.0
  Ni  Ni1729  1  0.26453167  0.44123817  0.45042913  1.0
  Ni  Ni1730  1  0.26453167  0.77457150  0.45042912  1.0
  Ni  Ni1731  1  0.59786500  0.10790483  0.45042912  1.0
  Ni  Ni1732  1  0.59786500  0.44123817  0.45042913  1.0
  Ni  Ni1733  1  0.59786500  0.77457150  0.45042912  1.0
  Ni  Ni1734  1  0.93119833  0.10790483  0.45042913  1.0
  Ni  Ni1735  1  0.93119833  0.44123817  0.45042913  1.0
  Ni  Ni1736  1  0.93119833  0.77457150  0.45042912  1.0
  Ni  Ni1737  1  0.26453167  0.27457150  0.32542912  1.0
  Ni  Ni1738  1  0.26453167  0.60790483  0.32542912  1.0
  Ni  Ni1739  1  0.26453167  0.94123817  0.32542912  1.0
  Ni  Ni1740  1  0.59786500  0.27457150  0.32542912  1.0
  Ni  Ni1741  1  0.59786500  0.60790483  0.32542912  1.0
  Ni  Ni1742  1  0.59786500  0.94123817  0.32542912  1.0
  Ni  Ni1743  1  0.93119833  0.27457150  0.32542912  1.0
  Ni  Ni1744  1  0.93119833  0.60790483  0.32542912  1.0
  Ni  Ni1745  1  0.93119833  0.94123817  0.32542912  1.0
  Ni  Ni1746  1  0.03504433  0.16637200  0.27226450  1.0
  Ni  Ni1747  1  0.03504433  0.49970533  0.27226450  1.0
  Ni  Ni1748  1  0.03504433  0.83303867  0.27226450  1.0
  Ni  Ni1749  1  0.36837767  0.16637200  0.27226450  1.0
  Ni  Ni1750  1  0.36837767  0.49970533  0.27226450  1.0
  Ni  Ni1751  1  0.36837767  0.83303867  0.27226450  1.0
  Ni  Ni1752  1  0.70171100  0.16637200  0.27226450  1.0
  Ni  Ni1753  1  0.70171100  0.49970533  0.27226450  1.0
  Ni  Ni1754  1  0.70171100  0.83303867  0.27226450  1.0
  Ni  Ni1755  1  0.03504433  0.33303867  0.39726450  1.0
  Ni  Ni1756  1  0.03504433  0.66637200  0.39726450  1.0
  Ni  Ni1757  1  0.03504433  0.99970533  0.39726450  1.0
  Ni  Ni1758  1  0.36837767  0.33303867  0.39726450  1.0
  Ni  Ni1759  1  0.36837767  0.66637200  0.39726450  1.0
  Ni  Ni1760  1  0.36837767  0.99970533  0.39726450  1.0
  Ni  Ni1761  1  0.70171100  0.33303867  0.39726450  1.0
  Ni  Ni1762  1  0.70171100  0.66637200  0.39726450  1.0
  Ni  Ni1763  1  0.70171100  0.99970533  0.39726450  1.0
  Ni  Ni1764  1  0.13162233  0.08303867  0.45976450  1.0
  Ni  Ni1765  1  0.13162233  0.41637200  0.45976450  1.0
  Ni  Ni1766  1  0.13162233  0.74970533  0.45976450  1.0
  Ni  Ni1767  1  0.46495567  0.08303867  0.45976450  1.0
  Ni  Ni1768  1  0.46495567  0.41637200  0.45976450  1.0
  Ni  Ni1769  1  0.46495567  0.74970533  0.45976450  1.0
  Ni  Ni1770  1  0.79828900  0.08303867  0.45976450  1.0
  Ni  Ni1771  1  0.79828900  0.41637200  0.45976450  1.0
  Ni  Ni1772  1  0.79828900  0.74970533  0.45976450  1.0
  Ni  Ni1773  1  0.13162233  0.24970533  0.33476450  1.0
  Ni  Ni1774  1  0.13162233  0.58303867  0.33476450  1.0
  Ni  Ni1775  1  0.13162233  0.91637200  0.33476450  1.0
  Ni  Ni1776  1  0.46495567  0.24970533  0.33476450  1.0
  Ni  Ni1777  1  0.46495567  0.58303867  0.33476450  1.0
  Ni  Ni1778  1  0.46495567  0.91637200  0.33476450  1.0
  Ni  Ni1779  1  0.79828900  0.24970533  0.33476450  1.0
  Ni  Ni1780  1  0.79828900  0.58303867  0.33476450  1.0
  Ni  Ni1781  1  0.79828900  0.91637200  0.33476450  1.0
  Ni  Ni1782  1  0.23607400  0.10725983  0.32297487  1.0
  Ni  Ni1783  1  0.23607400  0.44059317  0.32297487  1.0
  Ni  Ni1784  1  0.23607400  0.77392650  0.32297487  1.0
  Ni  Ni1785  1  0.56940733  0.10725983  0.32297487  1.0
  Ni  Ni1786  1  0.56940733  0.44059317  0.32297487  1.0
  Ni  Ni1787  1  0.56940733  0.77392650  0.32297487  1.0
  Ni  Ni1788  1  0.90274067  0.10725983  0.32297487  1.0
  Ni  Ni1789  1  0.90274067  0.44059317  0.32297487  1.0
  Ni  Ni1790  1  0.90274067  0.77392650  0.32297487  1.0
  Ni  Ni1791  1  0.23607400  0.27392650  0.44797488  1.0
  Ni  Ni1792  1  0.23607400  0.60725983  0.44797487  1.0
  Ni  Ni1793  1  0.23607400  0.94059317  0.44797488  1.0
  Ni  Ni1794  1  0.56940733  0.27392650  0.44797487  1.0
  Ni  Ni1795  1  0.56940733  0.60725983  0.44797487  1.0
  Ni  Ni1796  1  0.56940733  0.94059317  0.44797488  1.0
  Ni  Ni1797  1  0.90274067  0.27392650  0.44797488  1.0
  Ni  Ni1798  1  0.90274067  0.60725983  0.44797487  1.0
  Ni  Ni1799  1  0.90274067  0.94059317  0.44797488  1.0
  Ni  Ni1800  1  0.06940733  0.14274017  0.35628712  1.0
  Ni  Ni1801  1  0.06940733  0.47607350  0.35628712  1.0
  Ni  Ni1802  1  0.06940733  0.80940683  0.35628712  1.0
  Ni  Ni1803  1  0.40274067  0.14274017  0.35628712  1.0
  Ni  Ni1804  1  0.40274067  0.47607350  0.35628712  1.0
  Ni  Ni1805  1  0.40274067  0.80940683  0.35628712  1.0
  Ni  Ni1806  1  0.73607400  0.14274017  0.35628713  1.0
  Ni  Ni1807  1  0.73607400  0.47607350  0.35628712  1.0
  Ni  Ni1808  1  0.73607400  0.80940683  0.35628712  1.0
  Ni  Ni1809  1  0.06940733  0.30940683  0.48128713  1.0
  Ni  Ni1810  1  0.06940733  0.64274017  0.48128713  1.0
  Ni  Ni1811  1  0.06940733  0.97607350  0.48128712  1.0
  Ni  Ni1812  1  0.40274067  0.30940683  0.48128713  1.0
  Ni  Ni1813  1  0.40274067  0.64274017  0.48128713  1.0
  Ni  Ni1814  1  0.40274067  0.97607350  0.48128712  1.0
  Ni  Ni1815  1  0.73607400  0.30940683  0.48128713  1.0
  Ni  Ni1816  1  0.73607400  0.64274017  0.48128713  1.0
  Ni  Ni1817  1  0.73607400  0.97607350  0.48128712  1.0
  Ni  Ni1818  1  0.16414600  0.10777700  0.27430850  1.0
  Ni  Ni1819  1  0.16414600  0.44111033  0.27430850  1.0
  Ni  Ni1820  1  0.16414600  0.77444367  0.27430850  1.0
  Ni  Ni1821  1  0.49747933  0.10777700  0.27430850  1.0
  Ni  Ni1822  1  0.49747933  0.44111033  0.27430850  1.0
  Ni  Ni1823  1  0.49747933  0.77444367  0.27430850  1.0
  Ni  Ni1824  1  0.83081267  0.10777700  0.27430850  1.0
  Ni  Ni1825  1  0.83081267  0.44111033  0.27430850  1.0
  Ni  Ni1826  1  0.83081267  0.77444367  0.27430850  1.0
  Ni  Ni1827  1  0.16414600  0.27444367  0.39930850  1.0
  Ni  Ni1828  1  0.16414600  0.60777700  0.39930850  1.0
  Ni  Ni1829  1  0.16414600  0.94111033  0.39930850  1.0
  Ni  Ni1830  1  0.49747933  0.27444367  0.39930850  1.0
  Ni  Ni1831  1  0.49747933  0.60777700  0.39930850  1.0
  Ni  Ni1832  1  0.49747933  0.94111033  0.39930850  1.0
  Ni  Ni1833  1  0.83081267  0.27444367  0.39930850  1.0
  Ni  Ni1834  1  0.83081267  0.60777700  0.39930850  1.0
  Ni  Ni1835  1  0.83081267  0.94111033  0.39930850  1.0
  Ni  Ni1836  1  0.03504433  0.08362800  0.33520650  1.0
  Ni  Ni1837  1  0.03504433  0.41696133  0.33520650  1.0
  Ni  Ni1838  1  0.03504433  0.75029467  0.33520650  1.0
  Ni  Ni1839  1  0.36837767  0.08362800  0.33520650  1.0
  Ni  Ni1840  1  0.36837767  0.41696133  0.33520650  1.0
  Ni  Ni1841  1  0.36837767  0.75029467  0.33520650  1.0
  Ni  Ni1842  1  0.70171100  0.08362800  0.33520650  1.0
  Ni  Ni1843  1  0.70171100  0.41696133  0.33520650  1.0
  Ni  Ni1844  1  0.70171100  0.75029467  0.33520650  1.0
  Ni  Ni1845  1  0.03504433  0.25029467  0.46020650  1.0
  Ni  Ni1846  1  0.03504433  0.58362800  0.46020650  1.0
  Ni  Ni1847  1  0.03504433  0.91696133  0.46020650  1.0
  Ni  Ni1848  1  0.36837767  0.25029467  0.46020650  1.0
  Ni  Ni1849  1  0.36837767  0.58362800  0.46020650  1.0
  Ni  Ni1850  1  0.36837767  0.91696133  0.46020650  1.0
  Ni  Ni1851  1  0.70171100  0.25029467  0.46020650  1.0
  Ni  Ni1852  1  0.70171100  0.58362800  0.46020650  1.0
  Ni  Ni1853  1  0.70171100  0.91696133  0.46020650  1.0
  Ni  Ni1854  1  0.26453167  0.14209517  0.35107188  1.0
  Ni  Ni1855  1  0.26453167  0.47542850  0.35107188  1.0
  Ni  Ni1856  1  0.26453167  0.80876183  0.35107187  1.0
  Ni  Ni1857  1  0.59786500  0.14209517  0.35107188  1.0
  Ni  Ni1858  1  0.59786500  0.47542850  0.35107188  1.0
  Ni  Ni1859  1  0.59786500  0.80876183  0.35107187  1.0
  Ni  Ni1860  1  0.93119833  0.14209517  0.35107188  1.0
  Ni  Ni1861  1  0.93119833  0.47542850  0.35107188  1.0
  Ni  Ni1862  1  0.93119833  0.80876183  0.35107187  1.0
  Ni  Ni1863  1  0.26453167  0.30876183  0.47607188  1.0
  Ni  Ni1864  1  0.26453167  0.64209517  0.47607188  1.0
  Ni  Ni1865  1  0.26453167  0.97542850  0.47607187  1.0
  Ni  Ni1866  1  0.59786500  0.30876183  0.47607188  1.0
  Ni  Ni1867  1  0.59786500  0.64209517  0.47607188  1.0
  Ni  Ni1868  1  0.59786500  0.97542850  0.47607187  1.0
  Ni  Ni1869  1  0.93119833  0.30876183  0.47607188  1.0
  Ni  Ni1870  1  0.93119833  0.64209517  0.47607188  1.0
  Ni  Ni1871  1  0.93119833  0.97542850  0.47607187  1.0
  Ni  Ni1872  1  0.20171100  0.16637200  0.34405550  1.0
  Ni  Ni1873  1  0.20171100  0.49970533  0.34405550  1.0
  Ni  Ni1874  1  0.20171100  0.83303867  0.34405550  1.0
  Ni  Ni1875  1  0.53504433  0.16637200  0.34405550  1.0
  Ni  Ni1876  1  0.53504433  0.49970533  0.34405550  1.0
  Ni  Ni1877  1  0.53504433  0.83303867  0.34405550  1.0
  Ni  Ni1878  1  0.86837767  0.16637200  0.34405550  1.0
  Ni  Ni1879  1  0.86837767  0.49970533  0.34405550  1.0
  Ni  Ni1880  1  0.86837767  0.83303867  0.34405550  1.0
  Ni  Ni1881  1  0.20171100  0.33303867  0.46905550  1.0
  Ni  Ni1882  1  0.20171100  0.66637200  0.46905550  1.0
  Ni  Ni1883  1  0.20171100  0.99970533  0.46905550  1.0
  Ni  Ni1884  1  0.53504433  0.33303867  0.46905550  1.0
  Ni  Ni1885  1  0.53504433  0.66637200  0.46905550  1.0
  Ni  Ni1886  1  0.53504433  0.99970533  0.46905550  1.0
  Ni  Ni1887  1  0.86837767  0.33303867  0.46905550  1.0
  Ni  Ni1888  1  0.86837767  0.66637200  0.46905550  1.0
  Ni  Ni1889  1  0.86837767  0.99970533  0.46905550  1.0
  Ni  Ni1890  1  0.00225267  0.14272333  0.30119875  1.0
  Ni  Ni1891  1  0.00225267  0.47605667  0.30119875  1.0
  Ni  Ni1892  1  0.00225267  0.80939000  0.30119875  1.0
  Ni  Ni1893  1  0.33558600  0.14272333  0.30119875  1.0
  Ni  Ni1894  1  0.33558600  0.47605667  0.30119875  1.0
  Ni  Ni1895  1  0.33558600  0.80939000  0.30119875  1.0
  Ni  Ni1896  1  0.66891933  0.14272333  0.30119875  1.0
  Ni  Ni1897  1  0.66891933  0.47605667  0.30119875  1.0
  Ni  Ni1898  1  0.66891933  0.80939000  0.30119875  1.0
  Ni  Ni1899  1  0.00225267  0.30939000  0.42619875  1.0
  Ni  Ni1900  1  0.00225267  0.64272333  0.42619875  1.0
  Ni  Ni1901  1  0.00225267  0.97605667  0.42619875  1.0
  Ni  Ni1902  1  0.33558600  0.30939000  0.42619875  1.0
  Ni  Ni1903  1  0.33558600  0.64272333  0.42619875  1.0
  Ni  Ni1904  1  0.33558600  0.97605667  0.42619875  1.0
  Ni  Ni1905  1  0.66891933  0.30939000  0.42619875  1.0
  Ni  Ni1906  1  0.66891933  0.64272333  0.42619875  1.0
  Ni  Ni1907  1  0.66891933  0.97605667  0.42619875  1.0
  Ni  Ni1908  1  0.16891933  0.10727667  0.37806325  1.0
  Ni  Ni1909  1  0.16891933  0.44061000  0.37806325  1.0
  Ni  Ni1910  1  0.16891933  0.77394333  0.37806325  1.0
  Ni  Ni1911  1  0.50225267  0.10727667  0.37806325  1.0
  Ni  Ni1912  1  0.50225267  0.44061000  0.37806325  1.0
  Ni  Ni1913  1  0.50225267  0.77394333  0.37806325  1.0
  Ni  Ni1914  1  0.83558600  0.10727667  0.37806325  1.0
  Ni  Ni1915  1  0.83558600  0.44061000  0.37806325  1.0
  Ni  Ni1916  1  0.83558600  0.77394333  0.37806325  1.0
  Ni  Ni1917  1  0.16891933  0.27394333  0.25306325  1.0
  Ni  Ni1918  1  0.16891933  0.60727667  0.25306325  1.0
  Ni  Ni1919  1  0.16891933  0.94061000  0.25306325  1.0
  Ni  Ni1920  1  0.50225267  0.27394333  0.25306325  1.0
  Ni  Ni1921  1  0.50225267  0.60727667  0.25306325  1.0
  Ni  Ni1922  1  0.50225267  0.94061000  0.25306325  1.0
  Ni  Ni1923  1  0.83558600  0.27394333  0.25306325  1.0
  Ni  Ni1924  1  0.83558600  0.60727667  0.25306325  1.0
  Ni  Ni1925  1  0.83558600  0.94061000  0.25306325  1.0
  Ni  Ni1926  1  0.06940733  0.10725983  0.45467688  1.0
  Ni  Ni1927  1  0.06940733  0.44059317  0.45467688  1.0
  Ni  Ni1928  1  0.06940733  0.77392650  0.45467687  1.0
  Ni  Ni1929  1  0.40274067  0.10725983  0.45467688  1.0
  Ni  Ni1930  1  0.40274067  0.44059317  0.45467688  1.0
  Ni  Ni1931  1  0.40274067  0.77392650  0.45467687  1.0
  Ni  Ni1932  1  0.73607400  0.10725983  0.45467687  1.0
  Ni  Ni1933  1  0.73607400  0.44059317  0.45467688  1.0
  Ni  Ni1934  1  0.73607400  0.77392650  0.45467687  1.0
  Ni  Ni1935  1  0.06940733  0.27392650  0.32967688  1.0
  Ni  Ni1936  1  0.06940733  0.60725983  0.32967688  1.0
  Ni  Ni1937  1  0.06940733  0.94059317  0.32967687  1.0
  Ni  Ni1938  1  0.40274067  0.27392650  0.32967688  1.0
  Ni  Ni1939  1  0.40274067  0.60725983  0.32967688  1.0
  Ni  Ni1940  1  0.40274067  0.94059317  0.32967687  1.0
  Ni  Ni1941  1  0.73607400  0.27392650  0.32967688  1.0
  Ni  Ni1942  1  0.73607400  0.60725983  0.32967688  1.0
  Ni  Ni1943  1  0.73607400  0.94059317  0.32967687  1.0
  Ni  Ni1944  1  0.13162233  0.00029467  0.27270650  1.0
  Ni  Ni1945  1  0.13162233  0.33362800  0.27270650  1.0
  Ni  Ni1946  1  0.13162233  0.66696133  0.27270650  1.0
  Ni  Ni1947  1  0.46495567  0.00029467  0.27270650  1.0
  Ni  Ni1948  1  0.46495567  0.33362800  0.27270650  1.0
  Ni  Ni1949  1  0.46495567  0.66696133  0.27270650  1.0
  Ni  Ni1950  1  0.79828900  0.00029467  0.27270650  1.0
  Ni  Ni1951  1  0.79828900  0.33362800  0.27270650  1.0
  Ni  Ni1952  1  0.79828900  0.66696133  0.27270650  1.0
  Ni  Ni1953  1  0.13162233  0.16696133  0.39770650  1.0
  Ni  Ni1954  1  0.13162233  0.50029467  0.39770650  1.0
  Ni  Ni1955  1  0.13162233  0.83362800  0.39770650  1.0
  Ni  Ni1956  1  0.46495567  0.16696133  0.39770650  1.0
  Ni  Ni1957  1  0.46495567  0.50029467  0.39770650  1.0
  Ni  Ni1958  1  0.46495567  0.83362800  0.39770650  1.0
  Ni  Ni1959  1  0.79828900  0.16696133  0.39770650  1.0
  Ni  Ni1960  1  0.79828900  0.50029467  0.39770650  1.0
  Ni  Ni1961  1  0.79828900  0.83362800  0.39770650  1.0
  Ni  Ni1962  1  0.26392600  0.02392650  0.26047488  1.0
  Ni  Ni1963  1  0.26392600  0.35725983  0.26047488  1.0
  Ni  Ni1964  1  0.26392600  0.69059317  0.26047488  1.0
  Ni  Ni1965  1  0.59725933  0.02392650  0.26047488  1.0
  Ni  Ni1966  1  0.59725933  0.35725983  0.26047488  1.0
  Ni  Ni1967  1  0.59725933  0.69059317  0.26047488  1.0
  Ni  Ni1968  1  0.93059267  0.02392650  0.26047488  1.0
  Ni  Ni1969  1  0.93059267  0.35725983  0.26047488  1.0
  Ni  Ni1970  1  0.93059267  0.69059317  0.26047488  1.0
  Ni  Ni1971  1  0.26392600  0.19059317  0.38547487  1.0
  Ni  Ni1972  1  0.26392600  0.52392650  0.38547487  1.0
  Ni  Ni1973  1  0.26392600  0.85725983  0.38547487  1.0
  Ni  Ni1974  1  0.59725933  0.19059317  0.38547487  1.0
  Ni  Ni1975  1  0.59725933  0.52392650  0.38547487  1.0
  Ni  Ni1976  1  0.59725933  0.85725983  0.38547487  1.0
  Ni  Ni1977  1  0.93059267  0.19059317  0.38547487  1.0
  Ni  Ni1978  1  0.93059267  0.52392650  0.38547487  1.0
  Ni  Ni1979  1  0.93059267  0.85725983  0.38547487  1.0
  Ni  Ni1980  1  0.09786500  0.10790483  0.32819013  1.0
  Ni  Ni1981  1  0.09786500  0.44123817  0.32819012  1.0
  Ni  Ni1982  1  0.09786500  0.77457150  0.32819012  1.0
  Ni  Ni1983  1  0.43119833  0.10790483  0.32819013  1.0
  Ni  Ni1984  1  0.43119833  0.44123817  0.32819012  1.0
  Ni  Ni1985  1  0.43119833  0.77457150  0.32819012  1.0
  Ni  Ni1986  1  0.76453167  0.10790483  0.32819013  1.0
  Ni  Ni1987  1  0.76453167  0.44123817  0.32819012  1.0
  Ni  Ni1988  1  0.76453167  0.77457150  0.32819012  1.0
  Ni  Ni1989  1  0.09786500  0.27457150  0.45319012  1.0
  Ni  Ni1990  1  0.09786500  0.60790483  0.45319012  1.0
  Ni  Ni1991  1  0.09786500  0.94123817  0.45319012  1.0
  Ni  Ni1992  1  0.43119833  0.27457150  0.45319012  1.0
  Ni  Ni1993  1  0.43119833  0.60790483  0.45319012  1.0
  Ni  Ni1994  1  0.43119833  0.94123817  0.45319012  1.0
  Ni  Ni1995  1  0.76453167  0.27457150  0.45319012  1.0
  Ni  Ni1996  1  0.76453167  0.60790483  0.45319012  1.0
  Ni  Ni1997  1  0.76453167  0.94123817  0.45319012  1.0
  Ni  Ni1998  1  0.00252067  0.05888967  0.36264300  1.0
  Ni  Ni1999  1  0.00252067  0.39222300  0.36264300  1.0
  Ni  Ni2000  1  0.00252067  0.72555633  0.36264300  1.0
  Ni  Ni2001  1  0.33585400  0.05888967  0.36264300  1.0
  Ni  Ni2002  1  0.33585400  0.39222300  0.36264300  1.0
  Ni  Ni2003  1  0.33585400  0.72555633  0.36264300  1.0
  Ni  Ni2004  1  0.66918733  0.05888967  0.36264300  1.0
  Ni  Ni2005  1  0.66918733  0.39222300  0.36264300  1.0
  Ni  Ni2006  1  0.66918733  0.72555633  0.36264300  1.0
  Ni  Ni2007  1  0.00252067  0.22555633  0.48764300  1.0
  Ni  Ni2008  1  0.00252067  0.55888967  0.48764300  1.0
  Ni  Ni2009  1  0.00252067  0.89222300  0.48764300  1.0
  Ni  Ni2010  1  0.33585400  0.22555633  0.48764300  1.0
  Ni  Ni2011  1  0.33585400  0.55888967  0.48764300  1.0
  Ni  Ni2012  1  0.33585400  0.89222300  0.48764300  1.0
  Ni  Ni2013  1  0.66918733  0.22555633  0.48764300  1.0
  Ni  Ni2014  1  0.66918733  0.55888967  0.48764300  1.0
  Ni  Ni2015  1  0.66918733  0.89222300  0.48764300  1.0
  Ni  Ni2016  1  0.16414600  0.14222300  0.42514300  1.0
  Ni  Ni2017  1  0.16414600  0.47555633  0.42514300  1.0
  Ni  Ni2018  1  0.16414600  0.80888967  0.42514300  1.0
  Ni  Ni2019  1  0.49747933  0.14222300  0.42514300  1.0
  Ni  Ni2020  1  0.49747933  0.47555633  0.42514300  1.0
  Ni  Ni2021  1  0.49747933  0.80888967  0.42514300  1.0
  Ni  Ni2022  1  0.83081267  0.14222300  0.42514300  1.0
  Ni  Ni2023  1  0.83081267  0.47555633  0.42514300  1.0
  Ni  Ni2024  1  0.83081267  0.80888967  0.42514300  1.0
  Ni  Ni2025  1  0.16414600  0.30888967  0.30014300  1.0
  Ni  Ni2026  1  0.16414600  0.64222300  0.30014300  1.0
  Ni  Ni2027  1  0.16414600  0.97555633  0.30014300  1.0
  Ni  Ni2028  1  0.49747933  0.30888967  0.30014300  1.0
  Ni  Ni2029  1  0.49747933  0.64222300  0.30014300  1.0
  Ni  Ni2030  1  0.49747933  0.97555633  0.30014300  1.0
  Ni  Ni2031  1  0.83081267  0.30888967  0.30014300  1.0
  Ni  Ni2032  1  0.83081267  0.64222300  0.30014300  1.0
  Ni  Ni2033  1  0.83081267  0.97555633  0.30014300  1.0
  Ni  Ni2034  1  0.33108067  0.05939000  0.46714825  1.0
  Ni  Ni2035  1  0.33108067  0.39272333  0.46714825  1.0
  Ni  Ni2036  1  0.33108067  0.72605667  0.46714825  1.0
  Ni  Ni2037  1  0.66441400  0.05939000  0.46714825  1.0
  Ni  Ni2038  1  0.66441400  0.39272333  0.46714825  1.0
  Ni  Ni2039  1  0.66441400  0.72605667  0.46714825  1.0
  Ni  Ni2040  1  0.99774733  0.05939000  0.46714825  1.0
  Ni  Ni2041  1  0.99774733  0.39272333  0.46714825  1.0
  Ni  Ni2042  1  0.99774733  0.72605667  0.46714825  1.0
  Ni  Ni2043  1  0.33108067  0.22605667  0.34214825  1.0
  Ni  Ni2044  1  0.33108067  0.55939000  0.34214825  1.0
  Ni  Ni2045  1  0.33108067  0.89272333  0.34214825  1.0
  Ni  Ni2046  1  0.66441400  0.22605667  0.34214825  1.0
  Ni  Ni2047  1  0.66441400  0.55939000  0.34214825  1.0
  Ni  Ni2048  1  0.66441400  0.89272333  0.34214825  1.0
  Ni  Ni2049  1  0.99774733  0.22605667  0.34214825  1.0
  Ni  Ni2050  1  0.99774733  0.55939000  0.34214825  1.0
  Ni  Ni2051  1  0.99774733  0.89272333  0.34214825  1.0
  Ni  Ni2052  1  0.26392600  0.05940683  0.41208513  1.0
  Ni  Ni2053  1  0.26392600  0.39274017  0.41208513  1.0
  Ni  Ni2054  1  0.26392600  0.72607350  0.41208513  1.0
  Ni  Ni2055  1  0.59725933  0.05940683  0.41208512  1.0
  Ni  Ni2056  1  0.59725933  0.39274017  0.41208513  1.0
  Ni  Ni2057  1  0.59725933  0.72607350  0.41208513  1.0
  Ni  Ni2058  1  0.93059267  0.05940683  0.41208513  1.0
  Ni  Ni2059  1  0.93059267  0.39274017  0.41208512  1.0
  Ni  Ni2060  1  0.93059267  0.72607350  0.41208513  1.0
  Ni  Ni2061  1  0.26392600  0.22607350  0.28708513  1.0
  Ni  Ni2062  1  0.26392600  0.55940683  0.28708512  1.0
  Ni  Ni2063  1  0.26392600  0.89274017  0.28708513  1.0
  Ni  Ni2064  1  0.59725933  0.22607350  0.28708513  1.0
  Ni  Ni2065  1  0.59725933  0.55940683  0.28708512  1.0
  Ni  Ni2066  1  0.59725933  0.89274017  0.28708513  1.0
  Ni  Ni2067  1  0.93059267  0.22607350  0.28708512  1.0
  Ni  Ni2068  1  0.93059267  0.55940683  0.28708512  1.0
  Ni  Ni2069  1  0.93059267  0.89274017  0.28708513  1.0
  Ni  Ni2070  1  0.06880167  0.02457150  0.26569012  1.0
  Ni  Ni2071  1  0.06880167  0.35790483  0.26569012  1.0
  Ni  Ni2072  1  0.06880167  0.69123817  0.26569012  1.0
  Ni  Ni2073  1  0.40213500  0.02457150  0.26569012  1.0
  Ni  Ni2074  1  0.40213500  0.35790483  0.26569012  1.0
  Ni  Ni2075  1  0.40213500  0.69123817  0.26569012  1.0
  Ni  Ni2076  1  0.73546833  0.02457150  0.26569013  1.0
  Ni  Ni2077  1  0.73546833  0.35790483  0.26569012  1.0
  Ni  Ni2078  1  0.73546833  0.69123817  0.26569012  1.0
  Ni  Ni2079  1  0.06880167  0.19123817  0.39069012  1.0
  Ni  Ni2080  1  0.06880167  0.52457150  0.39069012  1.0
  Ni  Ni2081  1  0.06880167  0.85790483  0.39069012  1.0
  Ni  Ni2082  1  0.40213500  0.19123817  0.39069012  1.0
  Ni  Ni2083  1  0.40213500  0.52457150  0.39069012  1.0
  Ni  Ni2084  1  0.40213500  0.85790483  0.39069012  1.0
  Ni  Ni2085  1  0.73546833  0.19123817  0.39069012  1.0
  Ni  Ni2086  1  0.73546833  0.52457150  0.39069012  1.0
  Ni  Ni2087  1  0.73546833  0.85790483  0.39069012  1.0
  Ni  Ni2088  1  0.23607400  0.14274017  0.47458513  1.0
  Ni  Ni2089  1  0.23607400  0.47607350  0.47458512  1.0
  Ni  Ni2090  1  0.23607400  0.80940683  0.47458513  1.0
  Ni  Ni2091  1  0.56940733  0.14274017  0.47458513  1.0
  Ni  Ni2092  1  0.56940733  0.47607350  0.47458512  1.0
  Ni  Ni2093  1  0.56940733  0.80940683  0.47458513  1.0
  Ni  Ni2094  1  0.90274067  0.14274017  0.47458513  1.0
  Ni  Ni2095  1  0.90274067  0.47607350  0.47458512  1.0
  Ni  Ni2096  1  0.90274067  0.80940683  0.47458513  1.0
  Ni  Ni2097  1  0.23607400  0.30940683  0.34958513  1.0
  Ni  Ni2098  1  0.23607400  0.64274017  0.34958512  1.0
  Ni  Ni2099  1  0.23607400  0.97607350  0.34958512  1.0
  Ni  Ni2100  1  0.56940733  0.30940683  0.34958513  1.0
  Ni  Ni2101  1  0.56940733  0.64274017  0.34958512  1.0
  Ni  Ni2102  1  0.56940733  0.97607350  0.34958512  1.0
  Ni  Ni2103  1  0.90274067  0.30940683  0.34958513  1.0
  Ni  Ni2104  1  0.90274067  0.64274017  0.34958512  1.0
  Ni  Ni2105  1  0.90274067  0.97607350  0.34958512  1.0
  Ni  Ni2106  1  0.33081267  0.10777700  0.25411900  1.0
  Ni  Ni2107  1  0.33081267  0.44111033  0.25411900  1.0
  Ni  Ni2108  1  0.33081267  0.77444367  0.25411900  1.0
  Ni  Ni2109  1  0.66414600  0.10777700  0.25411900  1.0
  Ni  Ni2110  1  0.66414600  0.44111033  0.25411900  1.0
  Ni  Ni2111  1  0.66414600  0.77444367  0.25411900  1.0
  Ni  Ni2112  1  0.99747933  0.10777700  0.25411900  1.0
  Ni  Ni2113  1  0.99747933  0.44111033  0.25411900  1.0
  Ni  Ni2114  1  0.99747933  0.77444367  0.25411900  1.0
  Ni  Ni2115  1  0.33081267  0.27444367  0.37911900  1.0
  Ni  Ni2116  1  0.33081267  0.60777700  0.37911900  1.0
  Ni  Ni2117  1  0.33081267  0.94111033  0.37911900  1.0
  Ni  Ni2118  1  0.66414600  0.27444367  0.37911900  1.0
  Ni  Ni2119  1  0.66414600  0.60777700  0.37911900  1.0
  Ni  Ni2120  1  0.66414600  0.94111033  0.37911900  1.0
  Ni  Ni2121  1  0.99747933  0.27444367  0.37911900  1.0
  Ni  Ni2122  1  0.99747933  0.60777700  0.37911900  1.0
  Ni  Ni2123  1  0.99747933  0.94111033  0.37911900  1.0
  Ni  Ni2124  1  0.09786500  0.14209517  0.47883288  1.0
  Ni  Ni2125  1  0.09786500  0.47542850  0.47883288  1.0
  Ni  Ni2126  1  0.09786500  0.80876183  0.47883287  1.0
  Ni  Ni2127  1  0.43119833  0.14209517  0.47883288  1.0
  Ni  Ni2128  1  0.43119833  0.47542850  0.47883288  1.0
  Ni  Ni2129  1  0.43119833  0.80876183  0.47883287  1.0
  Ni  Ni2130  1  0.76453167  0.14209517  0.47883288  1.0
  Ni  Ni2131  1  0.76453167  0.47542850  0.47883288  1.0
  Ni  Ni2132  1  0.76453167  0.80876183  0.47883287  1.0
  Ni  Ni2133  1  0.09786500  0.30876183  0.35383287  1.0
  Ni  Ni2134  1  0.09786500  0.64209517  0.35383287  1.0
  Ni  Ni2135  1  0.09786500  0.97542850  0.35383287  1.0
  Ni  Ni2136  1  0.43119833  0.30876183  0.35383287  1.0
  Ni  Ni2137  1  0.43119833  0.64209517  0.35383287  1.0
  Ni  Ni2138  1  0.43119833  0.97542850  0.35383287  1.0
  Ni  Ni2139  1  0.76453167  0.30876183  0.35383287  1.0
  Ni  Ni2140  1  0.76453167  0.64209517  0.35383287  1.0
  Ni  Ni2141  1  0.76453167  0.97542850  0.35383287  1.0
  Ni  Ni2142  1  0.29828900  0.00029467  0.34449750  1.0
  Ni  Ni2143  1  0.29828900  0.33362800  0.34449750  1.0
  Ni  Ni2144  1  0.29828900  0.66696133  0.34449750  1.0
  Ni  Ni2145  1  0.63162233  0.00029467  0.34449750  1.0
  Ni  Ni2146  1  0.63162233  0.33362800  0.34449750  1.0
  Ni  Ni2147  1  0.63162233  0.66696133  0.34449750  1.0
  Ni  Ni2148  1  0.96495567  0.00029467  0.34449750  1.0
  Ni  Ni2149  1  0.96495567  0.33362800  0.34449750  1.0
  Ni  Ni2150  1  0.96495567  0.66696133  0.34449750  1.0
  Ni  Ni2151  1  0.29828900  0.16696133  0.46949750  1.0
  Ni  Ni2152  1  0.29828900  0.50029467  0.46949750  1.0
  Ni  Ni2153  1  0.29828900  0.83362800  0.46949750  1.0
  Ni  Ni2154  1  0.63162233  0.16696133  0.46949750  1.0
  Ni  Ni2155  1  0.63162233  0.50029467  0.46949750  1.0
  Ni  Ni2156  1  0.63162233  0.83362800  0.46949750  1.0
  Ni  Ni2157  1  0.96495567  0.16696133  0.46949750  1.0
  Ni  Ni2158  1  0.96495567  0.50029467  0.46949750  1.0
  Ni  Ni2159  1  0.96495567  0.83362800  0.46949750  1.0
  Ni  Ni2160  1  0.16441400  0.02394333  0.33711375  1.0
  Ni  Ni2161  1  0.16441400  0.35727667  0.33711375  1.0
  Ni  Ni2162  1  0.16441400  0.69061000  0.33711375  1.0
  Ni  Ni2163  1  0.49774733  0.02394333  0.33711375  1.0
  Ni  Ni2164  1  0.49774733  0.35727667  0.33711375  1.0
  Ni  Ni2165  1  0.49774733  0.69061000  0.33711375  1.0
  Ni  Ni2166  1  0.83108067  0.02394333  0.33711375  1.0
  Ni  Ni2167  1  0.83108067  0.35727667  0.33711375  1.0
  Ni  Ni2168  1  0.83108067  0.69061000  0.33711375  1.0
  Ni  Ni2169  1  0.16441400  0.19061000  0.46211375  1.0
  Ni  Ni2170  1  0.16441400  0.52394333  0.46211375  1.0
  Ni  Ni2171  1  0.16441400  0.85727667  0.46211375  1.0
  Ni  Ni2172  1  0.49774733  0.19061000  0.46211375  1.0
  Ni  Ni2173  1  0.49774733  0.52394333  0.46211375  1.0
  Ni  Ni2174  1  0.49774733  0.85727667  0.46211375  1.0
  Ni  Ni2175  1  0.83108067  0.19061000  0.46211375  1.0
  Ni  Ni2176  1  0.83108067  0.52394333  0.46211375  1.0
  Ni  Ni2177  1  0.83108067  0.85727667  0.46211375  1.0
  Ni  Ni2178  1  0.16891933  0.14272333  0.27964825  1.0
  Ni  Ni2179  1  0.16891933  0.47605667  0.27964825  1.0
  Ni  Ni2180  1  0.16891933  0.80939000  0.27964825  1.0
  Ni  Ni2181  1  0.50225267  0.14272333  0.27964825  1.0
  Ni  Ni2182  1  0.50225267  0.47605667  0.27964825  1.0
  Ni  Ni2183  1  0.50225267  0.80939000  0.27964825  1.0
  Ni  Ni2184  1  0.83558600  0.14272333  0.27964825  1.0
  Ni  Ni2185  1  0.83558600  0.47605667  0.27964825  1.0
  Ni  Ni2186  1  0.83558600  0.80939000  0.27964825  1.0
  Ni  Ni2187  1  0.16891933  0.30939000  0.40464825  1.0
  Ni  Ni2188  1  0.16891933  0.64272333  0.40464825  1.0
  Ni  Ni2189  1  0.16891933  0.97605667  0.40464825  1.0
  Ni  Ni2190  1  0.50225267  0.30939000  0.40464825  1.0
  Ni  Ni2191  1  0.50225267  0.64272333  0.40464825  1.0
  Ni  Ni2192  1  0.50225267  0.97605667  0.40464825  1.0
  Ni  Ni2193  1  0.83558600  0.30939000  0.40464825  1.0
  Ni  Ni2194  1  0.83558600  0.64272333  0.40464825  1.0
  Ni  Ni2195  1  0.83558600  0.97605667  0.40464825  1.0
  Ni  Ni2196  1  0.06880167  0.05876183  0.41633288  1.0
  Ni  Ni2197  1  0.06880167  0.39209517  0.41633288  1.0
  Ni  Ni2198  1  0.06880167  0.72542850  0.41633288  1.0
  Ni  Ni2199  1  0.40213500  0.05876183  0.41633288  1.0
  Ni  Ni2200  1  0.40213500  0.39209517  0.41633288  1.0
  Ni  Ni2201  1  0.40213500  0.72542850  0.41633288  1.0
  Ni  Ni2202  1  0.73546833  0.05876183  0.41633288  1.0
  Ni  Ni2203  1  0.73546833  0.39209517  0.41633288  1.0
  Ni  Ni2204  1  0.73546833  0.72542850  0.41633288  1.0
  Ni  Ni2205  1  0.06880167  0.22542850  0.29133288  1.0
  Ni  Ni2206  1  0.06880167  0.55876183  0.29133287  1.0
  Ni  Ni2207  1  0.06880167  0.89209517  0.29133287  1.0
  Ni  Ni2208  1  0.40213500  0.22542850  0.29133288  1.0
  Ni  Ni2209  1  0.40213500  0.55876183  0.29133287  1.0
  Ni  Ni2210  1  0.40213500  0.89209517  0.29133287  1.0
  Ni  Ni2211  1  0.73546833  0.22542850  0.29133288  1.0
  Ni  Ni2212  1  0.73546833  0.55876183  0.29133287  1.0
  Ni  Ni2213  1  0.73546833  0.89209517  0.29133287  1.0
  Ni  Ni2214  1  0.00225267  0.10727667  0.39961375  1.0
  Ni  Ni2215  1  0.00225267  0.44061000  0.39961375  1.0
  Ni  Ni2216  1  0.00225267  0.77394333  0.39961375  1.0
  Ni  Ni2217  1  0.33558600  0.10727667  0.39961375  1.0
  Ni  Ni2218  1  0.33558600  0.44061000  0.39961375  1.0
  Ni  Ni2219  1  0.33558600  0.77394333  0.39961375  1.0
  Ni  Ni2220  1  0.66891933  0.10727667  0.39961375  1.0
  Ni  Ni2221  1  0.66891933  0.44061000  0.39961375  1.0
  Ni  Ni2222  1  0.66891933  0.77394333  0.39961375  1.0
  Ni  Ni2223  1  0.00225267  0.27394333  0.27461375  1.0
  Ni  Ni2224  1  0.00225267  0.60727667  0.27461375  1.0
  Ni  Ni2225  1  0.00225267  0.94061000  0.27461375  1.0
  Ni  Ni2226  1  0.33558600  0.27394333  0.27461375  1.0
  Ni  Ni2227  1  0.33558600  0.60727667  0.27461375  1.0
  Ni  Ni2228  1  0.33558600  0.94061000  0.27461375  1.0
  Ni  Ni2229  1  0.66891933  0.27394333  0.27461375  1.0
  Ni  Ni2230  1  0.66891933  0.60727667  0.27461375  1.0
  Ni  Ni2231  1  0.66891933  0.94061000  0.27461375  1.0
  Ni  Ni2232  1  0.16441400  0.05939000  0.48869875  1.0
  Ni  Ni2233  1  0.16441400  0.39272333  0.48869875  1.0
  Ni  Ni2234  1  0.16441400  0.72605667  0.48869875  1.0
  Ni  Ni2235  1  0.49774733  0.05939000  0.48869875  1.0
  Ni  Ni2236  1  0.49774733  0.39272333  0.48869875  1.0
  Ni  Ni2237  1  0.49774733  0.72605667  0.48869875  1.0
  Ni  Ni2238  1  0.83108067  0.05939000  0.48869875  1.0
  Ni  Ni2239  1  0.83108067  0.39272333  0.48869875  1.0
  Ni  Ni2240  1  0.83108067  0.72605667  0.48869875  1.0
  Ni  Ni2241  1  0.16441400  0.22605667  0.36369875  1.0
  Ni  Ni2242  1  0.16441400  0.55939000  0.36369875  1.0
  Ni  Ni2243  1  0.16441400  0.89272333  0.36369875  1.0
  Ni  Ni2244  1  0.49774733  0.22605667  0.36369875  1.0
  Ni  Ni2245  1  0.49774733  0.55939000  0.36369875  1.0
  Ni  Ni2246  1  0.49774733  0.89272333  0.36369875  1.0
  Ni  Ni2247  1  0.83108067  0.22605667  0.36369875  1.0
  Ni  Ni2248  1  0.83108067  0.55939000  0.36369875  1.0
  Ni  Ni2249  1  0.83108067  0.89272333  0.36369875  1.0
  Ni  Ni2250  1  0.33108067  0.02394333  0.31556325  1.0
  Ni  Ni2251  1  0.33108067  0.35727667  0.31556325  1.0
  Ni  Ni2252  1  0.33108067  0.69061000  0.31556325  1.0
  Ni  Ni2253  1  0.66441400  0.02394333  0.31556325  1.0
  Ni  Ni2254  1  0.66441400  0.35727667  0.31556325  1.0
  Ni  Ni2255  1  0.66441400  0.69061000  0.31556325  1.0
  Ni  Ni2256  1  0.99774733  0.02394333  0.31556325  1.0
  Ni  Ni2257  1  0.99774733  0.35727667  0.31556325  1.0
  Ni  Ni2258  1  0.99774733  0.69061000  0.31556325  1.0
  Ni  Ni2259  1  0.33108067  0.19061000  0.44056325  1.0
  Ni  Ni2260  1  0.33108067  0.52394333  0.44056325  1.0
  Ni  Ni2261  1  0.33108067  0.85727667  0.44056325  1.0
  Ni  Ni2262  1  0.66441400  0.19061000  0.44056325  1.0
  Ni  Ni2263  1  0.66441400  0.52394333  0.44056325  1.0
  Ni  Ni2264  1  0.66441400  0.85727667  0.44056325  1.0
  Ni  Ni2265  1  0.99774733  0.19061000  0.44056325  1.0
  Ni  Ni2266  1  0.99774733  0.52394333  0.44056325  1.0
  Ni  Ni2267  1  0.99774733  0.85727667  0.44056325  1.0
  Ni  Ni2268  1  0.16918733  0.02444367  0.44161900  1.0
  Ni  Ni2269  1  0.16918733  0.35777700  0.44161900  1.0
  Ni  Ni2270  1  0.16918733  0.69111033  0.44161900  1.0
  Ni  Ni2271  1  0.50252067  0.02444367  0.44161900  1.0
  Ni  Ni2272  1  0.50252067  0.35777700  0.44161900  1.0
  Ni  Ni2273  1  0.50252067  0.69111033  0.44161900  1.0
  Ni  Ni2274  1  0.83585400  0.02444367  0.44161900  1.0
  Ni  Ni2275  1  0.83585400  0.35777700  0.44161900  1.0
  Ni  Ni2276  1  0.83585400  0.69111033  0.44161900  1.0
  Ni  Ni2277  1  0.16918733  0.19111033  0.31661900  1.0
  Ni  Ni2278  1  0.16918733  0.52444367  0.31661900  1.0
  Ni  Ni2279  1  0.16918733  0.85777700  0.31661900  1.0
  Ni  Ni2280  1  0.50252067  0.19111033  0.31661900  1.0
  Ni  Ni2281  1  0.50252067  0.52444367  0.31661900  1.0
  Ni  Ni2282  1  0.50252067  0.85777700  0.31661900  1.0
  Ni  Ni2283  1  0.83585400  0.19111033  0.31661900  1.0
  Ni  Ni2284  1  0.83585400  0.52444367  0.31661900  1.0
  Ni  Ni2285  1  0.83585400  0.85777700  0.31661900  1.0
  Ni  Ni2286  1  0.23546833  0.02457150  0.38792913  1.0
  Ni  Ni2287  1  0.23546833  0.35790483  0.38792912  1.0
  Ni  Ni2288  1  0.23546833  0.69123817  0.38792912  1.0
  Ni  Ni2289  1  0.56880167  0.02457150  0.38792913  1.0
  Ni  Ni2290  1  0.56880167  0.35790483  0.38792912  1.0
  Ni  Ni2291  1  0.56880167  0.69123817  0.38792912  1.0
  Ni  Ni2292  1  0.90213500  0.02457150  0.38792912  1.0
  Ni  Ni2293  1  0.90213500  0.35790483  0.38792912  1.0
  Ni  Ni2294  1  0.90213500  0.69123817  0.38792912  1.0
  Ni  Ni2295  1  0.23546833  0.19123817  0.26292913  1.0
  Ni  Ni2296  1  0.23546833  0.52457150  0.26292912  1.0
  Ni  Ni2297  1  0.23546833  0.85790483  0.26292912  1.0
  Ni  Ni2298  1  0.56880167  0.19123817  0.26292912  1.0
  Ni  Ni2299  1  0.56880167  0.52457150  0.26292912  1.0
  Ni  Ni2300  1  0.56880167  0.85790483  0.26292912  1.0
  Ni  Ni2301  1  0.90213500  0.19123817  0.26292912  1.0
  Ni  Ni2302  1  0.90213500  0.52457150  0.26292912  1.0
  Ni  Ni2303  1  0.90213500  0.85790483  0.26292912  1.0
  Ni  Ni2304  1  0.16918733  0.05888967  0.34245350  1.0
  Ni  Ni2305  1  0.16918733  0.39222300  0.34245350  1.0
  Ni  Ni2306  1  0.16918733  0.72555633  0.34245350  1.0
  Ni  Ni2307  1  0.50252067  0.05888967  0.34245350  1.0
  Ni  Ni2308  1  0.50252067  0.39222300  0.34245350  1.0
  Ni  Ni2309  1  0.50252067  0.72555633  0.34245350  1.0
  Ni  Ni2310  1  0.83585400  0.05888967  0.34245350  1.0
  Ni  Ni2311  1  0.83585400  0.39222300  0.34245350  1.0
  Ni  Ni2312  1  0.83585400  0.72555633  0.34245350  1.0
  Ni  Ni2313  1  0.16918733  0.22555633  0.46745350  1.0
  Ni  Ni2314  1  0.16918733  0.55888967  0.46745350  1.0
  Ni  Ni2315  1  0.16918733  0.89222300  0.46745350  1.0
  Ni  Ni2316  1  0.50252067  0.22555633  0.46745350  1.0
  Ni  Ni2317  1  0.50252067  0.55888967  0.46745350  1.0
  Ni  Ni2318  1  0.50252067  0.89222300  0.46745350  1.0
  Ni  Ni2319  1  0.83585400  0.22555633  0.46745350  1.0
  Ni  Ni2320  1  0.83585400  0.55888967  0.46745350  1.0
  Ni  Ni2321  1  0.83585400  0.89222300  0.46745350  1.0
  Ni  Ni2322  1  0.23546833  0.05876183  0.28857188  1.0
  Ni  Ni2323  1  0.23546833  0.39209517  0.28857188  1.0
  Ni  Ni2324  1  0.23546833  0.72542850  0.28857187  1.0
  Ni  Ni2325  1  0.56880167  0.05876183  0.28857188  1.0
  Ni  Ni2326  1  0.56880167  0.39209517  0.28857188  1.0
  Ni  Ni2327  1  0.56880167  0.72542850  0.28857187  1.0
  Ni  Ni2328  1  0.90213500  0.05876183  0.28857188  1.0
  Ni  Ni2329  1  0.90213500  0.39209517  0.28857188  1.0
  Ni  Ni2330  1  0.90213500  0.72542850  0.28857187  1.0
  Ni  Ni2331  1  0.23546833  0.22542850  0.41357188  1.0
  Ni  Ni2332  1  0.23546833  0.55876183  0.41357188  1.0
  Ni  Ni2333  1  0.23546833  0.89209517  0.41357187  1.0
  Ni  Ni2334  1  0.56880167  0.22542850  0.41357188  1.0
  Ni  Ni2335  1  0.56880167  0.55876183  0.41357188  1.0
  Ni  Ni2336  1  0.56880167  0.89209517  0.41357187  1.0
  Ni  Ni2337  1  0.90213500  0.22542850  0.41357188  1.0
  Ni  Ni2338  1  0.90213500  0.55876183  0.41357188  1.0
  Ni  Ni2339  1  0.90213500  0.89209517  0.41357187  1.0
  Ni  Ni2340  1  0.09725933  0.05940683  0.29378713  1.0
  Ni  Ni2341  1  0.09725933  0.39274017  0.29378713  1.0
  Ni  Ni2342  1  0.09725933  0.72607350  0.29378713  1.0
  Ni  Ni2343  1  0.43059267  0.05940683  0.29378713  1.0
  Ni  Ni2344  1  0.43059267  0.39274017  0.29378713  1.0
  Ni  Ni2345  1  0.43059267  0.72607350  0.29378713  1.0
  Ni  Ni2346  1  0.76392600  0.05940683  0.29378713  1.0
  Ni  Ni2347  1  0.76392600  0.39274017  0.29378713  1.0
  Ni  Ni2348  1  0.76392600  0.72607350  0.29378713  1.0
  Ni  Ni2349  1  0.09725933  0.22607350  0.41878713  1.0
  Ni  Ni2350  1  0.09725933  0.55940683  0.41878712  1.0
  Ni  Ni2351  1  0.09725933  0.89274017  0.41878713  1.0
  Ni  Ni2352  1  0.43059267  0.22607350  0.41878713  1.0
  Ni  Ni2353  1  0.43059267  0.55940683  0.41878712  1.0
  Ni  Ni2354  1  0.43059267  0.89274017  0.41878713  1.0
  Ni  Ni2355  1  0.76392600  0.22607350  0.41878713  1.0
  Ni  Ni2356  1  0.76392600  0.55940683  0.41878712  1.0
  Ni  Ni2357  1  0.76392600  0.89274017  0.41878713  1.0
  Ni  Ni2358  1  0.20171100  0.08362800  0.40699750  1.0
  Ni  Ni2359  1  0.20171100  0.41696133  0.40699750  1.0
  Ni  Ni2360  1  0.20171100  0.75029467  0.40699750  1.0
  Ni  Ni2361  1  0.53504433  0.08362800  0.40699750  1.0
  Ni  Ni2362  1  0.53504433  0.41696133  0.40699750  1.0
  Ni  Ni2363  1  0.53504433  0.75029467  0.40699750  1.0
  Ni  Ni2364  1  0.86837767  0.08362800  0.40699750  1.0
  Ni  Ni2365  1  0.86837767  0.41696133  0.40699750  1.0
  Ni  Ni2366  1  0.86837767  0.75029467  0.40699750  1.0
  Ni  Ni2367  1  0.20171100  0.25029467  0.28199750  1.0
  Ni  Ni2368  1  0.20171100  0.58362800  0.28199750  1.0
  Ni  Ni2369  1  0.20171100  0.91696133  0.28199750  1.0
  Ni  Ni2370  1  0.53504433  0.25029467  0.28199750  1.0
  Ni  Ni2371  1  0.53504433  0.58362800  0.28199750  1.0
  Ni  Ni2372  1  0.53504433  0.91696133  0.28199750  1.0
  Ni  Ni2373  1  0.86837767  0.25029467  0.28199750  1.0
  Ni  Ni2374  1  0.86837767  0.58362800  0.28199750  1.0
  Ni  Ni2375  1  0.86837767  0.91696133  0.28199750  1.0
  Ni  Ni2376  1  0.29828900  0.08303867  0.28155550  1.0
  Ni  Ni2377  1  0.29828900  0.41637200  0.28155550  1.0
  Ni  Ni2378  1  0.29828900  0.74970533  0.28155550  1.0
  Ni  Ni2379  1  0.63162233  0.08303867  0.28155550  1.0
  Ni  Ni2380  1  0.63162233  0.41637200  0.28155550  1.0
  Ni  Ni2381  1  0.63162233  0.74970533  0.28155550  1.0
  Ni  Ni2382  1  0.96495567  0.08303867  0.28155550  1.0
  Ni  Ni2383  1  0.96495567  0.41637200  0.28155550  1.0
  Ni  Ni2384  1  0.96495567  0.74970533  0.28155550  1.0
  Ni  Ni2385  1  0.29828900  0.24970533  0.40655550  1.0
  Ni  Ni2386  1  0.29828900  0.58303867  0.40655550  1.0
  Ni  Ni2387  1  0.29828900  0.91637200  0.40655550  1.0
  Ni  Ni2388  1  0.63162233  0.24970533  0.40655550  1.0
  Ni  Ni2389  1  0.63162233  0.58303867  0.40655550  1.0
  Ni  Ni2390  1  0.63162233  0.91637200  0.40655550  1.0
  Ni  Ni2391  1  0.96495567  0.24970533  0.40655550  1.0
  Ni  Ni2392  1  0.96495567  0.58303867  0.40655550  1.0
  Ni  Ni2393  1  0.96495567  0.91637200  0.40655550  1.0
  Ni  Ni2394  1  0.33081267  0.14222300  0.40495350  1.0
  Ni  Ni2395  1  0.33081267  0.47555633  0.40495350  1.0
  Ni  Ni2396  1  0.33081267  0.80888967  0.40495350  1.0
  Ni  Ni2397  1  0.66414600  0.14222300  0.40495350  1.0
  Ni  Ni2398  1  0.66414600  0.47555633  0.40495350  1.0
  Ni  Ni2399  1  0.66414600  0.80888967  0.40495350  1.0
  Ni  Ni2400  1  0.99747933  0.14222300  0.40495350  1.0
  Ni  Ni2401  1  0.99747933  0.47555633  0.40495350  1.0
  Ni  Ni2402  1  0.99747933  0.80888967  0.40495350  1.0
  Ni  Ni2403  1  0.33081267  0.30888967  0.27995350  1.0
  Ni  Ni2404  1  0.33081267  0.64222300  0.27995350  1.0
  Ni  Ni2405  1  0.33081267  0.97555633  0.27995350  1.0
  Ni  Ni2406  1  0.66414600  0.30888967  0.27995350  1.0
  Ni  Ni2407  1  0.66414600  0.64222300  0.27995350  1.0
  Ni  Ni2408  1  0.66414600  0.97555633  0.27995350  1.0
  Ni  Ni2409  1  0.99747933  0.30888967  0.27995350  1.0
  Ni  Ni2410  1  0.99747933  0.64222300  0.27995350  1.0
  Ni  Ni2411  1  0.99747933  0.97555633  0.27995350  1.0
  Ni  Ni2412  1  0.00252067  0.02444367  0.46180850  1.0
  Ni  Ni2413  1  0.00252067  0.35777700  0.46180850  1.0
  Ni  Ni2414  1  0.00252067  0.69111033  0.46180850  1.0
  Ni  Ni2415  1  0.33585400  0.02444367  0.46180850  1.0
  Ni  Ni2416  1  0.33585400  0.35777700  0.46180850  1.0
  Ni  Ni2417  1  0.33585400  0.69111033  0.46180850  1.0
  Ni  Ni2418  1  0.66918733  0.02444367  0.46180850  1.0
  Ni  Ni2419  1  0.66918733  0.35777700  0.46180850  1.0
  Ni  Ni2420  1  0.66918733  0.69111033  0.46180850  1.0
  Ni  Ni2421  1  0.00252067  0.19111033  0.33680850  1.0
  Ni  Ni2422  1  0.00252067  0.52444367  0.33680850  1.0
  Ni  Ni2423  1  0.00252067  0.85777700  0.33680850  1.0
  Ni  Ni2424  1  0.33585400  0.19111033  0.33680850  1.0
  Ni  Ni2425  1  0.33585400  0.52444367  0.33680850  1.0
  Ni  Ni2426  1  0.33585400  0.85777700  0.33680850  1.0
  Ni  Ni2427  1  0.66918733  0.19111033  0.33680850  1.0
  Ni  Ni2428  1  0.66918733  0.52444367  0.33680850  1.0
  Ni  Ni2429  1  0.66918733  0.85777700  0.33680850  1.0
  Ni  Ni2430  1  0.09725933  0.02392650  0.39217687  1.0
  Ni  Ni2431  1  0.09725933  0.35725983  0.39217687  1.0
  Ni  Ni2432  1  0.09725933  0.69059317  0.39217687  1.0
  Ni  Ni2433  1  0.43059267  0.02392650  0.39217687  1.0
  Ni  Ni2434  1  0.43059267  0.35725983  0.39217687  1.0
  Ni  Ni2435  1  0.43059267  0.69059317  0.39217687  1.0
  Ni  Ni2436  1  0.76392600  0.02392650  0.39217688  1.0
  Ni  Ni2437  1  0.76392600  0.35725983  0.39217687  1.0
  Ni  Ni2438  1  0.76392600  0.69059317  0.39217687  1.0
  Ni  Ni2439  1  0.09725933  0.19059317  0.26717687  1.0
  Ni  Ni2440  1  0.09725933  0.52392650  0.26717687  1.0
  Ni  Ni2441  1  0.09725933  0.85725983  0.26717687  1.0
  Ni  Ni2442  1  0.43059267  0.19059317  0.26717687  1.0
  Ni  Ni2443  1  0.43059267  0.52392650  0.26717687  1.0
  Ni  Ni2444  1  0.43059267  0.85725983  0.26717687  1.0
  Ni  Ni2445  1  0.76392600  0.19059317  0.26717687  1.0
  Ni  Ni2446  1  0.76392600  0.52392650  0.26717687  1.0
  Ni  Ni2447  1  0.76392600  0.85725983  0.26717687  1.0
