# generated using pymatgen
data_Zr8Ni21
_symmetry_space_group_name_H-M   'P 1'
_cell_length_a   30.54806671
_cell_length_b   50.47889974
_cell_length_c   32.52076368
_cell_angle_alpha   93.95114224
_cell_angle_beta   93.67311914
_cell_angle_gamma   95.20485114
_symmetry_Int_Tables_number   1
_chemical_formula_structural   Zr8Ni21
_chemical_formula_sum   'Zr432 Ni1134'
_cell_volume   49697.66995562
_cell_formula_units_Z   54
loop_
 _symmetry_equiv_pos_site_id
 _symmetry_equiv_pos_as_xyz
  1  'x, y, z'
loop_
 _atom_site_type_symbol
 _atom_site_label
 _atom_site_symmetry_multiplicity
 _atom_site_fract_x
 _atom_site_fract_y
 _atom_site_fract_z
 _atom_site_occupancy
  Ni  Ni0  1  0.00000000  0.09380410  0.14070614  1.0
  Ni  Ni1  1  0.00000000  0.42713743  0.14070614  1.0
  Ni  Ni2  1  0.00000000  0.76047076  0.14070614  1.0
  Ni  Ni3  1  0.33333333  0.09380410  0.14070614  1.0
  Ni  Ni4  1  0.33333333  0.42713743  0.14070614  1.0
  Ni  Ni5  1  0.33333333  0.76047076  0.14070614  1.0
  Ni  Ni6  1  0.66666667  0.09380410  0.14070614  1.0
  Ni  Ni7  1  0.66666667  0.42713743  0.14070614  1.0
  Ni  Ni8  1  0.66666667  0.76047076  0.14070614  1.0
  Ni  Ni9  1  0.16666667  0.21285171  0.06927757  1.0
  Ni  Ni10  1  0.16666667  0.54618505  0.06927757  1.0
  Ni  Ni11  1  0.16666667  0.87951838  0.06927757  1.0
  Ni  Ni12  1  0.50000000  0.21285171  0.06927757  1.0
  Ni  Ni13  1  0.50000000  0.54618505  0.06927757  1.0
  Ni  Ni14  1  0.50000000  0.87951838  0.06927757  1.0
  Ni  Ni15  1  0.83333333  0.21285171  0.06927757  1.0
  Ni  Ni16  1  0.83333333  0.54618505  0.06927757  1.0
  Ni  Ni17  1  0.83333333  0.87951838  0.06927757  1.0
  Ni  Ni18  1  0.31865167  0.29444100  0.03992700  1.0
  Ni  Ni19  1  0.31865167  0.62777433  0.03992700  1.0
  Ni  Ni20  1  0.31865167  0.96110767  0.03992700  1.0
  Ni  Ni21  1  0.65198500  0.29444100  0.03992700  1.0
  Ni  Ni22  1  0.65198500  0.62777433  0.03992700  1.0
  Ni  Ni23  1  0.65198500  0.96110767  0.03992700  1.0
  Ni  Ni24  1  0.98531833  0.29444100  0.03992700  1.0
  Ni  Ni25  1  0.98531833  0.62777433  0.03992700  1.0
  Ni  Ni26  1  0.98531833  0.96110767  0.03992700  1.0
  Ni  Ni27  1  0.15198500  0.17539338  0.11135557  1.0
  Ni  Ni28  1  0.15198500  0.50872671  0.11135557  1.0
  Ni  Ni29  1  0.15198500  0.84206005  0.11135557  1.0
  Ni  Ni30  1  0.48531833  0.17539338  0.11135557  1.0
  Ni  Ni31  1  0.48531833  0.50872671  0.11135557  1.0
  Ni  Ni32  1  0.48531833  0.84206005  0.11135557  1.0
  Ni  Ni33  1  0.81865167  0.17539338  0.11135557  1.0
  Ni  Ni34  1  0.81865167  0.50872671  0.11135557  1.0
  Ni  Ni35  1  0.81865167  0.84206005  0.11135557  1.0
  Ni  Ni36  1  0.01468167  0.13126243  0.09862814  1.0
  Ni  Ni37  1  0.01468167  0.46459576  0.09862814  1.0
  Ni  Ni38  1  0.01468167  0.79792910  0.09862814  1.0
  Ni  Ni39  1  0.34801500  0.13126243  0.09862814  1.0
  Ni  Ni40  1  0.34801500  0.46459576  0.09862814  1.0
  Ni  Ni41  1  0.34801500  0.79792910  0.09862814  1.0
  Ni  Ni42  1  0.68134833  0.13126243  0.09862814  1.0
  Ni  Ni43  1  0.68134833  0.46459576  0.09862814  1.0
  Ni  Ni44  1  0.68134833  0.79792910  0.09862814  1.0
  Ni  Ni45  1  0.18134833  0.25031005  0.02719957  1.0
  Ni  Ni46  1  0.18134833  0.58364338  0.02719957  1.0
  Ni  Ni47  1  0.18134833  0.91697671  0.02719957  1.0
  Ni  Ni48  1  0.51468167  0.25031005  0.02719957  1.0
  Ni  Ni49  1  0.51468167  0.58364338  0.02719957  1.0
  Ni  Ni50  1  0.51468167  0.91697671  0.02719957  1.0
  Ni  Ni51  1  0.84801500  0.25031005  0.02719957  1.0
  Ni  Ni52  1  0.84801500  0.58364338  0.02719957  1.0
  Ni  Ni53  1  0.84801500  0.91697671  0.02719957  1.0
  Ni  Ni54  1  0.05926317  0.28957531  0.08057921  1.0
  Ni  Ni55  1  0.05926317  0.62290864  0.08057921  1.0
  Ni  Ni56  1  0.05926317  0.95624198  0.08057921  1.0
  Ni  Ni57  1  0.39259650  0.28957531  0.08057921  1.0
  Ni  Ni58  1  0.39259650  0.62290864  0.08057921  1.0
  Ni  Ni59  1  0.39259650  0.95624198  0.08057921  1.0
  Ni  Ni60  1  0.72592983  0.28957531  0.08057921  1.0
  Ni  Ni61  1  0.72592983  0.62290864  0.08057921  1.0
  Ni  Ni62  1  0.72592983  0.95624198  0.08057921  1.0
  Ni  Ni63  1  0.22592983  0.07528960  0.00915064  1.0
  Ni  Ni64  1  0.22592983  0.40862293  0.00915064  1.0
  Ni  Ni65  1  0.22592983  0.74195626  0.00915064  1.0
  Ni  Ni66  1  0.55926317  0.07528960  0.00915064  1.0
  Ni  Ni67  1  0.55926317  0.40862293  0.00915064  1.0
  Ni  Ni68  1  0.55926317  0.74195626  0.00915064  1.0
  Ni  Ni69  1  0.89259650  0.07528960  0.00915064  1.0
  Ni  Ni70  1  0.89259650  0.40862293  0.00915064  1.0
  Ni  Ni71  1  0.89259650  0.74195626  0.00915064  1.0
  Ni  Ni72  1  0.27407017  0.13612812  0.05797593  1.0
  Ni  Ni73  1  0.27407017  0.46946145  0.05797593  1.0
  Ni  Ni74  1  0.27407017  0.80279479  0.05797593  1.0
  Ni  Ni75  1  0.60740350  0.13612812  0.05797593  1.0
  Ni  Ni76  1  0.60740350  0.46946145  0.05797593  1.0
  Ni  Ni77  1  0.60740350  0.80279479  0.05797593  1.0
  Ni  Ni78  1  0.94073683  0.13612812  0.05797593  1.0
  Ni  Ni79  1  0.94073683  0.46946145  0.05797593  1.0
  Ni  Ni80  1  0.94073683  0.80279479  0.05797593  1.0
  Ni  Ni81  1  0.10740350  0.01708050  0.12940450  1.0
  Ni  Ni82  1  0.10740350  0.35041383  0.12940450  1.0
  Ni  Ni83  1  0.10740350  0.68374717  0.12940450  1.0
  Ni  Ni84  1  0.44073683  0.01708050  0.12940450  1.0
  Ni  Ni85  1  0.44073683  0.35041383  0.12940450  1.0
  Ni  Ni86  1  0.44073683  0.68374717  0.12940450  1.0
  Ni  Ni87  1  0.77407017  0.01708050  0.12940450  1.0
  Ni  Ni88  1  0.77407017  0.35041383  0.12940450  1.0
  Ni  Ni89  1  0.77407017  0.68374717  0.12940450  1.0
  Ni  Ni90  1  0.31027250  0.30632860  0.11624764  1.0
  Ni  Ni91  1  0.31027250  0.63966193  0.11624764  1.0
  Ni  Ni92  1  0.31027250  0.97299526  0.11624764  1.0
  Ni  Ni93  1  0.64360583  0.30632860  0.11624764  1.0
  Ni  Ni94  1  0.64360583  0.63966193  0.11624764  1.0
  Ni  Ni95  1  0.64360583  0.97299526  0.11624764  1.0
  Ni  Ni96  1  0.97693917  0.30632860  0.11624764  1.0
  Ni  Ni97  1  0.97693917  0.63966193  0.11624764  1.0
  Ni  Ni98  1  0.97693917  0.97299526  0.11624764  1.0
  Ni  Ni99  1  0.14360583  0.09204288  0.04481907  1.0
  Ni  Ni100  1  0.14360583  0.42537621  0.04481907  1.0
  Ni  Ni101  1  0.14360583  0.75870955  0.04481907  1.0
  Ni  Ni102  1  0.47693917  0.09204288  0.04481907  1.0
  Ni  Ni103  1  0.47693917  0.42537621  0.04481907  1.0
  Ni  Ni104  1  0.47693917  0.75870955  0.04481907  1.0
  Ni  Ni105  1  0.81027250  0.09204288  0.04481907  1.0
  Ni  Ni106  1  0.81027250  0.42537621  0.04481907  1.0
  Ni  Ni107  1  0.81027250  0.75870955  0.04481907  1.0
  Ni  Ni108  1  0.02306083  0.11937483  0.02230750  1.0
  Ni  Ni109  1  0.02306083  0.45270817  0.02230750  1.0
  Ni  Ni110  1  0.02306083  0.78604150  0.02230750  1.0
  Ni  Ni111  1  0.35639417  0.11937483  0.02230750  1.0
  Ni  Ni112  1  0.35639417  0.45270817  0.02230750  1.0
  Ni  Ni113  1  0.35639417  0.78604150  0.02230750  1.0
  Ni  Ni114  1  0.68972750  0.11937483  0.02230750  1.0
  Ni  Ni115  1  0.68972750  0.45270817  0.02230750  1.0
  Ni  Ni116  1  0.68972750  0.78604150  0.02230750  1.0
  Ni  Ni117  1  0.18972750  0.00032721  0.09373607  1.0
  Ni  Ni118  1  0.18972750  0.33366055  0.09373607  1.0
  Ni  Ni119  1  0.18972750  0.66699388  0.09373607  1.0
  Ni  Ni120  1  0.52306083  0.00032721  0.09373607  1.0
  Ni  Ni121  1  0.52306083  0.33366055  0.09373607  1.0
  Ni  Ni122  1  0.52306083  0.66699388  0.09373607  1.0
  Ni  Ni123  1  0.85639417  0.00032721  0.09373607  1.0
  Ni  Ni124  1  0.85639417  0.33366055  0.09373607  1.0
  Ni  Ni125  1  0.85639417  0.66699388  0.09373607  1.0
  Ni  Ni126  1  0.26107850  0.26405921  0.14160907  1.0
  Ni  Ni127  1  0.26107850  0.59739255  0.14160907  1.0
  Ni  Ni128  1  0.26107850  0.93072588  0.14160907  1.0
  Ni  Ni129  1  0.59441183  0.26405921  0.14160907  1.0
  Ni  Ni130  1  0.59441183  0.59739255  0.14160907  1.0
  Ni  Ni131  1  0.59441183  0.93072588  0.14160907  1.0
  Ni  Ni132  1  0.92774517  0.26405921  0.14160907  1.0
  Ni  Ni133  1  0.92774517  0.59739255  0.14160907  1.0
  Ni  Ni134  1  0.92774517  0.93072588  0.14160907  1.0
  Ni  Ni135  1  0.09441183  0.04977350  0.07018050  1.0
  Ni  Ni136  1  0.09441183  0.38310683  0.07018050  1.0
  Ni  Ni137  1  0.09441183  0.71644017  0.07018050  1.0
  Ni  Ni138  1  0.42774517  0.04977350  0.07018050  1.0
  Ni  Ni139  1  0.42774517  0.38310683  0.07018050  1.0
  Ni  Ni140  1  0.42774517  0.71644017  0.07018050  1.0
  Ni  Ni141  1  0.76107850  0.04977350  0.07018050  1.0
  Ni  Ni142  1  0.76107850  0.38310683  0.07018050  1.0
  Ni  Ni143  1  0.76107850  0.71644017  0.07018050  1.0
  Ni  Ni144  1  0.23898717  0.23725550  0.07448250  1.0
  Ni  Ni145  1  0.23898717  0.57058883  0.07448250  1.0
  Ni  Ni146  1  0.23898717  0.90392217  0.07448250  1.0
  Ni  Ni147  1  0.57232050  0.23725550  0.07448250  1.0
  Ni  Ni148  1  0.57232050  0.57058883  0.07448250  1.0
  Ni  Ni149  1  0.57232050  0.90392217  0.07448250  1.0
  Ni  Ni150  1  0.90565383  0.23725550  0.07448250  1.0
  Ni  Ni151  1  0.90565383  0.57058883  0.07448250  1.0
  Ni  Ni152  1  0.90565383  0.90392217  0.07448250  1.0
  Ni  Ni153  1  0.07232050  0.02296979  0.00305393  1.0
  Ni  Ni154  1  0.07232050  0.35630312  0.00305393  1.0
  Ni  Ni155  1  0.07232050  0.68963645  0.00305393  1.0
  Ni  Ni156  1  0.40565383  0.02296979  0.00305393  1.0
  Ni  Ni157  1  0.40565383  0.35630312  0.00305393  1.0
  Ni  Ni158  1  0.40565383  0.68963645  0.00305393  1.0
  Ni  Ni159  1  0.73898717  0.02296979  0.00305393  1.0
  Ni  Ni160  1  0.73898717  0.35630312  0.00305393  1.0
  Ni  Ni161  1  0.73898717  0.68963645  0.00305393  1.0
  Ni  Ni162  1  0.09434617  0.18844793  0.06407264  1.0
  Ni  Ni163  1  0.09434617  0.52178126  0.06407264  1.0
  Ni  Ni164  1  0.09434617  0.85511460  0.06407264  1.0
  Ni  Ni165  1  0.42767950  0.18844793  0.06407264  1.0
  Ni  Ni166  1  0.42767950  0.52178126  0.06407264  1.0
  Ni  Ni167  1  0.42767950  0.85511460  0.06407264  1.0
  Ni  Ni168  1  0.76101283  0.18844793  0.06407264  1.0
  Ni  Ni169  1  0.76101283  0.52178126  0.06407264  1.0
  Ni  Ni170  1  0.76101283  0.85511460  0.06407264  1.0
  Ni  Ni171  1  0.26101283  0.06940031  0.13550121  1.0
  Ni  Ni172  1  0.26101283  0.40273364  0.13550121  1.0
  Ni  Ni173  1  0.26101283  0.73606698  0.13550121  1.0
  Ni  Ni174  1  0.59434617  0.06940031  0.13550121  1.0
  Ni  Ni175  1  0.59434617  0.40273364  0.13550121  1.0
  Ni  Ni176  1  0.59434617  0.73606698  0.13550121  1.0
  Ni  Ni177  1  0.92767950  0.06940031  0.13550121  1.0
  Ni  Ni178  1  0.92767950  0.40273364  0.13550121  1.0
  Ni  Ni179  1  0.92767950  0.73606698  0.13550121  1.0
  Ni  Ni180  1  0.03443850  0.21273626  0.09317364  1.0
  Ni  Ni181  1  0.03443850  0.54606960  0.09317364  1.0
  Ni  Ni182  1  0.03443850  0.87940293  0.09317364  1.0
  Ni  Ni183  1  0.36777183  0.21273626  0.09317364  1.0
  Ni  Ni184  1  0.36777183  0.54606960  0.09317364  1.0
  Ni  Ni185  1  0.36777183  0.87940293  0.09317364  1.0
  Ni  Ni186  1  0.70110517  0.21273626  0.09317364  1.0
  Ni  Ni187  1  0.70110517  0.54606960  0.09317364  1.0
  Ni  Ni188  1  0.70110517  0.87940293  0.09317364  1.0
  Ni  Ni189  1  0.20110517  0.33178388  0.02174507  1.0
  Ni  Ni190  1  0.20110517  0.66511721  0.02174507  1.0
  Ni  Ni191  1  0.20110517  0.99845055  0.02174507  1.0
  Ni  Ni192  1  0.53443850  0.33178388  0.02174507  1.0
  Ni  Ni193  1  0.53443850  0.66511721  0.02174507  1.0
  Ni  Ni194  1  0.53443850  0.99845055  0.02174507  1.0
  Ni  Ni195  1  0.86777183  0.33178388  0.02174507  1.0
  Ni  Ni196  1  0.86777183  0.66511721  0.02174507  1.0
  Ni  Ni197  1  0.86777183  0.99845055  0.02174507  1.0
  Ni  Ni198  1  0.29889483  0.21296717  0.04538150  1.0
  Ni  Ni199  1  0.29889483  0.54630050  0.04538150  1.0
  Ni  Ni200  1  0.29889483  0.87963383  0.04538150  1.0
  Ni  Ni201  1  0.63222817  0.21296717  0.04538150  1.0
  Ni  Ni202  1  0.63222817  0.54630050  0.04538150  1.0
  Ni  Ni203  1  0.63222817  0.87963383  0.04538150  1.0
  Ni  Ni204  1  0.96556150  0.21296717  0.04538150  1.0
  Ni  Ni205  1  0.96556150  0.54630050  0.04538150  1.0
  Ni  Ni206  1  0.96556150  0.87963383  0.04538150  1.0
  Ni  Ni207  1  0.13222817  0.09391955  0.11681007  1.0
  Ni  Ni208  1  0.13222817  0.42725288  0.11681007  1.0
  Ni  Ni209  1  0.13222817  0.76058621  0.11681007  1.0
  Ni  Ni210  1  0.46556150  0.09391955  0.11681007  1.0
  Ni  Ni211  1  0.46556150  0.42725288  0.11681007  1.0
  Ni  Ni212  1  0.46556150  0.76058621  0.11681007  1.0
  Ni  Ni213  1  0.79889483  0.09391955  0.11681007  1.0
  Ni  Ni214  1  0.79889483  0.42725288  0.11681007  1.0
  Ni  Ni215  1  0.79889483  0.76058621  0.11681007  1.0
  Ni  Ni216  1  0.31171983  0.17286883  0.12051650  1.0
  Ni  Ni217  1  0.31171983  0.50620217  0.12051650  1.0
  Ni  Ni218  1  0.31171983  0.83953550  0.12051650  1.0
  Ni  Ni219  1  0.64505317  0.17286883  0.12051650  1.0
  Ni  Ni220  1  0.64505317  0.50620217  0.12051650  1.0
  Ni  Ni221  1  0.64505317  0.83953550  0.12051650  1.0
  Ni  Ni222  1  0.97838650  0.17286883  0.12051650  1.0
  Ni  Ni223  1  0.97838650  0.50620217  0.12051650  1.0
  Ni  Ni224  1  0.97838650  0.83953550  0.12051650  1.0
  Ni  Ni225  1  0.14505317  0.29191645  0.04908793  1.0
  Ni  Ni226  1  0.14505317  0.62524979  0.04908793  1.0
  Ni  Ni227  1  0.14505317  0.95858312  0.04908793  1.0
  Ni  Ni228  1  0.47838650  0.29191645  0.04908793  1.0
  Ni  Ni229  1  0.47838650  0.62524979  0.04908793  1.0
  Ni  Ni230  1  0.47838650  0.95858312  0.04908793  1.0
  Ni  Ni231  1  0.81171983  0.29191645  0.04908793  1.0
  Ni  Ni232  1  0.81171983  0.62524979  0.04908793  1.0
  Ni  Ni233  1  0.81171983  0.95858312  0.04908793  1.0
  Ni  Ni234  1  0.02161350  0.25283460  0.01803864  1.0
  Ni  Ni235  1  0.02161350  0.58616793  0.01803864  1.0
  Ni  Ni236  1  0.02161350  0.91950126  0.01803864  1.0
  Ni  Ni237  1  0.35494683  0.25283460  0.01803864  1.0
  Ni  Ni238  1  0.35494683  0.58616793  0.01803864  1.0
  Ni  Ni239  1  0.35494683  0.91950126  0.01803864  1.0
  Ni  Ni240  1  0.68828017  0.25283460  0.01803864  1.0
  Ni  Ni241  1  0.68828017  0.58616793  0.01803864  1.0
  Ni  Ni242  1  0.68828017  0.91950126  0.01803864  1.0
  Ni  Ni243  1  0.18828017  0.13378698  0.08946721  1.0
  Ni  Ni244  1  0.18828017  0.46712031  0.08946721  1.0
  Ni  Ni245  1  0.18828017  0.80045364  0.08946721  1.0
  Ni  Ni246  1  0.52161350  0.13378698  0.08946721  1.0
  Ni  Ni247  1  0.52161350  0.46712031  0.08946721  1.0
  Ni  Ni248  1  0.52161350  0.80045364  0.08946721  1.0
  Ni  Ni249  1  0.85494683  0.13378698  0.08946721  1.0
  Ni  Ni250  1  0.85494683  0.46712031  0.08946721  1.0
  Ni  Ni251  1  0.85494683  0.80045364  0.08946721  1.0
  Ni  Ni252  1  0.28398050  0.21635645  0.12785293  1.0
  Ni  Ni253  1  0.28398050  0.54968979  0.12785293  1.0
  Ni  Ni254  1  0.28398050  0.88302312  0.12785293  1.0
  Ni  Ni255  1  0.61731383  0.21635645  0.12785293  1.0
  Ni  Ni256  1  0.61731383  0.54968979  0.12785293  1.0
  Ni  Ni257  1  0.61731383  0.88302312  0.12785293  1.0
  Ni  Ni258  1  0.95064717  0.21635645  0.12785293  1.0
  Ni  Ni259  1  0.95064717  0.54968979  0.12785293  1.0
  Ni  Ni260  1  0.95064717  0.88302312  0.12785293  1.0
  Ni  Ni261  1  0.11731383  0.00207074  0.05642436  1.0
  Ni  Ni262  1  0.11731383  0.33540407  0.05642436  1.0
  Ni  Ni263  1  0.11731383  0.66873740  0.05642436  1.0
  Ni  Ni264  1  0.45064717  0.00207074  0.05642436  1.0
  Ni  Ni265  1  0.45064717  0.33540407  0.05642436  1.0
  Ni  Ni266  1  0.45064717  0.66873740  0.05642436  1.0
  Ni  Ni267  1  0.78398050  0.00207074  0.05642436  1.0
  Ni  Ni268  1  0.78398050  0.33540407  0.05642436  1.0
  Ni  Ni269  1  0.78398050  0.66873740  0.05642436  1.0
  Ni  Ni270  1  0.04935283  0.20934698  0.01070221  1.0
  Ni  Ni271  1  0.04935283  0.54268031  0.01070221  1.0
  Ni  Ni272  1  0.04935283  0.87601364  0.01070221  1.0
  Ni  Ni273  1  0.38268617  0.20934698  0.01070221  1.0
  Ni  Ni274  1  0.38268617  0.54268031  0.01070221  1.0
  Ni  Ni275  1  0.38268617  0.87601364  0.01070221  1.0
  Ni  Ni276  1  0.71601950  0.20934698  0.01070221  1.0
  Ni  Ni277  1  0.71601950  0.54268031  0.01070221  1.0
  Ni  Ni278  1  0.71601950  0.87601364  0.01070221  1.0
  Ni  Ni279  1  0.21601950  0.09029936  0.08213079  1.0
  Ni  Ni280  1  0.21601950  0.42363269  0.08213079  1.0
  Ni  Ni281  1  0.21601950  0.75696602  0.08213079  1.0
  Ni  Ni282  1  0.54935283  0.09029936  0.08213079  1.0
  Ni  Ni283  1  0.54935283  0.42363269  0.08213079  1.0
  Ni  Ni284  1  0.54935283  0.75696602  0.08213079  1.0
  Ni  Ni285  1  0.88268617  0.09029936  0.08213079  1.0
  Ni  Ni286  1  0.88268617  0.42363269  0.08213079  1.0
  Ni  Ni287  1  0.88268617  0.75696602  0.08213079  1.0
  Ni  Ni288  1  0.01051600  0.04472686  0.03343829  1.0
  Ni  Ni289  1  0.01051600  0.37806019  0.03343829  1.0
  Ni  Ni290  1  0.01051600  0.71139352  0.03343829  1.0
  Ni  Ni291  1  0.34384933  0.04472686  0.03343829  1.0
  Ni  Ni292  1  0.34384933  0.37806019  0.03343829  1.0
  Ni  Ni293  1  0.34384933  0.71139352  0.03343829  1.0
  Ni  Ni294  1  0.67718267  0.04472686  0.03343829  1.0
  Ni  Ni295  1  0.67718267  0.37806019  0.03343829  1.0
  Ni  Ni296  1  0.67718267  0.71139352  0.03343829  1.0
  Ni  Ni297  1  0.17718267  0.25901257  0.10486686  1.0
  Ni  Ni298  1  0.17718267  0.59234590  0.10486686  1.0
  Ni  Ni299  1  0.17718267  0.92567924  0.10486686  1.0
  Ni  Ni300  1  0.51051600  0.25901257  0.10486686  1.0
  Ni  Ni301  1  0.51051600  0.59234590  0.10486686  1.0
  Ni  Ni302  1  0.51051600  0.92567924  0.10486686  1.0
  Ni  Ni303  1  0.84384933  0.25901257  0.10486686  1.0
  Ni  Ni304  1  0.84384933  0.59234590  0.10486686  1.0
  Ni  Ni305  1  0.84384933  0.92567924  0.10486686  1.0
  Ni  Ni306  1  0.32281733  0.04764324  0.10511686  1.0
  Ni  Ni307  1  0.32281733  0.38097657  0.10511686  1.0
  Ni  Ni308  1  0.32281733  0.71430990  0.10511686  1.0
  Ni  Ni309  1  0.65615067  0.04764324  0.10511686  1.0
  Ni  Ni310  1  0.65615067  0.38097657  0.10511686  1.0
  Ni  Ni311  1  0.65615067  0.71430990  0.10511686  1.0
  Ni  Ni312  1  0.98948400  0.04764324  0.10511686  1.0
  Ni  Ni313  1  0.98948400  0.38097657  0.10511686  1.0
  Ni  Ni314  1  0.98948400  0.71430990  0.10511686  1.0
  Ni  Ni315  1  0.15615067  0.16669086  0.03368829  1.0
  Ni  Ni316  1  0.15615067  0.50002419  0.03368829  1.0
  Ni  Ni317  1  0.15615067  0.83335752  0.03368829  1.0
  Ni  Ni318  1  0.48948400  0.16669086  0.03368829  1.0
  Ni  Ni319  1  0.48948400  0.50002419  0.03368829  1.0
  Ni  Ni320  1  0.48948400  0.83335752  0.03368829  1.0
  Ni  Ni321  1  0.82281733  0.16669086  0.03368829  1.0
  Ni  Ni322  1  0.82281733  0.50002419  0.03368829  1.0
  Ni  Ni323  1  0.82281733  0.83335752  0.03368829  1.0
  Ni  Ni324  1  0.11596717  0.21832002  0.12951079  1.0
  Ni  Ni325  1  0.11596717  0.55165336  0.12951079  1.0
  Ni  Ni326  1  0.11596717  0.88498669  0.12951079  1.0
  Ni  Ni327  1  0.44930050  0.21832002  0.12951079  1.0
  Ni  Ni328  1  0.44930050  0.55165336  0.12951079  1.0
  Ni  Ni329  1  0.44930050  0.88498669  0.12951079  1.0
  Ni  Ni330  1  0.78263383  0.21832002  0.12951079  1.0
  Ni  Ni331  1  0.78263383  0.55165336  0.12951079  1.0
  Ni  Ni332  1  0.78263383  0.88498669  0.12951079  1.0
  Ni  Ni333  1  0.28263383  0.00403431  0.05808221  1.0
  Ni  Ni334  1  0.28263383  0.33736764  0.05808221  1.0
  Ni  Ni335  1  0.28263383  0.67070098  0.05808221  1.0
  Ni  Ni336  1  0.61596717  0.00403431  0.05808221  1.0
  Ni  Ni337  1  0.61596717  0.33736764  0.05808221  1.0
  Ni  Ni338  1  0.61596717  0.67070098  0.05808221  1.0
  Ni  Ni339  1  0.94930050  0.00403431  0.05808221  1.0
  Ni  Ni340  1  0.94930050  0.33736764  0.05808221  1.0
  Ni  Ni341  1  0.94930050  0.67070098  0.05808221  1.0
  Ni  Ni342  1  0.21736617  0.20738340  0.00904436  1.0
  Ni  Ni343  1  0.21736617  0.54071674  0.00904436  1.0
  Ni  Ni344  1  0.21736617  0.87405007  0.00904436  1.0
  Ni  Ni345  1  0.55069950  0.20738340  0.00904436  1.0
  Ni  Ni346  1  0.55069950  0.54071674  0.00904436  1.0
  Ni  Ni347  1  0.55069950  0.87405007  0.00904436  1.0
  Ni  Ni348  1  0.88403283  0.20738340  0.00904436  1.0
  Ni  Ni349  1  0.88403283  0.54071674  0.00904436  1.0
  Ni  Ni350  1  0.88403283  0.87405007  0.00904436  1.0
  Ni  Ni351  1  0.05069950  0.08833579  0.08047293  1.0
  Ni  Ni352  1  0.05069950  0.42166912  0.08047293  1.0
  Ni  Ni353  1  0.05069950  0.75500245  0.08047293  1.0
  Ni  Ni354  1  0.38403283  0.08833579  0.08047293  1.0
  Ni  Ni355  1  0.38403283  0.42166912  0.08047293  1.0
  Ni  Ni356  1  0.38403283  0.75500245  0.08047293  1.0
  Ni  Ni357  1  0.71736617  0.08833579  0.08047293  1.0
  Ni  Ni358  1  0.71736617  0.42166912  0.08047293  1.0
  Ni  Ni359  1  0.71736617  0.75500245  0.08047293  1.0
  Ni  Ni360  1  0.07225483  0.25688231  0.13980321  1.0
  Ni  Ni361  1  0.07225483  0.59021564  0.13980321  1.0
  Ni  Ni362  1  0.07225483  0.92354898  0.13980321  1.0
  Ni  Ni363  1  0.40558817  0.25688231  0.13980321  1.0
  Ni  Ni364  1  0.40558817  0.59021564  0.13980321  1.0
  Ni  Ni365  1  0.40558817  0.92354898  0.13980321  1.0
  Ni  Ni366  1  0.73892150  0.25688231  0.13980321  1.0
  Ni  Ni367  1  0.73892150  0.59021564  0.13980321  1.0
  Ni  Ni368  1  0.73892150  0.92354898  0.13980321  1.0
  Ni  Ni369  1  0.23892150  0.04259660  0.06837464  1.0
  Ni  Ni370  1  0.23892150  0.37592993  0.06837464  1.0
  Ni  Ni371  1  0.23892150  0.70926326  0.06837464  1.0
  Ni  Ni372  1  0.57225483  0.04259660  0.06837464  1.0
  Ni  Ni373  1  0.57225483  0.37592993  0.06837464  1.0
  Ni  Ni374  1  0.57225483  0.70926326  0.06837464  1.0
  Ni  Ni375  1  0.90558817  0.04259660  0.06837464  1.0
  Ni  Ni376  1  0.90558817  0.37592993  0.06837464  1.0
  Ni  Ni377  1  0.90558817  0.70926326  0.06837464  1.0
  Ni  Ni378  1  0.00000000  0.18904219  0.28356329  1.0
  Ni  Ni379  1  0.00000000  0.52237552  0.28356329  1.0
  Ni  Ni380  1  0.00000000  0.85570886  0.28356329  1.0
  Ni  Ni381  1  0.33333333  0.18904219  0.28356329  1.0
  Ni  Ni382  1  0.33333333  0.52237552  0.28356329  1.0
  Ni  Ni383  1  0.33333333  0.85570886  0.28356329  1.0
  Ni  Ni384  1  0.66666667  0.18904219  0.28356329  1.0
  Ni  Ni385  1  0.66666667  0.52237552  0.28356329  1.0
  Ni  Ni386  1  0.66666667  0.85570886  0.28356329  1.0
  Ni  Ni387  1  0.16666667  0.30808981  0.21213471  1.0
  Ni  Ni388  1  0.16666667  0.64142314  0.21213471  1.0
  Ni  Ni389  1  0.16666667  0.97475648  0.21213471  1.0
  Ni  Ni390  1  0.50000000  0.30808981  0.21213471  1.0
  Ni  Ni391  1  0.50000000  0.64142314  0.21213471  1.0
  Ni  Ni392  1  0.50000000  0.97475648  0.21213471  1.0
  Ni  Ni393  1  0.83333333  0.30808981  0.21213471  1.0
  Ni  Ni394  1  0.83333333  0.64142314  0.21213471  1.0
  Ni  Ni395  1  0.83333333  0.97475648  0.21213471  1.0
  Ni  Ni396  1  0.31865167  0.05634576  0.18278414  1.0
  Ni  Ni397  1  0.31865167  0.38967910  0.18278414  1.0
  Ni  Ni398  1  0.31865167  0.72301243  0.18278414  1.0
  Ni  Ni399  1  0.65198500  0.05634576  0.18278414  1.0
  Ni  Ni400  1  0.65198500  0.38967910  0.18278414  1.0
  Ni  Ni401  1  0.65198500  0.72301243  0.18278414  1.0
  Ni  Ni402  1  0.98531833  0.05634576  0.18278414  1.0
  Ni  Ni403  1  0.98531833  0.38967910  0.18278414  1.0
  Ni  Ni404  1  0.98531833  0.72301243  0.18278414  1.0
  Ni  Ni405  1  0.15198500  0.27063148  0.25421271  1.0
  Ni  Ni406  1  0.15198500  0.60396481  0.25421271  1.0
  Ni  Ni407  1  0.15198500  0.93729814  0.25421271  1.0
  Ni  Ni408  1  0.48531833  0.27063148  0.25421271  1.0
  Ni  Ni409  1  0.48531833  0.60396481  0.25421271  1.0
  Ni  Ni410  1  0.48531833  0.93729814  0.25421271  1.0
  Ni  Ni411  1  0.81865167  0.27063148  0.25421271  1.0
  Ni  Ni412  1  0.81865167  0.60396481  0.25421271  1.0
  Ni  Ni413  1  0.81865167  0.93729814  0.25421271  1.0
  Ni  Ni414  1  0.01468167  0.22650052  0.24148529  1.0
  Ni  Ni415  1  0.01468167  0.55983386  0.24148529  1.0
  Ni  Ni416  1  0.01468167  0.89316719  0.24148529  1.0
  Ni  Ni417  1  0.34801500  0.22650052  0.24148529  1.0
  Ni  Ni418  1  0.34801500  0.55983386  0.24148529  1.0
  Ni  Ni419  1  0.34801500  0.89316719  0.24148529  1.0
  Ni  Ni420  1  0.68134833  0.22650052  0.24148529  1.0
  Ni  Ni421  1  0.68134833  0.55983386  0.24148529  1.0
  Ni  Ni422  1  0.68134833  0.89316719  0.24148529  1.0
  Ni  Ni423  1  0.18134833  0.01221481  0.17005671  1.0
  Ni  Ni424  1  0.18134833  0.34554814  0.17005671  1.0
  Ni  Ni425  1  0.18134833  0.67888148  0.17005671  1.0
  Ni  Ni426  1  0.51468167  0.01221481  0.17005671  1.0
  Ni  Ni427  1  0.51468167  0.34554814  0.17005671  1.0
  Ni  Ni428  1  0.51468167  0.67888148  0.17005671  1.0
  Ni  Ni429  1  0.84801500  0.01221481  0.17005671  1.0
  Ni  Ni430  1  0.84801500  0.34554814  0.17005671  1.0
  Ni  Ni431  1  0.84801500  0.67888148  0.17005671  1.0
  Ni  Ni432  1  0.05926317  0.05148007  0.22343636  1.0
  Ni  Ni433  1  0.05926317  0.38481340  0.22343636  1.0
  Ni  Ni434  1  0.05926317  0.71814674  0.22343636  1.0
  Ni  Ni435  1  0.39259650  0.05148007  0.22343636  1.0
  Ni  Ni436  1  0.39259650  0.38481340  0.22343636  1.0
  Ni  Ni437  1  0.39259650  0.71814674  0.22343636  1.0
  Ni  Ni438  1  0.72592983  0.05148007  0.22343636  1.0
  Ni  Ni439  1  0.72592983  0.38481340  0.22343636  1.0
  Ni  Ni440  1  0.72592983  0.71814674  0.22343636  1.0
  Ni  Ni441  1  0.22592983  0.17052769  0.15200779  1.0
  Ni  Ni442  1  0.22592983  0.50386102  0.15200779  1.0
  Ni  Ni443  1  0.22592983  0.83719436  0.15200779  1.0
  Ni  Ni444  1  0.55926317  0.17052769  0.15200779  1.0
  Ni  Ni445  1  0.55926317  0.50386102  0.15200779  1.0
  Ni  Ni446  1  0.55926317  0.83719436  0.15200779  1.0
  Ni  Ni447  1  0.89259650  0.17052769  0.15200779  1.0
  Ni  Ni448  1  0.89259650  0.50386102  0.15200779  1.0
  Ni  Ni449  1  0.89259650  0.83719436  0.15200779  1.0
  Ni  Ni450  1  0.27407017  0.23136621  0.20083307  1.0
  Ni  Ni451  1  0.27407017  0.56469955  0.20083307  1.0
  Ni  Ni452  1  0.27407017  0.89803288  0.20083307  1.0
  Ni  Ni453  1  0.60740350  0.23136621  0.20083307  1.0
  Ni  Ni454  1  0.60740350  0.56469955  0.20083307  1.0
  Ni  Ni455  1  0.60740350  0.89803288  0.20083307  1.0
  Ni  Ni456  1  0.94073683  0.23136621  0.20083307  1.0
  Ni  Ni457  1  0.94073683  0.56469955  0.20083307  1.0
  Ni  Ni458  1  0.94073683  0.89803288  0.20083307  1.0
  Ni  Ni459  1  0.10740350  0.11231860  0.27226164  1.0
  Ni  Ni460  1  0.10740350  0.44565193  0.27226164  1.0
  Ni  Ni461  1  0.10740350  0.77898526  0.27226164  1.0
  Ni  Ni462  1  0.44073683  0.11231860  0.27226164  1.0
  Ni  Ni463  1  0.44073683  0.44565193  0.27226164  1.0
  Ni  Ni464  1  0.44073683  0.77898526  0.27226164  1.0
  Ni  Ni465  1  0.77407017  0.11231860  0.27226164  1.0
  Ni  Ni466  1  0.77407017  0.44565193  0.27226164  1.0
  Ni  Ni467  1  0.77407017  0.77898526  0.27226164  1.0
  Ni  Ni468  1  0.31027250  0.06823336  0.25910479  1.0
  Ni  Ni469  1  0.31027250  0.40156669  0.25910479  1.0
  Ni  Ni470  1  0.31027250  0.73490002  0.25910479  1.0
  Ni  Ni471  1  0.64360583  0.06823336  0.25910479  1.0
  Ni  Ni472  1  0.64360583  0.40156669  0.25910479  1.0
  Ni  Ni473  1  0.64360583  0.73490002  0.25910479  1.0
  Ni  Ni474  1  0.97693917  0.06823336  0.25910479  1.0
  Ni  Ni475  1  0.97693917  0.40156669  0.25910479  1.0
  Ni  Ni476  1  0.97693917  0.73490002  0.25910479  1.0
  Ni  Ni477  1  0.14360583  0.18728098  0.18767621  1.0
  Ni  Ni478  1  0.14360583  0.52061431  0.18767621  1.0
  Ni  Ni479  1  0.14360583  0.85394764  0.18767621  1.0
  Ni  Ni480  1  0.47693917  0.18728098  0.18767621  1.0
  Ni  Ni481  1  0.47693917  0.52061431  0.18767621  1.0
  Ni  Ni482  1  0.47693917  0.85394764  0.18767621  1.0
  Ni  Ni483  1  0.81027250  0.18728098  0.18767621  1.0
  Ni  Ni484  1  0.81027250  0.52061431  0.18767621  1.0
  Ni  Ni485  1  0.81027250  0.85394764  0.18767621  1.0
  Ni  Ni486  1  0.02306083  0.21461293  0.16516464  1.0
  Ni  Ni487  1  0.02306083  0.54794626  0.16516464  1.0
  Ni  Ni488  1  0.02306083  0.88127960  0.16516464  1.0
  Ni  Ni489  1  0.35639417  0.21461293  0.16516464  1.0
  Ni  Ni490  1  0.35639417  0.54794626  0.16516464  1.0
  Ni  Ni491  1  0.35639417  0.88127960  0.16516464  1.0
  Ni  Ni492  1  0.68972750  0.21461293  0.16516464  1.0
  Ni  Ni493  1  0.68972750  0.54794626  0.16516464  1.0
  Ni  Ni494  1  0.68972750  0.88127960  0.16516464  1.0
  Ni  Ni495  1  0.18972750  0.09556531  0.23659321  1.0
  Ni  Ni496  1  0.18972750  0.42889864  0.23659321  1.0
  Ni  Ni497  1  0.18972750  0.76223198  0.23659321  1.0
  Ni  Ni498  1  0.52306083  0.09556531  0.23659321  1.0
  Ni  Ni499  1  0.52306083  0.42889864  0.23659321  1.0
  Ni  Ni500  1  0.52306083  0.76223198  0.23659321  1.0
  Ni  Ni501  1  0.85639417  0.09556531  0.23659321  1.0
  Ni  Ni502  1  0.85639417  0.42889864  0.23659321  1.0
  Ni  Ni503  1  0.85639417  0.76223198  0.23659321  1.0
  Ni  Ni504  1  0.26107850  0.02596398  0.28446621  1.0
  Ni  Ni505  1  0.26107850  0.35929731  0.28446621  1.0
  Ni  Ni506  1  0.26107850  0.69263064  0.28446621  1.0
  Ni  Ni507  1  0.59441183  0.02596398  0.28446621  1.0
  Ni  Ni508  1  0.59441183  0.35929731  0.28446621  1.0
  Ni  Ni509  1  0.59441183  0.69263064  0.28446621  1.0
  Ni  Ni510  1  0.92774517  0.02596398  0.28446621  1.0
  Ni  Ni511  1  0.92774517  0.35929731  0.28446621  1.0
  Ni  Ni512  1  0.92774517  0.69263064  0.28446621  1.0
  Ni  Ni513  1  0.09441183  0.14501160  0.21303764  1.0
  Ni  Ni514  1  0.09441183  0.47834493  0.21303764  1.0
  Ni  Ni515  1  0.09441183  0.81167826  0.21303764  1.0
  Ni  Ni516  1  0.42774517  0.14501160  0.21303764  1.0
  Ni  Ni517  1  0.42774517  0.47834493  0.21303764  1.0
  Ni  Ni518  1  0.42774517  0.81167826  0.21303764  1.0
  Ni  Ni519  1  0.76107850  0.14501160  0.21303764  1.0
  Ni  Ni520  1  0.76107850  0.47834493  0.21303764  1.0
  Ni  Ni521  1  0.76107850  0.81167826  0.21303764  1.0
  Ni  Ni522  1  0.23898717  0.33249360  0.21733964  1.0
  Ni  Ni523  1  0.23898717  0.66582693  0.21733964  1.0
  Ni  Ni524  1  0.23898717  0.99916026  0.21733964  1.0
  Ni  Ni525  1  0.57232050  0.33249360  0.21733964  1.0
  Ni  Ni526  1  0.57232050  0.66582693  0.21733964  1.0
  Ni  Ni527  1  0.57232050  0.99916026  0.21733964  1.0
  Ni  Ni528  1  0.90565383  0.33249360  0.21733964  1.0
  Ni  Ni529  1  0.90565383  0.66582693  0.21733964  1.0
  Ni  Ni530  1  0.90565383  0.99916026  0.21733964  1.0
  Ni  Ni531  1  0.07232050  0.11820788  0.14591107  1.0
  Ni  Ni532  1  0.07232050  0.45154121  0.14591107  1.0
  Ni  Ni533  1  0.07232050  0.78487455  0.14591107  1.0
  Ni  Ni534  1  0.40565383  0.11820788  0.14591107  1.0
  Ni  Ni535  1  0.40565383  0.45154121  0.14591107  1.0
  Ni  Ni536  1  0.40565383  0.78487455  0.14591107  1.0
  Ni  Ni537  1  0.73898717  0.11820788  0.14591107  1.0
  Ni  Ni538  1  0.73898717  0.45154121  0.14591107  1.0
  Ni  Ni539  1  0.73898717  0.78487455  0.14591107  1.0
  Ni  Ni540  1  0.09434617  0.28368602  0.20692979  1.0
  Ni  Ni541  1  0.09434617  0.61701936  0.20692979  1.0
  Ni  Ni542  1  0.09434617  0.95035269  0.20692979  1.0
  Ni  Ni543  1  0.42767950  0.28368602  0.20692979  1.0
  Ni  Ni544  1  0.42767950  0.61701936  0.20692979  1.0
  Ni  Ni545  1  0.42767950  0.95035269  0.20692979  1.0
  Ni  Ni546  1  0.76101283  0.28368602  0.20692979  1.0
  Ni  Ni547  1  0.76101283  0.61701936  0.20692979  1.0
  Ni  Ni548  1  0.76101283  0.95035269  0.20692979  1.0
  Ni  Ni549  1  0.26101283  0.16463840  0.27835836  1.0
  Ni  Ni550  1  0.26101283  0.49797174  0.27835836  1.0
  Ni  Ni551  1  0.26101283  0.83130507  0.27835836  1.0
  Ni  Ni552  1  0.59434617  0.16463840  0.27835836  1.0
  Ni  Ni553  1  0.59434617  0.49797174  0.27835836  1.0
  Ni  Ni554  1  0.59434617  0.83130507  0.27835836  1.0
  Ni  Ni555  1  0.92767950  0.16463840  0.27835836  1.0
  Ni  Ni556  1  0.92767950  0.49797174  0.27835836  1.0
  Ni  Ni557  1  0.92767950  0.83130507  0.27835836  1.0
  Ni  Ni558  1  0.03443850  0.30797436  0.23603079  1.0
  Ni  Ni559  1  0.03443850  0.64130769  0.23603079  1.0
  Ni  Ni560  1  0.03443850  0.97464102  0.23603079  1.0
  Ni  Ni561  1  0.36777183  0.30797436  0.23603079  1.0
  Ni  Ni562  1  0.36777183  0.64130769  0.23603079  1.0
  Ni  Ni563  1  0.36777183  0.97464102  0.23603079  1.0
  Ni  Ni564  1  0.70110517  0.30797436  0.23603079  1.0
  Ni  Ni565  1  0.70110517  0.64130769  0.23603079  1.0
  Ni  Ni566  1  0.70110517  0.97464102  0.23603079  1.0
  Ni  Ni567  1  0.20110517  0.09368864  0.16460221  1.0
  Ni  Ni568  1  0.20110517  0.42702198  0.16460221  1.0
  Ni  Ni569  1  0.20110517  0.76035531  0.16460221  1.0
  Ni  Ni570  1  0.53443850  0.09368864  0.16460221  1.0
  Ni  Ni571  1  0.53443850  0.42702198  0.16460221  1.0
  Ni  Ni572  1  0.53443850  0.76035531  0.16460221  1.0
  Ni  Ni573  1  0.86777183  0.09368864  0.16460221  1.0
  Ni  Ni574  1  0.86777183  0.42702198  0.16460221  1.0
  Ni  Ni575  1  0.86777183  0.76035531  0.16460221  1.0
  Ni  Ni576  1  0.29889483  0.30820526  0.18823864  1.0
  Ni  Ni577  1  0.29889483  0.64153860  0.18823864  1.0
  Ni  Ni578  1  0.29889483  0.97487193  0.18823864  1.0
  Ni  Ni579  1  0.63222817  0.30820526  0.18823864  1.0
  Ni  Ni580  1  0.63222817  0.64153860  0.18823864  1.0
  Ni  Ni581  1  0.63222817  0.97487193  0.18823864  1.0
  Ni  Ni582  1  0.96556150  0.30820526  0.18823864  1.0
  Ni  Ni583  1  0.96556150  0.64153860  0.18823864  1.0
  Ni  Ni584  1  0.96556150  0.97487193  0.18823864  1.0
  Ni  Ni585  1  0.13222817  0.18915764  0.25966721  1.0
  Ni  Ni586  1  0.13222817  0.52249098  0.25966721  1.0
  Ni  Ni587  1  0.13222817  0.85582431  0.25966721  1.0
  Ni  Ni588  1  0.46556150  0.18915764  0.25966721  1.0
  Ni  Ni589  1  0.46556150  0.52249098  0.25966721  1.0
  Ni  Ni590  1  0.46556150  0.85582431  0.25966721  1.0
  Ni  Ni591  1  0.79889483  0.18915764  0.25966721  1.0
  Ni  Ni592  1  0.79889483  0.52249098  0.25966721  1.0
  Ni  Ni593  1  0.79889483  0.85582431  0.25966721  1.0
  Ni  Ni594  1  0.31171983  0.26810693  0.26337364  1.0
  Ni  Ni595  1  0.31171983  0.60144026  0.26337364  1.0
  Ni  Ni596  1  0.31171983  0.93477360  0.26337364  1.0
  Ni  Ni597  1  0.64505317  0.26810693  0.26337364  1.0
  Ni  Ni598  1  0.64505317  0.60144026  0.26337364  1.0
  Ni  Ni599  1  0.64505317  0.93477360  0.26337364  1.0
  Ni  Ni600  1  0.97838650  0.26810693  0.26337364  1.0
  Ni  Ni601  1  0.97838650  0.60144026  0.26337364  1.0
  Ni  Ni602  1  0.97838650  0.93477360  0.26337364  1.0
  Ni  Ni603  1  0.14505317  0.05382121  0.19194507  1.0
  Ni  Ni604  1  0.14505317  0.38715455  0.19194507  1.0
  Ni  Ni605  1  0.14505317  0.72048788  0.19194507  1.0
  Ni  Ni606  1  0.47838650  0.05382121  0.19194507  1.0
  Ni  Ni607  1  0.47838650  0.38715455  0.19194507  1.0
  Ni  Ni608  1  0.47838650  0.72048788  0.19194507  1.0
  Ni  Ni609  1  0.81171983  0.05382121  0.19194507  1.0
  Ni  Ni610  1  0.81171983  0.38715455  0.19194507  1.0
  Ni  Ni611  1  0.81171983  0.72048788  0.19194507  1.0
  Ni  Ni612  1  0.02161350  0.01473936  0.16089579  1.0
  Ni  Ni613  1  0.02161350  0.34807269  0.16089579  1.0
  Ni  Ni614  1  0.02161350  0.68140602  0.16089579  1.0
  Ni  Ni615  1  0.35494683  0.01473936  0.16089579  1.0
  Ni  Ni616  1  0.35494683  0.34807269  0.16089579  1.0
  Ni  Ni617  1  0.35494683  0.68140602  0.16089579  1.0
  Ni  Ni618  1  0.68828017  0.01473936  0.16089579  1.0
  Ni  Ni619  1  0.68828017  0.34807269  0.16089579  1.0
  Ni  Ni620  1  0.68828017  0.68140602  0.16089579  1.0
  Ni  Ni621  1  0.18828017  0.22902507  0.23232436  1.0
  Ni  Ni622  1  0.18828017  0.56235840  0.23232436  1.0
  Ni  Ni623  1  0.18828017  0.89569174  0.23232436  1.0
  Ni  Ni624  1  0.52161350  0.22902507  0.23232436  1.0
  Ni  Ni625  1  0.52161350  0.56235840  0.23232436  1.0
  Ni  Ni626  1  0.52161350  0.89569174  0.23232436  1.0
  Ni  Ni627  1  0.85494683  0.22902507  0.23232436  1.0
  Ni  Ni628  1  0.85494683  0.56235840  0.23232436  1.0
  Ni  Ni629  1  0.85494683  0.89569174  0.23232436  1.0
  Ni  Ni630  1  0.28398050  0.31159455  0.27071007  1.0
  Ni  Ni631  1  0.28398050  0.64492788  0.27071007  1.0
  Ni  Ni632  1  0.28398050  0.97826121  0.27071007  1.0
  Ni  Ni633  1  0.61731383  0.31159455  0.27071007  1.0
  Ni  Ni634  1  0.61731383  0.64492788  0.27071007  1.0
  Ni  Ni635  1  0.61731383  0.97826121  0.27071007  1.0
  Ni  Ni636  1  0.95064717  0.31159455  0.27071007  1.0
  Ni  Ni637  1  0.95064717  0.64492788  0.27071007  1.0
  Ni  Ni638  1  0.95064717  0.97826121  0.27071007  1.0
  Ni  Ni639  1  0.11731383  0.09730883  0.19928150  1.0
  Ni  Ni640  1  0.11731383  0.43064217  0.19928150  1.0
  Ni  Ni641  1  0.11731383  0.76397550  0.19928150  1.0
  Ni  Ni642  1  0.45064717  0.09730883  0.19928150  1.0
  Ni  Ni643  1  0.45064717  0.43064217  0.19928150  1.0
  Ni  Ni644  1  0.45064717  0.76397550  0.19928150  1.0
  Ni  Ni645  1  0.78398050  0.09730883  0.19928150  1.0
  Ni  Ni646  1  0.78398050  0.43064217  0.19928150  1.0
  Ni  Ni647  1  0.78398050  0.76397550  0.19928150  1.0
  Ni  Ni648  1  0.04935283  0.30458507  0.15355936  1.0
  Ni  Ni649  1  0.04935283  0.63791840  0.15355936  1.0
  Ni  Ni650  1  0.04935283  0.97125174  0.15355936  1.0
  Ni  Ni651  1  0.38268617  0.30458507  0.15355936  1.0
  Ni  Ni652  1  0.38268617  0.63791840  0.15355936  1.0
  Ni  Ni653  1  0.38268617  0.97125174  0.15355936  1.0
  Ni  Ni654  1  0.71601950  0.30458507  0.15355936  1.0
  Ni  Ni655  1  0.71601950  0.63791840  0.15355936  1.0
  Ni  Ni656  1  0.71601950  0.97125174  0.15355936  1.0
  Ni  Ni657  1  0.21601950  0.18553745  0.22498793  1.0
  Ni  Ni658  1  0.21601950  0.51887079  0.22498793  1.0
  Ni  Ni659  1  0.21601950  0.85220412  0.22498793  1.0
  Ni  Ni660  1  0.54935283  0.18553745  0.22498793  1.0
  Ni  Ni661  1  0.54935283  0.51887079  0.22498793  1.0
  Ni  Ni662  1  0.54935283  0.85220412  0.22498793  1.0
  Ni  Ni663  1  0.88268617  0.18553745  0.22498793  1.0
  Ni  Ni664  1  0.88268617  0.51887079  0.22498793  1.0
  Ni  Ni665  1  0.88268617  0.85220412  0.22498793  1.0
  Ni  Ni666  1  0.01051600  0.13996495  0.17629543  1.0
  Ni  Ni667  1  0.01051600  0.47329829  0.17629543  1.0
  Ni  Ni668  1  0.01051600  0.80663162  0.17629543  1.0
  Ni  Ni669  1  0.34384933  0.13996495  0.17629543  1.0
  Ni  Ni670  1  0.34384933  0.47329829  0.17629543  1.0
  Ni  Ni671  1  0.34384933  0.80663162  0.17629543  1.0
  Ni  Ni672  1  0.67718267  0.13996495  0.17629543  1.0
  Ni  Ni673  1  0.67718267  0.47329829  0.17629543  1.0
  Ni  Ni674  1  0.67718267  0.80663162  0.17629543  1.0
  Ni  Ni675  1  0.17718267  0.02091733  0.24772400  1.0
  Ni  Ni676  1  0.17718267  0.35425067  0.24772400  1.0
  Ni  Ni677  1  0.17718267  0.68758400  0.24772400  1.0
  Ni  Ni678  1  0.51051600  0.02091733  0.24772400  1.0
  Ni  Ni679  1  0.51051600  0.35425067  0.24772400  1.0
  Ni  Ni680  1  0.51051600  0.68758400  0.24772400  1.0
  Ni  Ni681  1  0.84384933  0.02091733  0.24772400  1.0
  Ni  Ni682  1  0.84384933  0.35425067  0.24772400  1.0
  Ni  Ni683  1  0.84384933  0.68758400  0.24772400  1.0
  Ni  Ni684  1  0.32281733  0.14288133  0.24797400  1.0
  Ni  Ni685  1  0.32281733  0.47621467  0.24797400  1.0
  Ni  Ni686  1  0.32281733  0.80954800  0.24797400  1.0
  Ni  Ni687  1  0.65615067  0.14288133  0.24797400  1.0
  Ni  Ni688  1  0.65615067  0.47621467  0.24797400  1.0
  Ni  Ni689  1  0.65615067  0.80954800  0.24797400  1.0
  Ni  Ni690  1  0.98948400  0.14288133  0.24797400  1.0
  Ni  Ni691  1  0.98948400  0.47621467  0.24797400  1.0
  Ni  Ni692  1  0.98948400  0.80954800  0.24797400  1.0
  Ni  Ni693  1  0.15615067  0.26192895  0.17654543  1.0
  Ni  Ni694  1  0.15615067  0.59526229  0.17654543  1.0
  Ni  Ni695  1  0.15615067  0.92859562  0.17654543  1.0
  Ni  Ni696  1  0.48948400  0.26192895  0.17654543  1.0
  Ni  Ni697  1  0.48948400  0.59526229  0.17654543  1.0
  Ni  Ni698  1  0.48948400  0.92859562  0.17654543  1.0
  Ni  Ni699  1  0.82281733  0.26192895  0.17654543  1.0
  Ni  Ni700  1  0.82281733  0.59526229  0.17654543  1.0
  Ni  Ni701  1  0.82281733  0.92859562  0.17654543  1.0
  Ni  Ni702  1  0.11596717  0.31355812  0.27236793  1.0
  Ni  Ni703  1  0.11596717  0.64689145  0.27236793  1.0
  Ni  Ni704  1  0.11596717  0.98022479  0.27236793  1.0
  Ni  Ni705  1  0.44930050  0.31355812  0.27236793  1.0
  Ni  Ni706  1  0.44930050  0.64689145  0.27236793  1.0
  Ni  Ni707  1  0.44930050  0.98022479  0.27236793  1.0
  Ni  Ni708  1  0.78263383  0.31355812  0.27236793  1.0
  Ni  Ni709  1  0.78263383  0.64689145  0.27236793  1.0
  Ni  Ni710  1  0.78263383  0.98022479  0.27236793  1.0
  Ni  Ni711  1  0.28263383  0.09927240  0.20093936  1.0
  Ni  Ni712  1  0.28263383  0.43260574  0.20093936  1.0
  Ni  Ni713  1  0.28263383  0.76593907  0.20093936  1.0
  Ni  Ni714  1  0.61596717  0.09927240  0.20093936  1.0
  Ni  Ni715  1  0.61596717  0.43260574  0.20093936  1.0
  Ni  Ni716  1  0.61596717  0.76593907  0.20093936  1.0
  Ni  Ni717  1  0.94930050  0.09927240  0.20093936  1.0
  Ni  Ni718  1  0.94930050  0.43260574  0.20093936  1.0
  Ni  Ni719  1  0.94930050  0.76593907  0.20093936  1.0
  Ni  Ni720  1  0.21736617  0.30262150  0.15190150  1.0
  Ni  Ni721  1  0.21736617  0.63595483  0.15190150  1.0
  Ni  Ni722  1  0.21736617  0.96928817  0.15190150  1.0
  Ni  Ni723  1  0.55069950  0.30262150  0.15190150  1.0
  Ni  Ni724  1  0.55069950  0.63595483  0.15190150  1.0
  Ni  Ni725  1  0.55069950  0.96928817  0.15190150  1.0
  Ni  Ni726  1  0.88403283  0.30262150  0.15190150  1.0
  Ni  Ni727  1  0.88403283  0.63595483  0.15190150  1.0
  Ni  Ni728  1  0.88403283  0.96928817  0.15190150  1.0
  Ni  Ni729  1  0.05069950  0.18357388  0.22333007  1.0
  Ni  Ni730  1  0.05069950  0.51690721  0.22333007  1.0
  Ni  Ni731  1  0.05069950  0.85024055  0.22333007  1.0
  Ni  Ni732  1  0.38403283  0.18357388  0.22333007  1.0
  Ni  Ni733  1  0.38403283  0.51690721  0.22333007  1.0
  Ni  Ni734  1  0.38403283  0.85024055  0.22333007  1.0
  Ni  Ni735  1  0.71736617  0.18357388  0.22333007  1.0
  Ni  Ni736  1  0.71736617  0.51690721  0.22333007  1.0
  Ni  Ni737  1  0.71736617  0.85024055  0.22333007  1.0
  Ni  Ni738  1  0.07225483  0.01878707  0.28266036  1.0
  Ni  Ni739  1  0.07225483  0.35212040  0.28266036  1.0
  Ni  Ni740  1  0.07225483  0.68545374  0.28266036  1.0
  Ni  Ni741  1  0.40558817  0.01878707  0.28266036  1.0
  Ni  Ni742  1  0.40558817  0.35212040  0.28266036  1.0
  Ni  Ni743  1  0.40558817  0.68545374  0.28266036  1.0
  Ni  Ni744  1  0.73892150  0.01878707  0.28266036  1.0
  Ni  Ni745  1  0.73892150  0.35212040  0.28266036  1.0
  Ni  Ni746  1  0.73892150  0.68545374  0.28266036  1.0
  Ni  Ni747  1  0.23892150  0.13783469  0.21123179  1.0
  Ni  Ni748  1  0.23892150  0.47116802  0.21123179  1.0
  Ni  Ni749  1  0.23892150  0.80450136  0.21123179  1.0
  Ni  Ni750  1  0.57225483  0.13783469  0.21123179  1.0
  Ni  Ni751  1  0.57225483  0.47116802  0.21123179  1.0
  Ni  Ni752  1  0.57225483  0.80450136  0.21123179  1.0
  Ni  Ni753  1  0.90558817  0.13783469  0.21123179  1.0
  Ni  Ni754  1  0.90558817  0.47116802  0.21123179  1.0
  Ni  Ni755  1  0.90558817  0.80450136  0.21123179  1.0
  Ni  Ni756  1  0.00000000  0.28428029  0.42642043  1.0
  Ni  Ni757  1  0.00000000  0.61761362  0.42642043  1.0
  Ni  Ni758  1  0.00000000  0.95094695  0.42642043  1.0
  Ni  Ni759  1  0.33333333  0.28428029  0.42642043  1.0
  Ni  Ni760  1  0.33333333  0.61761362  0.42642043  1.0
  Ni  Ni761  1  0.33333333  0.95094695  0.42642043  1.0
  Ni  Ni762  1  0.66666667  0.28428029  0.42642043  1.0
  Ni  Ni763  1  0.66666667  0.61761362  0.42642043  1.0
  Ni  Ni764  1  0.66666667  0.95094695  0.42642043  1.0
  Ni  Ni765  1  0.16666667  0.06999457  0.35499186  1.0
  Ni  Ni766  1  0.16666667  0.40332790  0.35499186  1.0
  Ni  Ni767  1  0.16666667  0.73666124  0.35499186  1.0
  Ni  Ni768  1  0.50000000  0.06999457  0.35499186  1.0
  Ni  Ni769  1  0.50000000  0.40332790  0.35499186  1.0
  Ni  Ni770  1  0.50000000  0.73666124  0.35499186  1.0
  Ni  Ni771  1  0.83333333  0.06999457  0.35499186  1.0
  Ni  Ni772  1  0.83333333  0.40332790  0.35499186  1.0
  Ni  Ni773  1  0.83333333  0.73666124  0.35499186  1.0
  Ni  Ni774  1  0.31865167  0.15158386  0.32564129  1.0
  Ni  Ni775  1  0.31865167  0.48491719  0.32564129  1.0
  Ni  Ni776  1  0.31865167  0.81825052  0.32564129  1.0
  Ni  Ni777  1  0.65198500  0.15158386  0.32564129  1.0
  Ni  Ni778  1  0.65198500  0.48491719  0.32564129  1.0
  Ni  Ni779  1  0.65198500  0.81825052  0.32564129  1.0
  Ni  Ni780  1  0.98531833  0.15158386  0.32564129  1.0
  Ni  Ni781  1  0.98531833  0.48491719  0.32564129  1.0
  Ni  Ni782  1  0.98531833  0.81825052  0.32564129  1.0
  Ni  Ni783  1  0.15198500  0.03253624  0.39706986  1.0
  Ni  Ni784  1  0.15198500  0.36586957  0.39706986  1.0
  Ni  Ni785  1  0.15198500  0.69920290  0.39706986  1.0
  Ni  Ni786  1  0.48531833  0.03253624  0.39706986  1.0
  Ni  Ni787  1  0.48531833  0.36586957  0.39706986  1.0
  Ni  Ni788  1  0.48531833  0.69920290  0.39706986  1.0
  Ni  Ni789  1  0.81865167  0.03253624  0.39706986  1.0
  Ni  Ni790  1  0.81865167  0.36586957  0.39706986  1.0
  Ni  Ni791  1  0.81865167  0.69920290  0.39706986  1.0
  Ni  Ni792  1  0.01468167  0.32173862  0.38434243  1.0
  Ni  Ni793  1  0.01468167  0.65507195  0.38434243  1.0
  Ni  Ni794  1  0.01468167  0.98840529  0.38434243  1.0
  Ni  Ni795  1  0.34801500  0.32173862  0.38434243  1.0
  Ni  Ni796  1  0.34801500  0.65507195  0.38434243  1.0
  Ni  Ni797  1  0.34801500  0.98840529  0.38434243  1.0
  Ni  Ni798  1  0.68134833  0.32173862  0.38434243  1.0
  Ni  Ni799  1  0.68134833  0.65507195  0.38434243  1.0
  Ni  Ni800  1  0.68134833  0.98840529  0.38434243  1.0
  Ni  Ni801  1  0.18134833  0.10745290  0.31291386  1.0
  Ni  Ni802  1  0.18134833  0.44078624  0.31291386  1.0
  Ni  Ni803  1  0.18134833  0.77411957  0.31291386  1.0
  Ni  Ni804  1  0.51468167  0.10745290  0.31291386  1.0
  Ni  Ni805  1  0.51468167  0.44078624  0.31291386  1.0
  Ni  Ni806  1  0.51468167  0.77411957  0.31291386  1.0
  Ni  Ni807  1  0.84801500  0.10745290  0.31291386  1.0
  Ni  Ni808  1  0.84801500  0.44078624  0.31291386  1.0
  Ni  Ni809  1  0.84801500  0.77411957  0.31291386  1.0
  Ni  Ni810  1  0.05926317  0.14671817  0.36629350  1.0
  Ni  Ni811  1  0.05926317  0.48005150  0.36629350  1.0
  Ni  Ni812  1  0.05926317  0.81338483  0.36629350  1.0
  Ni  Ni813  1  0.39259650  0.14671817  0.36629350  1.0
  Ni  Ni814  1  0.39259650  0.48005150  0.36629350  1.0
  Ni  Ni815  1  0.39259650  0.81338483  0.36629350  1.0
  Ni  Ni816  1  0.72592983  0.14671817  0.36629350  1.0
  Ni  Ni817  1  0.72592983  0.48005150  0.36629350  1.0
  Ni  Ni818  1  0.72592983  0.81338483  0.36629350  1.0
  Ni  Ni819  1  0.22592983  0.26576579  0.29486493  1.0
  Ni  Ni820  1  0.22592983  0.59909912  0.29486493  1.0
  Ni  Ni821  1  0.22592983  0.93243245  0.29486493  1.0
  Ni  Ni822  1  0.55926317  0.26576579  0.29486493  1.0
  Ni  Ni823  1  0.55926317  0.59909912  0.29486493  1.0
  Ni  Ni824  1  0.55926317  0.93243245  0.29486493  1.0
  Ni  Ni825  1  0.89259650  0.26576579  0.29486493  1.0
  Ni  Ni826  1  0.89259650  0.59909912  0.29486493  1.0
  Ni  Ni827  1  0.89259650  0.93243245  0.29486493  1.0
  Ni  Ni828  1  0.27407017  0.32660431  0.34369021  1.0
  Ni  Ni829  1  0.27407017  0.65993764  0.34369021  1.0
  Ni  Ni830  1  0.27407017  0.99327098  0.34369021  1.0
  Ni  Ni831  1  0.60740350  0.32660431  0.34369021  1.0
  Ni  Ni832  1  0.60740350  0.65993764  0.34369021  1.0
  Ni  Ni833  1  0.60740350  0.99327098  0.34369021  1.0
  Ni  Ni834  1  0.94073683  0.32660431  0.34369021  1.0
  Ni  Ni835  1  0.94073683  0.65993764  0.34369021  1.0
  Ni  Ni836  1  0.94073683  0.99327098  0.34369021  1.0
  Ni  Ni837  1  0.10740350  0.20755669  0.41511879  1.0
  Ni  Ni838  1  0.10740350  0.54089002  0.41511879  1.0
  Ni  Ni839  1  0.10740350  0.87422336  0.41511879  1.0
  Ni  Ni840  1  0.44073683  0.20755669  0.41511879  1.0
  Ni  Ni841  1  0.44073683  0.54089002  0.41511879  1.0
  Ni  Ni842  1  0.44073683  0.87422336  0.41511879  1.0
  Ni  Ni843  1  0.77407017  0.20755669  0.41511879  1.0
  Ni  Ni844  1  0.77407017  0.54089002  0.41511879  1.0
  Ni  Ni845  1  0.77407017  0.87422336  0.41511879  1.0
  Ni  Ni846  1  0.31027250  0.16347145  0.40196193  1.0
  Ni  Ni847  1  0.31027250  0.49680479  0.40196193  1.0
  Ni  Ni848  1  0.31027250  0.83013812  0.40196193  1.0
  Ni  Ni849  1  0.64360583  0.16347145  0.40196193  1.0
  Ni  Ni850  1  0.64360583  0.49680479  0.40196193  1.0
  Ni  Ni851  1  0.64360583  0.83013812  0.40196193  1.0
  Ni  Ni852  1  0.97693917  0.16347145  0.40196193  1.0
  Ni  Ni853  1  0.97693917  0.49680479  0.40196193  1.0
  Ni  Ni854  1  0.97693917  0.83013812  0.40196193  1.0
  Ni  Ni855  1  0.14360583  0.28251907  0.33053336  1.0
  Ni  Ni856  1  0.14360583  0.61585240  0.33053336  1.0
  Ni  Ni857  1  0.14360583  0.94918574  0.33053336  1.0
  Ni  Ni858  1  0.47693917  0.28251907  0.33053336  1.0
  Ni  Ni859  1  0.47693917  0.61585240  0.33053336  1.0
  Ni  Ni860  1  0.47693917  0.94918574  0.33053336  1.0
  Ni  Ni861  1  0.81027250  0.28251907  0.33053336  1.0
  Ni  Ni862  1  0.81027250  0.61585240  0.33053336  1.0
  Ni  Ni863  1  0.81027250  0.94918574  0.33053336  1.0
  Ni  Ni864  1  0.02306083  0.30985102  0.30802179  1.0
  Ni  Ni865  1  0.02306083  0.64318436  0.30802179  1.0
  Ni  Ni866  1  0.02306083  0.97651769  0.30802179  1.0
  Ni  Ni867  1  0.35639417  0.30985102  0.30802179  1.0
  Ni  Ni868  1  0.35639417  0.64318436  0.30802179  1.0
  Ni  Ni869  1  0.35639417  0.97651769  0.30802179  1.0
  Ni  Ni870  1  0.68972750  0.30985102  0.30802179  1.0
  Ni  Ni871  1  0.68972750  0.64318436  0.30802179  1.0
  Ni  Ni872  1  0.68972750  0.97651769  0.30802179  1.0
  Ni  Ni873  1  0.18972750  0.19080340  0.37945036  1.0
  Ni  Ni874  1  0.18972750  0.52413674  0.37945036  1.0
  Ni  Ni875  1  0.18972750  0.85747007  0.37945036  1.0
  Ni  Ni876  1  0.52306083  0.19080340  0.37945036  1.0
  Ni  Ni877  1  0.52306083  0.52413674  0.37945036  1.0
  Ni  Ni878  1  0.52306083  0.85747007  0.37945036  1.0
  Ni  Ni879  1  0.85639417  0.19080340  0.37945036  1.0
  Ni  Ni880  1  0.85639417  0.52413674  0.37945036  1.0
  Ni  Ni881  1  0.85639417  0.85747007  0.37945036  1.0
  Ni  Ni882  1  0.26107850  0.12120207  0.42732336  1.0
  Ni  Ni883  1  0.26107850  0.45453540  0.42732336  1.0
  Ni  Ni884  1  0.26107850  0.78786874  0.42732336  1.0
  Ni  Ni885  1  0.59441183  0.12120207  0.42732336  1.0
  Ni  Ni886  1  0.59441183  0.45453540  0.42732336  1.0
  Ni  Ni887  1  0.59441183  0.78786874  0.42732336  1.0
  Ni  Ni888  1  0.92774517  0.12120207  0.42732336  1.0
  Ni  Ni889  1  0.92774517  0.45453540  0.42732336  1.0
  Ni  Ni890  1  0.92774517  0.78786874  0.42732336  1.0
  Ni  Ni891  1  0.09441183  0.24024969  0.35589479  1.0
  Ni  Ni892  1  0.09441183  0.57358302  0.35589479  1.0
  Ni  Ni893  1  0.09441183  0.90691636  0.35589479  1.0
  Ni  Ni894  1  0.42774517  0.24024969  0.35589479  1.0
  Ni  Ni895  1  0.42774517  0.57358302  0.35589479  1.0
  Ni  Ni896  1  0.42774517  0.90691636  0.35589479  1.0
  Ni  Ni897  1  0.76107850  0.24024969  0.35589479  1.0
  Ni  Ni898  1  0.76107850  0.57358302  0.35589479  1.0
  Ni  Ni899  1  0.76107850  0.90691636  0.35589479  1.0
  Ni  Ni900  1  0.23898717  0.09439836  0.36019679  1.0
  Ni  Ni901  1  0.23898717  0.42773169  0.36019679  1.0
  Ni  Ni902  1  0.23898717  0.76106502  0.36019679  1.0
  Ni  Ni903  1  0.57232050  0.09439836  0.36019679  1.0
  Ni  Ni904  1  0.57232050  0.42773169  0.36019679  1.0
  Ni  Ni905  1  0.57232050  0.76106502  0.36019679  1.0
  Ni  Ni906  1  0.90565383  0.09439836  0.36019679  1.0
  Ni  Ni907  1  0.90565383  0.42773169  0.36019679  1.0
  Ni  Ni908  1  0.90565383  0.76106502  0.36019679  1.0
  Ni  Ni909  1  0.07232050  0.21344598  0.28876821  1.0
  Ni  Ni910  1  0.07232050  0.54677931  0.28876821  1.0
  Ni  Ni911  1  0.07232050  0.88011264  0.28876821  1.0
  Ni  Ni912  1  0.40565383  0.21344598  0.28876821  1.0
  Ni  Ni913  1  0.40565383  0.54677931  0.28876821  1.0
  Ni  Ni914  1  0.40565383  0.88011264  0.28876821  1.0
  Ni  Ni915  1  0.73898717  0.21344598  0.28876821  1.0
  Ni  Ni916  1  0.73898717  0.54677931  0.28876821  1.0
  Ni  Ni917  1  0.73898717  0.88011264  0.28876821  1.0
  Ni  Ni918  1  0.09434617  0.04559079  0.34978693  1.0
  Ni  Ni919  1  0.09434617  0.37892412  0.34978693  1.0
  Ni  Ni920  1  0.09434617  0.71225745  0.34978693  1.0
  Ni  Ni921  1  0.42767950  0.04559079  0.34978693  1.0
  Ni  Ni922  1  0.42767950  0.37892412  0.34978693  1.0
  Ni  Ni923  1  0.42767950  0.71225745  0.34978693  1.0
  Ni  Ni924  1  0.76101283  0.04559079  0.34978693  1.0
  Ni  Ni925  1  0.76101283  0.37892412  0.34978693  1.0
  Ni  Ni926  1  0.76101283  0.71225745  0.34978693  1.0
  Ni  Ni927  1  0.26101283  0.25987650  0.42121550  1.0
  Ni  Ni928  1  0.26101283  0.59320983  0.42121550  1.0
  Ni  Ni929  1  0.26101283  0.92654317  0.42121550  1.0
  Ni  Ni930  1  0.59434617  0.25987650  0.42121550  1.0
  Ni  Ni931  1  0.59434617  0.59320983  0.42121550  1.0
  Ni  Ni932  1  0.59434617  0.92654317  0.42121550  1.0
  Ni  Ni933  1  0.92767950  0.25987650  0.42121550  1.0
  Ni  Ni934  1  0.92767950  0.59320983  0.42121550  1.0
  Ni  Ni935  1  0.92767950  0.92654317  0.42121550  1.0
  Ni  Ni936  1  0.03443850  0.06987912  0.37888793  1.0
  Ni  Ni937  1  0.03443850  0.40321245  0.37888793  1.0
  Ni  Ni938  1  0.03443850  0.73654579  0.37888793  1.0
  Ni  Ni939  1  0.36777183  0.06987912  0.37888793  1.0
  Ni  Ni940  1  0.36777183  0.40321245  0.37888793  1.0
  Ni  Ni941  1  0.36777183  0.73654579  0.37888793  1.0
  Ni  Ni942  1  0.70110517  0.06987912  0.37888793  1.0
  Ni  Ni943  1  0.70110517  0.40321245  0.37888793  1.0
  Ni  Ni944  1  0.70110517  0.73654579  0.37888793  1.0
  Ni  Ni945  1  0.20110517  0.18892674  0.30745936  1.0
  Ni  Ni946  1  0.20110517  0.52226007  0.30745936  1.0
  Ni  Ni947  1  0.20110517  0.85559340  0.30745936  1.0
  Ni  Ni948  1  0.53443850  0.18892674  0.30745936  1.0
  Ni  Ni949  1  0.53443850  0.52226007  0.30745936  1.0
  Ni  Ni950  1  0.53443850  0.85559340  0.30745936  1.0
  Ni  Ni951  1  0.86777183  0.18892674  0.30745936  1.0
  Ni  Ni952  1  0.86777183  0.52226007  0.30745936  1.0
  Ni  Ni953  1  0.86777183  0.85559340  0.30745936  1.0
  Ni  Ni954  1  0.29889483  0.07011002  0.33109579  1.0
  Ni  Ni955  1  0.29889483  0.40344336  0.33109579  1.0
  Ni  Ni956  1  0.29889483  0.73677669  0.33109579  1.0
  Ni  Ni957  1  0.63222817  0.07011002  0.33109579  1.0
  Ni  Ni958  1  0.63222817  0.40344336  0.33109579  1.0
  Ni  Ni959  1  0.63222817  0.73677669  0.33109579  1.0
  Ni  Ni960  1  0.96556150  0.07011002  0.33109579  1.0
  Ni  Ni961  1  0.96556150  0.40344336  0.33109579  1.0
  Ni  Ni962  1  0.96556150  0.73677669  0.33109579  1.0
  Ni  Ni963  1  0.13222817  0.28439574  0.40252436  1.0
  Ni  Ni964  1  0.13222817  0.61772907  0.40252436  1.0
  Ni  Ni965  1  0.13222817  0.95106240  0.40252436  1.0
  Ni  Ni966  1  0.46556150  0.28439574  0.40252436  1.0
  Ni  Ni967  1  0.46556150  0.61772907  0.40252436  1.0
  Ni  Ni968  1  0.46556150  0.95106240  0.40252436  1.0
  Ni  Ni969  1  0.79889483  0.28439574  0.40252436  1.0
  Ni  Ni970  1  0.79889483  0.61772907  0.40252436  1.0
  Ni  Ni971  1  0.79889483  0.95106240  0.40252436  1.0
  Ni  Ni972  1  0.31171983  0.03001169  0.40623079  1.0
  Ni  Ni973  1  0.31171983  0.36334502  0.40623079  1.0
  Ni  Ni974  1  0.31171983  0.69667836  0.40623079  1.0
  Ni  Ni975  1  0.64505317  0.03001169  0.40623079  1.0
  Ni  Ni976  1  0.64505317  0.36334502  0.40623079  1.0
  Ni  Ni977  1  0.64505317  0.69667836  0.40623079  1.0
  Ni  Ni978  1  0.97838650  0.03001169  0.40623079  1.0
  Ni  Ni979  1  0.97838650  0.36334502  0.40623079  1.0
  Ni  Ni980  1  0.97838650  0.69667836  0.40623079  1.0
  Ni  Ni981  1  0.14505317  0.14905931  0.33480221  1.0
  Ni  Ni982  1  0.14505317  0.48239264  0.33480221  1.0
  Ni  Ni983  1  0.14505317  0.81572598  0.33480221  1.0
  Ni  Ni984  1  0.47838650  0.14905931  0.33480221  1.0
  Ni  Ni985  1  0.47838650  0.48239264  0.33480221  1.0
  Ni  Ni986  1  0.47838650  0.81572598  0.33480221  1.0
  Ni  Ni987  1  0.81171983  0.14905931  0.33480221  1.0
  Ni  Ni988  1  0.81171983  0.48239264  0.33480221  1.0
  Ni  Ni989  1  0.81171983  0.81572598  0.33480221  1.0
  Ni  Ni990  1  0.02161350  0.10997745  0.30375293  1.0
  Ni  Ni991  1  0.02161350  0.44331079  0.30375293  1.0
  Ni  Ni992  1  0.02161350  0.77664412  0.30375293  1.0
  Ni  Ni993  1  0.35494683  0.10997745  0.30375293  1.0
  Ni  Ni994  1  0.35494683  0.44331079  0.30375293  1.0
  Ni  Ni995  1  0.35494683  0.77664412  0.30375293  1.0
  Ni  Ni996  1  0.68828017  0.10997745  0.30375293  1.0
  Ni  Ni997  1  0.68828017  0.44331079  0.30375293  1.0
  Ni  Ni998  1  0.68828017  0.77664412  0.30375293  1.0
  Ni  Ni999  1  0.18828017  0.32426317  0.37518150  1.0
  Ni  Ni1000  1  0.18828017  0.65759650  0.37518150  1.0
  Ni  Ni1001  1  0.18828017  0.99092983  0.37518150  1.0
  Ni  Ni1002  1  0.52161350  0.32426317  0.37518150  1.0
  Ni  Ni1003  1  0.52161350  0.65759650  0.37518150  1.0
  Ni  Ni1004  1  0.52161350  0.99092983  0.37518150  1.0
  Ni  Ni1005  1  0.85494683  0.32426317  0.37518150  1.0
  Ni  Ni1006  1  0.85494683  0.65759650  0.37518150  1.0
  Ni  Ni1007  1  0.85494683  0.99092983  0.37518150  1.0
  Ni  Ni1008  1  0.28398050  0.07349931  0.41356721  1.0
  Ni  Ni1009  1  0.28398050  0.40683264  0.41356721  1.0
  Ni  Ni1010  1  0.28398050  0.74016598  0.41356721  1.0
  Ni  Ni1011  1  0.61731383  0.07349931  0.41356721  1.0
  Ni  Ni1012  1  0.61731383  0.40683264  0.41356721  1.0
  Ni  Ni1013  1  0.61731383  0.74016598  0.41356721  1.0
  Ni  Ni1014  1  0.95064717  0.07349931  0.41356721  1.0
  Ni  Ni1015  1  0.95064717  0.40683264  0.41356721  1.0
  Ni  Ni1016  1  0.95064717  0.74016598  0.41356721  1.0
  Ni  Ni1017  1  0.11731383  0.19254693  0.34213864  1.0
  Ni  Ni1018  1  0.11731383  0.52588026  0.34213864  1.0
  Ni  Ni1019  1  0.11731383  0.85921360  0.34213864  1.0
  Ni  Ni1020  1  0.45064717  0.19254693  0.34213864  1.0
  Ni  Ni1021  1  0.45064717  0.52588026  0.34213864  1.0
  Ni  Ni1022  1  0.45064717  0.85921360  0.34213864  1.0
  Ni  Ni1023  1  0.78398050  0.19254693  0.34213864  1.0
  Ni  Ni1024  1  0.78398050  0.52588026  0.34213864  1.0
  Ni  Ni1025  1  0.78398050  0.85921360  0.34213864  1.0
  Ni  Ni1026  1  0.04935283  0.06648983  0.29641650  1.0
  Ni  Ni1027  1  0.04935283  0.39982317  0.29641650  1.0
  Ni  Ni1028  1  0.04935283  0.73315650  0.29641650  1.0
  Ni  Ni1029  1  0.38268617  0.06648983  0.29641650  1.0
  Ni  Ni1030  1  0.38268617  0.39982317  0.29641650  1.0
  Ni  Ni1031  1  0.38268617  0.73315650  0.29641650  1.0
  Ni  Ni1032  1  0.71601950  0.06648983  0.29641650  1.0
  Ni  Ni1033  1  0.71601950  0.39982317  0.29641650  1.0
  Ni  Ni1034  1  0.71601950  0.73315650  0.29641650  1.0
  Ni  Ni1035  1  0.21601950  0.28077555  0.36784507  1.0
  Ni  Ni1036  1  0.21601950  0.61410888  0.36784507  1.0
  Ni  Ni1037  1  0.21601950  0.94744221  0.36784507  1.0
  Ni  Ni1038  1  0.54935283  0.28077555  0.36784507  1.0
  Ni  Ni1039  1  0.54935283  0.61410888  0.36784507  1.0
  Ni  Ni1040  1  0.54935283  0.94744221  0.36784507  1.0
  Ni  Ni1041  1  0.88268617  0.28077555  0.36784507  1.0
  Ni  Ni1042  1  0.88268617  0.61410888  0.36784507  1.0
  Ni  Ni1043  1  0.88268617  0.94744221  0.36784507  1.0
  Ni  Ni1044  1  0.01051600  0.23520305  0.31915257  1.0
  Ni  Ni1045  1  0.01051600  0.56853638  0.31915257  1.0
  Ni  Ni1046  1  0.01051600  0.90186971  0.31915257  1.0
  Ni  Ni1047  1  0.34384933  0.23520305  0.31915257  1.0
  Ni  Ni1048  1  0.34384933  0.56853638  0.31915257  1.0
  Ni  Ni1049  1  0.34384933  0.90186971  0.31915257  1.0
  Ni  Ni1050  1  0.67718267  0.23520305  0.31915257  1.0
  Ni  Ni1051  1  0.67718267  0.56853638  0.31915257  1.0
  Ni  Ni1052  1  0.67718267  0.90186971  0.31915257  1.0
  Ni  Ni1053  1  0.17718267  0.11615543  0.39058114  1.0
  Ni  Ni1054  1  0.17718267  0.44948876  0.39058114  1.0
  Ni  Ni1055  1  0.17718267  0.78282210  0.39058114  1.0
  Ni  Ni1056  1  0.51051600  0.11615543  0.39058114  1.0
  Ni  Ni1057  1  0.51051600  0.44948876  0.39058114  1.0
  Ni  Ni1058  1  0.51051600  0.78282210  0.39058114  1.0
  Ni  Ni1059  1  0.84384933  0.11615543  0.39058114  1.0
  Ni  Ni1060  1  0.84384933  0.44948876  0.39058114  1.0
  Ni  Ni1061  1  0.84384933  0.78282210  0.39058114  1.0
  Ni  Ni1062  1  0.32281733  0.23811943  0.39083114  1.0
  Ni  Ni1063  1  0.32281733  0.57145276  0.39083114  1.0
  Ni  Ni1064  1  0.32281733  0.90478610  0.39083114  1.0
  Ni  Ni1065  1  0.65615067  0.23811943  0.39083114  1.0
  Ni  Ni1066  1  0.65615067  0.57145276  0.39083114  1.0
  Ni  Ni1067  1  0.65615067  0.90478610  0.39083114  1.0
  Ni  Ni1068  1  0.98948400  0.23811943  0.39083114  1.0
  Ni  Ni1069  1  0.98948400  0.57145276  0.39083114  1.0
  Ni  Ni1070  1  0.98948400  0.90478610  0.39083114  1.0
  Ni  Ni1071  1  0.15615067  0.02383371  0.31940257  1.0
  Ni  Ni1072  1  0.15615067  0.35716705  0.31940257  1.0
  Ni  Ni1073  1  0.15615067  0.69050038  0.31940257  1.0
  Ni  Ni1074  1  0.48948400  0.02383371  0.31940257  1.0
  Ni  Ni1075  1  0.48948400  0.35716705  0.31940257  1.0
  Ni  Ni1076  1  0.48948400  0.69050038  0.31940257  1.0
  Ni  Ni1077  1  0.82281733  0.02383371  0.31940257  1.0
  Ni  Ni1078  1  0.82281733  0.35716705  0.31940257  1.0
  Ni  Ni1079  1  0.82281733  0.69050038  0.31940257  1.0
  Ni  Ni1080  1  0.11596717  0.07546288  0.41522507  1.0
  Ni  Ni1081  1  0.11596717  0.40879621  0.41522507  1.0
  Ni  Ni1082  1  0.11596717  0.74212955  0.41522507  1.0
  Ni  Ni1083  1  0.44930050  0.07546288  0.41522507  1.0
  Ni  Ni1084  1  0.44930050  0.40879621  0.41522507  1.0
  Ni  Ni1085  1  0.44930050  0.74212955  0.41522507  1.0
  Ni  Ni1086  1  0.78263383  0.07546288  0.41522507  1.0
  Ni  Ni1087  1  0.78263383  0.40879621  0.41522507  1.0
  Ni  Ni1088  1  0.78263383  0.74212955  0.41522507  1.0
  Ni  Ni1089  1  0.28263383  0.19451050  0.34379650  1.0
  Ni  Ni1090  1  0.28263383  0.52784383  0.34379650  1.0
  Ni  Ni1091  1  0.28263383  0.86117717  0.34379650  1.0
  Ni  Ni1092  1  0.61596717  0.19451050  0.34379650  1.0
  Ni  Ni1093  1  0.61596717  0.52784383  0.34379650  1.0
  Ni  Ni1094  1  0.61596717  0.86117717  0.34379650  1.0
  Ni  Ni1095  1  0.94930050  0.19451050  0.34379650  1.0
  Ni  Ni1096  1  0.94930050  0.52784383  0.34379650  1.0
  Ni  Ni1097  1  0.94930050  0.86117717  0.34379650  1.0
  Ni  Ni1098  1  0.21736617  0.06452626  0.29475864  1.0
  Ni  Ni1099  1  0.21736617  0.39785960  0.29475864  1.0
  Ni  Ni1100  1  0.21736617  0.73119293  0.29475864  1.0
  Ni  Ni1101  1  0.55069950  0.06452626  0.29475864  1.0
  Ni  Ni1102  1  0.55069950  0.39785960  0.29475864  1.0
  Ni  Ni1103  1  0.55069950  0.73119293  0.29475864  1.0
  Ni  Ni1104  1  0.88403283  0.06452626  0.29475864  1.0
  Ni  Ni1105  1  0.88403283  0.39785960  0.29475864  1.0
  Ni  Ni1106  1  0.88403283  0.73119293  0.29475864  1.0
  Ni  Ni1107  1  0.05069950  0.27881198  0.36618721  1.0
  Ni  Ni1108  1  0.05069950  0.61214531  0.36618721  1.0
  Ni  Ni1109  1  0.05069950  0.94547864  0.36618721  1.0
  Ni  Ni1110  1  0.38403283  0.27881198  0.36618721  1.0
  Ni  Ni1111  1  0.38403283  0.61214531  0.36618721  1.0
  Ni  Ni1112  1  0.38403283  0.94547864  0.36618721  1.0
  Ni  Ni1113  1  0.71736617  0.27881198  0.36618721  1.0
  Ni  Ni1114  1  0.71736617  0.61214531  0.36618721  1.0
  Ni  Ni1115  1  0.71736617  0.94547864  0.36618721  1.0
  Ni  Ni1116  1  0.07225483  0.11402517  0.42551750  1.0
  Ni  Ni1117  1  0.07225483  0.44735850  0.42551750  1.0
  Ni  Ni1118  1  0.07225483  0.78069183  0.42551750  1.0
  Ni  Ni1119  1  0.40558817  0.11402517  0.42551750  1.0
  Ni  Ni1120  1  0.40558817  0.44735850  0.42551750  1.0
  Ni  Ni1121  1  0.40558817  0.78069183  0.42551750  1.0
  Ni  Ni1122  1  0.73892150  0.11402517  0.42551750  1.0
  Ni  Ni1123  1  0.73892150  0.44735850  0.42551750  1.0
  Ni  Ni1124  1  0.73892150  0.78069183  0.42551750  1.0
  Ni  Ni1125  1  0.23892150  0.23307279  0.35408893  1.0
  Ni  Ni1126  1  0.23892150  0.56640612  0.35408893  1.0
  Ni  Ni1127  1  0.23892150  0.89973945  0.35408893  1.0
  Ni  Ni1128  1  0.57225483  0.23307279  0.35408893  1.0
  Ni  Ni1129  1  0.57225483  0.56640612  0.35408893  1.0
  Ni  Ni1130  1  0.57225483  0.89973945  0.35408893  1.0
  Ni  Ni1131  1  0.90558817  0.23307279  0.35408893  1.0
  Ni  Ni1132  1  0.90558817  0.56640612  0.35408893  1.0
  Ni  Ni1133  1  0.90558817  0.89973945  0.35408893  1.0
  Zr  Zr1134  1  0.03496933  0.00586343  0.08007514  1.0
  Zr  Zr1135  1  0.03496933  0.33919676  0.08007514  1.0
  Zr  Zr1136  1  0.03496933  0.67253010  0.08007514  1.0
  Zr  Zr1137  1  0.36830267  0.00586343  0.08007514  1.0
  Zr  Zr1138  1  0.36830267  0.33919676  0.08007514  1.0
  Zr  Zr1139  1  0.36830267  0.67253010  0.08007514  1.0
  Zr  Zr1140  1  0.70163600  0.00586343  0.08007514  1.0
  Zr  Zr1141  1  0.70163600  0.33919676  0.08007514  1.0
  Zr  Zr1142  1  0.70163600  0.67253010  0.08007514  1.0
  Zr  Zr1143  1  0.20163600  0.12491105  0.00864657  1.0
  Zr  Zr1144  1  0.20163600  0.45824438  0.00864657  1.0
  Zr  Zr1145  1  0.20163600  0.79157771  0.00864657  1.0
  Zr  Zr1146  1  0.53496933  0.12491105  0.00864657  1.0
  Zr  Zr1147  1  0.53496933  0.45824438  0.00864657  1.0
  Zr  Zr1148  1  0.53496933  0.79157771  0.00864657  1.0
  Zr  Zr1149  1  0.86830267  0.12491105  0.00864657  1.0
  Zr  Zr1150  1  0.86830267  0.45824438  0.00864657  1.0
  Zr  Zr1151  1  0.86830267  0.79157771  0.00864657  1.0
  Zr  Zr1152  1  0.29836400  0.08650667  0.05848000  1.0
  Zr  Zr1153  1  0.29836400  0.41984000  0.05848000  1.0
  Zr  Zr1154  1  0.29836400  0.75317333  0.05848000  1.0
  Zr  Zr1155  1  0.63169733  0.08650667  0.05848000  1.0
  Zr  Zr1156  1  0.63169733  0.41984000  0.05848000  1.0
  Zr  Zr1157  1  0.63169733  0.75317333  0.05848000  1.0
  Zr  Zr1158  1  0.96503067  0.08650667  0.05848000  1.0
  Zr  Zr1159  1  0.96503067  0.41984000  0.05848000  1.0
  Zr  Zr1160  1  0.96503067  0.75317333  0.05848000  1.0
  Zr  Zr1161  1  0.13169733  0.30079238  0.12990857  1.0
  Zr  Zr1162  1  0.13169733  0.63412571  0.12990857  1.0
  Zr  Zr1163  1  0.13169733  0.96745905  0.12990857  1.0
  Zr  Zr1164  1  0.46503067  0.30079238  0.12990857  1.0
  Zr  Zr1165  1  0.46503067  0.63412571  0.12990857  1.0
  Zr  Zr1166  1  0.46503067  0.96745905  0.12990857  1.0
  Zr  Zr1167  1  0.79836400  0.30079238  0.12990857  1.0
  Zr  Zr1168  1  0.79836400  0.63412571  0.12990857  1.0
  Zr  Zr1169  1  0.79836400  0.96745905  0.12990857  1.0
  Zr  Zr1170  1  0.00793100  0.16941138  0.04586857  1.0
  Zr  Zr1171  1  0.00793100  0.50274471  0.04586857  1.0
  Zr  Zr1172  1  0.00793100  0.83607805  0.04586857  1.0
  Zr  Zr1173  1  0.34126433  0.16941138  0.04586857  1.0
  Zr  Zr1174  1  0.34126433  0.50274471  0.04586857  1.0
  Zr  Zr1175  1  0.34126433  0.83607805  0.04586857  1.0
  Zr  Zr1176  1  0.67459767  0.16941138  0.04586857  1.0
  Zr  Zr1177  1  0.67459767  0.50274471  0.04586857  1.0
  Zr  Zr1178  1  0.67459767  0.83607805  0.04586857  1.0
  Zr  Zr1179  1  0.17459767  0.05036376  0.11729714  1.0
  Zr  Zr1180  1  0.17459767  0.38369710  0.11729714  1.0
  Zr  Zr1181  1  0.17459767  0.71703043  0.11729714  1.0
  Zr  Zr1182  1  0.50793100  0.05036376  0.11729714  1.0
  Zr  Zr1183  1  0.50793100  0.38369710  0.11729714  1.0
  Zr  Zr1184  1  0.50793100  0.71703043  0.11729714  1.0
  Zr  Zr1185  1  0.84126433  0.05036376  0.11729714  1.0
  Zr  Zr1186  1  0.84126433  0.38369710  0.11729714  1.0
  Zr  Zr1187  1  0.84126433  0.71703043  0.11729714  1.0
  Zr  Zr1188  1  0.32540233  0.25629205  0.09268657  1.0
  Zr  Zr1189  1  0.32540233  0.58962538  0.09268657  1.0
  Zr  Zr1190  1  0.32540233  0.92295871  0.09268657  1.0
  Zr  Zr1191  1  0.65873567  0.25629205  0.09268657  1.0
  Zr  Zr1192  1  0.65873567  0.58962538  0.09268657  1.0
  Zr  Zr1193  1  0.65873567  0.92295871  0.09268657  1.0
  Zr  Zr1194  1  0.99206900  0.25629205  0.09268657  1.0
  Zr  Zr1195  1  0.99206900  0.58962538  0.09268657  1.0
  Zr  Zr1196  1  0.99206900  0.92295871  0.09268657  1.0
  Zr  Zr1197  1  0.15873567  0.04200633  0.02125800  1.0
  Zr  Zr1198  1  0.15873567  0.37533967  0.02125800  1.0
  Zr  Zr1199  1  0.15873567  0.70867300  0.02125800  1.0
  Zr  Zr1200  1  0.49206900  0.04200633  0.02125800  1.0
  Zr  Zr1201  1  0.49206900  0.37533967  0.02125800  1.0
  Zr  Zr1202  1  0.49206900  0.70867300  0.02125800  1.0
  Zr  Zr1203  1  0.82540233  0.04200633  0.02125800  1.0
  Zr  Zr1204  1  0.82540233  0.37533967  0.02125800  1.0
  Zr  Zr1205  1  0.82540233  0.70867300  0.02125800  1.0
  Zr  Zr1206  1  0.26621183  0.01415755  0.13882607  1.0
  Zr  Zr1207  1  0.26621183  0.34749088  0.13882607  1.0
  Zr  Zr1208  1  0.26621183  0.68082421  0.13882607  1.0
  Zr  Zr1209  1  0.59954517  0.01415755  0.13882607  1.0
  Zr  Zr1210  1  0.59954517  0.34749088  0.13882607  1.0
  Zr  Zr1211  1  0.59954517  0.68082421  0.13882607  1.0
  Zr  Zr1212  1  0.93287850  0.01415755  0.13882607  1.0
  Zr  Zr1213  1  0.93287850  0.34749088  0.13882607  1.0
  Zr  Zr1214  1  0.93287850  0.68082421  0.13882607  1.0
  Zr  Zr1215  1  0.09954517  0.13320517  0.06739750  1.0
  Zr  Zr1216  1  0.09954517  0.46653850  0.06739750  1.0
  Zr  Zr1217  1  0.09954517  0.79987183  0.06739750  1.0
  Zr  Zr1218  1  0.43287850  0.13320517  0.06739750  1.0
  Zr  Zr1219  1  0.43287850  0.46653850  0.06739750  1.0
  Zr  Zr1220  1  0.43287850  0.79987183  0.06739750  1.0
  Zr  Zr1221  1  0.76621183  0.13320517  0.06739750  1.0
  Zr  Zr1222  1  0.76621183  0.46653850  0.06739750  1.0
  Zr  Zr1223  1  0.76621183  0.79987183  0.06739750  1.0
  Zr  Zr1224  1  0.06712150  0.17345064  0.14258621  1.0
  Zr  Zr1225  1  0.06712150  0.50678398  0.14258621  1.0
  Zr  Zr1226  1  0.06712150  0.84011731  0.14258621  1.0
  Zr  Zr1227  1  0.40045483  0.17345064  0.14258621  1.0
  Zr  Zr1228  1  0.40045483  0.50678398  0.14258621  1.0
  Zr  Zr1229  1  0.40045483  0.84011731  0.14258621  1.0
  Zr  Zr1230  1  0.73378817  0.17345064  0.14258621  1.0
  Zr  Zr1231  1  0.73378817  0.50678398  0.14258621  1.0
  Zr  Zr1232  1  0.73378817  0.84011731  0.14258621  1.0
  Zr  Zr1233  1  0.23378817  0.29249826  0.07115764  1.0
  Zr  Zr1234  1  0.23378817  0.62583160  0.07115764  1.0
  Zr  Zr1235  1  0.23378817  0.95916493  0.07115764  1.0
  Zr  Zr1236  1  0.56712150  0.29249826  0.07115764  1.0
  Zr  Zr1237  1  0.56712150  0.62583160  0.07115764  1.0
  Zr  Zr1238  1  0.56712150  0.95916493  0.07115764  1.0
  Zr  Zr1239  1  0.90045483  0.29249826  0.07115764  1.0
  Zr  Zr1240  1  0.90045483  0.62583160  0.07115764  1.0
  Zr  Zr1241  1  0.90045483  0.95916493  0.07115764  1.0
  Zr  Zr1242  1  0.23500617  0.18018302  0.07500279  1.0
  Zr  Zr1243  1  0.23500617  0.51351636  0.07500279  1.0
  Zr  Zr1244  1  0.23500617  0.84684969  0.07500279  1.0
  Zr  Zr1245  1  0.56833950  0.18018302  0.07500279  1.0
  Zr  Zr1246  1  0.56833950  0.51351636  0.07500279  1.0
  Zr  Zr1247  1  0.56833950  0.84684969  0.07500279  1.0
  Zr  Zr1248  1  0.90167283  0.18018302  0.07500279  1.0
  Zr  Zr1249  1  0.90167283  0.51351636  0.07500279  1.0
  Zr  Zr1250  1  0.90167283  0.84684969  0.07500279  1.0
  Zr  Zr1251  1  0.06833950  0.29923064  0.00357421  1.0
  Zr  Zr1252  1  0.06833950  0.63256398  0.00357421  1.0
  Zr  Zr1253  1  0.06833950  0.96589731  0.00357421  1.0
  Zr  Zr1254  1  0.40167283  0.29923064  0.00357421  1.0
  Zr  Zr1255  1  0.40167283  0.63256398  0.00357421  1.0
  Zr  Zr1256  1  0.40167283  0.96589731  0.00357421  1.0
  Zr  Zr1257  1  0.73500617  0.29923064  0.00357421  1.0
  Zr  Zr1258  1  0.73500617  0.63256398  0.00357421  1.0
  Zr  Zr1259  1  0.73500617  0.96589731  0.00357421  1.0
  Zr  Zr1260  1  0.09832717  0.24552040  0.06355236  1.0
  Zr  Zr1261  1  0.09832717  0.57885374  0.06355236  1.0
  Zr  Zr1262  1  0.09832717  0.91218707  0.06355236  1.0
  Zr  Zr1263  1  0.43166050  0.24552040  0.06355236  1.0
  Zr  Zr1264  1  0.43166050  0.57885374  0.06355236  1.0
  Zr  Zr1265  1  0.43166050  0.91218707  0.06355236  1.0
  Zr  Zr1266  1  0.76499383  0.24552040  0.06355236  1.0
  Zr  Zr1267  1  0.76499383  0.57885374  0.06355236  1.0
  Zr  Zr1268  1  0.76499383  0.91218707  0.06355236  1.0
  Zr  Zr1269  1  0.26499383  0.12647279  0.13498093  1.0
  Zr  Zr1270  1  0.26499383  0.45980612  0.13498093  1.0
  Zr  Zr1271  1  0.26499383  0.79313945  0.13498093  1.0
  Zr  Zr1272  1  0.59832717  0.12647279  0.13498093  1.0
  Zr  Zr1273  1  0.59832717  0.45980612  0.13498093  1.0
  Zr  Zr1274  1  0.59832717  0.79313945  0.13498093  1.0
  Zr  Zr1275  1  0.93166050  0.12647279  0.13498093  1.0
  Zr  Zr1276  1  0.93166050  0.45980612  0.13498093  1.0
  Zr  Zr1277  1  0.93166050  0.79313945  0.13498093  1.0
  Zr  Zr1278  1  0.03496933  0.10110152  0.22293229  1.0
  Zr  Zr1279  1  0.03496933  0.43443486  0.22293229  1.0
  Zr  Zr1280  1  0.03496933  0.76776819  0.22293229  1.0
  Zr  Zr1281  1  0.36830267  0.10110152  0.22293229  1.0
  Zr  Zr1282  1  0.36830267  0.43443486  0.22293229  1.0
  Zr  Zr1283  1  0.36830267  0.76776819  0.22293229  1.0
  Zr  Zr1284  1  0.70163600  0.10110152  0.22293229  1.0
  Zr  Zr1285  1  0.70163600  0.43443486  0.22293229  1.0
  Zr  Zr1286  1  0.70163600  0.76776819  0.22293229  1.0
  Zr  Zr1287  1  0.20163600  0.22014914  0.15150371  1.0
  Zr  Zr1288  1  0.20163600  0.55348248  0.15150371  1.0
  Zr  Zr1289  1  0.20163600  0.88681581  0.15150371  1.0
  Zr  Zr1290  1  0.53496933  0.22014914  0.15150371  1.0
  Zr  Zr1291  1  0.53496933  0.55348248  0.15150371  1.0
  Zr  Zr1292  1  0.53496933  0.88681581  0.15150371  1.0
  Zr  Zr1293  1  0.86830267  0.22014914  0.15150371  1.0
  Zr  Zr1294  1  0.86830267  0.55348248  0.15150371  1.0
  Zr  Zr1295  1  0.86830267  0.88681581  0.15150371  1.0
  Zr  Zr1296  1  0.29836400  0.18174476  0.20133714  1.0
  Zr  Zr1297  1  0.29836400  0.51507810  0.20133714  1.0
  Zr  Zr1298  1  0.29836400  0.84841143  0.20133714  1.0
  Zr  Zr1299  1  0.63169733  0.18174476  0.20133714  1.0
  Zr  Zr1300  1  0.63169733  0.51507810  0.20133714  1.0
  Zr  Zr1301  1  0.63169733  0.84841143  0.20133714  1.0
  Zr  Zr1302  1  0.96503067  0.18174476  0.20133714  1.0
  Zr  Zr1303  1  0.96503067  0.51507810  0.20133714  1.0
  Zr  Zr1304  1  0.96503067  0.84841143  0.20133714  1.0
  Zr  Zr1305  1  0.13169733  0.06269714  0.27276571  1.0
  Zr  Zr1306  1  0.13169733  0.39603048  0.27276571  1.0
  Zr  Zr1307  1  0.13169733  0.72936381  0.27276571  1.0
  Zr  Zr1308  1  0.46503067  0.06269714  0.27276571  1.0
  Zr  Zr1309  1  0.46503067  0.39603048  0.27276571  1.0
  Zr  Zr1310  1  0.46503067  0.72936381  0.27276571  1.0
  Zr  Zr1311  1  0.79836400  0.06269714  0.27276571  1.0
  Zr  Zr1312  1  0.79836400  0.39603048  0.27276571  1.0
  Zr  Zr1313  1  0.79836400  0.72936381  0.27276571  1.0
  Zr  Zr1314  1  0.00793100  0.26464948  0.18872571  1.0
  Zr  Zr1315  1  0.00793100  0.59798281  0.18872571  1.0
  Zr  Zr1316  1  0.00793100  0.93131614  0.18872571  1.0
  Zr  Zr1317  1  0.34126433  0.26464948  0.18872571  1.0
  Zr  Zr1318  1  0.34126433  0.59798281  0.18872571  1.0
  Zr  Zr1319  1  0.34126433  0.93131614  0.18872571  1.0
  Zr  Zr1320  1  0.67459767  0.26464948  0.18872571  1.0
  Zr  Zr1321  1  0.67459767  0.59798281  0.18872571  1.0
  Zr  Zr1322  1  0.67459767  0.93131614  0.18872571  1.0
  Zr  Zr1323  1  0.17459767  0.14560186  0.26015429  1.0
  Zr  Zr1324  1  0.17459767  0.47893519  0.26015429  1.0
  Zr  Zr1325  1  0.17459767  0.81226852  0.26015429  1.0
  Zr  Zr1326  1  0.50793100  0.14560186  0.26015429  1.0
  Zr  Zr1327  1  0.50793100  0.47893519  0.26015429  1.0
  Zr  Zr1328  1  0.50793100  0.81226852  0.26015429  1.0
  Zr  Zr1329  1  0.84126433  0.14560186  0.26015429  1.0
  Zr  Zr1330  1  0.84126433  0.47893519  0.26015429  1.0
  Zr  Zr1331  1  0.84126433  0.81226852  0.26015429  1.0
  Zr  Zr1332  1  0.32540233  0.01819681  0.23554371  1.0
  Zr  Zr1333  1  0.32540233  0.35153014  0.23554371  1.0
  Zr  Zr1334  1  0.32540233  0.68486348  0.23554371  1.0
  Zr  Zr1335  1  0.65873567  0.01819681  0.23554371  1.0
  Zr  Zr1336  1  0.65873567  0.35153014  0.23554371  1.0
  Zr  Zr1337  1  0.65873567  0.68486348  0.23554371  1.0
  Zr  Zr1338  1  0.99206900  0.01819681  0.23554371  1.0
  Zr  Zr1339  1  0.99206900  0.35153014  0.23554371  1.0
  Zr  Zr1340  1  0.99206900  0.68486348  0.23554371  1.0
  Zr  Zr1341  1  0.15873567  0.13724443  0.16411514  1.0
  Zr  Zr1342  1  0.15873567  0.47057776  0.16411514  1.0
  Zr  Zr1343  1  0.15873567  0.80391110  0.16411514  1.0
  Zr  Zr1344  1  0.49206900  0.13724443  0.16411514  1.0
  Zr  Zr1345  1  0.49206900  0.47057776  0.16411514  1.0
  Zr  Zr1346  1  0.49206900  0.80391110  0.16411514  1.0
  Zr  Zr1347  1  0.82540233  0.13724443  0.16411514  1.0
  Zr  Zr1348  1  0.82540233  0.47057776  0.16411514  1.0
  Zr  Zr1349  1  0.82540233  0.80391110  0.16411514  1.0
  Zr  Zr1350  1  0.26621183  0.10939564  0.28168321  1.0
  Zr  Zr1351  1  0.26621183  0.44272898  0.28168321  1.0
  Zr  Zr1352  1  0.26621183  0.77606231  0.28168321  1.0
  Zr  Zr1353  1  0.59954517  0.10939564  0.28168321  1.0
  Zr  Zr1354  1  0.59954517  0.44272898  0.28168321  1.0
  Zr  Zr1355  1  0.59954517  0.77606231  0.28168321  1.0
  Zr  Zr1356  1  0.93287850  0.10939564  0.28168321  1.0
  Zr  Zr1357  1  0.93287850  0.44272898  0.28168321  1.0
  Zr  Zr1358  1  0.93287850  0.77606231  0.28168321  1.0
  Zr  Zr1359  1  0.09954517  0.22844326  0.21025464  1.0
  Zr  Zr1360  1  0.09954517  0.56177660  0.21025464  1.0
  Zr  Zr1361  1  0.09954517  0.89510993  0.21025464  1.0
  Zr  Zr1362  1  0.43287850  0.22844326  0.21025464  1.0
  Zr  Zr1363  1  0.43287850  0.56177660  0.21025464  1.0
  Zr  Zr1364  1  0.43287850  0.89510993  0.21025464  1.0
  Zr  Zr1365  1  0.76621183  0.22844326  0.21025464  1.0
  Zr  Zr1366  1  0.76621183  0.56177660  0.21025464  1.0
  Zr  Zr1367  1  0.76621183  0.89510993  0.21025464  1.0
  Zr  Zr1368  1  0.06712150  0.26868874  0.28544336  1.0
  Zr  Zr1369  1  0.06712150  0.60202207  0.28544336  1.0
  Zr  Zr1370  1  0.06712150  0.93535540  0.28544336  1.0
  Zr  Zr1371  1  0.40045483  0.26868874  0.28544336  1.0
  Zr  Zr1372  1  0.40045483  0.60202207  0.28544336  1.0
  Zr  Zr1373  1  0.40045483  0.93535540  0.28544336  1.0
  Zr  Zr1374  1  0.73378817  0.26868874  0.28544336  1.0
  Zr  Zr1375  1  0.73378817  0.60202207  0.28544336  1.0
  Zr  Zr1376  1  0.73378817  0.93535540  0.28544336  1.0
  Zr  Zr1377  1  0.23378817  0.05440302  0.21401479  1.0
  Zr  Zr1378  1  0.23378817  0.38773636  0.21401479  1.0
  Zr  Zr1379  1  0.23378817  0.72106969  0.21401479  1.0
  Zr  Zr1380  1  0.56712150  0.05440302  0.21401479  1.0
  Zr  Zr1381  1  0.56712150  0.38773636  0.21401479  1.0
  Zr  Zr1382  1  0.56712150  0.72106969  0.21401479  1.0
  Zr  Zr1383  1  0.90045483  0.05440302  0.21401479  1.0
  Zr  Zr1384  1  0.90045483  0.38773636  0.21401479  1.0
  Zr  Zr1385  1  0.90045483  0.72106969  0.21401479  1.0
  Zr  Zr1386  1  0.23500617  0.27542112  0.21785993  1.0
  Zr  Zr1387  1  0.23500617  0.60875445  0.21785993  1.0
  Zr  Zr1388  1  0.23500617  0.94208779  0.21785993  1.0
  Zr  Zr1389  1  0.56833950  0.27542112  0.21785993  1.0
  Zr  Zr1390  1  0.56833950  0.60875445  0.21785993  1.0
  Zr  Zr1391  1  0.56833950  0.94208779  0.21785993  1.0
  Zr  Zr1392  1  0.90167283  0.27542112  0.21785993  1.0
  Zr  Zr1393  1  0.90167283  0.60875445  0.21785993  1.0
  Zr  Zr1394  1  0.90167283  0.94208779  0.21785993  1.0
  Zr  Zr1395  1  0.06833950  0.06113540  0.14643136  1.0
  Zr  Zr1396  1  0.06833950  0.39446874  0.14643136  1.0
  Zr  Zr1397  1  0.06833950  0.72780207  0.14643136  1.0
  Zr  Zr1398  1  0.40167283  0.06113540  0.14643136  1.0
  Zr  Zr1399  1  0.40167283  0.39446874  0.14643136  1.0
  Zr  Zr1400  1  0.40167283  0.72780207  0.14643136  1.0
  Zr  Zr1401  1  0.73500617  0.06113540  0.14643136  1.0
  Zr  Zr1402  1  0.73500617  0.39446874  0.14643136  1.0
  Zr  Zr1403  1  0.73500617  0.72780207  0.14643136  1.0
  Zr  Zr1404  1  0.09832717  0.00742517  0.20640950  1.0
  Zr  Zr1405  1  0.09832717  0.34075850  0.20640950  1.0
  Zr  Zr1406  1  0.09832717  0.67409183  0.20640950  1.0
  Zr  Zr1407  1  0.43166050  0.00742517  0.20640950  1.0
  Zr  Zr1408  1  0.43166050  0.34075850  0.20640950  1.0
  Zr  Zr1409  1  0.43166050  0.67409183  0.20640950  1.0
  Zr  Zr1410  1  0.76499383  0.00742517  0.20640950  1.0
  Zr  Zr1411  1  0.76499383  0.34075850  0.20640950  1.0
  Zr  Zr1412  1  0.76499383  0.67409183  0.20640950  1.0
  Zr  Zr1413  1  0.26499383  0.22171088  0.27783807  1.0
  Zr  Zr1414  1  0.26499383  0.55504421  0.27783807  1.0
  Zr  Zr1415  1  0.26499383  0.88837755  0.27783807  1.0
  Zr  Zr1416  1  0.59832717  0.22171088  0.27783807  1.0
  Zr  Zr1417  1  0.59832717  0.55504421  0.27783807  1.0
  Zr  Zr1418  1  0.59832717  0.88837755  0.27783807  1.0
  Zr  Zr1419  1  0.93166050  0.22171088  0.27783807  1.0
  Zr  Zr1420  1  0.93166050  0.55504421  0.27783807  1.0
  Zr  Zr1421  1  0.93166050  0.88837755  0.27783807  1.0
  Zr  Zr1422  1  0.03496933  0.19633962  0.36578943  1.0
  Zr  Zr1423  1  0.03496933  0.52967295  0.36578943  1.0
  Zr  Zr1424  1  0.03496933  0.86300629  0.36578943  1.0
  Zr  Zr1425  1  0.36830267  0.19633962  0.36578943  1.0
  Zr  Zr1426  1  0.36830267  0.52967295  0.36578943  1.0
  Zr  Zr1427  1  0.36830267  0.86300629  0.36578943  1.0
  Zr  Zr1428  1  0.70163600  0.19633962  0.36578943  1.0
  Zr  Zr1429  1  0.70163600  0.52967295  0.36578943  1.0
  Zr  Zr1430  1  0.70163600  0.86300629  0.36578943  1.0
  Zr  Zr1431  1  0.20163600  0.31538724  0.29436086  1.0
  Zr  Zr1432  1  0.20163600  0.64872057  0.29436086  1.0
  Zr  Zr1433  1  0.20163600  0.98205390  0.29436086  1.0
  Zr  Zr1434  1  0.53496933  0.31538724  0.29436086  1.0
  Zr  Zr1435  1  0.53496933  0.64872057  0.29436086  1.0
  Zr  Zr1436  1  0.53496933  0.98205390  0.29436086  1.0
  Zr  Zr1437  1  0.86830267  0.31538724  0.29436086  1.0
  Zr  Zr1438  1  0.86830267  0.64872057  0.29436086  1.0
  Zr  Zr1439  1  0.86830267  0.98205390  0.29436086  1.0
  Zr  Zr1440  1  0.29836400  0.27698286  0.34419429  1.0
  Zr  Zr1441  1  0.29836400  0.61031619  0.34419429  1.0
  Zr  Zr1442  1  0.29836400  0.94364952  0.34419429  1.0
  Zr  Zr1443  1  0.63169733  0.27698286  0.34419429  1.0
  Zr  Zr1444  1  0.63169733  0.61031619  0.34419429  1.0
  Zr  Zr1445  1  0.63169733  0.94364952  0.34419429  1.0
  Zr  Zr1446  1  0.96503067  0.27698286  0.34419429  1.0
  Zr  Zr1447  1  0.96503067  0.61031619  0.34419429  1.0
  Zr  Zr1448  1  0.96503067  0.94364952  0.34419429  1.0
  Zr  Zr1449  1  0.13169733  0.15793524  0.41562286  1.0
  Zr  Zr1450  1  0.13169733  0.49126857  0.41562286  1.0
  Zr  Zr1451  1  0.13169733  0.82460190  0.41562286  1.0
  Zr  Zr1452  1  0.46503067  0.15793524  0.41562286  1.0
  Zr  Zr1453  1  0.46503067  0.49126857  0.41562286  1.0
  Zr  Zr1454  1  0.46503067  0.82460190  0.41562286  1.0
  Zr  Zr1455  1  0.79836400  0.15793524  0.41562286  1.0
  Zr  Zr1456  1  0.79836400  0.49126857  0.41562286  1.0
  Zr  Zr1457  1  0.79836400  0.82460190  0.41562286  1.0
  Zr  Zr1458  1  0.00793100  0.02655424  0.33158286  1.0
  Zr  Zr1459  1  0.00793100  0.35988757  0.33158286  1.0
  Zr  Zr1460  1  0.00793100  0.69322090  0.33158286  1.0
  Zr  Zr1461  1  0.34126433  0.02655424  0.33158286  1.0
  Zr  Zr1462  1  0.34126433  0.35988757  0.33158286  1.0
  Zr  Zr1463  1  0.34126433  0.69322090  0.33158286  1.0
  Zr  Zr1464  1  0.67459767  0.02655424  0.33158286  1.0
  Zr  Zr1465  1  0.67459767  0.35988757  0.33158286  1.0
  Zr  Zr1466  1  0.67459767  0.69322090  0.33158286  1.0
  Zr  Zr1467  1  0.17459767  0.24083995  0.40301143  1.0
  Zr  Zr1468  1  0.17459767  0.57417329  0.40301143  1.0
  Zr  Zr1469  1  0.17459767  0.90750662  0.40301143  1.0
  Zr  Zr1470  1  0.50793100  0.24083995  0.40301143  1.0
  Zr  Zr1471  1  0.50793100  0.57417329  0.40301143  1.0
  Zr  Zr1472  1  0.50793100  0.90750662  0.40301143  1.0
  Zr  Zr1473  1  0.84126433  0.24083995  0.40301143  1.0
  Zr  Zr1474  1  0.84126433  0.57417329  0.40301143  1.0
  Zr  Zr1475  1  0.84126433  0.90750662  0.40301143  1.0
  Zr  Zr1476  1  0.32540233  0.11343490  0.37840086  1.0
  Zr  Zr1477  1  0.32540233  0.44676824  0.37840086  1.0
  Zr  Zr1478  1  0.32540233  0.78010157  0.37840086  1.0
  Zr  Zr1479  1  0.65873567  0.11343490  0.37840086  1.0
  Zr  Zr1480  1  0.65873567  0.44676824  0.37840086  1.0
  Zr  Zr1481  1  0.65873567  0.78010157  0.37840086  1.0
  Zr  Zr1482  1  0.99206900  0.11343490  0.37840086  1.0
  Zr  Zr1483  1  0.99206900  0.44676824  0.37840086  1.0
  Zr  Zr1484  1  0.99206900  0.78010157  0.37840086  1.0
  Zr  Zr1485  1  0.15873567  0.23248252  0.30697229  1.0
  Zr  Zr1486  1  0.15873567  0.56581586  0.30697229  1.0
  Zr  Zr1487  1  0.15873567  0.89914919  0.30697229  1.0
  Zr  Zr1488  1  0.49206900  0.23248252  0.30697229  1.0
  Zr  Zr1489  1  0.49206900  0.56581586  0.30697229  1.0
  Zr  Zr1490  1  0.49206900  0.89914919  0.30697229  1.0
  Zr  Zr1491  1  0.82540233  0.23248252  0.30697229  1.0
  Zr  Zr1492  1  0.82540233  0.56581586  0.30697229  1.0
  Zr  Zr1493  1  0.82540233  0.89914919  0.30697229  1.0
  Zr  Zr1494  1  0.26621183  0.20463374  0.42454036  1.0
  Zr  Zr1495  1  0.26621183  0.53796707  0.42454036  1.0
  Zr  Zr1496  1  0.26621183  0.87130040  0.42454036  1.0
  Zr  Zr1497  1  0.59954517  0.20463374  0.42454036  1.0
  Zr  Zr1498  1  0.59954517  0.53796707  0.42454036  1.0
  Zr  Zr1499  1  0.59954517  0.87130040  0.42454036  1.0
  Zr  Zr1500  1  0.93287850  0.20463374  0.42454036  1.0
  Zr  Zr1501  1  0.93287850  0.53796707  0.42454036  1.0
  Zr  Zr1502  1  0.93287850  0.87130040  0.42454036  1.0
  Zr  Zr1503  1  0.09954517  0.32368136  0.35311179  1.0
  Zr  Zr1504  1  0.09954517  0.65701469  0.35311179  1.0
  Zr  Zr1505  1  0.09954517  0.99034802  0.35311179  1.0
  Zr  Zr1506  1  0.43287850  0.32368136  0.35311179  1.0
  Zr  Zr1507  1  0.43287850  0.65701469  0.35311179  1.0
  Zr  Zr1508  1  0.43287850  0.99034802  0.35311179  1.0
  Zr  Zr1509  1  0.76621183  0.32368136  0.35311179  1.0
  Zr  Zr1510  1  0.76621183  0.65701469  0.35311179  1.0
  Zr  Zr1511  1  0.76621183  0.99034802  0.35311179  1.0
  Zr  Zr1512  1  0.06712150  0.03059350  0.42830050  1.0
  Zr  Zr1513  1  0.06712150  0.36392683  0.42830050  1.0
  Zr  Zr1514  1  0.06712150  0.69726017  0.42830050  1.0
  Zr  Zr1515  1  0.40045483  0.03059350  0.42830050  1.0
  Zr  Zr1516  1  0.40045483  0.36392683  0.42830050  1.0
  Zr  Zr1517  1  0.40045483  0.69726017  0.42830050  1.0
  Zr  Zr1518  1  0.73378817  0.03059350  0.42830050  1.0
  Zr  Zr1519  1  0.73378817  0.36392683  0.42830050  1.0
  Zr  Zr1520  1  0.73378817  0.69726017  0.42830050  1.0
  Zr  Zr1521  1  0.23378817  0.14964112  0.35687193  1.0
  Zr  Zr1522  1  0.23378817  0.48297445  0.35687193  1.0
  Zr  Zr1523  1  0.23378817  0.81630779  0.35687193  1.0
  Zr  Zr1524  1  0.56712150  0.14964112  0.35687193  1.0
  Zr  Zr1525  1  0.56712150  0.48297445  0.35687193  1.0
  Zr  Zr1526  1  0.56712150  0.81630779  0.35687193  1.0
  Zr  Zr1527  1  0.90045483  0.14964112  0.35687193  1.0
  Zr  Zr1528  1  0.90045483  0.48297445  0.35687193  1.0
  Zr  Zr1529  1  0.90045483  0.81630779  0.35687193  1.0
  Zr  Zr1530  1  0.23500617  0.03732588  0.36071707  1.0
  Zr  Zr1531  1  0.23500617  0.37065921  0.36071707  1.0
  Zr  Zr1532  1  0.23500617  0.70399255  0.36071707  1.0
  Zr  Zr1533  1  0.56833950  0.03732588  0.36071707  1.0
  Zr  Zr1534  1  0.56833950  0.37065921  0.36071707  1.0
  Zr  Zr1535  1  0.56833950  0.70399255  0.36071707  1.0
  Zr  Zr1536  1  0.90167283  0.03732588  0.36071707  1.0
  Zr  Zr1537  1  0.90167283  0.37065921  0.36071707  1.0
  Zr  Zr1538  1  0.90167283  0.70399255  0.36071707  1.0
  Zr  Zr1539  1  0.06833950  0.15637350  0.28928850  1.0
  Zr  Zr1540  1  0.06833950  0.48970683  0.28928850  1.0
  Zr  Zr1541  1  0.06833950  0.82304017  0.28928850  1.0
  Zr  Zr1542  1  0.40167283  0.15637350  0.28928850  1.0
  Zr  Zr1543  1  0.40167283  0.48970683  0.28928850  1.0
  Zr  Zr1544  1  0.40167283  0.82304017  0.28928850  1.0
  Zr  Zr1545  1  0.73500617  0.15637350  0.28928850  1.0
  Zr  Zr1546  1  0.73500617  0.48970683  0.28928850  1.0
  Zr  Zr1547  1  0.73500617  0.82304017  0.28928850  1.0
  Zr  Zr1548  1  0.09832717  0.10266326  0.34926664  1.0
  Zr  Zr1549  1  0.09832717  0.43599660  0.34926664  1.0
  Zr  Zr1550  1  0.09832717  0.76932993  0.34926664  1.0
  Zr  Zr1551  1  0.43166050  0.10266326  0.34926664  1.0
  Zr  Zr1552  1  0.43166050  0.43599660  0.34926664  1.0
  Zr  Zr1553  1  0.43166050  0.76932993  0.34926664  1.0
  Zr  Zr1554  1  0.76499383  0.10266326  0.34926664  1.0
  Zr  Zr1555  1  0.76499383  0.43599660  0.34926664  1.0
  Zr  Zr1556  1  0.76499383  0.76932993  0.34926664  1.0
  Zr  Zr1557  1  0.26499383  0.31694898  0.42069521  1.0
  Zr  Zr1558  1  0.26499383  0.65028231  0.42069521  1.0
  Zr  Zr1559  1  0.26499383  0.98361564  0.42069521  1.0
  Zr  Zr1560  1  0.59832717  0.31694898  0.42069521  1.0
  Zr  Zr1561  1  0.59832717  0.65028231  0.42069521  1.0
  Zr  Zr1562  1  0.59832717  0.98361564  0.42069521  1.0
  Zr  Zr1563  1  0.93166050  0.31694898  0.42069521  1.0
  Zr  Zr1564  1  0.93166050  0.65028231  0.42069521  1.0
  Zr  Zr1565  1  0.93166050  0.98361564  0.42069521  1.0
