# generated using pymatgen
data_Zr8Ni21
_symmetry_space_group_name_H-M   'P 1'
_cell_length_a   30.54806671
_cell_length_b   36.44365914
_cell_length_c   32.25595500
_cell_angle_alpha   95.66035144
_cell_angle_beta   96.53091002
_cell_angle_gamma   90.27791282
_symmetry_Int_Tables_number   1
_chemical_formula_structural   Zr8Ni21
_chemical_formula_sum   'Zr288 Ni756'
_cell_volume   35498.33568259
_cell_formula_units_Z   36
loop_
 _symmetry_equiv_pos_site_id
 _symmetry_equiv_pos_as_xyz
  1  'x, y, z'
loop_
 _atom_site_type_symbol
 _atom_site_label
 _atom_site_symmetry_multiplicity
 _atom_site_fract_x
 _atom_site_fract_y
 _atom_site_fract_z
 _atom_site_occupancy
  Ni  Ni0  1  0.00000000  0.00000000  0.19380590  1.0
  Ni  Ni1  1  0.00000000  0.33333333  0.19380590  1.0
  Ni  Ni2  1  0.00000000  0.66666667  0.19380590  1.0
  Ni  Ni3  1  0.33333333  0.00000000  0.19380590  1.0
  Ni  Ni4  1  0.33333333  0.33333333  0.19380590  1.0
  Ni  Ni5  1  0.33333333  0.66666667  0.19380590  1.0
  Ni  Ni6  1  0.66666667  0.00000000  0.19380590  1.0
  Ni  Ni7  1  0.66666667  0.33333333  0.19380590  1.0
  Ni  Ni8  1  0.66666667  0.66666667  0.19380590  1.0
  Ni  Ni9  1  0.16666667  0.16666667  0.09380590  1.0
  Ni  Ni10  1  0.16666667  0.50000000  0.09380590  1.0
  Ni  Ni11  1  0.16666667  0.83333333  0.09380590  1.0
  Ni  Ni12  1  0.50000000  0.16666667  0.09380590  1.0
  Ni  Ni13  1  0.50000000  0.50000000  0.09380590  1.0
  Ni  Ni14  1  0.50000000  0.83333333  0.09380590  1.0
  Ni  Ni15  1  0.83333333  0.16666667  0.09380590  1.0
  Ni  Ni16  1  0.83333333  0.50000000  0.09380590  1.0
  Ni  Ni17  1  0.83333333  0.83333333  0.09380590  1.0
  Ni  Ni18  1  0.31865167  0.26782300  0.17410270  1.0
  Ni  Ni19  1  0.31865167  0.60115633  0.17410270  1.0
  Ni  Ni20  1  0.31865167  0.93448967  0.17410270  1.0
  Ni  Ni21  1  0.65198500  0.26782300  0.17410270  1.0
  Ni  Ni22  1  0.65198500  0.60115633  0.17410270  1.0
  Ni  Ni23  1  0.65198500  0.93448967  0.17410270  1.0
  Ni  Ni24  1  0.98531833  0.26782300  0.17410270  1.0
  Ni  Ni25  1  0.98531833  0.60115633  0.17410270  1.0
  Ni  Ni26  1  0.98531833  0.93448967  0.17410270  1.0
  Ni  Ni27  1  0.15198500  0.10115633  0.07410270  1.0
  Ni  Ni28  1  0.15198500  0.43448967  0.07410270  1.0
  Ni  Ni29  1  0.15198500  0.76782300  0.07410270  1.0
  Ni  Ni30  1  0.48531833  0.10115633  0.07410270  1.0
  Ni  Ni31  1  0.48531833  0.43448967  0.07410270  1.0
  Ni  Ni32  1  0.48531833  0.76782300  0.07410270  1.0
  Ni  Ni33  1  0.81865167  0.10115633  0.07410270  1.0
  Ni  Ni34  1  0.81865167  0.43448967  0.07410270  1.0
  Ni  Ni35  1  0.81865167  0.76782300  0.07410270  1.0
  Ni  Ni36  1  0.01468167  0.06551033  0.01350910  1.0
  Ni  Ni37  1  0.01468167  0.39884367  0.01350910  1.0
  Ni  Ni38  1  0.01468167  0.73217700  0.01350910  1.0
  Ni  Ni39  1  0.34801500  0.06551033  0.01350910  1.0
  Ni  Ni40  1  0.34801500  0.39884367  0.01350910  1.0
  Ni  Ni41  1  0.34801500  0.73217700  0.01350910  1.0
  Ni  Ni42  1  0.68134833  0.06551033  0.01350910  1.0
  Ni  Ni43  1  0.68134833  0.39884367  0.01350910  1.0
  Ni  Ni44  1  0.68134833  0.73217700  0.01350910  1.0
  Ni  Ni45  1  0.18134833  0.23217700  0.11350910  1.0
  Ni  Ni46  1  0.18134833  0.56551033  0.11350910  1.0
  Ni  Ni47  1  0.18134833  0.89884367  0.11350910  1.0
  Ni  Ni48  1  0.51468167  0.23217700  0.11350910  1.0
  Ni  Ni49  1  0.51468167  0.56551033  0.11350910  1.0
  Ni  Ni50  1  0.51468167  0.89884367  0.11350910  1.0
  Ni  Ni51  1  0.84801500  0.23217700  0.11350910  1.0
  Ni  Ni52  1  0.84801500  0.56551033  0.11350910  1.0
  Ni  Ni53  1  0.84801500  0.89884367  0.11350910  1.0
  Ni  Ni54  1  0.05926317  0.23585583  0.19265520  1.0
  Ni  Ni55  1  0.05926317  0.56918917  0.19265520  1.0
  Ni  Ni56  1  0.05926317  0.90252250  0.19265520  1.0
  Ni  Ni57  1  0.39259650  0.23585583  0.19265520  1.0
  Ni  Ni58  1  0.39259650  0.56918917  0.19265520  1.0
  Ni  Ni59  1  0.39259650  0.90252250  0.19265520  1.0
  Ni  Ni60  1  0.72592983  0.23585583  0.19265520  1.0
  Ni  Ni61  1  0.72592983  0.56918917  0.19265520  1.0
  Ni  Ni62  1  0.72592983  0.90252250  0.19265520  1.0
  Ni  Ni63  1  0.22592983  0.06918917  0.09265520  1.0
  Ni  Ni64  1  0.22592983  0.40252250  0.09265520  1.0
  Ni  Ni65  1  0.22592983  0.73585583  0.09265520  1.0
  Ni  Ni66  1  0.55926317  0.06918917  0.09265520  1.0
  Ni  Ni67  1  0.55926317  0.40252250  0.09265520  1.0
  Ni  Ni68  1  0.55926317  0.73585583  0.09265520  1.0
  Ni  Ni69  1  0.89259650  0.06918917  0.09265520  1.0
  Ni  Ni70  1  0.89259650  0.40252250  0.09265520  1.0
  Ni  Ni71  1  0.89259650  0.73585583  0.09265520  1.0
  Ni  Ni72  1  0.27407017  0.09747750  0.19495660  1.0
  Ni  Ni73  1  0.27407017  0.43081083  0.19495660  1.0
  Ni  Ni74  1  0.27407017  0.76414417  0.19495660  1.0
  Ni  Ni75  1  0.60740350  0.09747750  0.19495660  1.0
  Ni  Ni76  1  0.60740350  0.43081083  0.19495660  1.0
  Ni  Ni77  1  0.60740350  0.76414417  0.19495660  1.0
  Ni  Ni78  1  0.94073683  0.09747750  0.19495660  1.0
  Ni  Ni79  1  0.94073683  0.43081083  0.19495660  1.0
  Ni  Ni80  1  0.94073683  0.76414417  0.19495660  1.0
  Ni  Ni81  1  0.10740350  0.26414417  0.09495660  1.0
  Ni  Ni82  1  0.10740350  0.59747750  0.09495660  1.0
  Ni  Ni83  1  0.10740350  0.93081083  0.09495660  1.0
  Ni  Ni84  1  0.44073683  0.26414417  0.09495660  1.0
  Ni  Ni85  1  0.44073683  0.59747750  0.09495660  1.0
  Ni  Ni86  1  0.44073683  0.93081083  0.09495660  1.0
  Ni  Ni87  1  0.77407017  0.26414417  0.09495660  1.0
  Ni  Ni88  1  0.77407017  0.59747750  0.09495660  1.0
  Ni  Ni89  1  0.77407017  0.93081083  0.09495660  1.0
  Ni  Ni90  1  0.31027250  0.22883017  0.03416020  1.0
  Ni  Ni91  1  0.31027250  0.56216350  0.03416020  1.0
  Ni  Ni92  1  0.31027250  0.89549683  0.03416020  1.0
  Ni  Ni93  1  0.64360583  0.22883017  0.03416020  1.0
  Ni  Ni94  1  0.64360583  0.56216350  0.03416020  1.0
  Ni  Ni95  1  0.64360583  0.89549683  0.03416020  1.0
  Ni  Ni96  1  0.97693917  0.22883017  0.03416020  1.0
  Ni  Ni97  1  0.97693917  0.56216350  0.03416020  1.0
  Ni  Ni98  1  0.97693917  0.89549683  0.03416020  1.0
  Ni  Ni99  1  0.14360583  0.06216350  0.13416020  1.0
  Ni  Ni100  1  0.14360583  0.39549683  0.13416020  1.0
  Ni  Ni101  1  0.14360583  0.72883017  0.13416020  1.0
  Ni  Ni102  1  0.47693917  0.06216350  0.13416020  1.0
  Ni  Ni103  1  0.47693917  0.39549683  0.13416020  1.0
  Ni  Ni104  1  0.47693917  0.72883017  0.13416020  1.0
  Ni  Ni105  1  0.81027250  0.06216350  0.13416020  1.0
  Ni  Ni106  1  0.81027250  0.39549683  0.13416020  1.0
  Ni  Ni107  1  0.81027250  0.72883017  0.13416020  1.0
  Ni  Ni108  1  0.02306083  0.10450317  0.15345160  1.0
  Ni  Ni109  1  0.02306083  0.43783650  0.15345160  1.0
  Ni  Ni110  1  0.02306083  0.77116983  0.15345160  1.0
  Ni  Ni111  1  0.35639417  0.10450317  0.15345160  1.0
  Ni  Ni112  1  0.35639417  0.43783650  0.15345160  1.0
  Ni  Ni113  1  0.35639417  0.77116983  0.15345160  1.0
  Ni  Ni114  1  0.68972750  0.10450317  0.15345160  1.0
  Ni  Ni115  1  0.68972750  0.43783650  0.15345160  1.0
  Ni  Ni116  1  0.68972750  0.77116983  0.15345160  1.0
  Ni  Ni117  1  0.18972750  0.27116983  0.05345160  1.0
  Ni  Ni118  1  0.18972750  0.60450317  0.05345160  1.0
  Ni  Ni119  1  0.18972750  0.93783650  0.05345160  1.0
  Ni  Ni120  1  0.52306083  0.27116983  0.05345160  1.0
  Ni  Ni121  1  0.52306083  0.60450317  0.05345160  1.0
  Ni  Ni122  1  0.52306083  0.93783650  0.05345160  1.0
  Ni  Ni123  1  0.85639417  0.27116983  0.05345160  1.0
  Ni  Ni124  1  0.85639417  0.60450317  0.05345160  1.0
  Ni  Ni125  1  0.85639417  0.93783650  0.05345160  1.0
  Ni  Ni126  1  0.26107850  0.16965317  0.19865380  1.0
  Ni  Ni127  1  0.26107850  0.50298650  0.19865380  1.0
  Ni  Ni128  1  0.26107850  0.83631983  0.19865380  1.0
  Ni  Ni129  1  0.59441183  0.16965317  0.19865380  1.0
  Ni  Ni130  1  0.59441183  0.50298650  0.19865380  1.0
  Ni  Ni131  1  0.59441183  0.83631983  0.19865380  1.0
  Ni  Ni132  1  0.92774517  0.16965317  0.19865380  1.0
  Ni  Ni133  1  0.92774517  0.50298650  0.19865380  1.0
  Ni  Ni134  1  0.92774517  0.83631983  0.19865380  1.0
  Ni  Ni135  1  0.09441183  0.00298650  0.09865380  1.0
  Ni  Ni136  1  0.09441183  0.33631983  0.09865380  1.0
  Ni  Ni137  1  0.09441183  0.66965317  0.09865380  1.0
  Ni  Ni138  1  0.42774517  0.00298650  0.09865380  1.0
  Ni  Ni139  1  0.42774517  0.33631983  0.09865380  1.0
  Ni  Ni140  1  0.42774517  0.66965317  0.09865380  1.0
  Ni  Ni141  1  0.76107850  0.00298650  0.09865380  1.0
  Ni  Ni142  1  0.76107850  0.33631983  0.09865380  1.0
  Ni  Ni143  1  0.76107850  0.66965317  0.09865380  1.0
  Ni  Ni144  1  0.23898717  0.18760050  0.12621340  1.0
  Ni  Ni145  1  0.23898717  0.52093383  0.12621340  1.0
  Ni  Ni146  1  0.23898717  0.85426717  0.12621340  1.0
  Ni  Ni147  1  0.57232050  0.18760050  0.12621340  1.0
  Ni  Ni148  1  0.57232050  0.52093383  0.12621340  1.0
  Ni  Ni149  1  0.57232050  0.85426717  0.12621340  1.0
  Ni  Ni150  1  0.90565383  0.18760050  0.12621340  1.0
  Ni  Ni151  1  0.90565383  0.52093383  0.12621340  1.0
  Ni  Ni152  1  0.90565383  0.85426717  0.12621340  1.0
  Ni  Ni153  1  0.07232050  0.02093383  0.02621340  1.0
  Ni  Ni154  1  0.07232050  0.35426717  0.02621340  1.0
  Ni  Ni155  1  0.07232050  0.68760050  0.02621340  1.0
  Ni  Ni156  1  0.40565383  0.02093383  0.02621340  1.0
  Ni  Ni157  1  0.40565383  0.35426717  0.02621340  1.0
  Ni  Ni158  1  0.40565383  0.68760050  0.02621340  1.0
  Ni  Ni159  1  0.73898717  0.02093383  0.02621340  1.0
  Ni  Ni160  1  0.73898717  0.35426717  0.02621340  1.0
  Ni  Ni161  1  0.73898717  0.68760050  0.02621340  1.0
  Ni  Ni162  1  0.09434617  0.14573283  0.06139840  1.0
  Ni  Ni163  1  0.09434617  0.47906617  0.06139840  1.0
  Ni  Ni164  1  0.09434617  0.81239950  0.06139840  1.0
  Ni  Ni165  1  0.42767950  0.14573283  0.06139840  1.0
  Ni  Ni166  1  0.42767950  0.47906617  0.06139840  1.0
  Ni  Ni167  1  0.42767950  0.81239950  0.06139840  1.0
  Ni  Ni168  1  0.76101283  0.14573283  0.06139840  1.0
  Ni  Ni169  1  0.76101283  0.47906617  0.06139840  1.0
  Ni  Ni170  1  0.76101283  0.81239950  0.06139840  1.0
  Ni  Ni171  1  0.26101283  0.31239950  0.16139840  1.0
  Ni  Ni172  1  0.26101283  0.64573283  0.16139840  1.0
  Ni  Ni173  1  0.26101283  0.97906617  0.16139840  1.0
  Ni  Ni174  1  0.59434617  0.31239950  0.16139840  1.0
  Ni  Ni175  1  0.59434617  0.64573283  0.16139840  1.0
  Ni  Ni176  1  0.59434617  0.97906617  0.16139840  1.0
  Ni  Ni177  1  0.92767950  0.31239950  0.16139840  1.0
  Ni  Ni178  1  0.92767950  0.64573283  0.16139840  1.0
  Ni  Ni179  1  0.92767950  0.97906617  0.16139840  1.0
  Ni  Ni180  1  0.03443850  0.15062050  0.10800500  1.0
  Ni  Ni181  1  0.03443850  0.48395383  0.10800500  1.0
  Ni  Ni182  1  0.03443850  0.81728717  0.10800500  1.0
  Ni  Ni183  1  0.36777183  0.15062050  0.10800500  1.0
  Ni  Ni184  1  0.36777183  0.48395383  0.10800500  1.0
  Ni  Ni185  1  0.36777183  0.81728717  0.10800500  1.0
  Ni  Ni186  1  0.70110517  0.15062050  0.10800500  1.0
  Ni  Ni187  1  0.70110517  0.48395383  0.10800500  1.0
  Ni  Ni188  1  0.70110517  0.81728717  0.10800500  1.0
  Ni  Ni189  1  0.20110517  0.31728717  0.00800500  1.0
  Ni  Ni190  1  0.20110517  0.65062050  0.00800500  1.0
  Ni  Ni191  1  0.20110517  0.98395383  0.00800500  1.0
  Ni  Ni192  1  0.53443850  0.31728717  0.00800500  1.0
  Ni  Ni193  1  0.53443850  0.65062050  0.00800500  1.0
  Ni  Ni194  1  0.53443850  0.98395383  0.00800500  1.0
  Ni  Ni195  1  0.86777183  0.31728717  0.00800500  1.0
  Ni  Ni196  1  0.86777183  0.65062050  0.00800500  1.0
  Ni  Ni197  1  0.86777183  0.98395383  0.00800500  1.0
  Ni  Ni198  1  0.29889483  0.18271283  0.07960680  1.0
  Ni  Ni199  1  0.29889483  0.51604617  0.07960680  1.0
  Ni  Ni200  1  0.29889483  0.84937950  0.07960680  1.0
  Ni  Ni201  1  0.63222817  0.18271283  0.07960680  1.0
  Ni  Ni202  1  0.63222817  0.51604617  0.07960680  1.0
  Ni  Ni203  1  0.63222817  0.84937950  0.07960680  1.0
  Ni  Ni204  1  0.96556150  0.18271283  0.07960680  1.0
  Ni  Ni205  1  0.96556150  0.51604617  0.07960680  1.0
  Ni  Ni206  1  0.96556150  0.84937950  0.07960680  1.0
  Ni  Ni207  1  0.13222817  0.01604617  0.17960680  1.0
  Ni  Ni208  1  0.13222817  0.34937950  0.17960680  1.0
  Ni  Ni209  1  0.13222817  0.68271283  0.17960680  1.0
  Ni  Ni210  1  0.46556150  0.01604617  0.17960680  1.0
  Ni  Ni211  1  0.46556150  0.34937950  0.17960680  1.0
  Ni  Ni212  1  0.46556150  0.68271283  0.17960680  1.0
  Ni  Ni213  1  0.79889483  0.01604617  0.17960680  1.0
  Ni  Ni214  1  0.79889483  0.34937950  0.17960680  1.0
  Ni  Ni215  1  0.79889483  0.68271283  0.17960680  1.0
  Ni  Ni216  1  0.31171983  0.09252450  0.07656980  1.0
  Ni  Ni217  1  0.31171983  0.42585783  0.07656980  1.0
  Ni  Ni218  1  0.31171983  0.75919117  0.07656980  1.0
  Ni  Ni219  1  0.64505317  0.09252450  0.07656980  1.0
  Ni  Ni220  1  0.64505317  0.42585783  0.07656980  1.0
  Ni  Ni221  1  0.64505317  0.75919117  0.07656980  1.0
  Ni  Ni222  1  0.97838650  0.09252450  0.07656980  1.0
  Ni  Ni223  1  0.97838650  0.42585783  0.07656980  1.0
  Ni  Ni224  1  0.97838650  0.75919117  0.07656980  1.0
  Ni  Ni225  1  0.14505317  0.25919117  0.17656980  1.0
  Ni  Ni226  1  0.14505317  0.59252450  0.17656980  1.0
  Ni  Ni227  1  0.14505317  0.92585783  0.17656980  1.0
  Ni  Ni228  1  0.47838650  0.25919117  0.17656980  1.0
  Ni  Ni229  1  0.47838650  0.59252450  0.17656980  1.0
  Ni  Ni230  1  0.47838650  0.92585783  0.17656980  1.0
  Ni  Ni231  1  0.81171983  0.25919117  0.17656980  1.0
  Ni  Ni232  1  0.81171983  0.59252450  0.17656980  1.0
  Ni  Ni233  1  0.81171983  0.92585783  0.17656980  1.0
  Ni  Ni234  1  0.02161350  0.24080883  0.11104200  1.0
  Ni  Ni235  1  0.02161350  0.57414217  0.11104200  1.0
  Ni  Ni236  1  0.02161350  0.90747550  0.11104200  1.0
  Ni  Ni237  1  0.35494683  0.24080883  0.11104200  1.0
  Ni  Ni238  1  0.35494683  0.57414217  0.11104200  1.0
  Ni  Ni239  1  0.35494683  0.90747550  0.11104200  1.0
  Ni  Ni240  1  0.68828017  0.24080883  0.11104200  1.0
  Ni  Ni241  1  0.68828017  0.57414217  0.11104200  1.0
  Ni  Ni242  1  0.68828017  0.90747550  0.11104200  1.0
  Ni  Ni243  1  0.18828017  0.07414217  0.01104200  1.0
  Ni  Ni244  1  0.18828017  0.40747550  0.01104200  1.0
  Ni  Ni245  1  0.18828017  0.74080883  0.01104200  1.0
  Ni  Ni246  1  0.52161350  0.07414217  0.01104200  1.0
  Ni  Ni247  1  0.52161350  0.40747550  0.01104200  1.0
  Ni  Ni248  1  0.52161350  0.74080883  0.01104200  1.0
  Ni  Ni249  1  0.85494683  0.07414217  0.01104200  1.0
  Ni  Ni250  1  0.85494683  0.40747550  0.01104200  1.0
  Ni  Ni251  1  0.85494683  0.74080883  0.01104200  1.0
  Ni  Ni252  1  0.28398050  0.13112117  0.13315680  1.0
  Ni  Ni253  1  0.28398050  0.46445450  0.13315680  1.0
  Ni  Ni254  1  0.28398050  0.79778783  0.13315680  1.0
  Ni  Ni255  1  0.61731383  0.13112117  0.13315680  1.0
  Ni  Ni256  1  0.61731383  0.46445450  0.13315680  1.0
  Ni  Ni257  1  0.61731383  0.79778783  0.13315680  1.0
  Ni  Ni258  1  0.95064717  0.13112117  0.13315680  1.0
  Ni  Ni259  1  0.95064717  0.46445450  0.13315680  1.0
  Ni  Ni260  1  0.95064717  0.79778783  0.13315680  1.0
  Ni  Ni261  1  0.11731383  0.29778783  0.03315680  1.0
  Ni  Ni262  1  0.11731383  0.63112117  0.03315680  1.0
  Ni  Ni263  1  0.11731383  0.96445450  0.03315680  1.0
  Ni  Ni264  1  0.45064717  0.29778783  0.03315680  1.0
  Ni  Ni265  1  0.45064717  0.63112117  0.03315680  1.0
  Ni  Ni266  1  0.45064717  0.96445450  0.03315680  1.0
  Ni  Ni267  1  0.78398050  0.29778783  0.03315680  1.0
  Ni  Ni268  1  0.78398050  0.63112117  0.03315680  1.0
  Ni  Ni269  1  0.78398050  0.96445450  0.03315680  1.0
  Ni  Ni270  1  0.04935283  0.20221217  0.05445500  1.0
  Ni  Ni271  1  0.04935283  0.53554550  0.05445500  1.0
  Ni  Ni272  1  0.04935283  0.86887883  0.05445500  1.0
  Ni  Ni273  1  0.38268617  0.20221217  0.05445500  1.0
  Ni  Ni274  1  0.38268617  0.53554550  0.05445500  1.0
  Ni  Ni275  1  0.38268617  0.86887883  0.05445500  1.0
  Ni  Ni276  1  0.71601950  0.20221217  0.05445500  1.0
  Ni  Ni277  1  0.71601950  0.53554550  0.05445500  1.0
  Ni  Ni278  1  0.71601950  0.86887883  0.05445500  1.0
  Ni  Ni279  1  0.21601950  0.03554550  0.15445500  1.0
  Ni  Ni280  1  0.21601950  0.36887883  0.15445500  1.0
  Ni  Ni281  1  0.21601950  0.70221217  0.15445500  1.0
  Ni  Ni282  1  0.54935283  0.03554550  0.15445500  1.0
  Ni  Ni283  1  0.54935283  0.36887883  0.15445500  1.0
  Ni  Ni284  1  0.54935283  0.70221217  0.15445500  1.0
  Ni  Ni285  1  0.88268617  0.03554550  0.15445500  1.0
  Ni  Ni286  1  0.88268617  0.36887883  0.15445500  1.0
  Ni  Ni287  1  0.88268617  0.70221217  0.15445500  1.0
  Ni  Ni288  1  0.01051600  0.02243467  0.07055250  1.0
  Ni  Ni289  1  0.01051600  0.35576800  0.07055250  1.0
  Ni  Ni290  1  0.01051600  0.68910133  0.07055250  1.0
  Ni  Ni291  1  0.34384933  0.02243467  0.07055250  1.0
  Ni  Ni292  1  0.34384933  0.35576800  0.07055250  1.0
  Ni  Ni293  1  0.34384933  0.68910133  0.07055250  1.0
  Ni  Ni294  1  0.67718267  0.02243467  0.07055250  1.0
  Ni  Ni295  1  0.67718267  0.35576800  0.07055250  1.0
  Ni  Ni296  1  0.67718267  0.68910133  0.07055250  1.0
  Ni  Ni297  1  0.17718267  0.18910133  0.17055250  1.0
  Ni  Ni298  1  0.17718267  0.52243467  0.17055250  1.0
  Ni  Ni299  1  0.17718267  0.85576800  0.17055250  1.0
  Ni  Ni300  1  0.51051600  0.18910133  0.17055250  1.0
  Ni  Ni301  1  0.51051600  0.52243467  0.17055250  1.0
  Ni  Ni302  1  0.51051600  0.85576800  0.17055250  1.0
  Ni  Ni303  1  0.84384933  0.18910133  0.17055250  1.0
  Ni  Ni304  1  0.84384933  0.52243467  0.17055250  1.0
  Ni  Ni305  1  0.84384933  0.85576800  0.17055250  1.0
  Ni  Ni306  1  0.32281733  0.31089867  0.11705930  1.0
  Ni  Ni307  1  0.32281733  0.64423200  0.11705930  1.0
  Ni  Ni308  1  0.32281733  0.97756533  0.11705930  1.0
  Ni  Ni309  1  0.65615067  0.31089867  0.11705930  1.0
  Ni  Ni310  1  0.65615067  0.64423200  0.11705930  1.0
  Ni  Ni311  1  0.65615067  0.97756533  0.11705930  1.0
  Ni  Ni312  1  0.98948400  0.31089867  0.11705930  1.0
  Ni  Ni313  1  0.98948400  0.64423200  0.11705930  1.0
  Ni  Ni314  1  0.98948400  0.97756533  0.11705930  1.0
  Ni  Ni315  1  0.15615067  0.14423200  0.01705930  1.0
  Ni  Ni316  1  0.15615067  0.47756533  0.01705930  1.0
  Ni  Ni317  1  0.15615067  0.81089867  0.01705930  1.0
  Ni  Ni318  1  0.48948400  0.14423200  0.01705930  1.0
  Ni  Ni319  1  0.48948400  0.47756533  0.01705930  1.0
  Ni  Ni320  1  0.48948400  0.81089867  0.01705930  1.0
  Ni  Ni321  1  0.82281733  0.14423200  0.01705930  1.0
  Ni  Ni322  1  0.82281733  0.47756533  0.01705930  1.0
  Ni  Ni323  1  0.82281733  0.81089867  0.01705930  1.0
  Ni  Ni324  1  0.11596717  0.13197950  0.13650780  1.0
  Ni  Ni325  1  0.11596717  0.46531283  0.13650780  1.0
  Ni  Ni326  1  0.11596717  0.79864617  0.13650780  1.0
  Ni  Ni327  1  0.44930050  0.13197950  0.13650780  1.0
  Ni  Ni328  1  0.44930050  0.46531283  0.13650780  1.0
  Ni  Ni329  1  0.44930050  0.79864617  0.13650780  1.0
  Ni  Ni330  1  0.78263383  0.13197950  0.13650780  1.0
  Ni  Ni331  1  0.78263383  0.46531283  0.13650780  1.0
  Ni  Ni332  1  0.78263383  0.79864617  0.13650780  1.0
  Ni  Ni333  1  0.28263383  0.29864617  0.03650780  1.0
  Ni  Ni334  1  0.28263383  0.63197950  0.03650780  1.0
  Ni  Ni335  1  0.28263383  0.96531283  0.03650780  1.0
  Ni  Ni336  1  0.61596717  0.29864617  0.03650780  1.0
  Ni  Ni337  1  0.61596717  0.63197950  0.03650780  1.0
  Ni  Ni338  1  0.61596717  0.96531283  0.03650780  1.0
  Ni  Ni339  1  0.94930050  0.29864617  0.03650780  1.0
  Ni  Ni340  1  0.94930050  0.63197950  0.03650780  1.0
  Ni  Ni341  1  0.94930050  0.96531283  0.03650780  1.0
  Ni  Ni342  1  0.21736617  0.20135383  0.05110400  1.0
  Ni  Ni343  1  0.21736617  0.53468717  0.05110400  1.0
  Ni  Ni344  1  0.21736617  0.86802050  0.05110400  1.0
  Ni  Ni345  1  0.55069950  0.20135383  0.05110400  1.0
  Ni  Ni346  1  0.55069950  0.53468717  0.05110400  1.0
  Ni  Ni347  1  0.55069950  0.86802050  0.05110400  1.0
  Ni  Ni348  1  0.88403283  0.20135383  0.05110400  1.0
  Ni  Ni349  1  0.88403283  0.53468717  0.05110400  1.0
  Ni  Ni350  1  0.88403283  0.86802050  0.05110400  1.0
  Ni  Ni351  1  0.05069950  0.03468717  0.15110400  1.0
  Ni  Ni352  1  0.05069950  0.36802050  0.15110400  1.0
  Ni  Ni353  1  0.05069950  0.70135383  0.15110400  1.0
  Ni  Ni354  1  0.38403283  0.03468717  0.15110400  1.0
  Ni  Ni355  1  0.38403283  0.36802050  0.15110400  1.0
  Ni  Ni356  1  0.38403283  0.70135383  0.15110400  1.0
  Ni  Ni357  1  0.71736617  0.03468717  0.15110400  1.0
  Ni  Ni358  1  0.71736617  0.36802050  0.15110400  1.0
  Ni  Ni359  1  0.71736617  0.70135383  0.15110400  1.0
  Ni  Ni360  1  0.07225483  0.16368017  0.18895800  1.0
  Ni  Ni361  1  0.07225483  0.49701350  0.18895800  1.0
  Ni  Ni362  1  0.07225483  0.83034683  0.18895800  1.0
  Ni  Ni363  1  0.40558817  0.16368017  0.18895800  1.0
  Ni  Ni364  1  0.40558817  0.49701350  0.18895800  1.0
  Ni  Ni365  1  0.40558817  0.83034683  0.18895800  1.0
  Ni  Ni366  1  0.73892150  0.16368017  0.18895800  1.0
  Ni  Ni367  1  0.73892150  0.49701350  0.18895800  1.0
  Ni  Ni368  1  0.73892150  0.83034683  0.18895800  1.0
  Ni  Ni369  1  0.23892150  0.33034683  0.08895800  1.0
  Ni  Ni370  1  0.23892150  0.66368017  0.08895800  1.0
  Ni  Ni371  1  0.23892150  0.99701350  0.08895800  1.0
  Ni  Ni372  1  0.57225483  0.33034683  0.08895800  1.0
  Ni  Ni373  1  0.57225483  0.66368017  0.08895800  1.0
  Ni  Ni374  1  0.57225483  0.99701350  0.08895800  1.0
  Ni  Ni375  1  0.90558817  0.33034683  0.08895800  1.0
  Ni  Ni376  1  0.90558817  0.66368017  0.08895800  1.0
  Ni  Ni377  1  0.90558817  0.99701350  0.08895800  1.0
  Ni  Ni378  1  0.33333333  0.00000000  0.39380590  1.0
  Ni  Ni379  1  0.33333333  0.33333333  0.39380590  1.0
  Ni  Ni380  1  0.33333333  0.66666667  0.39380590  1.0
  Ni  Ni381  1  0.66666667  0.00000000  0.39380590  1.0
  Ni  Ni382  1  0.66666667  0.33333333  0.39380590  1.0
  Ni  Ni383  1  0.66666667  0.66666667  0.39380590  1.0
  Ni  Ni384  1  1.00000000  0.00000000  0.39380590  1.0
  Ni  Ni385  1  1.00000000  0.33333333  0.39380590  1.0
  Ni  Ni386  1  1.00000000  0.66666667  0.39380590  1.0
  Ni  Ni387  1  0.16666667  0.16666667  0.29380590  1.0
  Ni  Ni388  1  0.16666667  0.50000000  0.29380590  1.0
  Ni  Ni389  1  0.16666667  0.83333333  0.29380590  1.0
  Ni  Ni390  1  0.50000000  0.16666667  0.29380590  1.0
  Ni  Ni391  1  0.50000000  0.50000000  0.29380590  1.0
  Ni  Ni392  1  0.50000000  0.83333333  0.29380590  1.0
  Ni  Ni393  1  0.83333333  0.16666667  0.29380590  1.0
  Ni  Ni394  1  0.83333333  0.50000000  0.29380590  1.0
  Ni  Ni395  1  0.83333333  0.83333333  0.29380590  1.0
  Ni  Ni396  1  0.31865167  0.26782300  0.37410270  1.0
  Ni  Ni397  1  0.31865167  0.60115633  0.37410270  1.0
  Ni  Ni398  1  0.31865167  0.93448967  0.37410270  1.0
  Ni  Ni399  1  0.65198500  0.26782300  0.37410270  1.0
  Ni  Ni400  1  0.65198500  0.60115633  0.37410270  1.0
  Ni  Ni401  1  0.65198500  0.93448967  0.37410270  1.0
  Ni  Ni402  1  0.98531833  0.26782300  0.37410270  1.0
  Ni  Ni403  1  0.98531833  0.60115633  0.37410270  1.0
  Ni  Ni404  1  0.98531833  0.93448967  0.37410270  1.0
  Ni  Ni405  1  0.15198500  0.10115633  0.27410270  1.0
  Ni  Ni406  1  0.15198500  0.43448967  0.27410270  1.0
  Ni  Ni407  1  0.15198500  0.76782300  0.27410270  1.0
  Ni  Ni408  1  0.48531833  0.10115633  0.27410270  1.0
  Ni  Ni409  1  0.48531833  0.43448967  0.27410270  1.0
  Ni  Ni410  1  0.48531833  0.76782300  0.27410270  1.0
  Ni  Ni411  1  0.81865167  0.10115633  0.27410270  1.0
  Ni  Ni412  1  0.81865167  0.43448967  0.27410270  1.0
  Ni  Ni413  1  0.81865167  0.76782300  0.27410270  1.0
  Ni  Ni414  1  0.01468167  0.06551033  0.21350910  1.0
  Ni  Ni415  1  0.01468167  0.39884367  0.21350910  1.0
  Ni  Ni416  1  0.01468167  0.73217700  0.21350910  1.0
  Ni  Ni417  1  0.34801500  0.06551033  0.21350910  1.0
  Ni  Ni418  1  0.34801500  0.39884367  0.21350910  1.0
  Ni  Ni419  1  0.34801500  0.73217700  0.21350910  1.0
  Ni  Ni420  1  0.68134833  0.06551033  0.21350910  1.0
  Ni  Ni421  1  0.68134833  0.39884367  0.21350910  1.0
  Ni  Ni422  1  0.68134833  0.73217700  0.21350910  1.0
  Ni  Ni423  1  0.18134833  0.23217700  0.31350910  1.0
  Ni  Ni424  1  0.18134833  0.56551033  0.31350910  1.0
  Ni  Ni425  1  0.18134833  0.89884367  0.31350910  1.0
  Ni  Ni426  1  0.51468167  0.23217700  0.31350910  1.0
  Ni  Ni427  1  0.51468167  0.56551033  0.31350910  1.0
  Ni  Ni428  1  0.51468167  0.89884367  0.31350910  1.0
  Ni  Ni429  1  0.84801500  0.23217700  0.31350910  1.0
  Ni  Ni430  1  0.84801500  0.56551033  0.31350910  1.0
  Ni  Ni431  1  0.84801500  0.89884367  0.31350910  1.0
  Ni  Ni432  1  0.05926317  0.23585583  0.39265520  1.0
  Ni  Ni433  1  0.05926317  0.56918917  0.39265520  1.0
  Ni  Ni434  1  0.05926317  0.90252250  0.39265520  1.0
  Ni  Ni435  1  0.39259650  0.23585583  0.39265520  1.0
  Ni  Ni436  1  0.39259650  0.56918917  0.39265520  1.0
  Ni  Ni437  1  0.39259650  0.90252250  0.39265520  1.0
  Ni  Ni438  1  0.72592983  0.23585583  0.39265520  1.0
  Ni  Ni439  1  0.72592983  0.56918917  0.39265520  1.0
  Ni  Ni440  1  0.72592983  0.90252250  0.39265520  1.0
  Ni  Ni441  1  0.22592983  0.06918917  0.29265520  1.0
  Ni  Ni442  1  0.22592983  0.40252250  0.29265520  1.0
  Ni  Ni443  1  0.22592983  0.73585583  0.29265520  1.0
  Ni  Ni444  1  0.55926317  0.06918917  0.29265520  1.0
  Ni  Ni445  1  0.55926317  0.40252250  0.29265520  1.0
  Ni  Ni446  1  0.55926317  0.73585583  0.29265520  1.0
  Ni  Ni447  1  0.89259650  0.06918917  0.29265520  1.0
  Ni  Ni448  1  0.89259650  0.40252250  0.29265520  1.0
  Ni  Ni449  1  0.89259650  0.73585583  0.29265520  1.0
  Ni  Ni450  1  0.27407017  0.09747750  0.39495660  1.0
  Ni  Ni451  1  0.27407017  0.43081083  0.39495660  1.0
  Ni  Ni452  1  0.27407017  0.76414417  0.39495660  1.0
  Ni  Ni453  1  0.60740350  0.09747750  0.39495660  1.0
  Ni  Ni454  1  0.60740350  0.43081083  0.39495660  1.0
  Ni  Ni455  1  0.60740350  0.76414417  0.39495660  1.0
  Ni  Ni456  1  0.94073683  0.09747750  0.39495660  1.0
  Ni  Ni457  1  0.94073683  0.43081083  0.39495660  1.0
  Ni  Ni458  1  0.94073683  0.76414417  0.39495660  1.0
  Ni  Ni459  1  0.10740350  0.26414417  0.29495660  1.0
  Ni  Ni460  1  0.10740350  0.59747750  0.29495660  1.0
  Ni  Ni461  1  0.10740350  0.93081083  0.29495660  1.0
  Ni  Ni462  1  0.44073683  0.26414417  0.29495660  1.0
  Ni  Ni463  1  0.44073683  0.59747750  0.29495660  1.0
  Ni  Ni464  1  0.44073683  0.93081083  0.29495660  1.0
  Ni  Ni465  1  0.77407017  0.26414417  0.29495660  1.0
  Ni  Ni466  1  0.77407017  0.59747750  0.29495660  1.0
  Ni  Ni467  1  0.77407017  0.93081083  0.29495660  1.0
  Ni  Ni468  1  0.31027250  0.22883017  0.23416020  1.0
  Ni  Ni469  1  0.31027250  0.56216350  0.23416020  1.0
  Ni  Ni470  1  0.31027250  0.89549683  0.23416020  1.0
  Ni  Ni471  1  0.64360583  0.22883017  0.23416020  1.0
  Ni  Ni472  1  0.64360583  0.56216350  0.23416020  1.0
  Ni  Ni473  1  0.64360583  0.89549683  0.23416020  1.0
  Ni  Ni474  1  0.97693917  0.22883017  0.23416020  1.0
  Ni  Ni475  1  0.97693917  0.56216350  0.23416020  1.0
  Ni  Ni476  1  0.97693917  0.89549683  0.23416020  1.0
  Ni  Ni477  1  0.14360583  0.06216350  0.33416020  1.0
  Ni  Ni478  1  0.14360583  0.39549683  0.33416020  1.0
  Ni  Ni479  1  0.14360583  0.72883017  0.33416020  1.0
  Ni  Ni480  1  0.47693917  0.06216350  0.33416020  1.0
  Ni  Ni481  1  0.47693917  0.39549683  0.33416020  1.0
  Ni  Ni482  1  0.47693917  0.72883017  0.33416020  1.0
  Ni  Ni483  1  0.81027250  0.06216350  0.33416020  1.0
  Ni  Ni484  1  0.81027250  0.39549683  0.33416020  1.0
  Ni  Ni485  1  0.81027250  0.72883017  0.33416020  1.0
  Ni  Ni486  1  0.02306083  0.10450317  0.35345160  1.0
  Ni  Ni487  1  0.02306083  0.43783650  0.35345160  1.0
  Ni  Ni488  1  0.02306083  0.77116983  0.35345160  1.0
  Ni  Ni489  1  0.35639417  0.10450317  0.35345160  1.0
  Ni  Ni490  1  0.35639417  0.43783650  0.35345160  1.0
  Ni  Ni491  1  0.35639417  0.77116983  0.35345160  1.0
  Ni  Ni492  1  0.68972750  0.10450317  0.35345160  1.0
  Ni  Ni493  1  0.68972750  0.43783650  0.35345160  1.0
  Ni  Ni494  1  0.68972750  0.77116983  0.35345160  1.0
  Ni  Ni495  1  0.18972750  0.27116983  0.25345160  1.0
  Ni  Ni496  1  0.18972750  0.60450317  0.25345160  1.0
  Ni  Ni497  1  0.18972750  0.93783650  0.25345160  1.0
  Ni  Ni498  1  0.52306083  0.27116983  0.25345160  1.0
  Ni  Ni499  1  0.52306083  0.60450317  0.25345160  1.0
  Ni  Ni500  1  0.52306083  0.93783650  0.25345160  1.0
  Ni  Ni501  1  0.85639417  0.27116983  0.25345160  1.0
  Ni  Ni502  1  0.85639417  0.60450317  0.25345160  1.0
  Ni  Ni503  1  0.85639417  0.93783650  0.25345160  1.0
  Ni  Ni504  1  0.26107850  0.16965317  0.39865380  1.0
  Ni  Ni505  1  0.26107850  0.50298650  0.39865380  1.0
  Ni  Ni506  1  0.26107850  0.83631983  0.39865380  1.0
  Ni  Ni507  1  0.59441183  0.16965317  0.39865380  1.0
  Ni  Ni508  1  0.59441183  0.50298650  0.39865380  1.0
  Ni  Ni509  1  0.59441183  0.83631983  0.39865380  1.0
  Ni  Ni510  1  0.92774517  0.16965317  0.39865380  1.0
  Ni  Ni511  1  0.92774517  0.50298650  0.39865380  1.0
  Ni  Ni512  1  0.92774517  0.83631983  0.39865380  1.0
  Ni  Ni513  1  0.09441183  0.00298650  0.29865380  1.0
  Ni  Ni514  1  0.09441183  0.33631983  0.29865380  1.0
  Ni  Ni515  1  0.09441183  0.66965317  0.29865380  1.0
  Ni  Ni516  1  0.42774517  0.00298650  0.29865380  1.0
  Ni  Ni517  1  0.42774517  0.33631983  0.29865380  1.0
  Ni  Ni518  1  0.42774517  0.66965317  0.29865380  1.0
  Ni  Ni519  1  0.76107850  0.00298650  0.29865380  1.0
  Ni  Ni520  1  0.76107850  0.33631983  0.29865380  1.0
  Ni  Ni521  1  0.76107850  0.66965317  0.29865380  1.0
  Ni  Ni522  1  0.23898717  0.18760050  0.32621340  1.0
  Ni  Ni523  1  0.23898717  0.52093383  0.32621340  1.0
  Ni  Ni524  1  0.23898717  0.85426717  0.32621340  1.0
  Ni  Ni525  1  0.57232050  0.18760050  0.32621340  1.0
  Ni  Ni526  1  0.57232050  0.52093383  0.32621340  1.0
  Ni  Ni527  1  0.57232050  0.85426717  0.32621340  1.0
  Ni  Ni528  1  0.90565383  0.18760050  0.32621340  1.0
  Ni  Ni529  1  0.90565383  0.52093383  0.32621340  1.0
  Ni  Ni530  1  0.90565383  0.85426717  0.32621340  1.0
  Ni  Ni531  1  0.07232050  0.02093383  0.22621340  1.0
  Ni  Ni532  1  0.07232050  0.35426717  0.22621340  1.0
  Ni  Ni533  1  0.07232050  0.68760050  0.22621340  1.0
  Ni  Ni534  1  0.40565383  0.02093383  0.22621340  1.0
  Ni  Ni535  1  0.40565383  0.35426717  0.22621340  1.0
  Ni  Ni536  1  0.40565383  0.68760050  0.22621340  1.0
  Ni  Ni537  1  0.73898717  0.02093383  0.22621340  1.0
  Ni  Ni538  1  0.73898717  0.35426717  0.22621340  1.0
  Ni  Ni539  1  0.73898717  0.68760050  0.22621340  1.0
  Ni  Ni540  1  0.09434617  0.14573283  0.26139840  1.0
  Ni  Ni541  1  0.09434617  0.47906617  0.26139840  1.0
  Ni  Ni542  1  0.09434617  0.81239950  0.26139840  1.0
  Ni  Ni543  1  0.42767950  0.14573283  0.26139840  1.0
  Ni  Ni544  1  0.42767950  0.47906617  0.26139840  1.0
  Ni  Ni545  1  0.42767950  0.81239950  0.26139840  1.0
  Ni  Ni546  1  0.76101283  0.14573283  0.26139840  1.0
  Ni  Ni547  1  0.76101283  0.47906617  0.26139840  1.0
  Ni  Ni548  1  0.76101283  0.81239950  0.26139840  1.0
  Ni  Ni549  1  0.26101283  0.31239950  0.36139840  1.0
  Ni  Ni550  1  0.26101283  0.64573283  0.36139840  1.0
  Ni  Ni551  1  0.26101283  0.97906617  0.36139840  1.0
  Ni  Ni552  1  0.59434617  0.31239950  0.36139840  1.0
  Ni  Ni553  1  0.59434617  0.64573283  0.36139840  1.0
  Ni  Ni554  1  0.59434617  0.97906617  0.36139840  1.0
  Ni  Ni555  1  0.92767950  0.31239950  0.36139840  1.0
  Ni  Ni556  1  0.92767950  0.64573283  0.36139840  1.0
  Ni  Ni557  1  0.92767950  0.97906617  0.36139840  1.0
  Ni  Ni558  1  0.03443850  0.15062050  0.30800500  1.0
  Ni  Ni559  1  0.03443850  0.48395383  0.30800500  1.0
  Ni  Ni560  1  0.03443850  0.81728717  0.30800500  1.0
  Ni  Ni561  1  0.36777183  0.15062050  0.30800500  1.0
  Ni  Ni562  1  0.36777183  0.48395383  0.30800500  1.0
  Ni  Ni563  1  0.36777183  0.81728717  0.30800500  1.0
  Ni  Ni564  1  0.70110517  0.15062050  0.30800500  1.0
  Ni  Ni565  1  0.70110517  0.48395383  0.30800500  1.0
  Ni  Ni566  1  0.70110517  0.81728717  0.30800500  1.0
  Ni  Ni567  1  0.20110517  0.31728717  0.20800500  1.0
  Ni  Ni568  1  0.20110517  0.65062050  0.20800500  1.0
  Ni  Ni569  1  0.20110517  0.98395383  0.20800500  1.0
  Ni  Ni570  1  0.53443850  0.31728717  0.20800500  1.0
  Ni  Ni571  1  0.53443850  0.65062050  0.20800500  1.0
  Ni  Ni572  1  0.53443850  0.98395383  0.20800500  1.0
  Ni  Ni573  1  0.86777183  0.31728717  0.20800500  1.0
  Ni  Ni574  1  0.86777183  0.65062050  0.20800500  1.0
  Ni  Ni575  1  0.86777183  0.98395383  0.20800500  1.0
  Ni  Ni576  1  0.29889483  0.18271283  0.27960680  1.0
  Ni  Ni577  1  0.29889483  0.51604617  0.27960680  1.0
  Ni  Ni578  1  0.29889483  0.84937950  0.27960680  1.0
  Ni  Ni579  1  0.63222817  0.18271283  0.27960680  1.0
  Ni  Ni580  1  0.63222817  0.51604617  0.27960680  1.0
  Ni  Ni581  1  0.63222817  0.84937950  0.27960680  1.0
  Ni  Ni582  1  0.96556150  0.18271283  0.27960680  1.0
  Ni  Ni583  1  0.96556150  0.51604617  0.27960680  1.0
  Ni  Ni584  1  0.96556150  0.84937950  0.27960680  1.0
  Ni  Ni585  1  0.13222817  0.01604617  0.37960680  1.0
  Ni  Ni586  1  0.13222817  0.34937950  0.37960680  1.0
  Ni  Ni587  1  0.13222817  0.68271283  0.37960680  1.0
  Ni  Ni588  1  0.46556150  0.01604617  0.37960680  1.0
  Ni  Ni589  1  0.46556150  0.34937950  0.37960680  1.0
  Ni  Ni590  1  0.46556150  0.68271283  0.37960680  1.0
  Ni  Ni591  1  0.79889483  0.01604617  0.37960680  1.0
  Ni  Ni592  1  0.79889483  0.34937950  0.37960680  1.0
  Ni  Ni593  1  0.79889483  0.68271283  0.37960680  1.0
  Ni  Ni594  1  0.31171983  0.09252450  0.27656980  1.0
  Ni  Ni595  1  0.31171983  0.42585783  0.27656980  1.0
  Ni  Ni596  1  0.31171983  0.75919117  0.27656980  1.0
  Ni  Ni597  1  0.64505317  0.09252450  0.27656980  1.0
  Ni  Ni598  1  0.64505317  0.42585783  0.27656980  1.0
  Ni  Ni599  1  0.64505317  0.75919117  0.27656980  1.0
  Ni  Ni600  1  0.97838650  0.09252450  0.27656980  1.0
  Ni  Ni601  1  0.97838650  0.42585783  0.27656980  1.0
  Ni  Ni602  1  0.97838650  0.75919117  0.27656980  1.0
  Ni  Ni603  1  0.14505317  0.25919117  0.37656980  1.0
  Ni  Ni604  1  0.14505317  0.59252450  0.37656980  1.0
  Ni  Ni605  1  0.14505317  0.92585783  0.37656980  1.0
  Ni  Ni606  1  0.47838650  0.25919117  0.37656980  1.0
  Ni  Ni607  1  0.47838650  0.59252450  0.37656980  1.0
  Ni  Ni608  1  0.47838650  0.92585783  0.37656980  1.0
  Ni  Ni609  1  0.81171983  0.25919117  0.37656980  1.0
  Ni  Ni610  1  0.81171983  0.59252450  0.37656980  1.0
  Ni  Ni611  1  0.81171983  0.92585783  0.37656980  1.0
  Ni  Ni612  1  0.02161350  0.24080883  0.31104200  1.0
  Ni  Ni613  1  0.02161350  0.57414217  0.31104200  1.0
  Ni  Ni614  1  0.02161350  0.90747550  0.31104200  1.0
  Ni  Ni615  1  0.35494683  0.24080883  0.31104200  1.0
  Ni  Ni616  1  0.35494683  0.57414217  0.31104200  1.0
  Ni  Ni617  1  0.35494683  0.90747550  0.31104200  1.0
  Ni  Ni618  1  0.68828017  0.24080883  0.31104200  1.0
  Ni  Ni619  1  0.68828017  0.57414217  0.31104200  1.0
  Ni  Ni620  1  0.68828017  0.90747550  0.31104200  1.0
  Ni  Ni621  1  0.18828017  0.07414217  0.21104200  1.0
  Ni  Ni622  1  0.18828017  0.40747550  0.21104200  1.0
  Ni  Ni623  1  0.18828017  0.74080883  0.21104200  1.0
  Ni  Ni624  1  0.52161350  0.07414217  0.21104200  1.0
  Ni  Ni625  1  0.52161350  0.40747550  0.21104200  1.0
  Ni  Ni626  1  0.52161350  0.74080883  0.21104200  1.0
  Ni  Ni627  1  0.85494683  0.07414217  0.21104200  1.0
  Ni  Ni628  1  0.85494683  0.40747550  0.21104200  1.0
  Ni  Ni629  1  0.85494683  0.74080883  0.21104200  1.0
  Ni  Ni630  1  0.28398050  0.13112117  0.33315680  1.0
  Ni  Ni631  1  0.28398050  0.46445450  0.33315680  1.0
  Ni  Ni632  1  0.28398050  0.79778783  0.33315680  1.0
  Ni  Ni633  1  0.61731383  0.13112117  0.33315680  1.0
  Ni  Ni634  1  0.61731383  0.46445450  0.33315680  1.0
  Ni  Ni635  1  0.61731383  0.79778783  0.33315680  1.0
  Ni  Ni636  1  0.95064717  0.13112117  0.33315680  1.0
  Ni  Ni637  1  0.95064717  0.46445450  0.33315680  1.0
  Ni  Ni638  1  0.95064717  0.79778783  0.33315680  1.0
  Ni  Ni639  1  0.11731383  0.29778783  0.23315680  1.0
  Ni  Ni640  1  0.11731383  0.63112117  0.23315680  1.0
  Ni  Ni641  1  0.11731383  0.96445450  0.23315680  1.0
  Ni  Ni642  1  0.45064717  0.29778783  0.23315680  1.0
  Ni  Ni643  1  0.45064717  0.63112117  0.23315680  1.0
  Ni  Ni644  1  0.45064717  0.96445450  0.23315680  1.0
  Ni  Ni645  1  0.78398050  0.29778783  0.23315680  1.0
  Ni  Ni646  1  0.78398050  0.63112117  0.23315680  1.0
  Ni  Ni647  1  0.78398050  0.96445450  0.23315680  1.0
  Ni  Ni648  1  0.04935283  0.20221217  0.25445500  1.0
  Ni  Ni649  1  0.04935283  0.53554550  0.25445500  1.0
  Ni  Ni650  1  0.04935283  0.86887883  0.25445500  1.0
  Ni  Ni651  1  0.38268617  0.20221217  0.25445500  1.0
  Ni  Ni652  1  0.38268617  0.53554550  0.25445500  1.0
  Ni  Ni653  1  0.38268617  0.86887883  0.25445500  1.0
  Ni  Ni654  1  0.71601950  0.20221217  0.25445500  1.0
  Ni  Ni655  1  0.71601950  0.53554550  0.25445500  1.0
  Ni  Ni656  1  0.71601950  0.86887883  0.25445500  1.0
  Ni  Ni657  1  0.21601950  0.03554550  0.35445500  1.0
  Ni  Ni658  1  0.21601950  0.36887883  0.35445500  1.0
  Ni  Ni659  1  0.21601950  0.70221217  0.35445500  1.0
  Ni  Ni660  1  0.54935283  0.03554550  0.35445500  1.0
  Ni  Ni661  1  0.54935283  0.36887883  0.35445500  1.0
  Ni  Ni662  1  0.54935283  0.70221217  0.35445500  1.0
  Ni  Ni663  1  0.88268617  0.03554550  0.35445500  1.0
  Ni  Ni664  1  0.88268617  0.36887883  0.35445500  1.0
  Ni  Ni665  1  0.88268617  0.70221217  0.35445500  1.0
  Ni  Ni666  1  0.01051600  0.02243467  0.27055250  1.0
  Ni  Ni667  1  0.01051600  0.35576800  0.27055250  1.0
  Ni  Ni668  1  0.01051600  0.68910133  0.27055250  1.0
  Ni  Ni669  1  0.34384933  0.02243467  0.27055250  1.0
  Ni  Ni670  1  0.34384933  0.35576800  0.27055250  1.0
  Ni  Ni671  1  0.34384933  0.68910133  0.27055250  1.0
  Ni  Ni672  1  0.67718267  0.02243467  0.27055250  1.0
  Ni  Ni673  1  0.67718267  0.35576800  0.27055250  1.0
  Ni  Ni674  1  0.67718267  0.68910133  0.27055250  1.0
  Ni  Ni675  1  0.17718267  0.18910133  0.37055250  1.0
  Ni  Ni676  1  0.17718267  0.52243467  0.37055250  1.0
  Ni  Ni677  1  0.17718267  0.85576800  0.37055250  1.0
  Ni  Ni678  1  0.51051600  0.18910133  0.37055250  1.0
  Ni  Ni679  1  0.51051600  0.52243467  0.37055250  1.0
  Ni  Ni680  1  0.51051600  0.85576800  0.37055250  1.0
  Ni  Ni681  1  0.84384933  0.18910133  0.37055250  1.0
  Ni  Ni682  1  0.84384933  0.52243467  0.37055250  1.0
  Ni  Ni683  1  0.84384933  0.85576800  0.37055250  1.0
  Ni  Ni684  1  0.32281733  0.31089867  0.31705930  1.0
  Ni  Ni685  1  0.32281733  0.64423200  0.31705930  1.0
  Ni  Ni686  1  0.32281733  0.97756533  0.31705930  1.0
  Ni  Ni687  1  0.65615067  0.31089867  0.31705930  1.0
  Ni  Ni688  1  0.65615067  0.64423200  0.31705930  1.0
  Ni  Ni689  1  0.65615067  0.97756533  0.31705930  1.0
  Ni  Ni690  1  0.98948400  0.31089867  0.31705930  1.0
  Ni  Ni691  1  0.98948400  0.64423200  0.31705930  1.0
  Ni  Ni692  1  0.98948400  0.97756533  0.31705930  1.0
  Ni  Ni693  1  0.15615067  0.14423200  0.21705930  1.0
  Ni  Ni694  1  0.15615067  0.47756533  0.21705930  1.0
  Ni  Ni695  1  0.15615067  0.81089867  0.21705930  1.0
  Ni  Ni696  1  0.48948400  0.14423200  0.21705930  1.0
  Ni  Ni697  1  0.48948400  0.47756533  0.21705930  1.0
  Ni  Ni698  1  0.48948400  0.81089867  0.21705930  1.0
  Ni  Ni699  1  0.82281733  0.14423200  0.21705930  1.0
  Ni  Ni700  1  0.82281733  0.47756533  0.21705930  1.0
  Ni  Ni701  1  0.82281733  0.81089867  0.21705930  1.0
  Ni  Ni702  1  0.11596717  0.13197950  0.33650780  1.0
  Ni  Ni703  1  0.11596717  0.46531283  0.33650780  1.0
  Ni  Ni704  1  0.11596717  0.79864617  0.33650780  1.0
  Ni  Ni705  1  0.44930050  0.13197950  0.33650780  1.0
  Ni  Ni706  1  0.44930050  0.46531283  0.33650780  1.0
  Ni  Ni707  1  0.44930050  0.79864617  0.33650780  1.0
  Ni  Ni708  1  0.78263383  0.13197950  0.33650780  1.0
  Ni  Ni709  1  0.78263383  0.46531283  0.33650780  1.0
  Ni  Ni710  1  0.78263383  0.79864617  0.33650780  1.0
  Ni  Ni711  1  0.28263383  0.29864617  0.23650780  1.0
  Ni  Ni712  1  0.28263383  0.63197950  0.23650780  1.0
  Ni  Ni713  1  0.28263383  0.96531283  0.23650780  1.0
  Ni  Ni714  1  0.61596717  0.29864617  0.23650780  1.0
  Ni  Ni715  1  0.61596717  0.63197950  0.23650780  1.0
  Ni  Ni716  1  0.61596717  0.96531283  0.23650780  1.0
  Ni  Ni717  1  0.94930050  0.29864617  0.23650780  1.0
  Ni  Ni718  1  0.94930050  0.63197950  0.23650780  1.0
  Ni  Ni719  1  0.94930050  0.96531283  0.23650780  1.0
  Ni  Ni720  1  0.21736617  0.20135383  0.25110400  1.0
  Ni  Ni721  1  0.21736617  0.53468717  0.25110400  1.0
  Ni  Ni722  1  0.21736617  0.86802050  0.25110400  1.0
  Ni  Ni723  1  0.55069950  0.20135383  0.25110400  1.0
  Ni  Ni724  1  0.55069950  0.53468717  0.25110400  1.0
  Ni  Ni725  1  0.55069950  0.86802050  0.25110400  1.0
  Ni  Ni726  1  0.88403283  0.20135383  0.25110400  1.0
  Ni  Ni727  1  0.88403283  0.53468717  0.25110400  1.0
  Ni  Ni728  1  0.88403283  0.86802050  0.25110400  1.0
  Ni  Ni729  1  0.05069950  0.03468717  0.35110400  1.0
  Ni  Ni730  1  0.05069950  0.36802050  0.35110400  1.0
  Ni  Ni731  1  0.05069950  0.70135383  0.35110400  1.0
  Ni  Ni732  1  0.38403283  0.03468717  0.35110400  1.0
  Ni  Ni733  1  0.38403283  0.36802050  0.35110400  1.0
  Ni  Ni734  1  0.38403283  0.70135383  0.35110400  1.0
  Ni  Ni735  1  0.71736617  0.03468717  0.35110400  1.0
  Ni  Ni736  1  0.71736617  0.36802050  0.35110400  1.0
  Ni  Ni737  1  0.71736617  0.70135383  0.35110400  1.0
  Ni  Ni738  1  0.07225483  0.16368017  0.38895800  1.0
  Ni  Ni739  1  0.07225483  0.49701350  0.38895800  1.0
  Ni  Ni740  1  0.07225483  0.83034683  0.38895800  1.0
  Ni  Ni741  1  0.40558817  0.16368017  0.38895800  1.0
  Ni  Ni742  1  0.40558817  0.49701350  0.38895800  1.0
  Ni  Ni743  1  0.40558817  0.83034683  0.38895800  1.0
  Ni  Ni744  1  0.73892150  0.16368017  0.38895800  1.0
  Ni  Ni745  1  0.73892150  0.49701350  0.38895800  1.0
  Ni  Ni746  1  0.73892150  0.83034683  0.38895800  1.0
  Ni  Ni747  1  0.23892150  0.33034683  0.28895800  1.0
  Ni  Ni748  1  0.23892150  0.66368017  0.28895800  1.0
  Ni  Ni749  1  0.23892150  0.99701350  0.28895800  1.0
  Ni  Ni750  1  0.57225483  0.33034683  0.28895800  1.0
  Ni  Ni751  1  0.57225483  0.66368017  0.28895800  1.0
  Ni  Ni752  1  0.57225483  0.99701350  0.28895800  1.0
  Ni  Ni753  1  0.90558817  0.33034683  0.28895800  1.0
  Ni  Ni754  1  0.90558817  0.66368017  0.28895800  1.0
  Ni  Ni755  1  0.90558817  0.99701350  0.28895800  1.0
  Zr  Zr756  1  0.03496933  0.28581333  0.05189850  1.0
  Zr  Zr757  1  0.03496933  0.61914667  0.05189850  1.0
  Zr  Zr758  1  0.03496933  0.95248000  0.05189850  1.0
  Zr  Zr759  1  0.36830267  0.28581333  0.05189850  1.0
  Zr  Zr760  1  0.36830267  0.61914667  0.05189850  1.0
  Zr  Zr761  1  0.36830267  0.95248000  0.05189850  1.0
  Zr  Zr762  1  0.70163600  0.28581333  0.05189850  1.0
  Zr  Zr763  1  0.70163600  0.61914667  0.05189850  1.0
  Zr  Zr764  1  0.70163600  0.95248000  0.05189850  1.0
  Zr  Zr765  1  0.20163600  0.11914667  0.15189850  1.0
  Zr  Zr766  1  0.20163600  0.45248000  0.15189850  1.0
  Zr  Zr767  1  0.20163600  0.78581333  0.15189850  1.0
  Zr  Zr768  1  0.53496933  0.11914667  0.15189850  1.0
  Zr  Zr769  1  0.53496933  0.45248000  0.15189850  1.0
  Zr  Zr770  1  0.53496933  0.78581333  0.15189850  1.0
  Zr  Zr771  1  0.86830267  0.11914667  0.15189850  1.0
  Zr  Zr772  1  0.86830267  0.45248000  0.15189850  1.0
  Zr  Zr773  1  0.86830267  0.78581333  0.15189850  1.0
  Zr  Zr774  1  0.29836400  0.04752000  0.13571330  1.0
  Zr  Zr775  1  0.29836400  0.38085333  0.13571330  1.0
  Zr  Zr776  1  0.29836400  0.71418667  0.13571330  1.0
  Zr  Zr777  1  0.63169733  0.04752000  0.13571330  1.0
  Zr  Zr778  1  0.63169733  0.38085333  0.13571330  1.0
  Zr  Zr779  1  0.63169733  0.71418667  0.13571330  1.0
  Zr  Zr780  1  0.96503067  0.04752000  0.13571330  1.0
  Zr  Zr781  1  0.96503067  0.38085333  0.13571330  1.0
  Zr  Zr782  1  0.96503067  0.71418667  0.13571330  1.0
  Zr  Zr783  1  0.13169733  0.21418667  0.03571330  1.0
  Zr  Zr784  1  0.13169733  0.54752000  0.03571330  1.0
  Zr  Zr785  1  0.13169733  0.88085333  0.03571330  1.0
  Zr  Zr786  1  0.46503067  0.21418667  0.03571330  1.0
  Zr  Zr787  1  0.46503067  0.54752000  0.03571330  1.0
  Zr  Zr788  1  0.46503067  0.88085333  0.03571330  1.0
  Zr  Zr789  1  0.79836400  0.21418667  0.03571330  1.0
  Zr  Zr790  1  0.79836400  0.54752000  0.03571330  1.0
  Zr  Zr791  1  0.79836400  0.88085333  0.03571330  1.0
  Zr  Zr792  1  0.00793100  0.13883233  0.02763210  1.0
  Zr  Zr793  1  0.00793100  0.47216567  0.02763210  1.0
  Zr  Zr794  1  0.00793100  0.80549900  0.02763210  1.0
  Zr  Zr795  1  0.34126433  0.13883233  0.02763210  1.0
  Zr  Zr796  1  0.34126433  0.47216567  0.02763210  1.0
  Zr  Zr797  1  0.34126433  0.80549900  0.02763210  1.0
  Zr  Zr798  1  0.67459767  0.13883233  0.02763210  1.0
  Zr  Zr799  1  0.67459767  0.47216567  0.02763210  1.0
  Zr  Zr800  1  0.67459767  0.80549900  0.02763210  1.0
  Zr  Zr801  1  0.17459767  0.30549900  0.12763210  1.0
  Zr  Zr802  1  0.17459767  0.63883233  0.12763210  1.0
  Zr  Zr803  1  0.17459767  0.97216567  0.12763210  1.0
  Zr  Zr804  1  0.50793100  0.30549900  0.12763210  1.0
  Zr  Zr805  1  0.50793100  0.63883233  0.12763210  1.0
  Zr  Zr806  1  0.50793100  0.97216567  0.12763210  1.0
  Zr  Zr807  1  0.84126433  0.30549900  0.12763210  1.0
  Zr  Zr808  1  0.84126433  0.63883233  0.12763210  1.0
  Zr  Zr809  1  0.84126433  0.97216567  0.12763210  1.0
  Zr  Zr810  1  0.32540233  0.19450100  0.15997970  1.0
  Zr  Zr811  1  0.32540233  0.52783433  0.15997970  1.0
  Zr  Zr812  1  0.32540233  0.86116767  0.15997970  1.0
  Zr  Zr813  1  0.65873567  0.19450100  0.15997970  1.0
  Zr  Zr814  1  0.65873567  0.52783433  0.15997970  1.0
  Zr  Zr815  1  0.65873567  0.86116767  0.15997970  1.0
  Zr  Zr816  1  0.99206900  0.19450100  0.15997970  1.0
  Zr  Zr817  1  0.99206900  0.52783433  0.15997970  1.0
  Zr  Zr818  1  0.99206900  0.86116767  0.15997970  1.0
  Zr  Zr819  1  0.15873567  0.02783433  0.05997970  1.0
  Zr  Zr820  1  0.15873567  0.36116767  0.05997970  1.0
  Zr  Zr821  1  0.15873567  0.69450100  0.05997970  1.0
  Zr  Zr822  1  0.49206900  0.02783433  0.05997970  1.0
  Zr  Zr823  1  0.49206900  0.36116767  0.05997970  1.0
  Zr  Zr824  1  0.49206900  0.69450100  0.05997970  1.0
  Zr  Zr825  1  0.82540233  0.02783433  0.05997970  1.0
  Zr  Zr826  1  0.82540233  0.36116767  0.05997970  1.0
  Zr  Zr827  1  0.82540233  0.69450100  0.05997970  1.0
  Zr  Zr828  1  0.26621183  0.25494017  0.09710200  1.0
  Zr  Zr829  1  0.26621183  0.58827350  0.09710200  1.0
  Zr  Zr830  1  0.26621183  0.92160683  0.09710200  1.0
  Zr  Zr831  1  0.59954517  0.25494017  0.09710200  1.0
  Zr  Zr832  1  0.59954517  0.58827350  0.09710200  1.0
  Zr  Zr833  1  0.59954517  0.92160683  0.09710200  1.0
  Zr  Zr834  1  0.93287850  0.25494017  0.09710200  1.0
  Zr  Zr835  1  0.93287850  0.58827350  0.09710200  1.0
  Zr  Zr836  1  0.93287850  0.92160683  0.09710200  1.0
  Zr  Zr837  1  0.09954517  0.08827350  0.19710200  1.0
  Zr  Zr838  1  0.09954517  0.42160683  0.19710200  1.0
  Zr  Zr839  1  0.09954517  0.75494017  0.19710200  1.0
  Zr  Zr840  1  0.43287850  0.08827350  0.19710200  1.0
  Zr  Zr841  1  0.43287850  0.42160683  0.19710200  1.0
  Zr  Zr842  1  0.43287850  0.75494017  0.19710200  1.0
  Zr  Zr843  1  0.76621183  0.08827350  0.19710200  1.0
  Zr  Zr844  1  0.76621183  0.42160683  0.19710200  1.0
  Zr  Zr845  1  0.76621183  0.75494017  0.19710200  1.0
  Zr  Zr846  1  0.06712150  0.07839317  0.09050980  1.0
  Zr  Zr847  1  0.06712150  0.41172650  0.09050980  1.0
  Zr  Zr848  1  0.06712150  0.74505983  0.09050980  1.0
  Zr  Zr849  1  0.40045483  0.07839317  0.09050980  1.0
  Zr  Zr850  1  0.40045483  0.41172650  0.09050980  1.0
  Zr  Zr851  1  0.40045483  0.74505983  0.09050980  1.0
  Zr  Zr852  1  0.73378817  0.07839317  0.09050980  1.0
  Zr  Zr853  1  0.73378817  0.41172650  0.09050980  1.0
  Zr  Zr854  1  0.73378817  0.74505983  0.09050980  1.0
  Zr  Zr855  1  0.23378817  0.24505983  0.19050980  1.0
  Zr  Zr856  1  0.23378817  0.57839317  0.19050980  1.0
  Zr  Zr857  1  0.23378817  0.91172650  0.19050980  1.0
  Zr  Zr858  1  0.56712150  0.24505983  0.19050980  1.0
  Zr  Zr859  1  0.56712150  0.57839317  0.19050980  1.0
  Zr  Zr860  1  0.56712150  0.91172650  0.19050980  1.0
  Zr  Zr861  1  0.90045483  0.24505983  0.19050980  1.0
  Zr  Zr862  1  0.90045483  0.57839317  0.19050980  1.0
  Zr  Zr863  1  0.90045483  0.91172650  0.19050980  1.0
  Zr  Zr864  1  0.23500617  0.13018117  0.05803860  1.0
  Zr  Zr865  1  0.23500617  0.46351450  0.05803860  1.0
  Zr  Zr866  1  0.23500617  0.79684783  0.05803860  1.0
  Zr  Zr867  1  0.56833950  0.13018117  0.05803860  1.0
  Zr  Zr868  1  0.56833950  0.46351450  0.05803860  1.0
  Zr  Zr869  1  0.56833950  0.79684783  0.05803860  1.0
  Zr  Zr870  1  0.90167283  0.13018117  0.05803860  1.0
  Zr  Zr871  1  0.90167283  0.46351450  0.05803860  1.0
  Zr  Zr872  1  0.90167283  0.79684783  0.05803860  1.0
  Zr  Zr873  1  0.06833950  0.29684783  0.15803860  1.0
  Zr  Zr874  1  0.06833950  0.63018117  0.15803860  1.0
  Zr  Zr875  1  0.06833950  0.96351450  0.15803860  1.0
  Zr  Zr876  1  0.40167283  0.29684783  0.15803860  1.0
  Zr  Zr877  1  0.40167283  0.63018117  0.15803860  1.0
  Zr  Zr878  1  0.40167283  0.96351450  0.15803860  1.0
  Zr  Zr879  1  0.73500617  0.29684783  0.15803860  1.0
  Zr  Zr880  1  0.73500617  0.63018117  0.15803860  1.0
  Zr  Zr881  1  0.73500617  0.96351450  0.15803860  1.0
  Zr  Zr882  1  0.09832717  0.20315217  0.12957320  1.0
  Zr  Zr883  1  0.09832717  0.53648550  0.12957320  1.0
  Zr  Zr884  1  0.09832717  0.86981883  0.12957320  1.0
  Zr  Zr885  1  0.43166050  0.20315217  0.12957320  1.0
  Zr  Zr886  1  0.43166050  0.53648550  0.12957320  1.0
  Zr  Zr887  1  0.43166050  0.86981883  0.12957320  1.0
  Zr  Zr888  1  0.76499383  0.20315217  0.12957320  1.0
  Zr  Zr889  1  0.76499383  0.53648550  0.12957320  1.0
  Zr  Zr890  1  0.76499383  0.86981883  0.12957320  1.0
  Zr  Zr891  1  0.26499383  0.03648550  0.02957320  1.0
  Zr  Zr892  1  0.26499383  0.36981883  0.02957320  1.0
  Zr  Zr893  1  0.26499383  0.70315217  0.02957320  1.0
  Zr  Zr894  1  0.59832717  0.03648550  0.02957320  1.0
  Zr  Zr895  1  0.59832717  0.36981883  0.02957320  1.0
  Zr  Zr896  1  0.59832717  0.70315217  0.02957320  1.0
  Zr  Zr897  1  0.93166050  0.03648550  0.02957320  1.0
  Zr  Zr898  1  0.93166050  0.36981883  0.02957320  1.0
  Zr  Zr899  1  0.93166050  0.70315217  0.02957320  1.0
  Zr  Zr900  1  0.03496933  0.28581333  0.25189850  1.0
  Zr  Zr901  1  0.03496933  0.61914667  0.25189850  1.0
  Zr  Zr902  1  0.03496933  0.95248000  0.25189850  1.0
  Zr  Zr903  1  0.36830267  0.28581333  0.25189850  1.0
  Zr  Zr904  1  0.36830267  0.61914667  0.25189850  1.0
  Zr  Zr905  1  0.36830267  0.95248000  0.25189850  1.0
  Zr  Zr906  1  0.70163600  0.28581333  0.25189850  1.0
  Zr  Zr907  1  0.70163600  0.61914667  0.25189850  1.0
  Zr  Zr908  1  0.70163600  0.95248000  0.25189850  1.0
  Zr  Zr909  1  0.20163600  0.11914667  0.35189850  1.0
  Zr  Zr910  1  0.20163600  0.45248000  0.35189850  1.0
  Zr  Zr911  1  0.20163600  0.78581333  0.35189850  1.0
  Zr  Zr912  1  0.53496933  0.11914667  0.35189850  1.0
  Zr  Zr913  1  0.53496933  0.45248000  0.35189850  1.0
  Zr  Zr914  1  0.53496933  0.78581333  0.35189850  1.0
  Zr  Zr915  1  0.86830267  0.11914667  0.35189850  1.0
  Zr  Zr916  1  0.86830267  0.45248000  0.35189850  1.0
  Zr  Zr917  1  0.86830267  0.78581333  0.35189850  1.0
  Zr  Zr918  1  0.29836400  0.04752000  0.33571330  1.0
  Zr  Zr919  1  0.29836400  0.38085333  0.33571330  1.0
  Zr  Zr920  1  0.29836400  0.71418667  0.33571330  1.0
  Zr  Zr921  1  0.63169733  0.04752000  0.33571330  1.0
  Zr  Zr922  1  0.63169733  0.38085333  0.33571330  1.0
  Zr  Zr923  1  0.63169733  0.71418667  0.33571330  1.0
  Zr  Zr924  1  0.96503067  0.04752000  0.33571330  1.0
  Zr  Zr925  1  0.96503067  0.38085333  0.33571330  1.0
  Zr  Zr926  1  0.96503067  0.71418667  0.33571330  1.0
  Zr  Zr927  1  0.13169733  0.21418667  0.23571330  1.0
  Zr  Zr928  1  0.13169733  0.54752000  0.23571330  1.0
  Zr  Zr929  1  0.13169733  0.88085333  0.23571330  1.0
  Zr  Zr930  1  0.46503067  0.21418667  0.23571330  1.0
  Zr  Zr931  1  0.46503067  0.54752000  0.23571330  1.0
  Zr  Zr932  1  0.46503067  0.88085333  0.23571330  1.0
  Zr  Zr933  1  0.79836400  0.21418667  0.23571330  1.0
  Zr  Zr934  1  0.79836400  0.54752000  0.23571330  1.0
  Zr  Zr935  1  0.79836400  0.88085333  0.23571330  1.0
  Zr  Zr936  1  0.00793100  0.13883233  0.22763210  1.0
  Zr  Zr937  1  0.00793100  0.47216567  0.22763210  1.0
  Zr  Zr938  1  0.00793100  0.80549900  0.22763210  1.0
  Zr  Zr939  1  0.34126433  0.13883233  0.22763210  1.0
  Zr  Zr940  1  0.34126433  0.47216567  0.22763210  1.0
  Zr  Zr941  1  0.34126433  0.80549900  0.22763210  1.0
  Zr  Zr942  1  0.67459767  0.13883233  0.22763210  1.0
  Zr  Zr943  1  0.67459767  0.47216567  0.22763210  1.0
  Zr  Zr944  1  0.67459767  0.80549900  0.22763210  1.0
  Zr  Zr945  1  0.17459767  0.30549900  0.32763210  1.0
  Zr  Zr946  1  0.17459767  0.63883233  0.32763210  1.0
  Zr  Zr947  1  0.17459767  0.97216567  0.32763210  1.0
  Zr  Zr948  1  0.50793100  0.30549900  0.32763210  1.0
  Zr  Zr949  1  0.50793100  0.63883233  0.32763210  1.0
  Zr  Zr950  1  0.50793100  0.97216567  0.32763210  1.0
  Zr  Zr951  1  0.84126433  0.30549900  0.32763210  1.0
  Zr  Zr952  1  0.84126433  0.63883233  0.32763210  1.0
  Zr  Zr953  1  0.84126433  0.97216567  0.32763210  1.0
  Zr  Zr954  1  0.32540233  0.19450100  0.35997970  1.0
  Zr  Zr955  1  0.32540233  0.52783433  0.35997970  1.0
  Zr  Zr956  1  0.32540233  0.86116767  0.35997970  1.0
  Zr  Zr957  1  0.65873567  0.19450100  0.35997970  1.0
  Zr  Zr958  1  0.65873567  0.52783433  0.35997970  1.0
  Zr  Zr959  1  0.65873567  0.86116767  0.35997970  1.0
  Zr  Zr960  1  0.99206900  0.19450100  0.35997970  1.0
  Zr  Zr961  1  0.99206900  0.52783433  0.35997970  1.0
  Zr  Zr962  1  0.99206900  0.86116767  0.35997970  1.0
  Zr  Zr963  1  0.15873567  0.02783433  0.25997970  1.0
  Zr  Zr964  1  0.15873567  0.36116767  0.25997970  1.0
  Zr  Zr965  1  0.15873567  0.69450100  0.25997970  1.0
  Zr  Zr966  1  0.49206900  0.02783433  0.25997970  1.0
  Zr  Zr967  1  0.49206900  0.36116767  0.25997970  1.0
  Zr  Zr968  1  0.49206900  0.69450100  0.25997970  1.0
  Zr  Zr969  1  0.82540233  0.02783433  0.25997970  1.0
  Zr  Zr970  1  0.82540233  0.36116767  0.25997970  1.0
  Zr  Zr971  1  0.82540233  0.69450100  0.25997970  1.0
  Zr  Zr972  1  0.26621183  0.25494017  0.29710200  1.0
  Zr  Zr973  1  0.26621183  0.58827350  0.29710200  1.0
  Zr  Zr974  1  0.26621183  0.92160683  0.29710200  1.0
  Zr  Zr975  1  0.59954517  0.25494017  0.29710200  1.0
  Zr  Zr976  1  0.59954517  0.58827350  0.29710200  1.0
  Zr  Zr977  1  0.59954517  0.92160683  0.29710200  1.0
  Zr  Zr978  1  0.93287850  0.25494017  0.29710200  1.0
  Zr  Zr979  1  0.93287850  0.58827350  0.29710200  1.0
  Zr  Zr980  1  0.93287850  0.92160683  0.29710200  1.0
  Zr  Zr981  1  0.09954517  0.08827350  0.39710200  1.0
  Zr  Zr982  1  0.09954517  0.42160683  0.39710200  1.0
  Zr  Zr983  1  0.09954517  0.75494017  0.39710200  1.0
  Zr  Zr984  1  0.43287850  0.08827350  0.39710200  1.0
  Zr  Zr985  1  0.43287850  0.42160683  0.39710200  1.0
  Zr  Zr986  1  0.43287850  0.75494017  0.39710200  1.0
  Zr  Zr987  1  0.76621183  0.08827350  0.39710200  1.0
  Zr  Zr988  1  0.76621183  0.42160683  0.39710200  1.0
  Zr  Zr989  1  0.76621183  0.75494017  0.39710200  1.0
  Zr  Zr990  1  0.06712150  0.07839317  0.29050980  1.0
  Zr  Zr991  1  0.06712150  0.41172650  0.29050980  1.0
  Zr  Zr992  1  0.06712150  0.74505983  0.29050980  1.0
  Zr  Zr993  1  0.40045483  0.07839317  0.29050980  1.0
  Zr  Zr994  1  0.40045483  0.41172650  0.29050980  1.0
  Zr  Zr995  1  0.40045483  0.74505983  0.29050980  1.0
  Zr  Zr996  1  0.73378817  0.07839317  0.29050980  1.0
  Zr  Zr997  1  0.73378817  0.41172650  0.29050980  1.0
  Zr  Zr998  1  0.73378817  0.74505983  0.29050980  1.0
  Zr  Zr999  1  0.23378817  0.24505983  0.39050980  1.0
  Zr  Zr1000  1  0.23378817  0.57839317  0.39050980  1.0
  Zr  Zr1001  1  0.23378817  0.91172650  0.39050980  1.0
  Zr  Zr1002  1  0.56712150  0.24505983  0.39050980  1.0
  Zr  Zr1003  1  0.56712150  0.57839317  0.39050980  1.0
  Zr  Zr1004  1  0.56712150  0.91172650  0.39050980  1.0
  Zr  Zr1005  1  0.90045483  0.24505983  0.39050980  1.0
  Zr  Zr1006  1  0.90045483  0.57839317  0.39050980  1.0
  Zr  Zr1007  1  0.90045483  0.91172650  0.39050980  1.0
  Zr  Zr1008  1  0.23500617  0.13018117  0.25803860  1.0
  Zr  Zr1009  1  0.23500617  0.46351450  0.25803860  1.0
  Zr  Zr1010  1  0.23500617  0.79684783  0.25803860  1.0
  Zr  Zr1011  1  0.56833950  0.13018117  0.25803860  1.0
  Zr  Zr1012  1  0.56833950  0.46351450  0.25803860  1.0
  Zr  Zr1013  1  0.56833950  0.79684783  0.25803860  1.0
  Zr  Zr1014  1  0.90167283  0.13018117  0.25803860  1.0
  Zr  Zr1015  1  0.90167283  0.46351450  0.25803860  1.0
  Zr  Zr1016  1  0.90167283  0.79684783  0.25803860  1.0
  Zr  Zr1017  1  0.06833950  0.29684783  0.35803860  1.0
  Zr  Zr1018  1  0.06833950  0.63018117  0.35803860  1.0
  Zr  Zr1019  1  0.06833950  0.96351450  0.35803860  1.0
  Zr  Zr1020  1  0.40167283  0.29684783  0.35803860  1.0
  Zr  Zr1021  1  0.40167283  0.63018117  0.35803860  1.0
  Zr  Zr1022  1  0.40167283  0.96351450  0.35803860  1.0
  Zr  Zr1023  1  0.73500617  0.29684783  0.35803860  1.0
  Zr  Zr1024  1  0.73500617  0.63018117  0.35803860  1.0
  Zr  Zr1025  1  0.73500617  0.96351450  0.35803860  1.0
  Zr  Zr1026  1  0.09832717  0.20315217  0.32957320  1.0
  Zr  Zr1027  1  0.09832717  0.53648550  0.32957320  1.0
  Zr  Zr1028  1  0.09832717  0.86981883  0.32957320  1.0
  Zr  Zr1029  1  0.43166050  0.20315217  0.32957320  1.0
  Zr  Zr1030  1  0.43166050  0.53648550  0.32957320  1.0
  Zr  Zr1031  1  0.43166050  0.86981883  0.32957320  1.0
  Zr  Zr1032  1  0.76499383  0.20315217  0.32957320  1.0
  Zr  Zr1033  1  0.76499383  0.53648550  0.32957320  1.0
  Zr  Zr1034  1  0.76499383  0.86981883  0.32957320  1.0
  Zr  Zr1035  1  0.26499383  0.03648550  0.22957320  1.0
  Zr  Zr1036  1  0.26499383  0.36981883  0.22957320  1.0
  Zr  Zr1037  1  0.26499383  0.70315217  0.22957320  1.0
  Zr  Zr1038  1  0.59832717  0.03648550  0.22957320  1.0
  Zr  Zr1039  1  0.59832717  0.36981883  0.22957320  1.0
  Zr  Zr1040  1  0.59832717  0.70315217  0.22957320  1.0
  Zr  Zr1041  1  0.93166050  0.03648550  0.22957320  1.0
  Zr  Zr1042  1  0.93166050  0.36981883  0.22957320  1.0
  Zr  Zr1043  1  0.93166050  0.70315217  0.22957320  1.0
