# generated using pymatgen
data_Zr8Ni21
_symmetry_space_group_name_H-M   'P 1'
_cell_length_a   37.97675143
_cell_length_b   39.54199056
_cell_length_c   34.24757999
_cell_angle_alpha   92.59420568
_cell_angle_beta   92.48934925
_cell_angle_gamma   75.43499492
_symmetry_Int_Tables_number   1
_chemical_formula_structural   Zr8Ni21
_chemical_formula_sum   'Zr432 Ni1134'
_cell_volume   49697.66995562
_cell_formula_units_Z   54
loop_
 _symmetry_equiv_pos_site_id
 _symmetry_equiv_pos_as_xyz
  1  'x, y, z'
loop_
 _atom_site_type_symbol
 _atom_site_label
 _atom_site_symmetry_multiplicity
 _atom_site_fract_x
 _atom_site_fract_y
 _atom_site_fract_z
 _atom_site_occupancy
  Ni  Ni0  1  0.21088545  0.18877606  0.06632818  1.0
  Ni  Ni1  1  0.21088545  0.52210939  0.06632818  1.0
  Ni  Ni2  1  0.21088545  0.85544273  0.06632818  1.0
  Ni  Ni3  1  0.54421879  0.18877606  0.06632818  1.0
  Ni  Ni4  1  0.54421879  0.52210939  0.06632818  1.0
  Ni  Ni5  1  0.54421879  0.85544273  0.06632818  1.0
  Ni  Ni6  1  0.87755212  0.18877606  0.06632818  1.0
  Ni  Ni7  1  0.87755212  0.52210939  0.06632818  1.0
  Ni  Ni8  1  0.87755212  0.85544273  0.06632818  1.0
  Ni  Ni9  1  0.09183783  0.04591892  0.13775675  1.0
  Ni  Ni10  1  0.09183783  0.37925225  0.13775675  1.0
  Ni  Ni11  1  0.09183783  0.71258558  0.13775675  1.0
  Ni  Ni12  1  0.42517117  0.04591892  0.13775675  1.0
  Ni  Ni13  1  0.42517117  0.37925225  0.13775675  1.0
  Ni  Ni14  1  0.42517117  0.71258558  0.13775675  1.0
  Ni  Ni15  1  0.75850450  0.04591892  0.13775675  1.0
  Ni  Ni16  1  0.75850450  0.37925225  0.13775675  1.0
  Ni  Ni17  1  0.75850450  0.71258558  0.13775675  1.0
  Ni  Ni18  1  0.19106379  0.25171639  0.05861818  1.0
  Ni  Ni19  1  0.19106379  0.58504973  0.05861818  1.0
  Ni  Ni20  1  0.19106379  0.91838306  0.05861818  1.0
  Ni  Ni21  1  0.52439712  0.25171639  0.05861818  1.0
  Ni  Ni22  1  0.52439712  0.58504973  0.05861818  1.0
  Ni  Ni23  1  0.52439712  0.91838306  0.05861818  1.0
  Ni  Ni24  1  0.85773045  0.25171639  0.05861818  1.0
  Ni  Ni25  1  0.85773045  0.58504973  0.05861818  1.0
  Ni  Ni26  1  0.85773045  0.91838306  0.05861818  1.0
  Ni  Ni27  1  0.07201617  0.10885925  0.13004675  1.0
  Ni  Ni28  1  0.07201617  0.44219258  0.13004675  1.0
  Ni  Ni29  1  0.07201617  0.77552592  0.13004675  1.0
  Ni  Ni30  1  0.40534950  0.10885925  0.13004675  1.0
  Ni  Ni31  1  0.40534950  0.44219258  0.13004675  1.0
  Ni  Ni32  1  0.40534950  0.77552592  0.13004675  1.0
  Ni  Ni33  1  0.73868283  0.10885925  0.13004675  1.0
  Ni  Ni34  1  0.73868283  0.44219258  0.13004675  1.0
  Ni  Ni35  1  0.73868283  0.77552592  0.13004675  1.0
  Ni  Ni36  1  0.23070712  0.12583573  0.07403818  1.0
  Ni  Ni37  1  0.23070712  0.45916906  0.07403818  1.0
  Ni  Ni38  1  0.23070712  0.79250239  0.07403818  1.0
  Ni  Ni39  1  0.56404045  0.12583573  0.07403818  1.0
  Ni  Ni40  1  0.56404045  0.45916906  0.07403818  1.0
  Ni  Ni41  1  0.56404045  0.79250239  0.07403818  1.0
  Ni  Ni42  1  0.89737379  0.12583573  0.07403818  1.0
  Ni  Ni43  1  0.89737379  0.45916906  0.07403818  1.0
  Ni  Ni44  1  0.89737379  0.79250239  0.07403818  1.0
  Ni  Ni45  1  0.01642140  0.26869287  0.00260961  1.0
  Ni  Ni46  1  0.01642140  0.60202620  0.00260961  1.0
  Ni  Ni47  1  0.01642140  0.93535954  0.00260961  1.0
  Ni  Ni48  1  0.34975474  0.26869287  0.00260961  1.0
  Ni  Ni49  1  0.34975474  0.60202620  0.00260961  1.0
  Ni  Ni50  1  0.34975474  0.93535954  0.00260961  1.0
  Ni  Ni51  1  0.68308807  0.26869287  0.00260961  1.0
  Ni  Ni52  1  0.68308807  0.60202620  0.00260961  1.0
  Ni  Ni53  1  0.68308807  0.93535954  0.00260961  1.0
  Ni  Ni54  1  0.32115162  0.31175506  0.14283268  1.0
  Ni  Ni55  1  0.32115162  0.64508839  0.14283268  1.0
  Ni  Ni56  1  0.32115162  0.97842173  0.14283268  1.0
  Ni  Ni57  1  0.65448495  0.31175506  0.14283268  1.0
  Ni  Ni58  1  0.65448495  0.64508839  0.14283268  1.0
  Ni  Ni59  1  0.65448495  0.97842173  0.14283268  1.0
  Ni  Ni60  1  0.98781829  0.31175506  0.14283268  1.0
  Ni  Ni61  1  0.98781829  0.64508839  0.14283268  1.0
  Ni  Ni62  1  0.98781829  0.97842173  0.14283268  1.0
  Ni  Ni63  1  0.10686590  0.12127887  0.07140411  1.0
  Ni  Ni64  1  0.10686590  0.45461220  0.07140411  1.0
  Ni  Ni65  1  0.10686590  0.78794554  0.07140411  1.0
  Ni  Ni66  1  0.44019924  0.12127887  0.07140411  1.0
  Ni  Ni67  1  0.44019924  0.45461220  0.07140411  1.0
  Ni  Ni68  1  0.44019924  0.78794554  0.07140411  1.0
  Ni  Ni69  1  0.77353257  0.12127887  0.07140411  1.0
  Ni  Ni70  1  0.77353257  0.45461220  0.07140411  1.0
  Ni  Ni71  1  0.77353257  0.78794554  0.07140411  1.0
  Ni  Ni72  1  0.19585738  0.11341611  0.13268082  1.0
  Ni  Ni73  1  0.19585738  0.44674944  0.13268082  1.0
  Ni  Ni74  1  0.19585738  0.78008277  0.13268082  1.0
  Ni  Ni75  1  0.52919071  0.11341611  0.13268082  1.0
  Ni  Ni76  1  0.52919071  0.44674944  0.13268082  1.0
  Ni  Ni77  1  0.52919071  0.78008277  0.13268082  1.0
  Ni  Ni78  1  0.86252405  0.11341611  0.13268082  1.0
  Ni  Ni79  1  0.86252405  0.44674944  0.13268082  1.0
  Ni  Ni80  1  0.86252405  0.78008277  0.13268082  1.0
  Ni  Ni81  1  0.31490500  0.25627325  0.06125225  1.0
  Ni  Ni82  1  0.31490500  0.58960658  0.06125225  1.0
  Ni  Ni83  1  0.31490500  0.92293992  0.06125225  1.0
  Ni  Ni84  1  0.64823833  0.25627325  0.06125225  1.0
  Ni  Ni85  1  0.64823833  0.58960658  0.06125225  1.0
  Ni  Ni86  1  0.64823833  0.92293992  0.06125225  1.0
  Ni  Ni87  1  0.98157167  0.25627325  0.06125225  1.0
  Ni  Ni88  1  0.98157167  0.58960658  0.06125225  1.0
  Ni  Ni89  1  0.98157167  0.92293992  0.06125225  1.0
  Ni  Ni90  1  0.14533905  0.27203644  0.00259982  1.0
  Ni  Ni91  1  0.14533905  0.60536977  0.00259982  1.0
  Ni  Ni92  1  0.14533905  0.93870311  0.00259982  1.0
  Ni  Ni93  1  0.47867238  0.27203644  0.00259982  1.0
  Ni  Ni94  1  0.47867238  0.60536977  0.00259982  1.0
  Ni  Ni95  1  0.47867238  0.93870311  0.00259982  1.0
  Ni  Ni96  1  0.81200571  0.27203644  0.00259982  1.0
  Ni  Ni97  1  0.81200571  0.60536977  0.00259982  1.0
  Ni  Ni98  1  0.81200571  0.93870311  0.00259982  1.0
  Ni  Ni99  1  0.02629143  0.12917930  0.07402839  1.0
  Ni  Ni100  1  0.02629143  0.46251263  0.07402839  1.0
  Ni  Ni101  1  0.02629143  0.79584596  0.07402839  1.0
  Ni  Ni102  1  0.35962476  0.12917930  0.07402839  1.0
  Ni  Ni103  1  0.35962476  0.46251263  0.07402839  1.0
  Ni  Ni104  1  0.35962476  0.79584596  0.07402839  1.0
  Ni  Ni105  1  0.69295810  0.12917930  0.07402839  1.0
  Ni  Ni106  1  0.69295810  0.46251263  0.07402839  1.0
  Ni  Ni107  1  0.69295810  0.79584596  0.07402839  1.0
  Ni  Ni108  1  0.27643186  0.10551568  0.13005654  1.0
  Ni  Ni109  1  0.27643186  0.43884901  0.13005654  1.0
  Ni  Ni110  1  0.27643186  0.77218235  0.13005654  1.0
  Ni  Ni111  1  0.60976519  0.10551568  0.13005654  1.0
  Ni  Ni112  1  0.60976519  0.43884901  0.13005654  1.0
  Ni  Ni113  1  0.60976519  0.77218235  0.13005654  1.0
  Ni  Ni114  1  0.94309852  0.10551568  0.13005654  1.0
  Ni  Ni115  1  0.94309852  0.43884901  0.13005654  1.0
  Ni  Ni116  1  0.94309852  0.77218235  0.13005654  1.0
  Ni  Ni117  1  0.06214614  0.24837282  0.05862796  1.0
  Ni  Ni118  1  0.06214614  0.58170615  0.05862796  1.0
  Ni  Ni119  1  0.06214614  0.91503949  0.05862796  1.0
  Ni  Ni120  1  0.39547948  0.24837282  0.05862796  1.0
  Ni  Ni121  1  0.39547948  0.58170615  0.05862796  1.0
  Ni  Ni122  1  0.39547948  0.91503949  0.05862796  1.0
  Ni  Ni123  1  0.72881281  0.24837282  0.05862796  1.0
  Ni  Ni124  1  0.72881281  0.58170615  0.05862796  1.0
  Ni  Ni125  1  0.72881281  0.91503949  0.05862796  1.0
  Ni  Ni126  1  0.11020057  0.00490787  0.02368311  1.0
  Ni  Ni127  1  0.11020057  0.33824120  0.02368311  1.0
  Ni  Ni128  1  0.11020057  0.67157454  0.02368311  1.0
  Ni  Ni129  1  0.44353390  0.00490787  0.02368311  1.0
  Ni  Ni130  1  0.44353390  0.33824120  0.02368311  1.0
  Ni  Ni131  1  0.44353390  0.67157454  0.02368311  1.0
  Ni  Ni132  1  0.77686724  0.00490787  0.02368311  1.0
  Ni  Ni133  1  0.77686724  0.33824120  0.02368311  1.0
  Ni  Ni134  1  0.77686724  0.67157454  0.02368311  1.0
  Ni  Ni135  1  0.32448629  0.19538406  0.09511168  1.0
  Ni  Ni136  1  0.32448629  0.52871739  0.09511168  1.0
  Ni  Ni137  1  0.32448629  0.86205073  0.09511168  1.0
  Ni  Ni138  1  0.65781962  0.19538406  0.09511168  1.0
  Ni  Ni139  1  0.65781962  0.52871739  0.09511168  1.0
  Ni  Ni140  1  0.65781962  0.86205073  0.09511168  1.0
  Ni  Ni141  1  0.99115295  0.19538406  0.09511168  1.0
  Ni  Ni142  1  0.99115295  0.52871739  0.09511168  1.0
  Ni  Ni143  1  0.99115295  0.86205073  0.09511168  1.0
  Ni  Ni144  1  0.13404429  0.00992806  0.09258568  1.0
  Ni  Ni145  1  0.13404429  0.34326139  0.09258568  1.0
  Ni  Ni146  1  0.13404429  0.67659473  0.09258568  1.0
  Ni  Ni147  1  0.46737762  0.00992806  0.09258568  1.0
  Ni  Ni148  1  0.46737762  0.34326139  0.09258568  1.0
  Ni  Ni149  1  0.46737762  0.67659473  0.09258568  1.0
  Ni  Ni150  1  0.80071095  0.00992806  0.09258568  1.0
  Ni  Ni151  1  0.80071095  0.34326139  0.09258568  1.0
  Ni  Ni152  1  0.80071095  0.67659473  0.09258568  1.0
  Ni  Ni153  1  0.25309190  0.15278520  0.02115711  1.0
  Ni  Ni154  1  0.25309190  0.48611854  0.02115711  1.0
  Ni  Ni155  1  0.25309190  0.81945187  0.02115711  1.0
  Ni  Ni156  1  0.58642524  0.15278520  0.02115711  1.0
  Ni  Ni157  1  0.58642524  0.48611854  0.02115711  1.0
  Ni  Ni158  1  0.58642524  0.81945187  0.02115711  1.0
  Ni  Ni159  1  0.91975857  0.15278520  0.02115711  1.0
  Ni  Ni160  1  0.91975857  0.48611854  0.02115711  1.0
  Ni  Ni161  1  0.91975857  0.81945187  0.02115711  1.0
  Ni  Ni162  1  0.28772662  0.03429073  0.04007068  1.0
  Ni  Ni163  1  0.28772662  0.36762406  0.04007068  1.0
  Ni  Ni164  1  0.28772662  0.70095739  0.04007068  1.0
  Ni  Ni165  1  0.62105995  0.03429073  0.04007068  1.0
  Ni  Ni166  1  0.62105995  0.36762406  0.04007068  1.0
  Ni  Ni167  1  0.62105995  0.70095739  0.04007068  1.0
  Ni  Ni168  1  0.95439329  0.03429073  0.04007068  1.0
  Ni  Ni169  1  0.95439329  0.36762406  0.04007068  1.0
  Ni  Ni170  1  0.95439329  0.70095739  0.04007068  1.0
  Ni  Ni171  1  0.16867900  0.22476692  0.11149925  1.0
  Ni  Ni172  1  0.16867900  0.55810025  0.11149925  1.0
  Ni  Ni173  1  0.16867900  0.89143358  0.11149925  1.0
  Ni  Ni174  1  0.50201233  0.22476692  0.11149925  1.0
  Ni  Ni175  1  0.50201233  0.55810025  0.11149925  1.0
  Ni  Ni176  1  0.50201233  0.89143358  0.11149925  1.0
  Ni  Ni177  1  0.83534567  0.22476692  0.11149925  1.0
  Ni  Ni178  1  0.83534567  0.55810025  0.11149925  1.0
  Ni  Ni179  1  0.83534567  0.89143358  0.11149925  1.0
  Ni  Ni180  1  0.22413829  0.02756273  0.03454968  1.0
  Ni  Ni181  1  0.22413829  0.36089606  0.03454968  1.0
  Ni  Ni182  1  0.22413829  0.69422939  0.03454968  1.0
  Ni  Ni183  1  0.55747162  0.02756273  0.03454968  1.0
  Ni  Ni184  1  0.55747162  0.36089606  0.03454968  1.0
  Ni  Ni185  1  0.55747162  0.69422939  0.03454968  1.0
  Ni  Ni186  1  0.89080495  0.02756273  0.03454968  1.0
  Ni  Ni187  1  0.89080495  0.36089606  0.03454968  1.0
  Ni  Ni188  1  0.89080495  0.69422939  0.03454968  1.0
  Ni  Ni189  1  0.10509067  0.21803892  0.10597825  1.0
  Ni  Ni190  1  0.10509067  0.55137225  0.10597825  1.0
  Ni  Ni191  1  0.10509067  0.88470558  0.10597825  1.0
  Ni  Ni192  1  0.43842400  0.21803892  0.10597825  1.0
  Ni  Ni193  1  0.43842400  0.55137225  0.10597825  1.0
  Ni  Ni194  1  0.43842400  0.88470558  0.10597825  1.0
  Ni  Ni195  1  0.77175733  0.21803892  0.10597825  1.0
  Ni  Ni196  1  0.77175733  0.55137225  0.10597825  1.0
  Ni  Ni197  1  0.77175733  0.88470558  0.10597825  1.0
  Ni  Ni198  1  0.19763262  0.01665606  0.09810668  1.0
  Ni  Ni199  1  0.19763262  0.34998939  0.09810668  1.0
  Ni  Ni200  1  0.19763262  0.68332273  0.09810668  1.0
  Ni  Ni201  1  0.53096595  0.01665606  0.09810668  1.0
  Ni  Ni202  1  0.53096595  0.34998939  0.09810668  1.0
  Ni  Ni203  1  0.53096595  0.68332273  0.09810668  1.0
  Ni  Ni204  1  0.86429929  0.01665606  0.09810668  1.0
  Ni  Ni205  1  0.86429929  0.34998939  0.09810668  1.0
  Ni  Ni206  1  0.86429929  0.68332273  0.09810668  1.0
  Ni  Ni207  1  0.31668024  0.15951320  0.02667811  1.0
  Ni  Ni208  1  0.31668024  0.49284654  0.02667811  1.0
  Ni  Ni209  1  0.31668024  0.82617987  0.02667811  1.0
  Ni  Ni210  1  0.65001357  0.15951320  0.02667811  1.0
  Ni  Ni211  1  0.65001357  0.49284654  0.02667811  1.0
  Ni  Ni212  1  0.65001357  0.82617987  0.02667811  1.0
  Ni  Ni213  1  0.98334690  0.15951320  0.02667811  1.0
  Ni  Ni214  1  0.98334690  0.49284654  0.02667811  1.0
  Ni  Ni215  1  0.98334690  0.82617987  0.02667811  1.0
  Ni  Ni216  1  0.18247143  0.09285130  0.05612739  1.0
  Ni  Ni217  1  0.18247143  0.42618463  0.05612739  1.0
  Ni  Ni218  1  0.18247143  0.75951796  0.05612739  1.0
  Ni  Ni219  1  0.51580476  0.09285130  0.05612739  1.0
  Ni  Ni220  1  0.51580476  0.42618463  0.05612739  1.0
  Ni  Ni221  1  0.51580476  0.75951796  0.05612739  1.0
  Ni  Ni222  1  0.84913810  0.09285130  0.05612739  1.0
  Ni  Ni223  1  0.84913810  0.42618463  0.05612739  1.0
  Ni  Ni224  1  0.84913810  0.75951796  0.05612739  1.0
  Ni  Ni225  1  0.06342381  0.28332749  0.12755596  1.0
  Ni  Ni226  1  0.06342381  0.61666082  0.12755596  1.0
  Ni  Ni227  1  0.06342381  0.94999415  0.12755596  1.0
  Ni  Ni228  1  0.39675714  0.28332749  0.12755596  1.0
  Ni  Ni229  1  0.39675714  0.61666082  0.12755596  1.0
  Ni  Ni230  1  0.39675714  0.94999415  0.12755596  1.0
  Ni  Ni231  1  0.73009048  0.28332749  0.12755596  1.0
  Ni  Ni232  1  0.73009048  0.61666082  0.12755596  1.0
  Ni  Ni233  1  0.73009048  0.94999415  0.12755596  1.0
  Ni  Ni234  1  0.23929948  0.28470082  0.07652896  1.0
  Ni  Ni235  1  0.23929948  0.61803415  0.07652896  1.0
  Ni  Ni236  1  0.23929948  0.95136749  0.07652896  1.0
  Ni  Ni237  1  0.57263281  0.28470082  0.07652896  1.0
  Ni  Ni238  1  0.57263281  0.61803415  0.07652896  1.0
  Ni  Ni239  1  0.57263281  0.95136749  0.07652896  1.0
  Ni  Ni240  1  0.90596614  0.28470082  0.07652896  1.0
  Ni  Ni241  1  0.90596614  0.61803415  0.07652896  1.0
  Ni  Ni242  1  0.90596614  0.95136749  0.07652896  1.0
  Ni  Ni243  1  0.02501376  0.09422463  0.00510039  1.0
  Ni  Ni244  1  0.02501376  0.42755796  0.00510039  1.0
  Ni  Ni245  1  0.02501376  0.76089130  0.00510039  1.0
  Ni  Ni246  1  0.35834710  0.09422463  0.00510039  1.0
  Ni  Ni247  1  0.35834710  0.42755796  0.00510039  1.0
  Ni  Ni248  1  0.35834710  0.76089130  0.00510039  1.0
  Ni  Ni249  1  0.69168043  0.09422463  0.00510039  1.0
  Ni  Ni250  1  0.69168043  0.42755796  0.00510039  1.0
  Ni  Ni251  1  0.69168043  0.76089130  0.00510039  1.0
  Ni  Ni252  1  0.14673905  0.05025811  0.04413782  1.0
  Ni  Ni253  1  0.14673905  0.38359144  0.04413782  1.0
  Ni  Ni254  1  0.14673905  0.71692477  0.04413782  1.0
  Ni  Ni255  1  0.48007238  0.05025811  0.04413782  1.0
  Ni  Ni256  1  0.48007238  0.38359144  0.04413782  1.0
  Ni  Ni257  1  0.48007238  0.71692477  0.04413782  1.0
  Ni  Ni258  1  0.81340571  0.05025811  0.04413782  1.0
  Ni  Ni259  1  0.81340571  0.38359144  0.04413782  1.0
  Ni  Ni260  1  0.81340571  0.71692477  0.04413782  1.0
  Ni  Ni261  1  0.02769143  0.24073430  0.11556639  1.0
  Ni  Ni262  1  0.02769143  0.57406763  0.11556639  1.0
  Ni  Ni263  1  0.02769143  0.90740096  0.11556639  1.0
  Ni  Ni264  1  0.36102476  0.24073430  0.11556639  1.0
  Ni  Ni265  1  0.36102476  0.57406763  0.11556639  1.0
  Ni  Ni266  1  0.36102476  0.90740096  0.11556639  1.0
  Ni  Ni267  1  0.69435810  0.24073430  0.11556639  1.0
  Ni  Ni268  1  0.69435810  0.57406763  0.11556639  1.0
  Ni  Ni269  1  0.69435810  0.90740096  0.11556639  1.0
  Ni  Ni270  1  0.27503186  0.32729401  0.08851854  1.0
  Ni  Ni271  1  0.27503186  0.66062735  0.08851854  1.0
  Ni  Ni272  1  0.27503186  0.99396068  0.08851854  1.0
  Ni  Ni273  1  0.60836519  0.32729401  0.08851854  1.0
  Ni  Ni274  1  0.60836519  0.66062735  0.08851854  1.0
  Ni  Ni275  1  0.60836519  0.99396068  0.08851854  1.0
  Ni  Ni276  1  0.94169852  0.32729401  0.08851854  1.0
  Ni  Ni277  1  0.94169852  0.66062735  0.08851854  1.0
  Ni  Ni278  1  0.94169852  0.99396068  0.08851854  1.0
  Ni  Ni279  1  0.06074614  0.13681782  0.01708996  1.0
  Ni  Ni280  1  0.06074614  0.47015115  0.01708996  1.0
  Ni  Ni281  1  0.06074614  0.80348449  0.01708996  1.0
  Ni  Ni282  1  0.39407948  0.13681782  0.01708996  1.0
  Ni  Ni283  1  0.39407948  0.47015115  0.01708996  1.0
  Ni  Ni284  1  0.39407948  0.80348449  0.01708996  1.0
  Ni  Ni285  1  0.72741281  0.13681782  0.01708996  1.0
  Ni  Ni286  1  0.72741281  0.47015115  0.01708996  1.0
  Ni  Ni287  1  0.72741281  0.80348449  0.01708996  1.0
  Ni  Ni288  1  0.18826079  0.14977106  0.01661718  1.0
  Ni  Ni289  1  0.18826079  0.48310439  0.01661718  1.0
  Ni  Ni290  1  0.18826079  0.81643773  0.01661718  1.0
  Ni  Ni291  1  0.52159412  0.14977106  0.01661718  1.0
  Ni  Ni292  1  0.52159412  0.48310439  0.01661718  1.0
  Ni  Ni293  1  0.52159412  0.81643773  0.01661718  1.0
  Ni  Ni294  1  0.85492745  0.14977106  0.01661718  1.0
  Ni  Ni295  1  0.85492745  0.48310439  0.01661718  1.0
  Ni  Ni296  1  0.85492745  0.81643773  0.01661718  1.0
  Ni  Ni297  1  0.06921317  0.00691392  0.08804575  1.0
  Ni  Ni298  1  0.06921317  0.34024725  0.08804575  1.0
  Ni  Ni299  1  0.06921317  0.67358058  0.08804575  1.0
  Ni  Ni300  1  0.40254650  0.00691392  0.08804575  1.0
  Ni  Ni301  1  0.40254650  0.34024725  0.08804575  1.0
  Ni  Ni302  1  0.40254650  0.67358058  0.08804575  1.0
  Ni  Ni303  1  0.73587983  0.00691392  0.08804575  1.0
  Ni  Ni304  1  0.73587983  0.34024725  0.08804575  1.0
  Ni  Ni305  1  0.73587983  0.67358058  0.08804575  1.0
  Ni  Ni306  1  0.23351012  0.22778106  0.11603918  1.0
  Ni  Ni307  1  0.23351012  0.56111439  0.11603918  1.0
  Ni  Ni308  1  0.23351012  0.89444773  0.11603918  1.0
  Ni  Ni309  1  0.56684345  0.22778106  0.11603918  1.0
  Ni  Ni310  1  0.56684345  0.56111439  0.11603918  1.0
  Ni  Ni311  1  0.56684345  0.89444773  0.11603918  1.0
  Ni  Ni312  1  0.90017679  0.22778106  0.11603918  1.0
  Ni  Ni313  1  0.90017679  0.56111439  0.11603918  1.0
  Ni  Ni314  1  0.90017679  0.89444773  0.11603918  1.0
  Ni  Ni315  1  0.01922440  0.03730487  0.04461061  1.0
  Ni  Ni316  1  0.01922440  0.37063820  0.04461061  1.0
  Ni  Ni317  1  0.01922440  0.70397154  0.04461061  1.0
  Ni  Ni318  1  0.35255774  0.03730487  0.04461061  1.0
  Ni  Ni319  1  0.35255774  0.37063820  0.04461061  1.0
  Ni  Ni320  1  0.35255774  0.70397154  0.04461061  1.0
  Ni  Ni321  1  0.68589107  0.03730487  0.04461061  1.0
  Ni  Ni322  1  0.68589107  0.37063820  0.04461061  1.0
  Ni  Ni323  1  0.68589107  0.70397154  0.04461061  1.0
  Ni  Ni324  1  0.02537905  0.07272644  0.11411782  1.0
  Ni  Ni325  1  0.02537905  0.40605977  0.11411782  1.0
  Ni  Ni326  1  0.02537905  0.73939311  0.11411782  1.0
  Ni  Ni327  1  0.35871238  0.07272644  0.11411782  1.0
  Ni  Ni328  1  0.35871238  0.40605977  0.11411782  1.0
  Ni  Ni329  1  0.35871238  0.73939311  0.11411782  1.0
  Ni  Ni330  1  0.69204571  0.07272644  0.11411782  1.0
  Ni  Ni331  1  0.69204571  0.40605977  0.11411782  1.0
  Ni  Ni332  1  0.69204571  0.73939311  0.11411782  1.0
  Ni  Ni333  1  0.14442667  0.21558358  0.04268925  1.0
  Ni  Ni334  1  0.14442667  0.54891692  0.04268925  1.0
  Ni  Ni335  1  0.14442667  0.88225025  0.04268925  1.0
  Ni  Ni336  1  0.47776000  0.21558358  0.04268925  1.0
  Ni  Ni337  1  0.47776000  0.54891692  0.04268925  1.0
  Ni  Ni338  1  0.47776000  0.88225025  0.04268925  1.0
  Ni  Ni339  1  0.81109333  0.21558358  0.04268925  1.0
  Ni  Ni340  1  0.81109333  0.54891692  0.04268925  1.0
  Ni  Ni341  1  0.81109333  0.88225025  0.04268925  1.0
  Ni  Ni342  1  0.06305852  0.30482568  0.01853854  1.0
  Ni  Ni343  1  0.06305852  0.63815901  0.01853854  1.0
  Ni  Ni344  1  0.06305852  0.97149235  0.01853854  1.0
  Ni  Ni345  1  0.39639186  0.30482568  0.01853854  1.0
  Ni  Ni346  1  0.39639186  0.63815901  0.01853854  1.0
  Ni  Ni347  1  0.39639186  0.97149235  0.01853854  1.0
  Ni  Ni348  1  0.72972519  0.30482568  0.01853854  1.0
  Ni  Ni349  1  0.72972519  0.63815901  0.01853854  1.0
  Ni  Ni350  1  0.72972519  0.97149235  0.01853854  1.0
  Ni  Ni351  1  0.27734424  0.16196854  0.08996711  1.0
  Ni  Ni352  1  0.27734424  0.49530187  0.08996711  1.0
  Ni  Ni353  1  0.27734424  0.82863520  0.08996711  1.0
  Ni  Ni354  1  0.61067757  0.16196854  0.08996711  1.0
  Ni  Ni355  1  0.61067757  0.49530187  0.08996711  1.0
  Ni  Ni356  1  0.61067757  0.82863520  0.08996711  1.0
  Ni  Ni357  1  0.94401090  0.16196854  0.08996711  1.0
  Ni  Ni358  1  0.94401090  0.49530187  0.08996711  1.0
  Ni  Ni359  1  0.94401090  0.82863520  0.08996711  1.0
  Ni  Ni360  1  0.31157033  0.03931092  0.10897325  1.0
  Ni  Ni361  1  0.31157033  0.37264425  0.10897325  1.0
  Ni  Ni362  1  0.31157033  0.70597758  0.10897325  1.0
  Ni  Ni363  1  0.64490367  0.03931092  0.10897325  1.0
  Ni  Ni364  1  0.64490367  0.37264425  0.10897325  1.0
  Ni  Ni365  1  0.64490367  0.70597758  0.10897325  1.0
  Ni  Ni366  1  0.97823700  0.03931092  0.10897325  1.0
  Ni  Ni367  1  0.97823700  0.37264425  0.10897325  1.0
  Ni  Ni368  1  0.97823700  0.70597758  0.10897325  1.0
  Ni  Ni369  1  0.09728462  0.18216806  0.03754468  1.0
  Ni  Ni370  1  0.09728462  0.51550139  0.03754468  1.0
  Ni  Ni371  1  0.09728462  0.84883473  0.03754468  1.0
  Ni  Ni372  1  0.43061795  0.18216806  0.03754468  1.0
  Ni  Ni373  1  0.43061795  0.51550139  0.03754468  1.0
  Ni  Ni374  1  0.43061795  0.84883473  0.03754468  1.0
  Ni  Ni375  1  0.76395129  0.18216806  0.03754468  1.0
  Ni  Ni376  1  0.76395129  0.51550139  0.03754468  1.0
  Ni  Ni377  1  0.76395129  0.84883473  0.03754468  1.0
  Ni  Ni378  1  0.30612355  0.23639511  0.20918532  1.0
  Ni  Ni379  1  0.30612355  0.56972844  0.20918532  1.0
  Ni  Ni380  1  0.30612355  0.90306177  0.20918532  1.0
  Ni  Ni381  1  0.63945688  0.23639511  0.20918532  1.0
  Ni  Ni382  1  0.63945688  0.56972844  0.20918532  1.0
  Ni  Ni383  1  0.63945688  0.90306177  0.20918532  1.0
  Ni  Ni384  1  0.97279021  0.23639511  0.20918532  1.0
  Ni  Ni385  1  0.97279021  0.56972844  0.20918532  1.0
  Ni  Ni386  1  0.97279021  0.90306177  0.20918532  1.0
  Ni  Ni387  1  0.18707593  0.09353796  0.28061389  1.0
  Ni  Ni388  1  0.18707593  0.42687130  0.28061389  1.0
  Ni  Ni389  1  0.18707593  0.76020463  0.28061389  1.0
  Ni  Ni390  1  0.52040926  0.09353796  0.28061389  1.0
  Ni  Ni391  1  0.52040926  0.42687130  0.28061389  1.0
  Ni  Ni392  1  0.52040926  0.76020463  0.28061389  1.0
  Ni  Ni393  1  0.85374260  0.09353796  0.28061389  1.0
  Ni  Ni394  1  0.85374260  0.42687130  0.28061389  1.0
  Ni  Ni395  1  0.85374260  0.76020463  0.28061389  1.0
  Ni  Ni396  1  0.28630188  0.29933544  0.20147532  1.0
  Ni  Ni397  1  0.28630188  0.63266877  0.20147532  1.0
  Ni  Ni398  1  0.28630188  0.96600211  0.20147532  1.0
  Ni  Ni399  1  0.61963521  0.29933544  0.20147532  1.0
  Ni  Ni400  1  0.61963521  0.63266877  0.20147532  1.0
  Ni  Ni401  1  0.61963521  0.96600211  0.20147532  1.0
  Ni  Ni402  1  0.95296855  0.29933544  0.20147532  1.0
  Ni  Ni403  1  0.95296855  0.63266877  0.20147532  1.0
  Ni  Ni404  1  0.95296855  0.96600211  0.20147532  1.0
  Ni  Ni405  1  0.16725426  0.15647830  0.27290389  1.0
  Ni  Ni406  1  0.16725426  0.48981163  0.27290389  1.0
  Ni  Ni407  1  0.16725426  0.82314496  0.27290389  1.0
  Ni  Ni408  1  0.50058760  0.15647830  0.27290389  1.0
  Ni  Ni409  1  0.50058760  0.48981163  0.27290389  1.0
  Ni  Ni410  1  0.50058760  0.82314496  0.27290389  1.0
  Ni  Ni411  1  0.83392093  0.15647830  0.27290389  1.0
  Ni  Ni412  1  0.83392093  0.48981163  0.27290389  1.0
  Ni  Ni413  1  0.83392093  0.82314496  0.27290389  1.0
  Ni  Ni414  1  0.32594521  0.17345477  0.21689532  1.0
  Ni  Ni415  1  0.32594521  0.50678811  0.21689532  1.0
  Ni  Ni416  1  0.32594521  0.84012144  0.21689532  1.0
  Ni  Ni417  1  0.65927855  0.17345477  0.21689532  1.0
  Ni  Ni418  1  0.65927855  0.50678811  0.21689532  1.0
  Ni  Ni419  1  0.65927855  0.84012144  0.21689532  1.0
  Ni  Ni420  1  0.99261188  0.17345477  0.21689532  1.0
  Ni  Ni421  1  0.99261188  0.50678811  0.21689532  1.0
  Ni  Ni422  1  0.99261188  0.84012144  0.21689532  1.0
  Ni  Ni423  1  0.11165950  0.31631192  0.14546675  1.0
  Ni  Ni424  1  0.11165950  0.64964525  0.14546675  1.0
  Ni  Ni425  1  0.11165950  0.98297858  0.14546675  1.0
  Ni  Ni426  1  0.44499283  0.31631192  0.14546675  1.0
  Ni  Ni427  1  0.44499283  0.64964525  0.14546675  1.0
  Ni  Ni428  1  0.44499283  0.98297858  0.14546675  1.0
  Ni  Ni429  1  0.77832617  0.31631192  0.14546675  1.0
  Ni  Ni430  1  0.77832617  0.64964525  0.14546675  1.0
  Ni  Ni431  1  0.77832617  0.98297858  0.14546675  1.0
  Ni  Ni432  1  0.08305638  0.02604077  0.28568982  1.0
  Ni  Ni433  1  0.08305638  0.35937411  0.28568982  1.0
  Ni  Ni434  1  0.08305638  0.69270744  0.28568982  1.0
  Ni  Ni435  1  0.41638971  0.02604077  0.28568982  1.0
  Ni  Ni436  1  0.41638971  0.35937411  0.28568982  1.0
  Ni  Ni437  1  0.41638971  0.69270744  0.28568982  1.0
  Ni  Ni438  1  0.74972305  0.02604077  0.28568982  1.0
  Ni  Ni439  1  0.74972305  0.35937411  0.28568982  1.0
  Ni  Ni440  1  0.74972305  0.69270744  0.28568982  1.0
  Ni  Ni441  1  0.20210400  0.16889792  0.21426125  1.0
  Ni  Ni442  1  0.20210400  0.50223125  0.21426125  1.0
  Ni  Ni443  1  0.20210400  0.83556458  0.21426125  1.0
  Ni  Ni444  1  0.53543733  0.16889792  0.21426125  1.0
  Ni  Ni445  1  0.53543733  0.50223125  0.21426125  1.0
  Ni  Ni446  1  0.53543733  0.83556458  0.21426125  1.0
  Ni  Ni447  1  0.86877067  0.16889792  0.21426125  1.0
  Ni  Ni448  1  0.86877067  0.50223125  0.21426125  1.0
  Ni  Ni449  1  0.86877067  0.83556458  0.21426125  1.0
  Ni  Ni450  1  0.29109548  0.16103515  0.27553796  1.0
  Ni  Ni451  1  0.29109548  0.49436849  0.27553796  1.0
  Ni  Ni452  1  0.29109548  0.82770182  0.27553796  1.0
  Ni  Ni453  1  0.62442881  0.16103515  0.27553796  1.0
  Ni  Ni454  1  0.62442881  0.49436849  0.27553796  1.0
  Ni  Ni455  1  0.62442881  0.82770182  0.27553796  1.0
  Ni  Ni456  1  0.95776214  0.16103515  0.27553796  1.0
  Ni  Ni457  1  0.95776214  0.49436849  0.27553796  1.0
  Ni  Ni458  1  0.95776214  0.82770182  0.27553796  1.0
  Ni  Ni459  1  0.07680976  0.30389230  0.20410939  1.0
  Ni  Ni460  1  0.07680976  0.63722563  0.20410939  1.0
  Ni  Ni461  1  0.07680976  0.97055896  0.20410939  1.0
  Ni  Ni462  1  0.41014310  0.30389230  0.20410939  1.0
  Ni  Ni463  1  0.41014310  0.63722563  0.20410939  1.0
  Ni  Ni464  1  0.41014310  0.97055896  0.20410939  1.0
  Ni  Ni465  1  0.74347643  0.30389230  0.20410939  1.0
  Ni  Ni466  1  0.74347643  0.63722563  0.20410939  1.0
  Ni  Ni467  1  0.74347643  0.97055896  0.20410939  1.0
  Ni  Ni468  1  0.24057714  0.31965549  0.14545696  1.0
  Ni  Ni469  1  0.24057714  0.65298882  0.14545696  1.0
  Ni  Ni470  1  0.24057714  0.98632215  0.14545696  1.0
  Ni  Ni471  1  0.57391048  0.31965549  0.14545696  1.0
  Ni  Ni472  1  0.57391048  0.65298882  0.14545696  1.0
  Ni  Ni473  1  0.57391048  0.98632215  0.14545696  1.0
  Ni  Ni474  1  0.90724381  0.31965549  0.14545696  1.0
  Ni  Ni475  1  0.90724381  0.65298882  0.14545696  1.0
  Ni  Ni476  1  0.90724381  0.98632215  0.14545696  1.0
  Ni  Ni477  1  0.12152952  0.17679835  0.21688554  1.0
  Ni  Ni478  1  0.12152952  0.51013168  0.21688554  1.0
  Ni  Ni479  1  0.12152952  0.84346501  0.21688554  1.0
  Ni  Ni480  1  0.45486286  0.17679835  0.21688554  1.0
  Ni  Ni481  1  0.45486286  0.51013168  0.21688554  1.0
  Ni  Ni482  1  0.45486286  0.84346501  0.21688554  1.0
  Ni  Ni483  1  0.78819619  0.17679835  0.21688554  1.0
  Ni  Ni484  1  0.78819619  0.51013168  0.21688554  1.0
  Ni  Ni485  1  0.78819619  0.84346501  0.21688554  1.0
  Ni  Ni486  1  0.03833662  0.15313473  0.27291368  1.0
  Ni  Ni487  1  0.03833662  0.48646806  0.27291368  1.0
  Ni  Ni488  1  0.03833662  0.81980139  0.27291368  1.0
  Ni  Ni489  1  0.37166995  0.15313473  0.27291368  1.0
  Ni  Ni490  1  0.37166995  0.48646806  0.27291368  1.0
  Ni  Ni491  1  0.37166995  0.81980139  0.27291368  1.0
  Ni  Ni492  1  0.70500329  0.15313473  0.27291368  1.0
  Ni  Ni493  1  0.70500329  0.48646806  0.27291368  1.0
  Ni  Ni494  1  0.70500329  0.81980139  0.27291368  1.0
  Ni  Ni495  1  0.15738424  0.29599187  0.20148511  1.0
  Ni  Ni496  1  0.15738424  0.62932520  0.20148511  1.0
  Ni  Ni497  1  0.15738424  0.96265854  0.20148511  1.0
  Ni  Ni498  1  0.49071757  0.29599187  0.20148511  1.0
  Ni  Ni499  1  0.49071757  0.62932520  0.20148511  1.0
  Ni  Ni500  1  0.49071757  0.96265854  0.20148511  1.0
  Ni  Ni501  1  0.82405090  0.29599187  0.20148511  1.0
  Ni  Ni502  1  0.82405090  0.62932520  0.20148511  1.0
  Ni  Ni503  1  0.82405090  0.96265854  0.20148511  1.0
  Ni  Ni504  1  0.20543867  0.05252692  0.16654025  1.0
  Ni  Ni505  1  0.20543867  0.38586025  0.16654025  1.0
  Ni  Ni506  1  0.20543867  0.71919358  0.16654025  1.0
  Ni  Ni507  1  0.53877200  0.05252692  0.16654025  1.0
  Ni  Ni508  1  0.53877200  0.38586025  0.16654025  1.0
  Ni  Ni509  1  0.53877200  0.71919358  0.16654025  1.0
  Ni  Ni510  1  0.87210533  0.05252692  0.16654025  1.0
  Ni  Ni511  1  0.87210533  0.38586025  0.16654025  1.0
  Ni  Ni512  1  0.87210533  0.71919358  0.16654025  1.0
  Ni  Ni513  1  0.08639105  0.24300311  0.23796882  1.0
  Ni  Ni514  1  0.08639105  0.57633644  0.23796882  1.0
  Ni  Ni515  1  0.08639105  0.90966977  0.23796882  1.0
  Ni  Ni516  1  0.41972438  0.24300311  0.23796882  1.0
  Ni  Ni517  1  0.41972438  0.57633644  0.23796882  1.0
  Ni  Ni518  1  0.41972438  0.90966977  0.23796882  1.0
  Ni  Ni519  1  0.75305771  0.24300311  0.23796882  1.0
  Ni  Ni520  1  0.75305771  0.57633644  0.23796882  1.0
  Ni  Ni521  1  0.75305771  0.90966977  0.23796882  1.0
  Ni  Ni522  1  0.22928238  0.05754711  0.23544282  1.0
  Ni  Ni523  1  0.22928238  0.39088044  0.23544282  1.0
  Ni  Ni524  1  0.22928238  0.72421377  0.23544282  1.0
  Ni  Ni525  1  0.56261571  0.05754711  0.23544282  1.0
  Ni  Ni526  1  0.56261571  0.39088044  0.23544282  1.0
  Ni  Ni527  1  0.56261571  0.72421377  0.23544282  1.0
  Ni  Ni528  1  0.89594905  0.05754711  0.23544282  1.0
  Ni  Ni529  1  0.89594905  0.39088044  0.23544282  1.0
  Ni  Ni530  1  0.89594905  0.72421377  0.23544282  1.0
  Ni  Ni531  1  0.01499667  0.20040425  0.16401425  1.0
  Ni  Ni532  1  0.01499667  0.53373758  0.16401425  1.0
  Ni  Ni533  1  0.01499667  0.86707092  0.16401425  1.0
  Ni  Ni534  1  0.34833000  0.20040425  0.16401425  1.0
  Ni  Ni535  1  0.34833000  0.53373758  0.16401425  1.0
  Ni  Ni536  1  0.34833000  0.86707092  0.16401425  1.0
  Ni  Ni537  1  0.68166333  0.20040425  0.16401425  1.0
  Ni  Ni538  1  0.68166333  0.53373758  0.16401425  1.0
  Ni  Ni539  1  0.68166333  0.86707092  0.16401425  1.0
  Ni  Ni540  1  0.04963138  0.08190977  0.18292782  1.0
  Ni  Ni541  1  0.04963138  0.41524311  0.18292782  1.0
  Ni  Ni542  1  0.04963138  0.74857644  0.18292782  1.0
  Ni  Ni543  1  0.38296471  0.08190977  0.18292782  1.0
  Ni  Ni544  1  0.38296471  0.41524311  0.18292782  1.0
  Ni  Ni545  1  0.38296471  0.74857644  0.18292782  1.0
  Ni  Ni546  1  0.71629805  0.08190977  0.18292782  1.0
  Ni  Ni547  1  0.71629805  0.41524311  0.18292782  1.0
  Ni  Ni548  1  0.71629805  0.74857644  0.18292782  1.0
  Ni  Ni549  1  0.26391710  0.27238596  0.25435639  1.0
  Ni  Ni550  1  0.26391710  0.60571930  0.25435639  1.0
  Ni  Ni551  1  0.26391710  0.93905263  0.25435639  1.0
  Ni  Ni552  1  0.59725043  0.27238596  0.25435639  1.0
  Ni  Ni553  1  0.59725043  0.60571930  0.25435639  1.0
  Ni  Ni554  1  0.59725043  0.93905263  0.25435639  1.0
  Ni  Ni555  1  0.93058376  0.27238596  0.25435639  1.0
  Ni  Ni556  1  0.93058376  0.60571930  0.25435639  1.0
  Ni  Ni557  1  0.93058376  0.93905263  0.25435639  1.0
  Ni  Ni558  1  0.31937638  0.07518177  0.17740682  1.0
  Ni  Ni559  1  0.31937638  0.40851511  0.17740682  1.0
  Ni  Ni560  1  0.31937638  0.74184844  0.17740682  1.0
  Ni  Ni561  1  0.65270971  0.07518177  0.17740682  1.0
  Ni  Ni562  1  0.65270971  0.40851511  0.17740682  1.0
  Ni  Ni563  1  0.65270971  0.74184844  0.17740682  1.0
  Ni  Ni564  1  0.98604305  0.07518177  0.17740682  1.0
  Ni  Ni565  1  0.98604305  0.40851511  0.17740682  1.0
  Ni  Ni566  1  0.98604305  0.74184844  0.17740682  1.0
  Ni  Ni567  1  0.20032876  0.26565796  0.24883539  1.0
  Ni  Ni568  1  0.20032876  0.59899130  0.24883539  1.0
  Ni  Ni569  1  0.20032876  0.93232463  0.24883539  1.0
  Ni  Ni570  1  0.53366210  0.26565796  0.24883539  1.0
  Ni  Ni571  1  0.53366210  0.59899130  0.24883539  1.0
  Ni  Ni572  1  0.53366210  0.93232463  0.24883539  1.0
  Ni  Ni573  1  0.86699543  0.26565796  0.24883539  1.0
  Ni  Ni574  1  0.86699543  0.59899130  0.24883539  1.0
  Ni  Ni575  1  0.86699543  0.93232463  0.24883539  1.0
  Ni  Ni576  1  0.29287071  0.06427511  0.24096382  1.0
  Ni  Ni577  1  0.29287071  0.39760844  0.24096382  1.0
  Ni  Ni578  1  0.29287071  0.73094177  0.24096382  1.0
  Ni  Ni579  1  0.62620405  0.06427511  0.24096382  1.0
  Ni  Ni580  1  0.62620405  0.39760844  0.24096382  1.0
  Ni  Ni581  1  0.62620405  0.73094177  0.24096382  1.0
  Ni  Ni582  1  0.95953738  0.06427511  0.24096382  1.0
  Ni  Ni583  1  0.95953738  0.39760844  0.24096382  1.0
  Ni  Ni584  1  0.95953738  0.73094177  0.24096382  1.0
  Ni  Ni585  1  0.07858500  0.20713225  0.16953525  1.0
  Ni  Ni586  1  0.07858500  0.54046558  0.16953525  1.0
  Ni  Ni587  1  0.07858500  0.87379892  0.16953525  1.0
  Ni  Ni588  1  0.41191833  0.20713225  0.16953525  1.0
  Ni  Ni589  1  0.41191833  0.54046558  0.16953525  1.0
  Ni  Ni590  1  0.41191833  0.87379892  0.16953525  1.0
  Ni  Ni591  1  0.74525167  0.20713225  0.16953525  1.0
  Ni  Ni592  1  0.74525167  0.54046558  0.16953525  1.0
  Ni  Ni593  1  0.74525167  0.87379892  0.16953525  1.0
  Ni  Ni594  1  0.27770952  0.14047035  0.19898454  1.0
  Ni  Ni595  1  0.27770952  0.47380368  0.19898454  1.0
  Ni  Ni596  1  0.27770952  0.80713701  0.19898454  1.0
  Ni  Ni597  1  0.61104286  0.14047035  0.19898454  1.0
  Ni  Ni598  1  0.61104286  0.47380368  0.19898454  1.0
  Ni  Ni599  1  0.61104286  0.80713701  0.19898454  1.0
  Ni  Ni600  1  0.94437619  0.14047035  0.19898454  1.0
  Ni  Ni601  1  0.94437619  0.47380368  0.19898454  1.0
  Ni  Ni602  1  0.94437619  0.80713701  0.19898454  1.0
  Ni  Ni603  1  0.15866190  0.33094654  0.27041311  1.0
  Ni  Ni604  1  0.15866190  0.66427987  0.27041311  1.0
  Ni  Ni605  1  0.15866190  0.99761320  0.27041311  1.0
  Ni  Ni606  1  0.49199524  0.33094654  0.27041311  1.0
  Ni  Ni607  1  0.49199524  0.66427987  0.27041311  1.0
  Ni  Ni608  1  0.49199524  0.99761320  0.27041311  1.0
  Ni  Ni609  1  0.82532857  0.33094654  0.27041311  1.0
  Ni  Ni610  1  0.82532857  0.66427987  0.27041311  1.0
  Ni  Ni611  1  0.82532857  0.99761320  0.27041311  1.0
  Ni  Ni612  1  0.00120424  0.33231987  0.21938611  1.0
  Ni  Ni613  1  0.00120424  0.66565320  0.21938611  1.0
  Ni  Ni614  1  0.00120424  0.99898654  0.21938611  1.0
  Ni  Ni615  1  0.33453757  0.33231987  0.21938611  1.0
  Ni  Ni616  1  0.33453757  0.66565320  0.21938611  1.0
  Ni  Ni617  1  0.33453757  0.99898654  0.21938611  1.0
  Ni  Ni618  1  0.66787090  0.33231987  0.21938611  1.0
  Ni  Ni619  1  0.66787090  0.66565320  0.21938611  1.0
  Ni  Ni620  1  0.66787090  0.99898654  0.21938611  1.0
  Ni  Ni621  1  0.12025186  0.14184368  0.14795754  1.0
  Ni  Ni622  1  0.12025186  0.47517701  0.14795754  1.0
  Ni  Ni623  1  0.12025186  0.80851035  0.14795754  1.0
  Ni  Ni624  1  0.45358519  0.14184368  0.14795754  1.0
  Ni  Ni625  1  0.45358519  0.47517701  0.14795754  1.0
  Ni  Ni626  1  0.45358519  0.80851035  0.14795754  1.0
  Ni  Ni627  1  0.78691852  0.14184368  0.14795754  1.0
  Ni  Ni628  1  0.78691852  0.47517701  0.14795754  1.0
  Ni  Ni629  1  0.78691852  0.80851035  0.14795754  1.0
  Ni  Ni630  1  0.24197714  0.09787715  0.18699496  1.0
  Ni  Ni631  1  0.24197714  0.43121049  0.18699496  1.0
  Ni  Ni632  1  0.24197714  0.76454382  0.18699496  1.0
  Ni  Ni633  1  0.57531048  0.09787715  0.18699496  1.0
  Ni  Ni634  1  0.57531048  0.43121049  0.18699496  1.0
  Ni  Ni635  1  0.57531048  0.76454382  0.18699496  1.0
  Ni  Ni636  1  0.90864381  0.09787715  0.18699496  1.0
  Ni  Ni637  1  0.90864381  0.43121049  0.18699496  1.0
  Ni  Ni638  1  0.90864381  0.76454382  0.18699496  1.0
  Ni  Ni639  1  0.12292952  0.28835335  0.25842354  1.0
  Ni  Ni640  1  0.12292952  0.62168668  0.25842354  1.0
  Ni  Ni641  1  0.12292952  0.95502001  0.25842354  1.0
  Ni  Ni642  1  0.45626286  0.28835335  0.25842354  1.0
  Ni  Ni643  1  0.45626286  0.62168668  0.25842354  1.0
  Ni  Ni644  1  0.45626286  0.95502001  0.25842354  1.0
  Ni  Ni645  1  0.78959619  0.28835335  0.25842354  1.0
  Ni  Ni646  1  0.78959619  0.62168668  0.25842354  1.0
  Ni  Ni647  1  0.78959619  0.95502001  0.25842354  1.0
  Ni  Ni648  1  0.03693662  0.04157973  0.23137568  1.0
  Ni  Ni649  1  0.03693662  0.37491306  0.23137568  1.0
  Ni  Ni650  1  0.03693662  0.70824639  0.23137568  1.0
  Ni  Ni651  1  0.37026995  0.04157973  0.23137568  1.0
  Ni  Ni652  1  0.37026995  0.37491306  0.23137568  1.0
  Ni  Ni653  1  0.37026995  0.70824639  0.23137568  1.0
  Ni  Ni654  1  0.70360329  0.04157973  0.23137568  1.0
  Ni  Ni655  1  0.70360329  0.37491306  0.23137568  1.0
  Ni  Ni656  1  0.70360329  0.70824639  0.23137568  1.0
  Ni  Ni657  1  0.15598424  0.18443687  0.15994711  1.0
  Ni  Ni658  1  0.15598424  0.51777020  0.15994711  1.0
  Ni  Ni659  1  0.15598424  0.85110354  0.15994711  1.0
  Ni  Ni660  1  0.48931757  0.18443687  0.15994711  1.0
  Ni  Ni661  1  0.48931757  0.51777020  0.15994711  1.0
  Ni  Ni662  1  0.48931757  0.85110354  0.15994711  1.0
  Ni  Ni663  1  0.82265090  0.18443687  0.15994711  1.0
  Ni  Ni664  1  0.82265090  0.51777020  0.15994711  1.0
  Ni  Ni665  1  0.82265090  0.85110354  0.15994711  1.0
  Ni  Ni666  1  0.28349888  0.19739011  0.15947432  1.0
  Ni  Ni667  1  0.28349888  0.53072344  0.15947432  1.0
  Ni  Ni668  1  0.28349888  0.86405677  0.15947432  1.0
  Ni  Ni669  1  0.61683221  0.19739011  0.15947432  1.0
  Ni  Ni670  1  0.61683221  0.53072344  0.15947432  1.0
  Ni  Ni671  1  0.61683221  0.86405677  0.15947432  1.0
  Ni  Ni672  1  0.95016555  0.19739011  0.15947432  1.0
  Ni  Ni673  1  0.95016555  0.53072344  0.15947432  1.0
  Ni  Ni674  1  0.95016555  0.86405677  0.15947432  1.0
  Ni  Ni675  1  0.16445126  0.05453296  0.23090289  1.0
  Ni  Ni676  1  0.16445126  0.38786630  0.23090289  1.0
  Ni  Ni677  1  0.16445126  0.72119963  0.23090289  1.0
  Ni  Ni678  1  0.49778460  0.05453296  0.23090289  1.0
  Ni  Ni679  1  0.49778460  0.38786630  0.23090289  1.0
  Ni  Ni680  1  0.49778460  0.72119963  0.23090289  1.0
  Ni  Ni681  1  0.83111793  0.05453296  0.23090289  1.0
  Ni  Ni682  1  0.83111793  0.38786630  0.23090289  1.0
  Ni  Ni683  1  0.83111793  0.72119963  0.23090289  1.0
  Ni  Ni684  1  0.32874821  0.27540011  0.25889632  1.0
  Ni  Ni685  1  0.32874821  0.60873344  0.25889632  1.0
  Ni  Ni686  1  0.32874821  0.94206677  0.25889632  1.0
  Ni  Ni687  1  0.66208155  0.27540011  0.25889632  1.0
  Ni  Ni688  1  0.66208155  0.60873344  0.25889632  1.0
  Ni  Ni689  1  0.66208155  0.94206677  0.25889632  1.0
  Ni  Ni690  1  0.99541488  0.27540011  0.25889632  1.0
  Ni  Ni691  1  0.99541488  0.60873344  0.25889632  1.0
  Ni  Ni692  1  0.99541488  0.94206677  0.25889632  1.0
  Ni  Ni693  1  0.11446250  0.08492392  0.18746775  1.0
  Ni  Ni694  1  0.11446250  0.41825725  0.18746775  1.0
  Ni  Ni695  1  0.11446250  0.75159058  0.18746775  1.0
  Ni  Ni696  1  0.44779583  0.08492392  0.18746775  1.0
  Ni  Ni697  1  0.44779583  0.41825725  0.18746775  1.0
  Ni  Ni698  1  0.44779583  0.75159058  0.18746775  1.0
  Ni  Ni699  1  0.78112917  0.08492392  0.18746775  1.0
  Ni  Ni700  1  0.78112917  0.41825725  0.18746775  1.0
  Ni  Ni701  1  0.78112917  0.75159058  0.18746775  1.0
  Ni  Ni702  1  0.12061714  0.12034549  0.25697496  1.0
  Ni  Ni703  1  0.12061714  0.45367882  0.25697496  1.0
  Ni  Ni704  1  0.12061714  0.78701215  0.25697496  1.0
  Ni  Ni705  1  0.45395048  0.12034549  0.25697496  1.0
  Ni  Ni706  1  0.45395048  0.45367882  0.25697496  1.0
  Ni  Ni707  1  0.45395048  0.78701215  0.25697496  1.0
  Ni  Ni708  1  0.78728381  0.12034549  0.25697496  1.0
  Ni  Ni709  1  0.78728381  0.45367882  0.25697496  1.0
  Ni  Ni710  1  0.78728381  0.78701215  0.25697496  1.0
  Ni  Ni711  1  0.23966476  0.26320263  0.18554639  1.0
  Ni  Ni712  1  0.23966476  0.59653596  0.18554639  1.0
  Ni  Ni713  1  0.23966476  0.92986930  0.18554639  1.0
  Ni  Ni714  1  0.57299810  0.26320263  0.18554639  1.0
  Ni  Ni715  1  0.57299810  0.59653596  0.18554639  1.0
  Ni  Ni716  1  0.57299810  0.92986930  0.18554639  1.0
  Ni  Ni717  1  0.90633143  0.26320263  0.18554639  1.0
  Ni  Ni718  1  0.90633143  0.59653596  0.18554639  1.0
  Ni  Ni719  1  0.90633143  0.92986930  0.18554639  1.0
  Ni  Ni720  1  0.15829662  0.01911139  0.16139568  1.0
  Ni  Ni721  1  0.15829662  0.35244473  0.16139568  1.0
  Ni  Ni722  1  0.15829662  0.68577806  0.16139568  1.0
  Ni  Ni723  1  0.49162995  0.01911139  0.16139568  1.0
  Ni  Ni724  1  0.49162995  0.35244473  0.16139568  1.0
  Ni  Ni725  1  0.49162995  0.68577806  0.16139568  1.0
  Ni  Ni726  1  0.82496329  0.01911139  0.16139568  1.0
  Ni  Ni727  1  0.82496329  0.35244473  0.16139568  1.0
  Ni  Ni728  1  0.82496329  0.68577806  0.16139568  1.0
  Ni  Ni729  1  0.03924900  0.20958758  0.23282425  1.0
  Ni  Ni730  1  0.03924900  0.54292092  0.23282425  1.0
  Ni  Ni731  1  0.03924900  0.87625425  0.23282425  1.0
  Ni  Ni732  1  0.37258233  0.20958758  0.23282425  1.0
  Ni  Ni733  1  0.37258233  0.54292092  0.23282425  1.0
  Ni  Ni734  1  0.37258233  0.87625425  0.23282425  1.0
  Ni  Ni735  1  0.70591567  0.20958758  0.23282425  1.0
  Ni  Ni736  1  0.70591567  0.54292092  0.23282425  1.0
  Ni  Ni737  1  0.70591567  0.87625425  0.23282425  1.0
  Ni  Ni738  1  0.07347510  0.08692996  0.25183039  1.0
  Ni  Ni739  1  0.07347510  0.42026330  0.25183039  1.0
  Ni  Ni740  1  0.07347510  0.75359663  0.25183039  1.0
  Ni  Ni741  1  0.40680843  0.08692996  0.25183039  1.0
  Ni  Ni742  1  0.40680843  0.42026330  0.25183039  1.0
  Ni  Ni743  1  0.40680843  0.75359663  0.25183039  1.0
  Ni  Ni744  1  0.74014176  0.08692996  0.25183039  1.0
  Ni  Ni745  1  0.74014176  0.42026330  0.25183039  1.0
  Ni  Ni746  1  0.74014176  0.75359663  0.25183039  1.0
  Ni  Ni747  1  0.19252271  0.22978711  0.18040182  1.0
  Ni  Ni748  1  0.19252271  0.56312044  0.18040182  1.0
  Ni  Ni749  1  0.19252271  0.89645377  0.18040182  1.0
  Ni  Ni750  1  0.52585605  0.22978711  0.18040182  1.0
  Ni  Ni751  1  0.52585605  0.56312044  0.18040182  1.0
  Ni  Ni752  1  0.52585605  0.89645377  0.18040182  1.0
  Ni  Ni753  1  0.85918938  0.22978711  0.18040182  1.0
  Ni  Ni754  1  0.85918938  0.56312044  0.18040182  1.0
  Ni  Ni755  1  0.85918938  0.89645377  0.18040182  1.0
  Ni  Ni756  1  0.06802831  0.28401415  0.35204246  1.0
  Ni  Ni757  1  0.06802831  0.61734749  0.35204246  1.0
  Ni  Ni758  1  0.06802831  0.95068082  0.35204246  1.0
  Ni  Ni759  1  0.40136164  0.28401415  0.35204246  1.0
  Ni  Ni760  1  0.40136164  0.61734749  0.35204246  1.0
  Ni  Ni761  1  0.40136164  0.95068082  0.35204246  1.0
  Ni  Ni762  1  0.73469498  0.28401415  0.35204246  1.0
  Ni  Ni763  1  0.73469498  0.61734749  0.35204246  1.0
  Ni  Ni764  1  0.73469498  0.95068082  0.35204246  1.0
  Ni  Ni765  1  0.28231402  0.14115701  0.42347104  1.0
  Ni  Ni766  1  0.28231402  0.47449035  0.42347104  1.0
  Ni  Ni767  1  0.28231402  0.80782368  0.42347104  1.0
  Ni  Ni768  1  0.61564736  0.14115701  0.42347104  1.0
  Ni  Ni769  1  0.61564736  0.47449035  0.42347104  1.0
  Ni  Ni770  1  0.61564736  0.80782368  0.42347104  1.0
  Ni  Ni771  1  0.94898069  0.14115701  0.42347104  1.0
  Ni  Ni772  1  0.94898069  0.47449035  0.42347104  1.0
  Ni  Ni773  1  0.94898069  0.80782368  0.42347104  1.0
  Ni  Ni774  1  0.04820664  0.01362115  0.34433246  1.0
  Ni  Ni775  1  0.04820664  0.34695449  0.34433246  1.0
  Ni  Ni776  1  0.04820664  0.68028782  0.34433246  1.0
  Ni  Ni777  1  0.38153998  0.01362115  0.34433246  1.0
  Ni  Ni778  1  0.38153998  0.34695449  0.34433246  1.0
  Ni  Ni779  1  0.38153998  0.68028782  0.34433246  1.0
  Ni  Ni780  1  0.71487331  0.01362115  0.34433246  1.0
  Ni  Ni781  1  0.71487331  0.34695449  0.34433246  1.0
  Ni  Ni782  1  0.71487331  0.68028782  0.34433246  1.0
  Ni  Ni783  1  0.26249236  0.20409735  0.41576104  1.0
  Ni  Ni784  1  0.26249236  0.53743068  0.41576104  1.0
  Ni  Ni785  1  0.26249236  0.87076401  0.41576104  1.0
  Ni  Ni786  1  0.59582569  0.20409735  0.41576104  1.0
  Ni  Ni787  1  0.59582569  0.53743068  0.41576104  1.0
  Ni  Ni788  1  0.59582569  0.87076401  0.41576104  1.0
  Ni  Ni789  1  0.92915902  0.20409735  0.41576104  1.0
  Ni  Ni790  1  0.92915902  0.53743068  0.41576104  1.0
  Ni  Ni791  1  0.92915902  0.87076401  0.41576104  1.0
  Ni  Ni792  1  0.08784998  0.22107382  0.35975246  1.0
  Ni  Ni793  1  0.08784998  0.55440715  0.35975246  1.0
  Ni  Ni794  1  0.08784998  0.88774049  0.35975246  1.0
  Ni  Ni795  1  0.42118331  0.22107382  0.35975246  1.0
  Ni  Ni796  1  0.42118331  0.55440715  0.35975246  1.0
  Ni  Ni797  1  0.42118331  0.88774049  0.35975246  1.0
  Ni  Ni798  1  0.75451664  0.22107382  0.35975246  1.0
  Ni  Ni799  1  0.75451664  0.55440715  0.35975246  1.0
  Ni  Ni800  1  0.75451664  0.88774049  0.35975246  1.0
  Ni  Ni801  1  0.20689760  0.03059763  0.28832389  1.0
  Ni  Ni802  1  0.20689760  0.36393096  0.28832389  1.0
  Ni  Ni803  1  0.20689760  0.69726430  0.28832389  1.0
  Ni  Ni804  1  0.54023093  0.03059763  0.28832389  1.0
  Ni  Ni805  1  0.54023093  0.36393096  0.28832389  1.0
  Ni  Ni806  1  0.54023093  0.69726430  0.28832389  1.0
  Ni  Ni807  1  0.87356426  0.03059763  0.28832389  1.0
  Ni  Ni808  1  0.87356426  0.36393096  0.28832389  1.0
  Ni  Ni809  1  0.87356426  0.69726430  0.28832389  1.0
  Ni  Ni810  1  0.17829448  0.07365982  0.42854696  1.0
  Ni  Ni811  1  0.17829448  0.40699315  0.42854696  1.0
  Ni  Ni812  1  0.17829448  0.74032649  0.42854696  1.0
  Ni  Ni813  1  0.51162781  0.07365982  0.42854696  1.0
  Ni  Ni814  1  0.51162781  0.40699315  0.42854696  1.0
  Ni  Ni815  1  0.51162781  0.74032649  0.42854696  1.0
  Ni  Ni816  1  0.84496114  0.07365982  0.42854696  1.0
  Ni  Ni817  1  0.84496114  0.40699315  0.42854696  1.0
  Ni  Ni818  1  0.84496114  0.74032649  0.42854696  1.0
  Ni  Ni819  1  0.29734210  0.21651696  0.35711839  1.0
  Ni  Ni820  1  0.29734210  0.54985030  0.35711839  1.0
  Ni  Ni821  1  0.29734210  0.88318363  0.35711839  1.0
  Ni  Ni822  1  0.63067543  0.21651696  0.35711839  1.0
  Ni  Ni823  1  0.63067543  0.54985030  0.35711839  1.0
  Ni  Ni824  1  0.63067543  0.88318363  0.35711839  1.0
  Ni  Ni825  1  0.96400876  0.21651696  0.35711839  1.0
  Ni  Ni826  1  0.96400876  0.54985030  0.35711839  1.0
  Ni  Ni827  1  0.96400876  0.88318363  0.35711839  1.0
  Ni  Ni828  1  0.05300024  0.20865420  0.41839511  1.0
  Ni  Ni829  1  0.05300024  0.54198754  0.41839511  1.0
  Ni  Ni830  1  0.05300024  0.87532087  0.41839511  1.0
  Ni  Ni831  1  0.38633357  0.20865420  0.41839511  1.0
  Ni  Ni832  1  0.38633357  0.54198754  0.41839511  1.0
  Ni  Ni833  1  0.38633357  0.87532087  0.41839511  1.0
  Ni  Ni834  1  0.71966690  0.20865420  0.41839511  1.0
  Ni  Ni835  1  0.71966690  0.54198754  0.41839511  1.0
  Ni  Ni836  1  0.71966690  0.87532087  0.41839511  1.0
  Ni  Ni837  1  0.17204786  0.01817801  0.34696654  1.0
  Ni  Ni838  1  0.17204786  0.35151135  0.34696654  1.0
  Ni  Ni839  1  0.17204786  0.68484468  0.34696654  1.0
  Ni  Ni840  1  0.50538119  0.01817801  0.34696654  1.0
  Ni  Ni841  1  0.50538119  0.35151135  0.34696654  1.0
  Ni  Ni842  1  0.50538119  0.68484468  0.34696654  1.0
  Ni  Ni843  1  0.83871452  0.01817801  0.34696654  1.0
  Ni  Ni844  1  0.83871452  0.35151135  0.34696654  1.0
  Ni  Ni845  1  0.83871452  0.68484468  0.34696654  1.0
  Ni  Ni846  1  0.00248190  0.03394120  0.28831411  1.0
  Ni  Ni847  1  0.00248190  0.36727454  0.28831411  1.0
  Ni  Ni848  1  0.00248190  0.70060787  0.28831411  1.0
  Ni  Ni849  1  0.33581524  0.03394120  0.28831411  1.0
  Ni  Ni850  1  0.33581524  0.36727454  0.28831411  1.0
  Ni  Ni851  1  0.33581524  0.70060787  0.28831411  1.0
  Ni  Ni852  1  0.66914857  0.03394120  0.28831411  1.0
  Ni  Ni853  1  0.66914857  0.36727454  0.28831411  1.0
  Ni  Ni854  1  0.66914857  0.70060787  0.28831411  1.0
  Ni  Ni855  1  0.21676762  0.22441739  0.35974268  1.0
  Ni  Ni856  1  0.21676762  0.55775073  0.35974268  1.0
  Ni  Ni857  1  0.21676762  0.89108406  0.35974268  1.0
  Ni  Ni858  1  0.55010095  0.22441739  0.35974268  1.0
  Ni  Ni859  1  0.55010095  0.55775073  0.35974268  1.0
  Ni  Ni860  1  0.55010095  0.89108406  0.35974268  1.0
  Ni  Ni861  1  0.88343429  0.22441739  0.35974268  1.0
  Ni  Ni862  1  0.88343429  0.55775073  0.35974268  1.0
  Ni  Ni863  1  0.88343429  0.89108406  0.35974268  1.0
  Ni  Ni864  1  0.13357471  0.20075377  0.41577082  1.0
  Ni  Ni865  1  0.13357471  0.53408711  0.41577082  1.0
  Ni  Ni866  1  0.13357471  0.86742044  0.41577082  1.0
  Ni  Ni867  1  0.46690805  0.20075377  0.41577082  1.0
  Ni  Ni868  1  0.46690805  0.53408711  0.41577082  1.0
  Ni  Ni869  1  0.46690805  0.86742044  0.41577082  1.0
  Ni  Ni870  1  0.80024138  0.20075377  0.41577082  1.0
  Ni  Ni871  1  0.80024138  0.53408711  0.41577082  1.0
  Ni  Ni872  1  0.80024138  0.86742044  0.41577082  1.0
  Ni  Ni873  1  0.25262233  0.01027758  0.34434225  1.0
  Ni  Ni874  1  0.25262233  0.34361092  0.34434225  1.0
  Ni  Ni875  1  0.25262233  0.67694425  0.34434225  1.0
  Ni  Ni876  1  0.58595567  0.01027758  0.34434225  1.0
  Ni  Ni877  1  0.58595567  0.34361092  0.34434225  1.0
  Ni  Ni878  1  0.58595567  0.67694425  0.34434225  1.0
  Ni  Ni879  1  0.91928900  0.01027758  0.34434225  1.0
  Ni  Ni880  1  0.91928900  0.34361092  0.34434225  1.0
  Ni  Ni881  1  0.91928900  0.67694425  0.34434225  1.0
  Ni  Ni882  1  0.30067676  0.10014596  0.30939739  1.0
  Ni  Ni883  1  0.30067676  0.43347930  0.30939739  1.0
  Ni  Ni884  1  0.30067676  0.76681263  0.30939739  1.0
  Ni  Ni885  1  0.63401010  0.10014596  0.30939739  1.0
  Ni  Ni886  1  0.63401010  0.43347930  0.30939739  1.0
  Ni  Ni887  1  0.63401010  0.76681263  0.30939739  1.0
  Ni  Ni888  1  0.96734343  0.10014596  0.30939739  1.0
  Ni  Ni889  1  0.96734343  0.43347930  0.30939739  1.0
  Ni  Ni890  1  0.96734343  0.76681263  0.30939739  1.0
  Ni  Ni891  1  0.18162914  0.29062215  0.38082596  1.0
  Ni  Ni892  1  0.18162914  0.62395549  0.38082596  1.0
  Ni  Ni893  1  0.18162914  0.95728882  0.38082596  1.0
  Ni  Ni894  1  0.51496248  0.29062215  0.38082596  1.0
  Ni  Ni895  1  0.51496248  0.62395549  0.38082596  1.0
  Ni  Ni896  1  0.51496248  0.95728882  0.38082596  1.0
  Ni  Ni897  1  0.84829581  0.29062215  0.38082596  1.0
  Ni  Ni898  1  0.84829581  0.62395549  0.38082596  1.0
  Ni  Ni899  1  0.84829581  0.95728882  0.38082596  1.0
  Ni  Ni900  1  0.32452048  0.10516615  0.37829996  1.0
  Ni  Ni901  1  0.32452048  0.43849949  0.37829996  1.0
  Ni  Ni902  1  0.32452048  0.77183282  0.37829996  1.0
  Ni  Ni903  1  0.65785381  0.10516615  0.37829996  1.0
  Ni  Ni904  1  0.65785381  0.43849949  0.37829996  1.0
  Ni  Ni905  1  0.65785381  0.77183282  0.37829996  1.0
  Ni  Ni906  1  0.99118714  0.10516615  0.37829996  1.0
  Ni  Ni907  1  0.99118714  0.43849949  0.37829996  1.0
  Ni  Ni908  1  0.99118714  0.77183282  0.37829996  1.0
  Ni  Ni909  1  0.11023476  0.24802330  0.30687139  1.0
  Ni  Ni910  1  0.11023476  0.58135663  0.30687139  1.0
  Ni  Ni911  1  0.11023476  0.91468996  0.30687139  1.0
  Ni  Ni912  1  0.44356810  0.24802330  0.30687139  1.0
  Ni  Ni913  1  0.44356810  0.58135663  0.30687139  1.0
  Ni  Ni914  1  0.44356810  0.91468996  0.30687139  1.0
  Ni  Ni915  1  0.77690143  0.24802330  0.30687139  1.0
  Ni  Ni916  1  0.77690143  0.58135663  0.30687139  1.0
  Ni  Ni917  1  0.77690143  0.91468996  0.30687139  1.0
  Ni  Ni918  1  0.14486948  0.12952882  0.32578496  1.0
  Ni  Ni919  1  0.14486948  0.46286215  0.32578496  1.0
  Ni  Ni920  1  0.14486948  0.79619549  0.32578496  1.0
  Ni  Ni921  1  0.47820281  0.12952882  0.32578496  1.0
  Ni  Ni922  1  0.47820281  0.46286215  0.32578496  1.0
  Ni  Ni923  1  0.47820281  0.79619549  0.32578496  1.0
  Ni  Ni924  1  0.81153614  0.12952882  0.32578496  1.0
  Ni  Ni925  1  0.81153614  0.46286215  0.32578496  1.0
  Ni  Ni926  1  0.81153614  0.79619549  0.32578496  1.0
  Ni  Ni927  1  0.02582186  0.32000501  0.39721354  1.0
  Ni  Ni928  1  0.02582186  0.65333835  0.39721354  1.0
  Ni  Ni929  1  0.02582186  0.98667168  0.39721354  1.0
  Ni  Ni930  1  0.35915519  0.32000501  0.39721354  1.0
  Ni  Ni931  1  0.35915519  0.65333835  0.39721354  1.0
  Ni  Ni932  1  0.35915519  0.98667168  0.39721354  1.0
  Ni  Ni933  1  0.69248852  0.32000501  0.39721354  1.0
  Ni  Ni934  1  0.69248852  0.65333835  0.39721354  1.0
  Ni  Ni935  1  0.69248852  0.98667168  0.39721354  1.0
  Ni  Ni936  1  0.08128114  0.12280082  0.32026396  1.0
  Ni  Ni937  1  0.08128114  0.45613415  0.32026396  1.0
  Ni  Ni938  1  0.08128114  0.78946749  0.32026396  1.0
  Ni  Ni939  1  0.41461448  0.12280082  0.32026396  1.0
  Ni  Ni940  1  0.41461448  0.45613415  0.32026396  1.0
  Ni  Ni941  1  0.41461448  0.78946749  0.32026396  1.0
  Ni  Ni942  1  0.74794781  0.12280082  0.32026396  1.0
  Ni  Ni943  1  0.74794781  0.45613415  0.32026396  1.0
  Ni  Ni944  1  0.74794781  0.78946749  0.32026396  1.0
  Ni  Ni945  1  0.29556686  0.31327701  0.39169254  1.0
  Ni  Ni946  1  0.29556686  0.64661035  0.39169254  1.0
  Ni  Ni947  1  0.29556686  0.97994368  0.39169254  1.0
  Ni  Ni948  1  0.62890019  0.31327701  0.39169254  1.0
  Ni  Ni949  1  0.62890019  0.64661035  0.39169254  1.0
  Ni  Ni950  1  0.62890019  0.97994368  0.39169254  1.0
  Ni  Ni951  1  0.96223352  0.31327701  0.39169254  1.0
  Ni  Ni952  1  0.96223352  0.64661035  0.39169254  1.0
  Ni  Ni953  1  0.96223352  0.97994368  0.39169254  1.0
  Ni  Ni954  1  0.05477548  0.11189415  0.38382096  1.0
  Ni  Ni955  1  0.05477548  0.44522749  0.38382096  1.0
  Ni  Ni956  1  0.05477548  0.77856082  0.38382096  1.0
  Ni  Ni957  1  0.38810881  0.11189415  0.38382096  1.0
  Ni  Ni958  1  0.38810881  0.44522749  0.38382096  1.0
  Ni  Ni959  1  0.38810881  0.77856082  0.38382096  1.0
  Ni  Ni960  1  0.72144214  0.11189415  0.38382096  1.0
  Ni  Ni961  1  0.72144214  0.44522749  0.38382096  1.0
  Ni  Ni962  1  0.72144214  0.77856082  0.38382096  1.0
  Ni  Ni963  1  0.17382310  0.25475130  0.31239239  1.0
  Ni  Ni964  1  0.17382310  0.58808463  0.31239239  1.0
  Ni  Ni965  1  0.17382310  0.92141796  0.31239239  1.0
  Ni  Ni966  1  0.50715643  0.25475130  0.31239239  1.0
  Ni  Ni967  1  0.50715643  0.58808463  0.31239239  1.0
  Ni  Ni968  1  0.50715643  0.92141796  0.31239239  1.0
  Ni  Ni969  1  0.84048976  0.25475130  0.31239239  1.0
  Ni  Ni970  1  0.84048976  0.58808463  0.31239239  1.0
  Ni  Ni971  1  0.84048976  0.92141796  0.31239239  1.0
  Ni  Ni972  1  0.03961429  0.18808939  0.34184168  1.0
  Ni  Ni973  1  0.03961429  0.52142273  0.34184168  1.0
  Ni  Ni974  1  0.03961429  0.85475606  0.34184168  1.0
  Ni  Ni975  1  0.37294762  0.18808939  0.34184168  1.0
  Ni  Ni976  1  0.37294762  0.52142273  0.34184168  1.0
  Ni  Ni977  1  0.37294762  0.85475606  0.34184168  1.0
  Ni  Ni978  1  0.70628095  0.18808939  0.34184168  1.0
  Ni  Ni979  1  0.70628095  0.52142273  0.34184168  1.0
  Ni  Ni980  1  0.70628095  0.85475606  0.34184168  1.0
  Ni  Ni981  1  0.25390000  0.04523225  0.41327025  1.0
  Ni  Ni982  1  0.25390000  0.37856558  0.41327025  1.0
  Ni  Ni983  1  0.25390000  0.71189892  0.41327025  1.0
  Ni  Ni984  1  0.58723333  0.04523225  0.41327025  1.0
  Ni  Ni985  1  0.58723333  0.37856558  0.41327025  1.0
  Ni  Ni986  1  0.58723333  0.71189892  0.41327025  1.0
  Ni  Ni987  1  0.92056667  0.04523225  0.41327025  1.0
  Ni  Ni988  1  0.92056667  0.37856558  0.41327025  1.0
  Ni  Ni989  1  0.92056667  0.71189892  0.41327025  1.0
  Ni  Ni990  1  0.09644233  0.04660558  0.36224325  1.0
  Ni  Ni991  1  0.09644233  0.37993892  0.36224325  1.0
  Ni  Ni992  1  0.09644233  0.71327225  0.36224325  1.0
  Ni  Ni993  1  0.42977567  0.04660558  0.36224325  1.0
  Ni  Ni994  1  0.42977567  0.37993892  0.36224325  1.0
  Ni  Ni995  1  0.42977567  0.71327225  0.36224325  1.0
  Ni  Ni996  1  0.76310900  0.04660558  0.36224325  1.0
  Ni  Ni997  1  0.76310900  0.37993892  0.36224325  1.0
  Ni  Ni998  1  0.76310900  0.71327225  0.36224325  1.0
  Ni  Ni999  1  0.21548995  0.18946273  0.29081468  1.0
  Ni  Ni1000  1  0.21548995  0.52279606  0.29081468  1.0
  Ni  Ni1001  1  0.21548995  0.85612939  0.29081468  1.0
  Ni  Ni1002  1  0.54882329  0.18946273  0.29081468  1.0
  Ni  Ni1003  1  0.54882329  0.52279606  0.29081468  1.0
  Ni  Ni1004  1  0.54882329  0.85612939  0.29081468  1.0
  Ni  Ni1005  1  0.88215662  0.18946273  0.29081468  1.0
  Ni  Ni1006  1  0.88215662  0.52279606  0.29081468  1.0
  Ni  Ni1007  1  0.88215662  0.85612939  0.29081468  1.0
  Ni  Ni1008  1  0.00388190  0.14549620  0.32985211  1.0
  Ni  Ni1009  1  0.00388190  0.47882954  0.32985211  1.0
  Ni  Ni1010  1  0.00388190  0.81216287  0.32985211  1.0
  Ni  Ni1011  1  0.33721524  0.14549620  0.32985211  1.0
  Ni  Ni1012  1  0.33721524  0.47882954  0.32985211  1.0
  Ni  Ni1013  1  0.33721524  0.81216287  0.32985211  1.0
  Ni  Ni1014  1  0.67054857  0.14549620  0.32985211  1.0
  Ni  Ni1015  1  0.67054857  0.47882954  0.32985211  1.0
  Ni  Ni1016  1  0.67054857  0.81216287  0.32985211  1.0
  Ni  Ni1017  1  0.21816762  0.00263906  0.40128068  1.0
  Ni  Ni1018  1  0.21816762  0.33597239  0.40128068  1.0
  Ni  Ni1019  1  0.21816762  0.66930573  0.40128068  1.0
  Ni  Ni1020  1  0.55150095  0.00263906  0.40128068  1.0
  Ni  Ni1021  1  0.55150095  0.33597239  0.40128068  1.0
  Ni  Ni1022  1  0.55150095  0.66930573  0.40128068  1.0
  Ni  Ni1023  1  0.88483429  0.00263906  0.40128068  1.0
  Ni  Ni1024  1  0.88483429  0.33597239  0.40128068  1.0
  Ni  Ni1025  1  0.88483429  0.66930573  0.40128068  1.0
  Ni  Ni1026  1  0.13217471  0.08919877  0.37423282  1.0
  Ni  Ni1027  1  0.13217471  0.42253211  0.37423282  1.0
  Ni  Ni1028  1  0.13217471  0.75586544  0.37423282  1.0
  Ni  Ni1029  1  0.46550805  0.08919877  0.37423282  1.0
  Ni  Ni1030  1  0.46550805  0.42253211  0.37423282  1.0
  Ni  Ni1031  1  0.46550805  0.75586544  0.37423282  1.0
  Ni  Ni1032  1  0.79884138  0.08919877  0.37423282  1.0
  Ni  Ni1033  1  0.79884138  0.42253211  0.37423282  1.0
  Ni  Ni1034  1  0.79884138  0.75586544  0.37423282  1.0
  Ni  Ni1035  1  0.25122233  0.23205592  0.30280425  1.0
  Ni  Ni1036  1  0.25122233  0.56538925  0.30280425  1.0
  Ni  Ni1037  1  0.25122233  0.89872258  0.30280425  1.0
  Ni  Ni1038  1  0.58455567  0.23205592  0.30280425  1.0
  Ni  Ni1039  1  0.58455567  0.56538925  0.30280425  1.0
  Ni  Ni1040  1  0.58455567  0.89872258  0.30280425  1.0
  Ni  Ni1041  1  0.91788900  0.23205592  0.30280425  1.0
  Ni  Ni1042  1  0.91788900  0.56538925  0.30280425  1.0
  Ni  Ni1043  1  0.91788900  0.89872258  0.30280425  1.0
  Ni  Ni1044  1  0.04540364  0.24500915  0.30233146  1.0
  Ni  Ni1045  1  0.04540364  0.57834249  0.30233146  1.0
  Ni  Ni1046  1  0.04540364  0.91167582  0.30233146  1.0
  Ni  Ni1047  1  0.37873698  0.24500915  0.30233146  1.0
  Ni  Ni1048  1  0.37873698  0.57834249  0.30233146  1.0
  Ni  Ni1049  1  0.37873698  0.91167582  0.30233146  1.0
  Ni  Ni1050  1  0.71207031  0.24500915  0.30233146  1.0
  Ni  Ni1051  1  0.71207031  0.57834249  0.30233146  1.0
  Ni  Ni1052  1  0.71207031  0.91167582  0.30233146  1.0
  Ni  Ni1053  1  0.25968936  0.10215201  0.37376004  1.0
  Ni  Ni1054  1  0.25968936  0.43548535  0.37376004  1.0
  Ni  Ni1055  1  0.25968936  0.76881868  0.37376004  1.0
  Ni  Ni1056  1  0.59302269  0.10215201  0.37376004  1.0
  Ni  Ni1057  1  0.59302269  0.43548535  0.37376004  1.0
  Ni  Ni1058  1  0.59302269  0.76881868  0.37376004  1.0
  Ni  Ni1059  1  0.92635602  0.10215201  0.37376004  1.0
  Ni  Ni1060  1  0.92635602  0.43548535  0.37376004  1.0
  Ni  Ni1061  1  0.92635602  0.76881868  0.37376004  1.0
  Ni  Ni1062  1  0.09065298  0.32301915  0.40175346  1.0
  Ni  Ni1063  1  0.09065298  0.65635249  0.40175346  1.0
  Ni  Ni1064  1  0.09065298  0.98968582  0.40175346  1.0
  Ni  Ni1065  1  0.42398631  0.32301915  0.40175346  1.0
  Ni  Ni1066  1  0.42398631  0.65635249  0.40175346  1.0
  Ni  Ni1067  1  0.42398631  0.98968582  0.40175346  1.0
  Ni  Ni1068  1  0.75731964  0.32301915  0.40175346  1.0
  Ni  Ni1069  1  0.75731964  0.65635249  0.40175346  1.0
  Ni  Ni1070  1  0.75731964  0.98968582  0.40175346  1.0
  Ni  Ni1071  1  0.20970060  0.13254296  0.33032489  1.0
  Ni  Ni1072  1  0.20970060  0.46587630  0.33032489  1.0
  Ni  Ni1073  1  0.20970060  0.79920963  0.33032489  1.0
  Ni  Ni1074  1  0.54303393  0.13254296  0.33032489  1.0
  Ni  Ni1075  1  0.54303393  0.46587630  0.33032489  1.0
  Ni  Ni1076  1  0.54303393  0.79920963  0.33032489  1.0
  Ni  Ni1077  1  0.87636726  0.13254296  0.33032489  1.0
  Ni  Ni1078  1  0.87636726  0.46587630  0.33032489  1.0
  Ni  Ni1079  1  0.87636726  0.79920963  0.33032489  1.0
  Ni  Ni1080  1  0.21585524  0.16796454  0.39983211  1.0
  Ni  Ni1081  1  0.21585524  0.50129787  0.39983211  1.0
  Ni  Ni1082  1  0.21585524  0.83463120  0.39983211  1.0
  Ni  Ni1083  1  0.54918857  0.16796454  0.39983211  1.0
  Ni  Ni1084  1  0.54918857  0.50129787  0.39983211  1.0
  Ni  Ni1085  1  0.54918857  0.83463120  0.39983211  1.0
  Ni  Ni1086  1  0.88252190  0.16796454  0.39983211  1.0
  Ni  Ni1087  1  0.88252190  0.50129787  0.39983211  1.0
  Ni  Ni1088  1  0.88252190  0.83463120  0.39983211  1.0
  Ni  Ni1089  1  0.00156952  0.31082168  0.32840354  1.0
  Ni  Ni1090  1  0.00156952  0.64415501  0.32840354  1.0
  Ni  Ni1091  1  0.00156952  0.97748835  0.32840354  1.0
  Ni  Ni1092  1  0.33490286  0.31082168  0.32840354  1.0
  Ni  Ni1093  1  0.33490286  0.64415501  0.32840354  1.0
  Ni  Ni1094  1  0.33490286  0.97748835  0.32840354  1.0
  Ni  Ni1095  1  0.66823619  0.31082168  0.32840354  1.0
  Ni  Ni1096  1  0.66823619  0.64415501  0.32840354  1.0
  Ni  Ni1097  1  0.66823619  0.97748835  0.32840354  1.0
  Ni  Ni1098  1  0.25353471  0.06673044  0.30425282  1.0
  Ni  Ni1099  1  0.25353471  0.40006377  0.30425282  1.0
  Ni  Ni1100  1  0.25353471  0.73339711  0.30425282  1.0
  Ni  Ni1101  1  0.58686805  0.06673044  0.30425282  1.0
  Ni  Ni1102  1  0.58686805  0.40006377  0.30425282  1.0
  Ni  Ni1103  1  0.58686805  0.73339711  0.30425282  1.0
  Ni  Ni1104  1  0.92020138  0.06673044  0.30425282  1.0
  Ni  Ni1105  1  0.92020138  0.40006377  0.30425282  1.0
  Ni  Ni1106  1  0.92020138  0.73339711  0.30425282  1.0
  Ni  Ni1107  1  0.13448710  0.25720663  0.37568139  1.0
  Ni  Ni1108  1  0.13448710  0.59053996  0.37568139  1.0
  Ni  Ni1109  1  0.13448710  0.92387330  0.37568139  1.0
  Ni  Ni1110  1  0.46782043  0.25720663  0.37568139  1.0
  Ni  Ni1111  1  0.46782043  0.59053996  0.37568139  1.0
  Ni  Ni1112  1  0.46782043  0.92387330  0.37568139  1.0
  Ni  Ni1113  1  0.80115376  0.25720663  0.37568139  1.0
  Ni  Ni1114  1  0.80115376  0.59053996  0.37568139  1.0
  Ni  Ni1115  1  0.80115376  0.92387330  0.37568139  1.0
  Ni  Ni1116  1  0.16871319  0.13454901  0.39468754  1.0
  Ni  Ni1117  1  0.16871319  0.46788235  0.39468754  1.0
  Ni  Ni1118  1  0.16871319  0.80121568  0.39468754  1.0
  Ni  Ni1119  1  0.50204652  0.13454901  0.39468754  1.0
  Ni  Ni1120  1  0.50204652  0.46788235  0.39468754  1.0
  Ni  Ni1121  1  0.50204652  0.80121568  0.39468754  1.0
  Ni  Ni1122  1  0.83537986  0.13454901  0.39468754  1.0
  Ni  Ni1123  1  0.83537986  0.46788235  0.39468754  1.0
  Ni  Ni1124  1  0.83537986  0.80121568  0.39468754  1.0
  Ni  Ni1125  1  0.28776081  0.27740615  0.32325896  1.0
  Ni  Ni1126  1  0.28776081  0.61073949  0.32325896  1.0
  Ni  Ni1127  1  0.28776081  0.94407282  0.32325896  1.0
  Ni  Ni1128  1  0.62109414  0.27740615  0.32325896  1.0
  Ni  Ni1129  1  0.62109414  0.61073949  0.32325896  1.0
  Ni  Ni1130  1  0.62109414  0.94407282  0.32325896  1.0
  Ni  Ni1131  1  0.95442748  0.27740615  0.32325896  1.0
  Ni  Ni1132  1  0.95442748  0.61073949  0.32325896  1.0
  Ni  Ni1133  1  0.95442748  0.94407282  0.32325896  1.0
  Zr  Zr1134  1  0.28986136  0.25829935  0.13233804  1.0
  Zr  Zr1135  1  0.28986136  0.59163268  0.13233804  1.0
  Zr  Zr1136  1  0.28986136  0.92496601  0.13233804  1.0
  Zr  Zr1137  1  0.62319469  0.25829935  0.13233804  1.0
  Zr  Zr1138  1  0.62319469  0.59163268  0.13233804  1.0
  Zr  Zr1139  1  0.62319469  0.92496601  0.13233804  1.0
  Zr  Zr1140  1  0.95652802  0.25829935  0.13233804  1.0
  Zr  Zr1141  1  0.95652802  0.59163268  0.13233804  1.0
  Zr  Zr1142  1  0.95652802  0.92496601  0.13233804  1.0
  Zr  Zr1143  1  0.07557564  0.06782315  0.06090946  1.0
  Zr  Zr1144  1  0.07557564  0.40115649  0.06090946  1.0
  Zr  Zr1145  1  0.07557564  0.73448982  0.06090946  1.0
  Zr  Zr1146  1  0.40890898  0.06782315  0.06090946  1.0
  Zr  Zr1147  1  0.40890898  0.40115649  0.06090946  1.0
  Zr  Zr1148  1  0.40890898  0.73448982  0.06090946  1.0
  Zr  Zr1149  1  0.74224231  0.06782315  0.06090946  1.0
  Zr  Zr1150  1  0.74224231  0.40115649  0.06090946  1.0
  Zr  Zr1151  1  0.74224231  0.73448982  0.06090946  1.0
  Zr  Zr1152  1  0.13190955  0.11925277  0.00031832  1.0
  Zr  Zr1153  1  0.13190955  0.45258611  0.00031832  1.0
  Zr  Zr1154  1  0.13190955  0.78591944  0.00031832  1.0
  Zr  Zr1155  1  0.46524288  0.11925277  0.00031832  1.0
  Zr  Zr1156  1  0.46524288  0.45258611  0.00031832  1.0
  Zr  Zr1157  1  0.46524288  0.78591944  0.00031832  1.0
  Zr  Zr1158  1  0.79857621  0.11925277  0.00031832  1.0
  Zr  Zr1159  1  0.79857621  0.45258611  0.00031832  1.0
  Zr  Zr1160  1  0.79857621  0.78591944  0.00031832  1.0
  Zr  Zr1161  1  0.01286193  0.30972896  0.07174689  1.0
  Zr  Zr1162  1  0.01286193  0.64306230  0.07174689  1.0
  Zr  Zr1163  1  0.01286193  0.97639563  0.07174689  1.0
  Zr  Zr1164  1  0.34619526  0.30972896  0.07174689  1.0
  Zr  Zr1165  1  0.34619526  0.64306230  0.07174689  1.0
  Zr  Zr1166  1  0.34619526  0.97639563  0.07174689  1.0
  Zr  Zr1167  1  0.67952860  0.30972896  0.07174689  1.0
  Zr  Zr1168  1  0.67952860  0.64306230  0.07174689  1.0
  Zr  Zr1169  1  0.67952860  0.97639563  0.07174689  1.0
  Zr  Zr1170  1  0.24010912  0.06059006  0.09826718  1.0
  Zr  Zr1171  1  0.24010912  0.39392339  0.09826718  1.0
  Zr  Zr1172  1  0.24010912  0.72725673  0.09826718  1.0
  Zr  Zr1173  1  0.57344245  0.06059006  0.09826718  1.0
  Zr  Zr1174  1  0.57344245  0.39392339  0.09826718  1.0
  Zr  Zr1175  1  0.57344245  0.72725673  0.09826718  1.0
  Zr  Zr1176  1  0.90677579  0.06059006  0.09826718  1.0
  Zr  Zr1177  1  0.90677579  0.39392339  0.09826718  1.0
  Zr  Zr1178  1  0.90677579  0.72725673  0.09826718  1.0
  Zr  Zr1179  1  0.02582340  0.20344720  0.02683861  1.0
  Zr  Zr1180  1  0.02582340  0.53678054  0.02683861  1.0
  Zr  Zr1181  1  0.02582340  0.87011387  0.02683861  1.0
  Zr  Zr1182  1  0.35915674  0.20344720  0.02683861  1.0
  Zr  Zr1183  1  0.35915674  0.53678054  0.02683861  1.0
  Zr  Zr1184  1  0.35915674  0.87011387  0.02683861  1.0
  Zr  Zr1185  1  0.69249007  0.20344720  0.02683861  1.0
  Zr  Zr1186  1  0.69249007  0.53678054  0.02683861  1.0
  Zr  Zr1187  1  0.69249007  0.87011387  0.02683861  1.0
  Zr  Zr1188  1  0.18166179  0.31696206  0.03438918  1.0
  Zr  Zr1189  1  0.18166179  0.65029539  0.03438918  1.0
  Zr  Zr1190  1  0.18166179  0.98362873  0.03438918  1.0
  Zr  Zr1191  1  0.51499512  0.31696206  0.03438918  1.0
  Zr  Zr1192  1  0.51499512  0.65029539  0.03438918  1.0
  Zr  Zr1193  1  0.51499512  0.98362873  0.03438918  1.0
  Zr  Zr1194  1  0.84832845  0.31696206  0.03438918  1.0
  Zr  Zr1195  1  0.84832845  0.65029539  0.03438918  1.0
  Zr  Zr1196  1  0.84832845  0.98362873  0.03438918  1.0
  Zr  Zr1197  1  0.06261417  0.17410492  0.10581775  1.0
  Zr  Zr1198  1  0.06261417  0.50743825  0.10581775  1.0
  Zr  Zr1199  1  0.06261417  0.84077158  0.10581775  1.0
  Zr  Zr1200  1  0.39594750  0.17410492  0.10581775  1.0
  Zr  Zr1201  1  0.39594750  0.50743825  0.10581775  1.0
  Zr  Zr1202  1  0.39594750  0.84077158  0.10581775  1.0
  Zr  Zr1203  1  0.72928083  0.17410492  0.10581775  1.0
  Zr  Zr1204  1  0.72928083  0.50743825  0.10581775  1.0
  Zr  Zr1205  1  0.72928083  0.84077158  0.10581775  1.0
  Zr  Zr1206  1  0.18659295  0.28858373  0.13057168  1.0
  Zr  Zr1207  1  0.18659295  0.62191706  0.13057168  1.0
  Zr  Zr1208  1  0.18659295  0.95525039  0.13057168  1.0
  Zr  Zr1209  1  0.51992629  0.28858373  0.13057168  1.0
  Zr  Zr1210  1  0.51992629  0.62191706  0.13057168  1.0
  Zr  Zr1211  1  0.51992629  0.95525039  0.13057168  1.0
  Zr  Zr1212  1  0.85325962  0.28858373  0.13057168  1.0
  Zr  Zr1213  1  0.85325962  0.62191706  0.13057168  1.0
  Zr  Zr1214  1  0.85325962  0.95525039  0.13057168  1.0
  Zr  Zr1215  1  0.30564057  0.09810754  0.05914311  1.0
  Zr  Zr1216  1  0.30564057  0.43144087  0.05914311  1.0
  Zr  Zr1217  1  0.30564057  0.76477420  0.05914311  1.0
  Zr  Zr1218  1  0.63897390  0.09810754  0.05914311  1.0
  Zr  Zr1219  1  0.63897390  0.43144087  0.05914311  1.0
  Zr  Zr1220  1  0.63897390  0.76477420  0.05914311  1.0
  Zr  Zr1221  1  0.97230724  0.09810754  0.05914311  1.0
  Zr  Zr1222  1  0.97230724  0.43144087  0.05914311  1.0
  Zr  Zr1223  1  0.97230724  0.76477420  0.05914311  1.0
  Zr  Zr1224  1  0.23517795  0.08896839  0.00208468  1.0
  Zr  Zr1225  1  0.23517795  0.42230173  0.00208468  1.0
  Zr  Zr1226  1  0.23517795  0.75563506  0.00208468  1.0
  Zr  Zr1227  1  0.56851129  0.08896839  0.00208468  1.0
  Zr  Zr1228  1  0.56851129  0.42230173  0.00208468  1.0
  Zr  Zr1229  1  0.56851129  0.75563506  0.00208468  1.0
  Zr  Zr1230  1  0.90184462  0.08896839  0.00208468  1.0
  Zr  Zr1231  1  0.90184462  0.42230173  0.00208468  1.0
  Zr  Zr1232  1  0.90184462  0.75563506  0.00208468  1.0
  Zr  Zr1233  1  0.11613033  0.27944458  0.07351325  1.0
  Zr  Zr1234  1  0.11613033  0.61277792  0.07351325  1.0
  Zr  Zr1235  1  0.11613033  0.94611125  0.07351325  1.0
  Zr  Zr1236  1  0.44946367  0.27944458  0.07351325  1.0
  Zr  Zr1237  1  0.44946367  0.61277792  0.07351325  1.0
  Zr  Zr1238  1  0.44946367  0.94611125  0.07351325  1.0
  Zr  Zr1239  1  0.78279700  0.27944458  0.07351325  1.0
  Zr  Zr1240  1  0.78279700  0.61277792  0.07351325  1.0
  Zr  Zr1241  1  0.78279700  0.94611125  0.07351325  1.0
  Zr  Zr1242  1  0.14725938  0.07594544  0.11837982  1.0
  Zr  Zr1243  1  0.14725938  0.40927877  0.11837982  1.0
  Zr  Zr1244  1  0.14725938  0.74261211  0.11837982  1.0
  Zr  Zr1245  1  0.48059271  0.07594544  0.11837982  1.0
  Zr  Zr1246  1  0.48059271  0.40927877  0.11837982  1.0
  Zr  Zr1247  1  0.48059271  0.74261211  0.11837982  1.0
  Zr  Zr1248  1  0.81392605  0.07594544  0.11837982  1.0
  Zr  Zr1249  1  0.81392605  0.40927877  0.11837982  1.0
  Zr  Zr1250  1  0.81392605  0.74261211  0.11837982  1.0
  Zr  Zr1251  1  0.26630700  0.21880258  0.04695125  1.0
  Zr  Zr1252  1  0.26630700  0.55213592  0.04695125  1.0
  Zr  Zr1253  1  0.26630700  0.88546925  0.04695125  1.0
  Zr  Zr1254  1  0.59964033  0.21880258  0.04695125  1.0
  Zr  Zr1255  1  0.59964033  0.55213592  0.04695125  1.0
  Zr  Zr1256  1  0.59964033  0.88546925  0.04695125  1.0
  Zr  Zr1257  1  0.93297367  0.21880258  0.04695125  1.0
  Zr  Zr1258  1  0.93297367  0.55213592  0.04695125  1.0
  Zr  Zr1259  1  0.93297367  0.88546925  0.04695125  1.0
  Zr  Zr1260  1  0.27451152  0.30160668  0.01427654  1.0
  Zr  Zr1261  1  0.27451152  0.63494001  0.01427654  1.0
  Zr  Zr1262  1  0.27451152  0.96827335  0.01427654  1.0
  Zr  Zr1263  1  0.60784486  0.30160668  0.01427654  1.0
  Zr  Zr1264  1  0.60784486  0.63494001  0.01427654  1.0
  Zr  Zr1265  1  0.60784486  0.96827335  0.01427654  1.0
  Zr  Zr1266  1  0.94117819  0.30160668  0.01427654  1.0
  Zr  Zr1267  1  0.94117819  0.63494001  0.01427654  1.0
  Zr  Zr1268  1  0.94117819  0.96827335  0.01427654  1.0
  Zr  Zr1269  1  0.15546390  0.15874954  0.08570511  1.0
  Zr  Zr1270  1  0.15546390  0.49208287  0.08570511  1.0
  Zr  Zr1271  1  0.15546390  0.82541620  0.08570511  1.0
  Zr  Zr1272  1  0.48879724  0.15874954  0.08570511  1.0
  Zr  Zr1273  1  0.48879724  0.49208287  0.08570511  1.0
  Zr  Zr1274  1  0.48879724  0.82541620  0.08570511  1.0
  Zr  Zr1275  1  0.82213057  0.15874954  0.08570511  1.0
  Zr  Zr1276  1  0.82213057  0.49208287  0.08570511  1.0
  Zr  Zr1277  1  0.82213057  0.82541620  0.08570511  1.0
  Zr  Zr1278  1  0.05176612  0.30591839  0.27519518  1.0
  Zr  Zr1279  1  0.05176612  0.63925173  0.27519518  1.0
  Zr  Zr1280  1  0.05176612  0.97258506  0.27519518  1.0
  Zr  Zr1281  1  0.38509945  0.30591839  0.27519518  1.0
  Zr  Zr1282  1  0.38509945  0.63925173  0.27519518  1.0
  Zr  Zr1283  1  0.38509945  0.97258506  0.27519518  1.0
  Zr  Zr1284  1  0.71843279  0.30591839  0.27519518  1.0
  Zr  Zr1285  1  0.71843279  0.63925173  0.27519518  1.0
  Zr  Zr1286  1  0.71843279  0.97258506  0.27519518  1.0
  Zr  Zr1287  1  0.17081374  0.11544220  0.20376661  1.0
  Zr  Zr1288  1  0.17081374  0.44877554  0.20376661  1.0
  Zr  Zr1289  1  0.17081374  0.78210887  0.20376661  1.0
  Zr  Zr1290  1  0.50414707  0.11544220  0.20376661  1.0
  Zr  Zr1291  1  0.50414707  0.44877554  0.20376661  1.0
  Zr  Zr1292  1  0.50414707  0.78210887  0.20376661  1.0
  Zr  Zr1293  1  0.83748040  0.11544220  0.20376661  1.0
  Zr  Zr1294  1  0.83748040  0.44877554  0.20376661  1.0
  Zr  Zr1295  1  0.83748040  0.78210887  0.20376661  1.0
  Zr  Zr1296  1  0.22714764  0.16687182  0.14317546  1.0
  Zr  Zr1297  1  0.22714764  0.50020515  0.14317546  1.0
  Zr  Zr1298  1  0.22714764  0.83353849  0.14317546  1.0
  Zr  Zr1299  1  0.56048098  0.16687182  0.14317546  1.0
  Zr  Zr1300  1  0.56048098  0.50020515  0.14317546  1.0
  Zr  Zr1301  1  0.56048098  0.83353849  0.14317546  1.0
  Zr  Zr1302  1  0.89381431  0.16687182  0.14317546  1.0
  Zr  Zr1303  1  0.89381431  0.50020515  0.14317546  1.0
  Zr  Zr1304  1  0.89381431  0.83353849  0.14317546  1.0
  Zr  Zr1305  1  0.10810002  0.02401468  0.21460404  1.0
  Zr  Zr1306  1  0.10810002  0.35734801  0.21460404  1.0
  Zr  Zr1307  1  0.10810002  0.69068135  0.21460404  1.0
  Zr  Zr1308  1  0.44143336  0.02401468  0.21460404  1.0
  Zr  Zr1309  1  0.44143336  0.35734801  0.21460404  1.0
  Zr  Zr1310  1  0.44143336  0.69068135  0.21460404  1.0
  Zr  Zr1311  1  0.77476669  0.02401468  0.21460404  1.0
  Zr  Zr1312  1  0.77476669  0.35734801  0.21460404  1.0
  Zr  Zr1313  1  0.77476669  0.69068135  0.21460404  1.0
  Zr  Zr1314  1  0.00201388  0.10820911  0.24112432  1.0
  Zr  Zr1315  1  0.00201388  0.44154244  0.24112432  1.0
  Zr  Zr1316  1  0.00201388  0.77487577  0.24112432  1.0
  Zr  Zr1317  1  0.33534721  0.10820911  0.24112432  1.0
  Zr  Zr1318  1  0.33534721  0.44154244  0.24112432  1.0
  Zr  Zr1319  1  0.33534721  0.77487577  0.24112432  1.0
  Zr  Zr1320  1  0.66868055  0.10820911  0.24112432  1.0
  Zr  Zr1321  1  0.66868055  0.44154244  0.24112432  1.0
  Zr  Zr1322  1  0.66868055  0.77487577  0.24112432  1.0
  Zr  Zr1323  1  0.12106150  0.25106625  0.16969575  1.0
  Zr  Zr1324  1  0.12106150  0.58439958  0.16969575  1.0
  Zr  Zr1325  1  0.12106150  0.91773292  0.16969575  1.0
  Zr  Zr1326  1  0.45439483  0.25106625  0.16969575  1.0
  Zr  Zr1327  1  0.45439483  0.58439958  0.16969575  1.0
  Zr  Zr1328  1  0.45439483  0.91773292  0.16969575  1.0
  Zr  Zr1329  1  0.78772817  0.25106625  0.16969575  1.0
  Zr  Zr1330  1  0.78772817  0.58439958  0.16969575  1.0
  Zr  Zr1331  1  0.78772817  0.91773292  0.16969575  1.0
  Zr  Zr1332  1  0.27689988  0.03124777  0.17724632  1.0
  Zr  Zr1333  1  0.27689988  0.36458111  0.17724632  1.0
  Zr  Zr1334  1  0.27689988  0.69791444  0.17724632  1.0
  Zr  Zr1335  1  0.61023321  0.03124777  0.17724632  1.0
  Zr  Zr1336  1  0.61023321  0.36458111  0.17724632  1.0
  Zr  Zr1337  1  0.61023321  0.69791444  0.17724632  1.0
  Zr  Zr1338  1  0.94356655  0.03124777  0.17724632  1.0
  Zr  Zr1339  1  0.94356655  0.36458111  0.17724632  1.0
  Zr  Zr1340  1  0.94356655  0.69791444  0.17724632  1.0
  Zr  Zr1341  1  0.15785226  0.22172396  0.24867489  1.0
  Zr  Zr1342  1  0.15785226  0.55505730  0.24867489  1.0
  Zr  Zr1343  1  0.15785226  0.88839063  0.24867489  1.0
  Zr  Zr1344  1  0.49118560  0.22172396  0.24867489  1.0
  Zr  Zr1345  1  0.49118560  0.55505730  0.24867489  1.0
  Zr  Zr1346  1  0.49118560  0.88839063  0.24867489  1.0
  Zr  Zr1347  1  0.82451893  0.22172396  0.24867489  1.0
  Zr  Zr1348  1  0.82451893  0.55505730  0.24867489  1.0
  Zr  Zr1349  1  0.82451893  0.88839063  0.24867489  1.0
  Zr  Zr1350  1  0.28183105  0.00286944  0.27342882  1.0
  Zr  Zr1351  1  0.28183105  0.33620277  0.27342882  1.0
  Zr  Zr1352  1  0.28183105  0.66953611  0.27342882  1.0
  Zr  Zr1353  1  0.61516438  0.00286944  0.27342882  1.0
  Zr  Zr1354  1  0.61516438  0.33620277  0.27342882  1.0
  Zr  Zr1355  1  0.61516438  0.66953611  0.27342882  1.0
  Zr  Zr1356  1  0.94849771  0.00286944  0.27342882  1.0
  Zr  Zr1357  1  0.94849771  0.33620277  0.27342882  1.0
  Zr  Zr1358  1  0.94849771  0.66953611  0.27342882  1.0
  Zr  Zr1359  1  0.06754533  0.14572658  0.20200025  1.0
  Zr  Zr1360  1  0.06754533  0.47905992  0.20200025  1.0
  Zr  Zr1361  1  0.06754533  0.81239325  0.20200025  1.0
  Zr  Zr1362  1  0.40087867  0.14572658  0.20200025  1.0
  Zr  Zr1363  1  0.40087867  0.47905992  0.20200025  1.0
  Zr  Zr1364  1  0.40087867  0.81239325  0.20200025  1.0
  Zr  Zr1365  1  0.73421200  0.14572658  0.20200025  1.0
  Zr  Zr1366  1  0.73421200  0.47905992  0.20200025  1.0
  Zr  Zr1367  1  0.73421200  0.81239325  0.20200025  1.0
  Zr  Zr1368  1  0.33041605  0.13658744  0.14494182  1.0
  Zr  Zr1369  1  0.33041605  0.46992077  0.14494182  1.0
  Zr  Zr1370  1  0.33041605  0.80325411  0.14494182  1.0
  Zr  Zr1371  1  0.66374938  0.13658744  0.14494182  1.0
  Zr  Zr1372  1  0.66374938  0.46992077  0.14494182  1.0
  Zr  Zr1373  1  0.66374938  0.80325411  0.14494182  1.0
  Zr  Zr1374  1  0.99708271  0.13658744  0.14494182  1.0
  Zr  Zr1375  1  0.99708271  0.46992077  0.14494182  1.0
  Zr  Zr1376  1  0.99708271  0.80325411  0.14494182  1.0
  Zr  Zr1377  1  0.21136843  0.32706363  0.21637039  1.0
  Zr  Zr1378  1  0.21136843  0.66039696  0.21637039  1.0
  Zr  Zr1379  1  0.21136843  0.99373030  0.21637039  1.0
  Zr  Zr1380  1  0.54470176  0.32706363  0.21637039  1.0
  Zr  Zr1381  1  0.54470176  0.66039696  0.21637039  1.0
  Zr  Zr1382  1  0.54470176  0.99373030  0.21637039  1.0
  Zr  Zr1383  1  0.87803510  0.32706363  0.21637039  1.0
  Zr  Zr1384  1  0.87803510  0.66039696  0.21637039  1.0
  Zr  Zr1385  1  0.87803510  0.99373030  0.21637039  1.0
  Zr  Zr1386  1  0.24249748  0.12356449  0.26123696  1.0
  Zr  Zr1387  1  0.24249748  0.45689782  0.26123696  1.0
  Zr  Zr1388  1  0.24249748  0.79023115  0.26123696  1.0
  Zr  Zr1389  1  0.57583081  0.12356449  0.26123696  1.0
  Zr  Zr1390  1  0.57583081  0.45689782  0.26123696  1.0
  Zr  Zr1391  1  0.57583081  0.79023115  0.26123696  1.0
  Zr  Zr1392  1  0.90916414  0.12356449  0.26123696  1.0
  Zr  Zr1393  1  0.90916414  0.45689782  0.26123696  1.0
  Zr  Zr1394  1  0.90916414  0.79023115  0.26123696  1.0
  Zr  Zr1395  1  0.02821176  0.26642163  0.18980839  1.0
  Zr  Zr1396  1  0.02821176  0.59975496  0.18980839  1.0
  Zr  Zr1397  1  0.02821176  0.93308830  0.18980839  1.0
  Zr  Zr1398  1  0.36154510  0.26642163  0.18980839  1.0
  Zr  Zr1399  1  0.36154510  0.59975496  0.18980839  1.0
  Zr  Zr1400  1  0.36154510  0.93308830  0.18980839  1.0
  Zr  Zr1401  1  0.69487843  0.26642163  0.18980839  1.0
  Zr  Zr1402  1  0.69487843  0.59975496  0.18980839  1.0
  Zr  Zr1403  1  0.69487843  0.93308830  0.18980839  1.0
  Zr  Zr1404  1  0.03641629  0.01589239  0.15713368  1.0
  Zr  Zr1405  1  0.03641629  0.34922573  0.15713368  1.0
  Zr  Zr1406  1  0.03641629  0.68255906  0.15713368  1.0
  Zr  Zr1407  1  0.36974962  0.01589239  0.15713368  1.0
  Zr  Zr1408  1  0.36974962  0.34922573  0.15713368  1.0
  Zr  Zr1409  1  0.36974962  0.68255906  0.15713368  1.0
  Zr  Zr1410  1  0.70308295  0.01589239  0.15713368  1.0
  Zr  Zr1411  1  0.70308295  0.34922573  0.15713368  1.0
  Zr  Zr1412  1  0.70308295  0.68255906  0.15713368  1.0
  Zr  Zr1413  1  0.25070200  0.20636858  0.22856225  1.0
  Zr  Zr1414  1  0.25070200  0.53970192  0.22856225  1.0
  Zr  Zr1415  1  0.25070200  0.87303525  0.22856225  1.0
  Zr  Zr1416  1  0.58403533  0.20636858  0.22856225  1.0
  Zr  Zr1417  1  0.58403533  0.53970192  0.22856225  1.0
  Zr  Zr1418  1  0.58403533  0.87303525  0.22856225  1.0
  Zr  Zr1419  1  0.91736867  0.20636858  0.22856225  1.0
  Zr  Zr1420  1  0.91736867  0.53970192  0.22856225  1.0
  Zr  Zr1421  1  0.91736867  0.87303525  0.22856225  1.0
  Zr  Zr1422  1  0.14700421  0.02020411  0.41805232  1.0
  Zr  Zr1423  1  0.14700421  0.35353744  0.41805232  1.0
  Zr  Zr1424  1  0.14700421  0.68687077  0.41805232  1.0
  Zr  Zr1425  1  0.48033755  0.02020411  0.41805232  1.0
  Zr  Zr1426  1  0.48033755  0.35353744  0.41805232  1.0
  Zr  Zr1427  1  0.48033755  0.68687077  0.41805232  1.0
  Zr  Zr1428  1  0.81367088  0.02020411  0.41805232  1.0
  Zr  Zr1429  1  0.81367088  0.35353744  0.41805232  1.0
  Zr  Zr1430  1  0.81367088  0.68687077  0.41805232  1.0
  Zr  Zr1431  1  0.26605183  0.16306125  0.34662375  1.0
  Zr  Zr1432  1  0.26605183  0.49639458  0.34662375  1.0
  Zr  Zr1433  1  0.26605183  0.82972792  0.34662375  1.0
  Zr  Zr1434  1  0.59938517  0.16306125  0.34662375  1.0
  Zr  Zr1435  1  0.59938517  0.49639458  0.34662375  1.0
  Zr  Zr1436  1  0.59938517  0.82972792  0.34662375  1.0
  Zr  Zr1437  1  0.93271850  0.16306125  0.34662375  1.0
  Zr  Zr1438  1  0.93271850  0.49639458  0.34662375  1.0
  Zr  Zr1439  1  0.93271850  0.82972792  0.34662375  1.0
  Zr  Zr1440  1  0.32238574  0.21449087  0.28603261  1.0
  Zr  Zr1441  1  0.32238574  0.54782420  0.28603261  1.0
  Zr  Zr1442  1  0.32238574  0.88115754  0.28603261  1.0
  Zr  Zr1443  1  0.65571907  0.21449087  0.28603261  1.0
  Zr  Zr1444  1  0.65571907  0.54782420  0.28603261  1.0
  Zr  Zr1445  1  0.65571907  0.88115754  0.28603261  1.0
  Zr  Zr1446  1  0.98905240  0.21449087  0.28603261  1.0
  Zr  Zr1447  1  0.98905240  0.54782420  0.28603261  1.0
  Zr  Zr1448  1  0.98905240  0.88115754  0.28603261  1.0
  Zr  Zr1449  1  0.20333812  0.07163373  0.35746118  1.0
  Zr  Zr1450  1  0.20333812  0.40496706  0.35746118  1.0
  Zr  Zr1451  1  0.20333812  0.73830039  0.35746118  1.0
  Zr  Zr1452  1  0.53667145  0.07163373  0.35746118  1.0
  Zr  Zr1453  1  0.53667145  0.40496706  0.35746118  1.0
  Zr  Zr1454  1  0.53667145  0.73830039  0.35746118  1.0
  Zr  Zr1455  1  0.87000479  0.07163373  0.35746118  1.0
  Zr  Zr1456  1  0.87000479  0.40496706  0.35746118  1.0
  Zr  Zr1457  1  0.87000479  0.73830039  0.35746118  1.0
  Zr  Zr1458  1  0.09725198  0.15582815  0.38398146  1.0
  Zr  Zr1459  1  0.09725198  0.48916149  0.38398146  1.0
  Zr  Zr1460  1  0.09725198  0.82249482  0.38398146  1.0
  Zr  Zr1461  1  0.43058531  0.15582815  0.38398146  1.0
  Zr  Zr1462  1  0.43058531  0.48916149  0.38398146  1.0
  Zr  Zr1463  1  0.43058531  0.82249482  0.38398146  1.0
  Zr  Zr1464  1  0.76391864  0.15582815  0.38398146  1.0
  Zr  Zr1465  1  0.76391864  0.48916149  0.38398146  1.0
  Zr  Zr1466  1  0.76391864  0.82249482  0.38398146  1.0
  Zr  Zr1467  1  0.21629960  0.29868530  0.31255289  1.0
  Zr  Zr1468  1  0.21629960  0.63201863  0.31255289  1.0
  Zr  Zr1469  1  0.21629960  0.96535196  0.31255289  1.0
  Zr  Zr1470  1  0.54963293  0.29868530  0.31255289  1.0
  Zr  Zr1471  1  0.54963293  0.63201863  0.31255289  1.0
  Zr  Zr1472  1  0.54963293  0.96535196  0.31255289  1.0
  Zr  Zr1473  1  0.88296626  0.29868530  0.31255289  1.0
  Zr  Zr1474  1  0.88296626  0.63201863  0.31255289  1.0
  Zr  Zr1475  1  0.88296626  0.96535196  0.31255289  1.0
  Zr  Zr1476  1  0.03880464  0.07886682  0.32010346  1.0
  Zr  Zr1477  1  0.03880464  0.41220015  0.32010346  1.0
  Zr  Zr1478  1  0.03880464  0.74553349  0.32010346  1.0
  Zr  Zr1479  1  0.37213798  0.07886682  0.32010346  1.0
  Zr  Zr1480  1  0.37213798  0.41220015  0.32010346  1.0
  Zr  Zr1481  1  0.37213798  0.74553349  0.32010346  1.0
  Zr  Zr1482  1  0.70547131  0.07886682  0.32010346  1.0
  Zr  Zr1483  1  0.70547131  0.41220015  0.32010346  1.0
  Zr  Zr1484  1  0.70547131  0.74553349  0.32010346  1.0
  Zr  Zr1485  1  0.25309036  0.26934301  0.39153204  1.0
  Zr  Zr1486  1  0.25309036  0.60267635  0.39153204  1.0
  Zr  Zr1487  1  0.25309036  0.93600968  0.39153204  1.0
  Zr  Zr1488  1  0.58642369  0.26934301  0.39153204  1.0
  Zr  Zr1489  1  0.58642369  0.60267635  0.39153204  1.0
  Zr  Zr1490  1  0.58642369  0.93600968  0.39153204  1.0
  Zr  Zr1491  1  0.91975702  0.26934301  0.39153204  1.0
  Zr  Zr1492  1  0.91975702  0.60267635  0.39153204  1.0
  Zr  Zr1493  1  0.91975702  0.93600968  0.39153204  1.0
  Zr  Zr1494  1  0.04373581  0.05048849  0.41628596  1.0
  Zr  Zr1495  1  0.04373581  0.38382182  0.41628596  1.0
  Zr  Zr1496  1  0.04373581  0.71715515  0.41628596  1.0
  Zr  Zr1497  1  0.37706914  0.05048849  0.41628596  1.0
  Zr  Zr1498  1  0.37706914  0.38382182  0.41628596  1.0
  Zr  Zr1499  1  0.37706914  0.71715515  0.41628596  1.0
  Zr  Zr1500  1  0.71040248  0.05048849  0.41628596  1.0
  Zr  Zr1501  1  0.71040248  0.38382182  0.41628596  1.0
  Zr  Zr1502  1  0.71040248  0.71715515  0.41628596  1.0
  Zr  Zr1503  1  0.16278343  0.19334563  0.34485739  1.0
  Zr  Zr1504  1  0.16278343  0.52667896  0.34485739  1.0
  Zr  Zr1505  1  0.16278343  0.86001230  0.34485739  1.0
  Zr  Zr1506  1  0.49611676  0.19334563  0.34485739  1.0
  Zr  Zr1507  1  0.49611676  0.52667896  0.34485739  1.0
  Zr  Zr1508  1  0.49611676  0.86001230  0.34485739  1.0
  Zr  Zr1509  1  0.82945010  0.19334563  0.34485739  1.0
  Zr  Zr1510  1  0.82945010  0.52667896  0.34485739  1.0
  Zr  Zr1511  1  0.82945010  0.86001230  0.34485739  1.0
  Zr  Zr1512  1  0.09232081  0.18420649  0.28779896  1.0
  Zr  Zr1513  1  0.09232081  0.51753982  0.28779896  1.0
  Zr  Zr1514  1  0.09232081  0.85087315  0.28779896  1.0
  Zr  Zr1515  1  0.42565414  0.18420649  0.28779896  1.0
  Zr  Zr1516  1  0.42565414  0.51753982  0.28779896  1.0
  Zr  Zr1517  1  0.42565414  0.85087315  0.28779896  1.0
  Zr  Zr1518  1  0.75898748  0.18420649  0.28779896  1.0
  Zr  Zr1519  1  0.75898748  0.51753982  0.28779896  1.0
  Zr  Zr1520  1  0.75898748  0.85087315  0.28779896  1.0
  Zr  Zr1521  1  0.30660652  0.04134935  0.35922754  1.0
  Zr  Zr1522  1  0.30660652  0.37468268  0.35922754  1.0
  Zr  Zr1523  1  0.30660652  0.70801601  0.35922754  1.0
  Zr  Zr1524  1  0.63993986  0.04134935  0.35922754  1.0
  Zr  Zr1525  1  0.63993986  0.37468268  0.35922754  1.0
  Zr  Zr1526  1  0.63993986  0.70801601  0.35922754  1.0
  Zr  Zr1527  1  0.97327319  0.04134935  0.35922754  1.0
  Zr  Zr1528  1  0.97327319  0.37468268  0.35922754  1.0
  Zr  Zr1529  1  0.97327319  0.70801601  0.35922754  1.0
  Zr  Zr1530  1  0.00440224  0.17118354  0.40409411  1.0
  Zr  Zr1531  1  0.00440224  0.50451687  0.40409411  1.0
  Zr  Zr1532  1  0.00440224  0.83785020  0.40409411  1.0
  Zr  Zr1533  1  0.33773557  0.17118354  0.40409411  1.0
  Zr  Zr1534  1  0.33773557  0.50451687  0.40409411  1.0
  Zr  Zr1535  1  0.33773557  0.83785020  0.40409411  1.0
  Zr  Zr1536  1  0.67106890  0.17118354  0.40409411  1.0
  Zr  Zr1537  1  0.67106890  0.50451687  0.40409411  1.0
  Zr  Zr1538  1  0.67106890  0.83785020  0.40409411  1.0
  Zr  Zr1539  1  0.12344986  0.31404068  0.33266554  1.0
  Zr  Zr1540  1  0.12344986  0.64737401  0.33266554  1.0
  Zr  Zr1541  1  0.12344986  0.98070735  0.33266554  1.0
  Zr  Zr1542  1  0.45678319  0.31404068  0.33266554  1.0
  Zr  Zr1543  1  0.45678319  0.64737401  0.33266554  1.0
  Zr  Zr1544  1  0.45678319  0.98070735  0.33266554  1.0
  Zr  Zr1545  1  0.79011652  0.31404068  0.33266554  1.0
  Zr  Zr1546  1  0.79011652  0.64737401  0.33266554  1.0
  Zr  Zr1547  1  0.79011652  0.98070735  0.33266554  1.0
  Zr  Zr1548  1  0.13165438  0.06351144  0.29999082  1.0
  Zr  Zr1549  1  0.13165438  0.39684477  0.29999082  1.0
  Zr  Zr1550  1  0.13165438  0.73017811  0.29999082  1.0
  Zr  Zr1551  1  0.46498771  0.06351144  0.29999082  1.0
  Zr  Zr1552  1  0.46498771  0.39684477  0.29999082  1.0
  Zr  Zr1553  1  0.46498771  0.73017811  0.29999082  1.0
  Zr  Zr1554  1  0.79832105  0.06351144  0.29999082  1.0
  Zr  Zr1555  1  0.79832105  0.39684477  0.29999082  1.0
  Zr  Zr1556  1  0.79832105  0.73017811  0.29999082  1.0
  Zr  Zr1557  1  0.01260676  0.25398763  0.37141939  1.0
  Zr  Zr1558  1  0.01260676  0.58732096  0.37141939  1.0
  Zr  Zr1559  1  0.01260676  0.92065430  0.37141939  1.0
  Zr  Zr1560  1  0.34594010  0.25398763  0.37141939  1.0
  Zr  Zr1561  1  0.34594010  0.58732096  0.37141939  1.0
  Zr  Zr1562  1  0.34594010  0.92065430  0.37141939  1.0
  Zr  Zr1563  1  0.67927343  0.25398763  0.37141939  1.0
  Zr  Zr1564  1  0.67927343  0.58732096  0.37141939  1.0
  Zr  Zr1565  1  0.67927343  0.92065430  0.37141939  1.0
