# generated using pymatgen
data_Zr8Ni21
_symmetry_space_group_name_H-M   'P 1'
_cell_length_a   40.13238558
_cell_length_b   53.88164431
_cell_length_c   56.57389108
_cell_angle_alpha   72.38495042
_cell_angle_beta   111.08873965
_cell_angle_gamma   46.98612432
_symmetry_Int_Tables_number   1
_chemical_formula_structural   Zr8Ni21
_chemical_formula_sum   'Zr432 Ni1134'
_cell_volume   49697.66995562
_cell_formula_units_Z   54
loop_
 _symmetry_equiv_pos_site_id
 _symmetry_equiv_pos_as_xyz
  1  'x, y, z'
loop_
 _atom_site_type_symbol
 _atom_site_label
 _atom_site_symmetry_multiplicity
 _atom_site_fract_x
 _atom_site_fract_y
 _atom_site_fract_z
 _atom_site_occupancy
  Zr  Zr0  1  0.01200683  0.08248933  0.00730329  1.0
  Zr  Zr1  1  0.01200683  0.41582267  0.00730329  1.0
  Zr  Zr2  1  0.01200683  0.74915600  0.00730329  1.0
  Zr  Zr3  1  0.34534017  0.08248933  0.00730329  1.0
  Zr  Zr4  1  0.34534017  0.41582267  0.00730329  1.0
  Zr  Zr5  1  0.34534017  0.74915600  0.00730329  1.0
  Zr  Zr6  1  0.67867350  0.08248933  0.00730329  1.0
  Zr  Zr7  1  0.67867350  0.41582267  0.00730329  1.0
  Zr  Zr8  1  0.67867350  0.74915600  0.00730329  1.0
  Zr  Zr9  1  0.17867350  0.08248933  0.07873186  1.0
  Zr  Zr10  1  0.17867350  0.41582267  0.07873186  1.0
  Zr  Zr11  1  0.17867350  0.74915600  0.07873186  1.0
  Zr  Zr12  1  0.51200683  0.08248933  0.07873186  1.0
  Zr  Zr13  1  0.51200683  0.41582267  0.07873186  1.0
  Zr  Zr14  1  0.51200683  0.74915600  0.07873186  1.0
  Zr  Zr15  1  0.84534017  0.08248933  0.07873186  1.0
  Zr  Zr16  1  0.84534017  0.41582267  0.07873186  1.0
  Zr  Zr17  1  0.84534017  0.74915600  0.07873186  1.0
  Zr  Zr18  1  0.15465983  0.25084400  0.05768257  1.0
  Zr  Zr19  1  0.15465983  0.58417733  0.05768257  1.0
  Zr  Zr20  1  0.15465983  0.91751067  0.05768257  1.0
  Zr  Zr21  1  0.48799317  0.25084400  0.05768257  1.0
  Zr  Zr22  1  0.48799317  0.58417733  0.05768257  1.0
  Zr  Zr23  1  0.48799317  0.91751067  0.05768257  1.0
  Zr  Zr24  1  0.82132650  0.25084400  0.05768257  1.0
  Zr  Zr25  1  0.82132650  0.58417733  0.05768257  1.0
  Zr  Zr26  1  0.82132650  0.91751067  0.05768257  1.0
  Zr  Zr27  1  0.32132650  0.25084400  0.12911114  1.0
  Zr  Zr28  1  0.32132650  0.58417733  0.12911114  1.0
  Zr  Zr29  1  0.32132650  0.91751067  0.12911114  1.0
  Zr  Zr30  1  0.65465983  0.25084400  0.12911114  1.0
  Zr  Zr31  1  0.65465983  0.58417733  0.12911114  1.0
  Zr  Zr32  1  0.65465983  0.91751067  0.12911114  1.0
  Zr  Zr33  1  0.98799317  0.25084400  0.12911114  1.0
  Zr  Zr34  1  0.98799317  0.58417733  0.12911114  1.0
  Zr  Zr35  1  0.98799317  0.91751067  0.12911114  1.0
  Zr  Zr36  1  0.17212900  0.20243200  0.00764964  1.0
  Zr  Zr37  1  0.17212900  0.53576533  0.00764964  1.0
  Zr  Zr38  1  0.17212900  0.86909867  0.00764964  1.0
  Zr  Zr39  1  0.50546233  0.20243200  0.00764964  1.0
  Zr  Zr40  1  0.50546233  0.53576533  0.00764964  1.0
  Zr  Zr41  1  0.50546233  0.86909867  0.00764964  1.0
  Zr  Zr42  1  0.83879567  0.20243200  0.00764964  1.0
  Zr  Zr43  1  0.83879567  0.53576533  0.00764964  1.0
  Zr  Zr44  1  0.83879567  0.86909867  0.00764964  1.0
  Zr  Zr45  1  0.00546233  0.20243200  0.07907821  1.0
  Zr  Zr46  1  0.00546233  0.53576533  0.07907821  1.0
  Zr  Zr47  1  0.00546233  0.86909867  0.07907821  1.0
  Zr  Zr48  1  0.33879567  0.20243200  0.07907821  1.0
  Zr  Zr49  1  0.33879567  0.53576533  0.07907821  1.0
  Zr  Zr50  1  0.33879567  0.86909867  0.07907821  1.0
  Zr  Zr51  1  0.67212900  0.20243200  0.07907821  1.0
  Zr  Zr52  1  0.67212900  0.53576533  0.07907821  1.0
  Zr  Zr53  1  0.67212900  0.86909867  0.07907821  1.0
  Zr  Zr54  1  0.32787100  0.13090133  0.05733621  1.0
  Zr  Zr55  1  0.32787100  0.46423467  0.05733621  1.0
  Zr  Zr56  1  0.32787100  0.79756800  0.05733621  1.0
  Zr  Zr57  1  0.66120433  0.13090133  0.05733621  1.0
  Zr  Zr58  1  0.66120433  0.46423467  0.05733621  1.0
  Zr  Zr59  1  0.66120433  0.79756800  0.05733621  1.0
  Zr  Zr60  1  0.99453767  0.13090133  0.05733621  1.0
  Zr  Zr61  1  0.99453767  0.46423467  0.05733621  1.0
  Zr  Zr62  1  0.99453767  0.79756800  0.05733621  1.0
  Zr  Zr63  1  0.16120433  0.13090133  0.12876479  1.0
  Zr  Zr64  1  0.16120433  0.46423467  0.12876479  1.0
  Zr  Zr65  1  0.16120433  0.79756800  0.12876479  1.0
  Zr  Zr66  1  0.49453767  0.13090133  0.12876479  1.0
  Zr  Zr67  1  0.49453767  0.46423467  0.12876479  1.0
  Zr  Zr68  1  0.49453767  0.79756800  0.12876479  1.0
  Zr  Zr69  1  0.82787100  0.13090133  0.12876479  1.0
  Zr  Zr70  1  0.82787100  0.46423467  0.12876479  1.0
  Zr  Zr71  1  0.82787100  0.79756800  0.12876479  1.0
  Zr  Zr72  1  0.03011833  0.01127167  0.07204993  1.0
  Zr  Zr73  1  0.03011833  0.34460500  0.07204993  1.0
  Zr  Zr74  1  0.03011833  0.67793833  0.07204993  1.0
  Zr  Zr75  1  0.36345167  0.01127167  0.07204993  1.0
  Zr  Zr76  1  0.36345167  0.34460500  0.07204993  1.0
  Zr  Zr77  1  0.36345167  0.67793833  0.07204993  1.0
  Zr  Zr78  1  0.69678500  0.01127167  0.07204993  1.0
  Zr  Zr79  1  0.69678500  0.34460500  0.07204993  1.0
  Zr  Zr80  1  0.69678500  0.67793833  0.07204993  1.0
  Zr  Zr81  1  0.19678500  0.01127167  0.00062136  1.0
  Zr  Zr82  1  0.19678500  0.34460500  0.00062136  1.0
  Zr  Zr83  1  0.19678500  0.67793833  0.00062136  1.0
  Zr  Zr84  1  0.53011833  0.01127167  0.00062136  1.0
  Zr  Zr85  1  0.53011833  0.34460500  0.00062136  1.0
  Zr  Zr86  1  0.53011833  0.67793833  0.00062136  1.0
  Zr  Zr87  1  0.86345167  0.01127167  0.00062136  1.0
  Zr  Zr88  1  0.86345167  0.34460500  0.00062136  1.0
  Zr  Zr89  1  0.86345167  0.67793833  0.00062136  1.0
  Zr  Zr90  1  0.13654833  0.32206167  0.13579307  1.0
  Zr  Zr91  1  0.13654833  0.65539500  0.13579307  1.0
  Zr  Zr92  1  0.13654833  0.98872833  0.13579307  1.0
  Zr  Zr93  1  0.46988167  0.32206167  0.13579307  1.0
  Zr  Zr94  1  0.46988167  0.65539500  0.13579307  1.0
  Zr  Zr95  1  0.46988167  0.98872833  0.13579307  1.0
  Zr  Zr96  1  0.80321500  0.32206167  0.13579307  1.0
  Zr  Zr97  1  0.80321500  0.65539500  0.13579307  1.0
  Zr  Zr98  1  0.80321500  0.98872833  0.13579307  1.0
  Zr  Zr99  1  0.30321500  0.32206167  0.06436450  1.0
  Zr  Zr100  1  0.30321500  0.65539500  0.06436450  1.0
  Zr  Zr101  1  0.30321500  0.98872833  0.06436450  1.0
  Zr  Zr102  1  0.63654833  0.32206167  0.06436450  1.0
  Zr  Zr103  1  0.63654833  0.65539500  0.06436450  1.0
  Zr  Zr104  1  0.63654833  0.98872833  0.06436450  1.0
  Zr  Zr105  1  0.96988167  0.32206167  0.06436450  1.0
  Zr  Zr106  1  0.96988167  0.65539500  0.06436450  1.0
  Zr  Zr107  1  0.96988167  0.98872833  0.06436450  1.0
  Zr  Zr108  1  0.24007167  0.10482500  0.08601479  1.0
  Zr  Zr109  1  0.24007167  0.43815833  0.08601479  1.0
  Zr  Zr110  1  0.24007167  0.77149167  0.08601479  1.0
  Zr  Zr111  1  0.57340500  0.10482500  0.08601479  1.0
  Zr  Zr112  1  0.57340500  0.43815833  0.08601479  1.0
  Zr  Zr113  1  0.57340500  0.77149167  0.08601479  1.0
  Zr  Zr114  1  0.90673833  0.10482500  0.08601479  1.0
  Zr  Zr115  1  0.90673833  0.43815833  0.08601479  1.0
  Zr  Zr116  1  0.90673833  0.77149167  0.08601479  1.0
  Zr  Zr117  1  0.07340500  0.10482500  0.01458621  1.0
  Zr  Zr118  1  0.07340500  0.43815833  0.01458621  1.0
  Zr  Zr119  1  0.07340500  0.77149167  0.01458621  1.0
  Zr  Zr120  1  0.40673833  0.10482500  0.01458621  1.0
  Zr  Zr121  1  0.40673833  0.43815833  0.01458621  1.0
  Zr  Zr122  1  0.40673833  0.77149167  0.01458621  1.0
  Zr  Zr123  1  0.74007167  0.10482500  0.01458621  1.0
  Zr  Zr124  1  0.74007167  0.43815833  0.01458621  1.0
  Zr  Zr125  1  0.74007167  0.77149167  0.01458621  1.0
  Zr  Zr126  1  0.25992833  0.22850833  0.12182821  1.0
  Zr  Zr127  1  0.25992833  0.56184167  0.12182821  1.0
  Zr  Zr128  1  0.25992833  0.89517500  0.12182821  1.0
  Zr  Zr129  1  0.59326167  0.22850833  0.12182821  1.0
  Zr  Zr130  1  0.59326167  0.56184167  0.12182821  1.0
  Zr  Zr131  1  0.59326167  0.89517500  0.12182821  1.0
  Zr  Zr132  1  0.92659500  0.22850833  0.12182821  1.0
  Zr  Zr133  1  0.92659500  0.56184167  0.12182821  1.0
  Zr  Zr134  1  0.92659500  0.89517500  0.12182821  1.0
  Zr  Zr135  1  0.09326167  0.22850833  0.05039964  1.0
  Zr  Zr136  1  0.09326167  0.56184167  0.05039964  1.0
  Zr  Zr137  1  0.09326167  0.89517500  0.05039964  1.0
  Zr  Zr138  1  0.42659500  0.22850833  0.05039964  1.0
  Zr  Zr139  1  0.42659500  0.56184167  0.05039964  1.0
  Zr  Zr140  1  0.42659500  0.89517500  0.05039964  1.0
  Zr  Zr141  1  0.75992833  0.22850833  0.05039964  1.0
  Zr  Zr142  1  0.75992833  0.56184167  0.05039964  1.0
  Zr  Zr143  1  0.75992833  0.89517500  0.05039964  1.0
  Ni  Ni144  1  0.16666667  0.00000000  0.06820721  1.0
  Ni  Ni145  1  0.16666667  0.33333333  0.06820721  1.0
  Ni  Ni146  1  0.16666667  0.66666667  0.06820721  1.0
  Ni  Ni147  1  0.50000000  0.00000000  0.06820721  1.0
  Ni  Ni148  1  0.50000000  0.33333333  0.06820721  1.0
  Ni  Ni149  1  0.50000000  0.66666667  0.06820721  1.0
  Ni  Ni150  1  0.83333333  0.00000000  0.06820721  1.0
  Ni  Ni151  1  0.83333333  0.33333333  0.06820721  1.0
  Ni  Ni152  1  0.83333333  0.66666667  0.06820721  1.0
  Ni  Ni153  1  0.00000000  0.00000000  0.13963579  1.0
  Ni  Ni154  1  0.00000000  0.33333333  0.13963579  1.0
  Ni  Ni155  1  0.00000000  0.66666667  0.13963579  1.0
  Ni  Ni156  1  0.33333333  0.00000000  0.13963579  1.0
  Ni  Ni157  1  0.33333333  0.33333333  0.13963579  1.0
  Ni  Ni158  1  0.33333333  0.66666667  0.13963579  1.0
  Ni  Ni159  1  0.66666667  0.00000000  0.13963579  1.0
  Ni  Ni160  1  0.66666667  0.33333333  0.13963579  1.0
  Ni  Ni161  1  0.66666667  0.66666667  0.13963579  1.0
  Ni  Ni162  1  0.09950217  0.05082867  0.07379043  1.0
  Ni  Ni163  1  0.09950217  0.38416200  0.07379043  1.0
  Ni  Ni164  1  0.09950217  0.71749533  0.07379043  1.0
  Ni  Ni165  1  0.43283550  0.05082867  0.07379043  1.0
  Ni  Ni166  1  0.43283550  0.38416200  0.07379043  1.0
  Ni  Ni167  1  0.43283550  0.71749533  0.07379043  1.0
  Ni  Ni168  1  0.76616883  0.05082867  0.07379043  1.0
  Ni  Ni169  1  0.76616883  0.38416200  0.07379043  1.0
  Ni  Ni170  1  0.76616883  0.71749533  0.07379043  1.0
  Ni  Ni171  1  0.26616883  0.05082867  0.00236186  1.0
  Ni  Ni172  1  0.26616883  0.38416200  0.00236186  1.0
  Ni  Ni173  1  0.26616883  0.71749533  0.00236186  1.0
  Ni  Ni174  1  0.59950217  0.05082867  0.00236186  1.0
  Ni  Ni175  1  0.59950217  0.38416200  0.00236186  1.0
  Ni  Ni176  1  0.59950217  0.71749533  0.00236186  1.0
  Ni  Ni177  1  0.93283550  0.05082867  0.00236186  1.0
  Ni  Ni178  1  0.93283550  0.38416200  0.00236186  1.0
  Ni  Ni179  1  0.93283550  0.71749533  0.00236186  1.0
  Ni  Ni180  1  0.06716450  0.28250467  0.13405257  1.0
  Ni  Ni181  1  0.06716450  0.61583800  0.13405257  1.0
  Ni  Ni182  1  0.06716450  0.94917133  0.13405257  1.0
  Ni  Ni183  1  0.40049783  0.28250467  0.13405257  1.0
  Ni  Ni184  1  0.40049783  0.61583800  0.13405257  1.0
  Ni  Ni185  1  0.40049783  0.94917133  0.13405257  1.0
  Ni  Ni186  1  0.73383117  0.28250467  0.13405257  1.0
  Ni  Ni187  1  0.73383117  0.61583800  0.13405257  1.0
  Ni  Ni188  1  0.73383117  0.94917133  0.13405257  1.0
  Ni  Ni189  1  0.23383117  0.28250467  0.06262400  1.0
  Ni  Ni190  1  0.23383117  0.61583800  0.06262400  1.0
  Ni  Ni191  1  0.23383117  0.94917133  0.06262400  1.0
  Ni  Ni192  1  0.56716450  0.28250467  0.06262400  1.0
  Ni  Ni193  1  0.56716450  0.61583800  0.06262400  1.0
  Ni  Ni194  1  0.56716450  0.94917133  0.06262400  1.0
  Ni  Ni195  1  0.90049783  0.28250467  0.06262400  1.0
  Ni  Ni196  1  0.90049783  0.61583800  0.06262400  1.0
  Ni  Ni197  1  0.90049783  0.94917133  0.06262400  1.0
  Ni  Ni198  1  0.29547950  0.15674067  0.13979029  1.0
  Ni  Ni199  1  0.29547950  0.49007400  0.13979029  1.0
  Ni  Ni200  1  0.29547950  0.82340733  0.13979029  1.0
  Ni  Ni201  1  0.62881283  0.15674067  0.13979029  1.0
  Ni  Ni202  1  0.62881283  0.49007400  0.13979029  1.0
  Ni  Ni203  1  0.62881283  0.82340733  0.13979029  1.0
  Ni  Ni204  1  0.96214617  0.15674067  0.13979029  1.0
  Ni  Ni205  1  0.96214617  0.49007400  0.13979029  1.0
  Ni  Ni206  1  0.96214617  0.82340733  0.13979029  1.0
  Ni  Ni207  1  0.12881283  0.15674067  0.06836171  1.0
  Ni  Ni208  1  0.12881283  0.49007400  0.06836171  1.0
  Ni  Ni209  1  0.12881283  0.82340733  0.06836171  1.0
  Ni  Ni210  1  0.46214617  0.15674067  0.06836171  1.0
  Ni  Ni211  1  0.46214617  0.49007400  0.06836171  1.0
  Ni  Ni212  1  0.46214617  0.82340733  0.06836171  1.0
  Ni  Ni213  1  0.79547950  0.15674067  0.06836171  1.0
  Ni  Ni214  1  0.79547950  0.49007400  0.06836171  1.0
  Ni  Ni215  1  0.79547950  0.82340733  0.06836171  1.0
  Ni  Ni216  1  0.20452050  0.17659267  0.06805271  1.0
  Ni  Ni217  1  0.20452050  0.50992600  0.06805271  1.0
  Ni  Ni218  1  0.20452050  0.84325933  0.06805271  1.0
  Ni  Ni219  1  0.53785383  0.17659267  0.06805271  1.0
  Ni  Ni220  1  0.53785383  0.50992600  0.06805271  1.0
  Ni  Ni221  1  0.53785383  0.84325933  0.06805271  1.0
  Ni  Ni222  1  0.87118717  0.17659267  0.06805271  1.0
  Ni  Ni223  1  0.87118717  0.50992600  0.06805271  1.0
  Ni  Ni224  1  0.87118717  0.84325933  0.06805271  1.0
  Ni  Ni225  1  0.03785383  0.17659267  0.13948129  1.0
  Ni  Ni226  1  0.03785383  0.50992600  0.13948129  1.0
  Ni  Ni227  1  0.03785383  0.84325933  0.13948129  1.0
  Ni  Ni228  1  0.37118717  0.17659267  0.13948129  1.0
  Ni  Ni229  1  0.37118717  0.50992600  0.13948129  1.0
  Ni  Ni230  1  0.37118717  0.84325933  0.13948129  1.0
  Ni  Ni231  1  0.70452050  0.17659267  0.13948129  1.0
  Ni  Ni232  1  0.70452050  0.50992600  0.13948129  1.0
  Ni  Ni233  1  0.70452050  0.84325933  0.13948129  1.0
  Ni  Ni234  1  0.33267750  0.08144233  0.05116786  1.0
  Ni  Ni235  1  0.33267750  0.41477567  0.05116786  1.0
  Ni  Ni236  1  0.33267750  0.74810900  0.05116786  1.0
  Ni  Ni237  1  0.66601083  0.08144233  0.05116786  1.0
  Ni  Ni238  1  0.66601083  0.41477567  0.05116786  1.0
  Ni  Ni239  1  0.66601083  0.74810900  0.05116786  1.0
  Ni  Ni240  1  0.99934417  0.08144233  0.05116786  1.0
  Ni  Ni241  1  0.99934417  0.41477567  0.05116786  1.0
  Ni  Ni242  1  0.99934417  0.74810900  0.05116786  1.0
  Ni  Ni243  1  0.16601083  0.08144233  0.12259643  1.0
  Ni  Ni244  1  0.16601083  0.41477567  0.12259643  1.0
  Ni  Ni245  1  0.16601083  0.74810900  0.12259643  1.0
  Ni  Ni246  1  0.49934417  0.08144233  0.12259643  1.0
  Ni  Ni247  1  0.49934417  0.41477567  0.12259643  1.0
  Ni  Ni248  1  0.49934417  0.74810900  0.12259643  1.0
  Ni  Ni249  1  0.83267750  0.08144233  0.12259643  1.0
  Ni  Ni250  1  0.83267750  0.41477567  0.12259643  1.0
  Ni  Ni251  1  0.83267750  0.74810900  0.12259643  1.0
  Ni  Ni252  1  0.16732250  0.25189100  0.01381800  1.0
  Ni  Ni253  1  0.16732250  0.58522433  0.01381800  1.0
  Ni  Ni254  1  0.16732250  0.91855767  0.01381800  1.0
  Ni  Ni255  1  0.50065583  0.25189100  0.01381800  1.0
  Ni  Ni256  1  0.50065583  0.58522433  0.01381800  1.0
  Ni  Ni257  1  0.50065583  0.91855767  0.01381800  1.0
  Ni  Ni258  1  0.83398917  0.25189100  0.01381800  1.0
  Ni  Ni259  1  0.83398917  0.58522433  0.01381800  1.0
  Ni  Ni260  1  0.83398917  0.91855767  0.01381800  1.0
  Ni  Ni261  1  0.00065583  0.25189100  0.08524657  1.0
  Ni  Ni262  1  0.00065583  0.58522433  0.08524657  1.0
  Ni  Ni263  1  0.00065583  0.91855767  0.08524657  1.0
  Ni  Ni264  1  0.33398917  0.25189100  0.08524657  1.0
  Ni  Ni265  1  0.33398917  0.58522433  0.08524657  1.0
  Ni  Ni266  1  0.33398917  0.91855767  0.08524657  1.0
  Ni  Ni267  1  0.66732250  0.25189100  0.08524657  1.0
  Ni  Ni268  1  0.66732250  0.58522433  0.08524657  1.0
  Ni  Ni269  1  0.66732250  0.91855767  0.08524657  1.0
  Ni  Ni270  1  0.32269467  0.09142533  0.09333421  1.0
  Ni  Ni271  1  0.32269467  0.42475867  0.09333421  1.0
  Ni  Ni272  1  0.32269467  0.75809200  0.09333421  1.0
  Ni  Ni273  1  0.65602800  0.09142533  0.09333421  1.0
  Ni  Ni274  1  0.65602800  0.42475867  0.09333421  1.0
  Ni  Ni275  1  0.65602800  0.75809200  0.09333421  1.0
  Ni  Ni276  1  0.98936133  0.09142533  0.09333421  1.0
  Ni  Ni277  1  0.98936133  0.42475867  0.09333421  1.0
  Ni  Ni278  1  0.98936133  0.75809200  0.09333421  1.0
  Ni  Ni279  1  0.15602800  0.09142533  0.02190564  1.0
  Ni  Ni280  1  0.15602800  0.42475867  0.02190564  1.0
  Ni  Ni281  1  0.15602800  0.75809200  0.02190564  1.0
  Ni  Ni282  1  0.48936133  0.09142533  0.02190564  1.0
  Ni  Ni283  1  0.48936133  0.42475867  0.02190564  1.0
  Ni  Ni284  1  0.48936133  0.75809200  0.02190564  1.0
  Ni  Ni285  1  0.82269467  0.09142533  0.02190564  1.0
  Ni  Ni286  1  0.82269467  0.42475867  0.02190564  1.0
  Ni  Ni287  1  0.82269467  0.75809200  0.02190564  1.0
  Ni  Ni288  1  0.09874067  0.05138667  0.14198707  1.0
  Ni  Ni289  1  0.09874067  0.38472000  0.14198707  1.0
  Ni  Ni290  1  0.09874067  0.71805333  0.14198707  1.0
  Ni  Ni291  1  0.43207400  0.05138667  0.14198707  1.0
  Ni  Ni292  1  0.43207400  0.38472000  0.14198707  1.0
  Ni  Ni293  1  0.43207400  0.71805333  0.14198707  1.0
  Ni  Ni294  1  0.76540733  0.05138667  0.14198707  1.0
  Ni  Ni295  1  0.76540733  0.38472000  0.14198707  1.0
  Ni  Ni296  1  0.76540733  0.71805333  0.14198707  1.0
  Ni  Ni297  1  0.26540733  0.05138667  0.07055850  1.0
  Ni  Ni298  1  0.26540733  0.38472000  0.07055850  1.0
  Ni  Ni299  1  0.26540733  0.71805333  0.07055850  1.0
  Ni  Ni300  1  0.59874067  0.05138667  0.07055850  1.0
  Ni  Ni301  1  0.59874067  0.38472000  0.07055850  1.0
  Ni  Ni302  1  0.59874067  0.71805333  0.07055850  1.0
  Ni  Ni303  1  0.93207400  0.05138667  0.07055850  1.0
  Ni  Ni304  1  0.93207400  0.38472000  0.07055850  1.0
  Ni  Ni305  1  0.93207400  0.71805333  0.07055850  1.0
  Ni  Ni306  1  0.06792600  0.28194667  0.06585593  1.0
  Ni  Ni307  1  0.06792600  0.61528000  0.06585593  1.0
  Ni  Ni308  1  0.06792600  0.94861333  0.06585593  1.0
  Ni  Ni309  1  0.40125933  0.28194667  0.06585593  1.0
  Ni  Ni310  1  0.40125933  0.61528000  0.06585593  1.0
  Ni  Ni311  1  0.40125933  0.94861333  0.06585593  1.0
  Ni  Ni312  1  0.73459267  0.28194667  0.06585593  1.0
  Ni  Ni313  1  0.73459267  0.61528000  0.06585593  1.0
  Ni  Ni314  1  0.73459267  0.94861333  0.06585593  1.0
  Ni  Ni315  1  0.23459267  0.28194667  0.13728450  1.0
  Ni  Ni316  1  0.23459267  0.61528000  0.13728450  1.0
  Ni  Ni317  1  0.23459267  0.94861333  0.13728450  1.0
  Ni  Ni318  1  0.56792600  0.28194667  0.13728450  1.0
  Ni  Ni319  1  0.56792600  0.61528000  0.13728450  1.0
  Ni  Ni320  1  0.56792600  0.94861333  0.13728450  1.0
  Ni  Ni321  1  0.90125933  0.28194667  0.13728450  1.0
  Ni  Ni322  1  0.90125933  0.61528000  0.13728450  1.0
  Ni  Ni323  1  0.90125933  0.94861333  0.13728450  1.0
  Ni  Ni324  1  0.26299300  0.21715133  0.03017893  1.0
  Ni  Ni325  1  0.26299300  0.55048467  0.03017893  1.0
  Ni  Ni326  1  0.26299300  0.88381800  0.03017893  1.0
  Ni  Ni327  1  0.59632633  0.21715133  0.03017893  1.0
  Ni  Ni328  1  0.59632633  0.55048467  0.03017893  1.0
  Ni  Ni329  1  0.59632633  0.88381800  0.03017893  1.0
  Ni  Ni330  1  0.92965967  0.21715133  0.03017893  1.0
  Ni  Ni331  1  0.92965967  0.55048467  0.03017893  1.0
  Ni  Ni332  1  0.92965967  0.88381800  0.03017893  1.0
  Ni  Ni333  1  0.09632633  0.21715133  0.10160750  1.0
  Ni  Ni334  1  0.09632633  0.55048467  0.10160750  1.0
  Ni  Ni335  1  0.09632633  0.88381800  0.10160750  1.0
  Ni  Ni336  1  0.42965967  0.21715133  0.10160750  1.0
  Ni  Ni337  1  0.42965967  0.55048467  0.10160750  1.0
  Ni  Ni338  1  0.42965967  0.88381800  0.10160750  1.0
  Ni  Ni339  1  0.76299300  0.21715133  0.10160750  1.0
  Ni  Ni340  1  0.76299300  0.55048467  0.10160750  1.0
  Ni  Ni341  1  0.76299300  0.88381800  0.10160750  1.0
  Ni  Ni342  1  0.23700700  0.11618200  0.03480693  1.0
  Ni  Ni343  1  0.23700700  0.44951533  0.03480693  1.0
  Ni  Ni344  1  0.23700700  0.78284867  0.03480693  1.0
  Ni  Ni345  1  0.57034033  0.11618200  0.03480693  1.0
  Ni  Ni346  1  0.57034033  0.44951533  0.03480693  1.0
  Ni  Ni347  1  0.57034033  0.78284867  0.03480693  1.0
  Ni  Ni348  1  0.90367367  0.11618200  0.03480693  1.0
  Ni  Ni349  1  0.90367367  0.44951533  0.03480693  1.0
  Ni  Ni350  1  0.90367367  0.78284867  0.03480693  1.0
  Ni  Ni351  1  0.07034033  0.11618200  0.10623550  1.0
  Ni  Ni352  1  0.07034033  0.44951533  0.10623550  1.0
  Ni  Ni353  1  0.07034033  0.78284867  0.10623550  1.0
  Ni  Ni354  1  0.40367367  0.11618200  0.10623550  1.0
  Ni  Ni355  1  0.40367367  0.44951533  0.10623550  1.0
  Ni  Ni356  1  0.40367367  0.78284867  0.10623550  1.0
  Ni  Ni357  1  0.73700700  0.11618200  0.10623550  1.0
  Ni  Ni358  1  0.73700700  0.44951533  0.10623550  1.0
  Ni  Ni359  1  0.73700700  0.78284867  0.10623550  1.0
  Ni  Ni360  1  0.25809700  0.21919533  0.07700121  1.0
  Ni  Ni361  1  0.25809700  0.55252867  0.07700121  1.0
  Ni  Ni362  1  0.25809700  0.88586200  0.07700121  1.0
  Ni  Ni363  1  0.59143033  0.21919533  0.07700121  1.0
  Ni  Ni364  1  0.59143033  0.55252867  0.07700121  1.0
  Ni  Ni365  1  0.59143033  0.88586200  0.07700121  1.0
  Ni  Ni366  1  0.92476367  0.21919533  0.07700121  1.0
  Ni  Ni367  1  0.92476367  0.55252867  0.07700121  1.0
  Ni  Ni368  1  0.92476367  0.88586200  0.07700121  1.0
  Ni  Ni369  1  0.09143033  0.21919533  0.00557264  1.0
  Ni  Ni370  1  0.09143033  0.55252867  0.00557264  1.0
  Ni  Ni371  1  0.09143033  0.88586200  0.00557264  1.0
  Ni  Ni372  1  0.42476367  0.21919533  0.00557264  1.0
  Ni  Ni373  1  0.42476367  0.55252867  0.00557264  1.0
  Ni  Ni374  1  0.42476367  0.88586200  0.00557264  1.0
  Ni  Ni375  1  0.75809700  0.21919533  0.00557264  1.0
  Ni  Ni376  1  0.75809700  0.55252867  0.00557264  1.0
  Ni  Ni377  1  0.75809700  0.88586200  0.00557264  1.0
  Ni  Ni378  1  0.24190300  0.11413800  0.13084179  1.0
  Ni  Ni379  1  0.24190300  0.44747133  0.13084179  1.0
  Ni  Ni380  1  0.24190300  0.78080467  0.13084179  1.0
  Ni  Ni381  1  0.57523633  0.11413800  0.13084179  1.0
  Ni  Ni382  1  0.57523633  0.44747133  0.13084179  1.0
  Ni  Ni383  1  0.57523633  0.78080467  0.13084179  1.0
  Ni  Ni384  1  0.90856967  0.11413800  0.13084179  1.0
  Ni  Ni385  1  0.90856967  0.44747133  0.13084179  1.0
  Ni  Ni386  1  0.90856967  0.78080467  0.13084179  1.0
  Ni  Ni387  1  0.07523633  0.11413800  0.05941321  1.0
  Ni  Ni388  1  0.07523633  0.44747133  0.05941321  1.0
  Ni  Ni389  1  0.07523633  0.78080467  0.05941321  1.0
  Ni  Ni390  1  0.40856967  0.11413800  0.05941321  1.0
  Ni  Ni391  1  0.40856967  0.44747133  0.05941321  1.0
  Ni  Ni392  1  0.40856967  0.78080467  0.05941321  1.0
  Ni  Ni393  1  0.74190300  0.11413800  0.05941321  1.0
  Ni  Ni394  1  0.74190300  0.44747133  0.05941321  1.0
  Ni  Ni395  1  0.74190300  0.78080467  0.05941321  1.0
  Ni  Ni396  1  0.29657550  0.15285933  0.08883886  1.0
  Ni  Ni397  1  0.29657550  0.48619267  0.08883886  1.0
  Ni  Ni398  1  0.29657550  0.81952600  0.08883886  1.0
  Ni  Ni399  1  0.62990883  0.15285933  0.08883886  1.0
  Ni  Ni400  1  0.62990883  0.48619267  0.08883886  1.0
  Ni  Ni401  1  0.62990883  0.81952600  0.08883886  1.0
  Ni  Ni402  1  0.96324217  0.15285933  0.08883886  1.0
  Ni  Ni403  1  0.96324217  0.48619267  0.08883886  1.0
  Ni  Ni404  1  0.96324217  0.81952600  0.08883886  1.0
  Ni  Ni405  1  0.12990883  0.15285933  0.01741029  1.0
  Ni  Ni406  1  0.12990883  0.48619267  0.01741029  1.0
  Ni  Ni407  1  0.12990883  0.81952600  0.01741029  1.0
  Ni  Ni408  1  0.46324217  0.15285933  0.01741029  1.0
  Ni  Ni409  1  0.46324217  0.48619267  0.01741029  1.0
  Ni  Ni410  1  0.46324217  0.81952600  0.01741029  1.0
  Ni  Ni411  1  0.79657550  0.15285933  0.01741029  1.0
  Ni  Ni412  1  0.79657550  0.48619267  0.01741029  1.0
  Ni  Ni413  1  0.79657550  0.81952600  0.01741029  1.0
  Ni  Ni414  1  0.20342450  0.18047400  0.11900414  1.0
  Ni  Ni415  1  0.20342450  0.51380733  0.11900414  1.0
  Ni  Ni416  1  0.20342450  0.84714067  0.11900414  1.0
  Ni  Ni417  1  0.53675783  0.18047400  0.11900414  1.0
  Ni  Ni418  1  0.53675783  0.51380733  0.11900414  1.0
  Ni  Ni419  1  0.53675783  0.84714067  0.11900414  1.0
  Ni  Ni420  1  0.87009117  0.18047400  0.11900414  1.0
  Ni  Ni421  1  0.87009117  0.51380733  0.11900414  1.0
  Ni  Ni422  1  0.87009117  0.84714067  0.11900414  1.0
  Ni  Ni423  1  0.03675783  0.18047400  0.04757557  1.0
  Ni  Ni424  1  0.03675783  0.51380733  0.04757557  1.0
  Ni  Ni425  1  0.03675783  0.84714067  0.04757557  1.0
  Ni  Ni426  1  0.37009117  0.18047400  0.04757557  1.0
  Ni  Ni427  1  0.37009117  0.51380733  0.04757557  1.0
  Ni  Ni428  1  0.37009117  0.84714067  0.04757557  1.0
  Ni  Ni429  1  0.70342450  0.18047400  0.04757557  1.0
  Ni  Ni430  1  0.70342450  0.51380733  0.04757557  1.0
  Ni  Ni431  1  0.70342450  0.84714067  0.04757557  1.0
  Ni  Ni432  1  0.12584717  0.32141467  0.03659143  1.0
  Ni  Ni433  1  0.12584717  0.65474800  0.03659143  1.0
  Ni  Ni434  1  0.12584717  0.98808133  0.03659143  1.0
  Ni  Ni435  1  0.45918050  0.32141467  0.03659143  1.0
  Ni  Ni436  1  0.45918050  0.65474800  0.03659143  1.0
  Ni  Ni437  1  0.45918050  0.98808133  0.03659143  1.0
  Ni  Ni438  1  0.79251383  0.32141467  0.03659143  1.0
  Ni  Ni439  1  0.79251383  0.65474800  0.03659143  1.0
  Ni  Ni440  1  0.79251383  0.98808133  0.03659143  1.0
  Ni  Ni441  1  0.29251383  0.32141467  0.10802000  1.0
  Ni  Ni442  1  0.29251383  0.65474800  0.10802000  1.0
  Ni  Ni443  1  0.29251383  0.98808133  0.10802000  1.0
  Ni  Ni444  1  0.62584717  0.32141467  0.10802000  1.0
  Ni  Ni445  1  0.62584717  0.65474800  0.10802000  1.0
  Ni  Ni446  1  0.62584717  0.98808133  0.10802000  1.0
  Ni  Ni447  1  0.95918050  0.32141467  0.10802000  1.0
  Ni  Ni448  1  0.95918050  0.65474800  0.10802000  1.0
  Ni  Ni449  1  0.95918050  0.98808133  0.10802000  1.0
  Ni  Ni450  1  0.04081950  0.01191867  0.02839443  1.0
  Ni  Ni451  1  0.04081950  0.34525200  0.02839443  1.0
  Ni  Ni452  1  0.04081950  0.67858533  0.02839443  1.0
  Ni  Ni453  1  0.37415283  0.01191867  0.02839443  1.0
  Ni  Ni454  1  0.37415283  0.34525200  0.02839443  1.0
  Ni  Ni455  1  0.37415283  0.67858533  0.02839443  1.0
  Ni  Ni456  1  0.70748617  0.01191867  0.02839443  1.0
  Ni  Ni457  1  0.70748617  0.34525200  0.02839443  1.0
  Ni  Ni458  1  0.70748617  0.67858533  0.02839443  1.0
  Ni  Ni459  1  0.20748617  0.01191867  0.09982300  1.0
  Ni  Ni460  1  0.20748617  0.34525200  0.09982300  1.0
  Ni  Ni461  1  0.20748617  0.67858533  0.09982300  1.0
  Ni  Ni462  1  0.54081950  0.01191867  0.09982300  1.0
  Ni  Ni463  1  0.54081950  0.34525200  0.09982300  1.0
  Ni  Ni464  1  0.54081950  0.67858533  0.09982300  1.0
  Ni  Ni465  1  0.87415283  0.01191867  0.09982300  1.0
  Ni  Ni466  1  0.87415283  0.34525200  0.09982300  1.0
  Ni  Ni467  1  0.87415283  0.67858533  0.09982300  1.0
  Ni  Ni468  1  0.12975050  0.31732100  0.08898029  1.0
  Ni  Ni469  1  0.12975050  0.65065433  0.08898029  1.0
  Ni  Ni470  1  0.12975050  0.98398767  0.08898029  1.0
  Ni  Ni471  1  0.46308383  0.31732100  0.08898029  1.0
  Ni  Ni472  1  0.46308383  0.65065433  0.08898029  1.0
  Ni  Ni473  1  0.46308383  0.98398767  0.08898029  1.0
  Ni  Ni474  1  0.79641717  0.31732100  0.08898029  1.0
  Ni  Ni475  1  0.79641717  0.65065433  0.08898029  1.0
  Ni  Ni476  1  0.79641717  0.98398767  0.08898029  1.0
  Ni  Ni477  1  0.29641717  0.31732100  0.01755171  1.0
  Ni  Ni478  1  0.29641717  0.65065433  0.01755171  1.0
  Ni  Ni479  1  0.29641717  0.98398767  0.01755171  1.0
  Ni  Ni480  1  0.62975050  0.31732100  0.01755171  1.0
  Ni  Ni481  1  0.62975050  0.65065433  0.01755171  1.0
  Ni  Ni482  1  0.62975050  0.98398767  0.01755171  1.0
  Ni  Ni483  1  0.96308383  0.31732100  0.01755171  1.0
  Ni  Ni484  1  0.96308383  0.65065433  0.01755171  1.0
  Ni  Ni485  1  0.96308383  0.98398767  0.01755171  1.0
  Ni  Ni486  1  0.03691617  0.01601233  0.11886271  1.0
  Ni  Ni487  1  0.03691617  0.34934567  0.11886271  1.0
  Ni  Ni488  1  0.03691617  0.68267900  0.11886271  1.0
  Ni  Ni489  1  0.37024950  0.01601233  0.11886271  1.0
  Ni  Ni490  1  0.37024950  0.34934567  0.11886271  1.0
  Ni  Ni491  1  0.37024950  0.68267900  0.11886271  1.0
  Ni  Ni492  1  0.70358283  0.01601233  0.11886271  1.0
  Ni  Ni493  1  0.70358283  0.34934567  0.11886271  1.0
  Ni  Ni494  1  0.70358283  0.68267900  0.11886271  1.0
  Ni  Ni495  1  0.20358283  0.01601233  0.04743414  1.0
  Ni  Ni496  1  0.20358283  0.34934567  0.04743414  1.0
  Ni  Ni497  1  0.20358283  0.68267900  0.04743414  1.0
  Ni  Ni498  1  0.53691617  0.01601233  0.04743414  1.0
  Ni  Ni499  1  0.53691617  0.34934567  0.04743414  1.0
  Ni  Ni500  1  0.53691617  0.68267900  0.04743414  1.0
  Ni  Ni501  1  0.87024950  0.01601233  0.04743414  1.0
  Ni  Ni502  1  0.87024950  0.34934567  0.04743414  1.0
  Ni  Ni503  1  0.87024950  0.68267900  0.04743414  1.0
  Ni  Ni504  1  0.17730533  0.24190800  0.11450879  1.0
  Ni  Ni505  1  0.17730533  0.57524133  0.11450879  1.0
  Ni  Ni506  1  0.17730533  0.90857467  0.11450879  1.0
  Ni  Ni507  1  0.51063867  0.24190800  0.11450879  1.0
  Ni  Ni508  1  0.51063867  0.57524133  0.11450879  1.0
  Ni  Ni509  1  0.51063867  0.90857467  0.11450879  1.0
  Ni  Ni510  1  0.84397200  0.24190800  0.11450879  1.0
  Ni  Ni511  1  0.84397200  0.57524133  0.11450879  1.0
  Ni  Ni512  1  0.84397200  0.90857467  0.11450879  1.0
  Ni  Ni513  1  0.01063867  0.24190800  0.04308021  1.0
  Ni  Ni514  1  0.01063867  0.57524133  0.04308021  1.0
  Ni  Ni515  1  0.01063867  0.90857467  0.04308021  1.0
  Ni  Ni516  1  0.34397200  0.24190800  0.04308021  1.0
  Ni  Ni517  1  0.34397200  0.57524133  0.04308021  1.0
  Ni  Ni518  1  0.34397200  0.90857467  0.04308021  1.0
  Ni  Ni519  1  0.67730533  0.24190800  0.04308021  1.0
  Ni  Ni520  1  0.67730533  0.57524133  0.04308021  1.0
  Ni  Ni521  1  0.67730533  0.90857467  0.04308021  1.0
  Zr  Zr522  1  0.01200683  0.08248933  0.15016043  1.0
  Zr  Zr523  1  0.01200683  0.41582267  0.15016043  1.0
  Zr  Zr524  1  0.01200683  0.74915600  0.15016043  1.0
  Zr  Zr525  1  0.34534017  0.08248933  0.15016043  1.0
  Zr  Zr526  1  0.34534017  0.41582267  0.15016043  1.0
  Zr  Zr527  1  0.34534017  0.74915600  0.15016043  1.0
  Zr  Zr528  1  0.67867350  0.08248933  0.15016043  1.0
  Zr  Zr529  1  0.67867350  0.41582267  0.15016043  1.0
  Zr  Zr530  1  0.67867350  0.74915600  0.15016043  1.0
  Zr  Zr531  1  0.17867350  0.08248933  0.22158900  1.0
  Zr  Zr532  1  0.17867350  0.41582267  0.22158900  1.0
  Zr  Zr533  1  0.17867350  0.74915600  0.22158900  1.0
  Zr  Zr534  1  0.51200683  0.08248933  0.22158900  1.0
  Zr  Zr535  1  0.51200683  0.41582267  0.22158900  1.0
  Zr  Zr536  1  0.51200683  0.74915600  0.22158900  1.0
  Zr  Zr537  1  0.84534017  0.08248933  0.22158900  1.0
  Zr  Zr538  1  0.84534017  0.41582267  0.22158900  1.0
  Zr  Zr539  1  0.84534017  0.74915600  0.22158900  1.0
  Zr  Zr540  1  0.15465983  0.25084400  0.20053971  1.0
  Zr  Zr541  1  0.15465983  0.58417733  0.20053971  1.0
  Zr  Zr542  1  0.15465983  0.91751067  0.20053971  1.0
  Zr  Zr543  1  0.48799317  0.25084400  0.20053971  1.0
  Zr  Zr544  1  0.48799317  0.58417733  0.20053971  1.0
  Zr  Zr545  1  0.48799317  0.91751067  0.20053971  1.0
  Zr  Zr546  1  0.82132650  0.25084400  0.20053971  1.0
  Zr  Zr547  1  0.82132650  0.58417733  0.20053971  1.0
  Zr  Zr548  1  0.82132650  0.91751067  0.20053971  1.0
  Zr  Zr549  1  0.32132650  0.25084400  0.27196829  1.0
  Zr  Zr550  1  0.32132650  0.58417733  0.27196829  1.0
  Zr  Zr551  1  0.32132650  0.91751067  0.27196829  1.0
  Zr  Zr552  1  0.65465983  0.25084400  0.27196829  1.0
  Zr  Zr553  1  0.65465983  0.58417733  0.27196829  1.0
  Zr  Zr554  1  0.65465983  0.91751067  0.27196829  1.0
  Zr  Zr555  1  0.98799317  0.25084400  0.27196829  1.0
  Zr  Zr556  1  0.98799317  0.58417733  0.27196829  1.0
  Zr  Zr557  1  0.98799317  0.91751067  0.27196829  1.0
  Zr  Zr558  1  0.17212900  0.20243200  0.15050679  1.0
  Zr  Zr559  1  0.17212900  0.53576533  0.15050679  1.0
  Zr  Zr560  1  0.17212900  0.86909867  0.15050679  1.0
  Zr  Zr561  1  0.50546233  0.20243200  0.15050679  1.0
  Zr  Zr562  1  0.50546233  0.53576533  0.15050679  1.0
  Zr  Zr563  1  0.50546233  0.86909867  0.15050679  1.0
  Zr  Zr564  1  0.83879567  0.20243200  0.15050679  1.0
  Zr  Zr565  1  0.83879567  0.53576533  0.15050679  1.0
  Zr  Zr566  1  0.83879567  0.86909867  0.15050679  1.0
  Zr  Zr567  1  0.00546233  0.20243200  0.22193536  1.0
  Zr  Zr568  1  0.00546233  0.53576533  0.22193536  1.0
  Zr  Zr569  1  0.00546233  0.86909867  0.22193536  1.0
  Zr  Zr570  1  0.33879567  0.20243200  0.22193536  1.0
  Zr  Zr571  1  0.33879567  0.53576533  0.22193536  1.0
  Zr  Zr572  1  0.33879567  0.86909867  0.22193536  1.0
  Zr  Zr573  1  0.67212900  0.20243200  0.22193536  1.0
  Zr  Zr574  1  0.67212900  0.53576533  0.22193536  1.0
  Zr  Zr575  1  0.67212900  0.86909867  0.22193536  1.0
  Zr  Zr576  1  0.32787100  0.13090133  0.20019336  1.0
  Zr  Zr577  1  0.32787100  0.46423467  0.20019336  1.0
  Zr  Zr578  1  0.32787100  0.79756800  0.20019336  1.0
  Zr  Zr579  1  0.66120433  0.13090133  0.20019336  1.0
  Zr  Zr580  1  0.66120433  0.46423467  0.20019336  1.0
  Zr  Zr581  1  0.66120433  0.79756800  0.20019336  1.0
  Zr  Zr582  1  0.99453767  0.13090133  0.20019336  1.0
  Zr  Zr583  1  0.99453767  0.46423467  0.20019336  1.0
  Zr  Zr584  1  0.99453767  0.79756800  0.20019336  1.0
  Zr  Zr585  1  0.16120433  0.13090133  0.27162193  1.0
  Zr  Zr586  1  0.16120433  0.46423467  0.27162193  1.0
  Zr  Zr587  1  0.16120433  0.79756800  0.27162193  1.0
  Zr  Zr588  1  0.49453767  0.13090133  0.27162193  1.0
  Zr  Zr589  1  0.49453767  0.46423467  0.27162193  1.0
  Zr  Zr590  1  0.49453767  0.79756800  0.27162193  1.0
  Zr  Zr591  1  0.82787100  0.13090133  0.27162193  1.0
  Zr  Zr592  1  0.82787100  0.46423467  0.27162193  1.0
  Zr  Zr593  1  0.82787100  0.79756800  0.27162193  1.0
  Zr  Zr594  1  0.03011833  0.01127167  0.21490707  1.0
  Zr  Zr595  1  0.03011833  0.34460500  0.21490707  1.0
  Zr  Zr596  1  0.03011833  0.67793833  0.21490707  1.0
  Zr  Zr597  1  0.36345167  0.01127167  0.21490707  1.0
  Zr  Zr598  1  0.36345167  0.34460500  0.21490707  1.0
  Zr  Zr599  1  0.36345167  0.67793833  0.21490707  1.0
  Zr  Zr600  1  0.69678500  0.01127167  0.21490707  1.0
  Zr  Zr601  1  0.69678500  0.34460500  0.21490707  1.0
  Zr  Zr602  1  0.69678500  0.67793833  0.21490707  1.0
  Zr  Zr603  1  0.19678500  0.01127167  0.14347850  1.0
  Zr  Zr604  1  0.19678500  0.34460500  0.14347850  1.0
  Zr  Zr605  1  0.19678500  0.67793833  0.14347850  1.0
  Zr  Zr606  1  0.53011833  0.01127167  0.14347850  1.0
  Zr  Zr607  1  0.53011833  0.34460500  0.14347850  1.0
  Zr  Zr608  1  0.53011833  0.67793833  0.14347850  1.0
  Zr  Zr609  1  0.86345167  0.01127167  0.14347850  1.0
  Zr  Zr610  1  0.86345167  0.34460500  0.14347850  1.0
  Zr  Zr611  1  0.86345167  0.67793833  0.14347850  1.0
  Zr  Zr612  1  0.13654833  0.32206167  0.27865021  1.0
  Zr  Zr613  1  0.13654833  0.65539500  0.27865021  1.0
  Zr  Zr614  1  0.13654833  0.98872833  0.27865021  1.0
  Zr  Zr615  1  0.46988167  0.32206167  0.27865021  1.0
  Zr  Zr616  1  0.46988167  0.65539500  0.27865021  1.0
  Zr  Zr617  1  0.46988167  0.98872833  0.27865021  1.0
  Zr  Zr618  1  0.80321500  0.32206167  0.27865021  1.0
  Zr  Zr619  1  0.80321500  0.65539500  0.27865021  1.0
  Zr  Zr620  1  0.80321500  0.98872833  0.27865021  1.0
  Zr  Zr621  1  0.30321500  0.32206167  0.20722164  1.0
  Zr  Zr622  1  0.30321500  0.65539500  0.20722164  1.0
  Zr  Zr623  1  0.30321500  0.98872833  0.20722164  1.0
  Zr  Zr624  1  0.63654833  0.32206167  0.20722164  1.0
  Zr  Zr625  1  0.63654833  0.65539500  0.20722164  1.0
  Zr  Zr626  1  0.63654833  0.98872833  0.20722164  1.0
  Zr  Zr627  1  0.96988167  0.32206167  0.20722164  1.0
  Zr  Zr628  1  0.96988167  0.65539500  0.20722164  1.0
  Zr  Zr629  1  0.96988167  0.98872833  0.20722164  1.0
  Zr  Zr630  1  0.24007167  0.10482500  0.22887193  1.0
  Zr  Zr631  1  0.24007167  0.43815833  0.22887193  1.0
  Zr  Zr632  1  0.24007167  0.77149167  0.22887193  1.0
  Zr  Zr633  1  0.57340500  0.10482500  0.22887193  1.0
  Zr  Zr634  1  0.57340500  0.43815833  0.22887193  1.0
  Zr  Zr635  1  0.57340500  0.77149167  0.22887193  1.0
  Zr  Zr636  1  0.90673833  0.10482500  0.22887193  1.0
  Zr  Zr637  1  0.90673833  0.43815833  0.22887193  1.0
  Zr  Zr638  1  0.90673833  0.77149167  0.22887193  1.0
  Zr  Zr639  1  0.07340500  0.10482500  0.15744336  1.0
  Zr  Zr640  1  0.07340500  0.43815833  0.15744336  1.0
  Zr  Zr641  1  0.07340500  0.77149167  0.15744336  1.0
  Zr  Zr642  1  0.40673833  0.10482500  0.15744336  1.0
  Zr  Zr643  1  0.40673833  0.43815833  0.15744336  1.0
  Zr  Zr644  1  0.40673833  0.77149167  0.15744336  1.0
  Zr  Zr645  1  0.74007167  0.10482500  0.15744336  1.0
  Zr  Zr646  1  0.74007167  0.43815833  0.15744336  1.0
  Zr  Zr647  1  0.74007167  0.77149167  0.15744336  1.0
  Zr  Zr648  1  0.25992833  0.22850833  0.26468536  1.0
  Zr  Zr649  1  0.25992833  0.56184167  0.26468536  1.0
  Zr  Zr650  1  0.25992833  0.89517500  0.26468536  1.0
  Zr  Zr651  1  0.59326167  0.22850833  0.26468536  1.0
  Zr  Zr652  1  0.59326167  0.56184167  0.26468536  1.0
  Zr  Zr653  1  0.59326167  0.89517500  0.26468536  1.0
  Zr  Zr654  1  0.92659500  0.22850833  0.26468536  1.0
  Zr  Zr655  1  0.92659500  0.56184167  0.26468536  1.0
  Zr  Zr656  1  0.92659500  0.89517500  0.26468536  1.0
  Zr  Zr657  1  0.09326167  0.22850833  0.19325679  1.0
  Zr  Zr658  1  0.09326167  0.56184167  0.19325679  1.0
  Zr  Zr659  1  0.09326167  0.89517500  0.19325679  1.0
  Zr  Zr660  1  0.42659500  0.22850833  0.19325679  1.0
  Zr  Zr661  1  0.42659500  0.56184167  0.19325679  1.0
  Zr  Zr662  1  0.42659500  0.89517500  0.19325679  1.0
  Zr  Zr663  1  0.75992833  0.22850833  0.19325679  1.0
  Zr  Zr664  1  0.75992833  0.56184167  0.19325679  1.0
  Zr  Zr665  1  0.75992833  0.89517500  0.19325679  1.0
  Ni  Ni666  1  0.16666667  0.00000000  0.21106436  1.0
  Ni  Ni667  1  0.16666667  0.33333333  0.21106436  1.0
  Ni  Ni668  1  0.16666667  0.66666667  0.21106436  1.0
  Ni  Ni669  1  0.50000000  0.00000000  0.21106436  1.0
  Ni  Ni670  1  0.50000000  0.33333333  0.21106436  1.0
  Ni  Ni671  1  0.50000000  0.66666667  0.21106436  1.0
  Ni  Ni672  1  0.83333333  0.00000000  0.21106436  1.0
  Ni  Ni673  1  0.83333333  0.33333333  0.21106436  1.0
  Ni  Ni674  1  0.83333333  0.66666667  0.21106436  1.0
  Ni  Ni675  1  0.00000000  0.00000000  0.28249293  1.0
  Ni  Ni676  1  0.00000000  0.33333333  0.28249293  1.0
  Ni  Ni677  1  0.00000000  0.66666667  0.28249293  1.0
  Ni  Ni678  1  0.33333333  0.00000000  0.28249293  1.0
  Ni  Ni679  1  0.33333333  0.33333333  0.28249293  1.0
  Ni  Ni680  1  0.33333333  0.66666667  0.28249293  1.0
  Ni  Ni681  1  0.66666667  0.00000000  0.28249293  1.0
  Ni  Ni682  1  0.66666667  0.33333333  0.28249293  1.0
  Ni  Ni683  1  0.66666667  0.66666667  0.28249293  1.0
  Ni  Ni684  1  0.09950217  0.05082867  0.21664757  1.0
  Ni  Ni685  1  0.09950217  0.38416200  0.21664757  1.0
  Ni  Ni686  1  0.09950217  0.71749533  0.21664757  1.0
  Ni  Ni687  1  0.43283550  0.05082867  0.21664757  1.0
  Ni  Ni688  1  0.43283550  0.38416200  0.21664757  1.0
  Ni  Ni689  1  0.43283550  0.71749533  0.21664757  1.0
  Ni  Ni690  1  0.76616883  0.05082867  0.21664757  1.0
  Ni  Ni691  1  0.76616883  0.38416200  0.21664757  1.0
  Ni  Ni692  1  0.76616883  0.71749533  0.21664757  1.0
  Ni  Ni693  1  0.26616883  0.05082867  0.14521900  1.0
  Ni  Ni694  1  0.26616883  0.38416200  0.14521900  1.0
  Ni  Ni695  1  0.26616883  0.71749533  0.14521900  1.0
  Ni  Ni696  1  0.59950217  0.05082867  0.14521900  1.0
  Ni  Ni697  1  0.59950217  0.38416200  0.14521900  1.0
  Ni  Ni698  1  0.59950217  0.71749533  0.14521900  1.0
  Ni  Ni699  1  0.93283550  0.05082867  0.14521900  1.0
  Ni  Ni700  1  0.93283550  0.38416200  0.14521900  1.0
  Ni  Ni701  1  0.93283550  0.71749533  0.14521900  1.0
  Ni  Ni702  1  0.06716450  0.28250467  0.27690971  1.0
  Ni  Ni703  1  0.06716450  0.61583800  0.27690971  1.0
  Ni  Ni704  1  0.06716450  0.94917133  0.27690971  1.0
  Ni  Ni705  1  0.40049783  0.28250467  0.27690971  1.0
  Ni  Ni706  1  0.40049783  0.61583800  0.27690971  1.0
  Ni  Ni707  1  0.40049783  0.94917133  0.27690971  1.0
  Ni  Ni708  1  0.73383117  0.28250467  0.27690971  1.0
  Ni  Ni709  1  0.73383117  0.61583800  0.27690971  1.0
  Ni  Ni710  1  0.73383117  0.94917133  0.27690971  1.0
  Ni  Ni711  1  0.23383117  0.28250467  0.20548114  1.0
  Ni  Ni712  1  0.23383117  0.61583800  0.20548114  1.0
  Ni  Ni713  1  0.23383117  0.94917133  0.20548114  1.0
  Ni  Ni714  1  0.56716450  0.28250467  0.20548114  1.0
  Ni  Ni715  1  0.56716450  0.61583800  0.20548114  1.0
  Ni  Ni716  1  0.56716450  0.94917133  0.20548114  1.0
  Ni  Ni717  1  0.90049783  0.28250467  0.20548114  1.0
  Ni  Ni718  1  0.90049783  0.61583800  0.20548114  1.0
  Ni  Ni719  1  0.90049783  0.94917133  0.20548114  1.0
  Ni  Ni720  1  0.29547950  0.15674067  0.28264743  1.0
  Ni  Ni721  1  0.29547950  0.49007400  0.28264743  1.0
  Ni  Ni722  1  0.29547950  0.82340733  0.28264743  1.0
  Ni  Ni723  1  0.62881283  0.15674067  0.28264743  1.0
  Ni  Ni724  1  0.62881283  0.49007400  0.28264743  1.0
  Ni  Ni725  1  0.62881283  0.82340733  0.28264743  1.0
  Ni  Ni726  1  0.96214617  0.15674067  0.28264743  1.0
  Ni  Ni727  1  0.96214617  0.49007400  0.28264743  1.0
  Ni  Ni728  1  0.96214617  0.82340733  0.28264743  1.0
  Ni  Ni729  1  0.12881283  0.15674067  0.21121886  1.0
  Ni  Ni730  1  0.12881283  0.49007400  0.21121886  1.0
  Ni  Ni731  1  0.12881283  0.82340733  0.21121886  1.0
  Ni  Ni732  1  0.46214617  0.15674067  0.21121886  1.0
  Ni  Ni733  1  0.46214617  0.49007400  0.21121886  1.0
  Ni  Ni734  1  0.46214617  0.82340733  0.21121886  1.0
  Ni  Ni735  1  0.79547950  0.15674067  0.21121886  1.0
  Ni  Ni736  1  0.79547950  0.49007400  0.21121886  1.0
  Ni  Ni737  1  0.79547950  0.82340733  0.21121886  1.0
  Ni  Ni738  1  0.20452050  0.17659267  0.21090986  1.0
  Ni  Ni739  1  0.20452050  0.50992600  0.21090986  1.0
  Ni  Ni740  1  0.20452050  0.84325933  0.21090986  1.0
  Ni  Ni741  1  0.53785383  0.17659267  0.21090986  1.0
  Ni  Ni742  1  0.53785383  0.50992600  0.21090986  1.0
  Ni  Ni743  1  0.53785383  0.84325933  0.21090986  1.0
  Ni  Ni744  1  0.87118717  0.17659267  0.21090986  1.0
  Ni  Ni745  1  0.87118717  0.50992600  0.21090986  1.0
  Ni  Ni746  1  0.87118717  0.84325933  0.21090986  1.0
  Ni  Ni747  1  0.03785383  0.17659267  0.28233843  1.0
  Ni  Ni748  1  0.03785383  0.50992600  0.28233843  1.0
  Ni  Ni749  1  0.03785383  0.84325933  0.28233843  1.0
  Ni  Ni750  1  0.37118717  0.17659267  0.28233843  1.0
  Ni  Ni751  1  0.37118717  0.50992600  0.28233843  1.0
  Ni  Ni752  1  0.37118717  0.84325933  0.28233843  1.0
  Ni  Ni753  1  0.70452050  0.17659267  0.28233843  1.0
  Ni  Ni754  1  0.70452050  0.50992600  0.28233843  1.0
  Ni  Ni755  1  0.70452050  0.84325933  0.28233843  1.0
  Ni  Ni756  1  0.33267750  0.08144233  0.19402500  1.0
  Ni  Ni757  1  0.33267750  0.41477567  0.19402500  1.0
  Ni  Ni758  1  0.33267750  0.74810900  0.19402500  1.0
  Ni  Ni759  1  0.66601083  0.08144233  0.19402500  1.0
  Ni  Ni760  1  0.66601083  0.41477567  0.19402500  1.0
  Ni  Ni761  1  0.66601083  0.74810900  0.19402500  1.0
  Ni  Ni762  1  0.99934417  0.08144233  0.19402500  1.0
  Ni  Ni763  1  0.99934417  0.41477567  0.19402500  1.0
  Ni  Ni764  1  0.99934417  0.74810900  0.19402500  1.0
  Ni  Ni765  1  0.16601083  0.08144233  0.26545357  1.0
  Ni  Ni766  1  0.16601083  0.41477567  0.26545357  1.0
  Ni  Ni767  1  0.16601083  0.74810900  0.26545357  1.0
  Ni  Ni768  1  0.49934417  0.08144233  0.26545357  1.0
  Ni  Ni769  1  0.49934417  0.41477567  0.26545357  1.0
  Ni  Ni770  1  0.49934417  0.74810900  0.26545357  1.0
  Ni  Ni771  1  0.83267750  0.08144233  0.26545357  1.0
  Ni  Ni772  1  0.83267750  0.41477567  0.26545357  1.0
  Ni  Ni773  1  0.83267750  0.74810900  0.26545357  1.0
  Ni  Ni774  1  0.16732250  0.25189100  0.15667514  1.0
  Ni  Ni775  1  0.16732250  0.58522433  0.15667514  1.0
  Ni  Ni776  1  0.16732250  0.91855767  0.15667514  1.0
  Ni  Ni777  1  0.50065583  0.25189100  0.15667514  1.0
  Ni  Ni778  1  0.50065583  0.58522433  0.15667514  1.0
  Ni  Ni779  1  0.50065583  0.91855767  0.15667514  1.0
  Ni  Ni780  1  0.83398917  0.25189100  0.15667514  1.0
  Ni  Ni781  1  0.83398917  0.58522433  0.15667514  1.0
  Ni  Ni782  1  0.83398917  0.91855767  0.15667514  1.0
  Ni  Ni783  1  0.00065583  0.25189100  0.22810371  1.0
  Ni  Ni784  1  0.00065583  0.58522433  0.22810371  1.0
  Ni  Ni785  1  0.00065583  0.91855767  0.22810371  1.0
  Ni  Ni786  1  0.33398917  0.25189100  0.22810371  1.0
  Ni  Ni787  1  0.33398917  0.58522433  0.22810371  1.0
  Ni  Ni788  1  0.33398917  0.91855767  0.22810371  1.0
  Ni  Ni789  1  0.66732250  0.25189100  0.22810371  1.0
  Ni  Ni790  1  0.66732250  0.58522433  0.22810371  1.0
  Ni  Ni791  1  0.66732250  0.91855767  0.22810371  1.0
  Ni  Ni792  1  0.32269467  0.09142533  0.23619136  1.0
  Ni  Ni793  1  0.32269467  0.42475867  0.23619136  1.0
  Ni  Ni794  1  0.32269467  0.75809200  0.23619136  1.0
  Ni  Ni795  1  0.65602800  0.09142533  0.23619136  1.0
  Ni  Ni796  1  0.65602800  0.42475867  0.23619136  1.0
  Ni  Ni797  1  0.65602800  0.75809200  0.23619136  1.0
  Ni  Ni798  1  0.98936133  0.09142533  0.23619136  1.0
  Ni  Ni799  1  0.98936133  0.42475867  0.23619136  1.0
  Ni  Ni800  1  0.98936133  0.75809200  0.23619136  1.0
  Ni  Ni801  1  0.15602800  0.09142533  0.16476279  1.0
  Ni  Ni802  1  0.15602800  0.42475867  0.16476279  1.0
  Ni  Ni803  1  0.15602800  0.75809200  0.16476279  1.0
  Ni  Ni804  1  0.48936133  0.09142533  0.16476279  1.0
  Ni  Ni805  1  0.48936133  0.42475867  0.16476279  1.0
  Ni  Ni806  1  0.48936133  0.75809200  0.16476279  1.0
  Ni  Ni807  1  0.82269467  0.09142533  0.16476279  1.0
  Ni  Ni808  1  0.82269467  0.42475867  0.16476279  1.0
  Ni  Ni809  1  0.82269467  0.75809200  0.16476279  1.0
  Ni  Ni810  1  0.09874067  0.05138667  0.28484421  1.0
  Ni  Ni811  1  0.09874067  0.38472000  0.28484421  1.0
  Ni  Ni812  1  0.09874067  0.71805333  0.28484421  1.0
  Ni  Ni813  1  0.43207400  0.05138667  0.28484421  1.0
  Ni  Ni814  1  0.43207400  0.38472000  0.28484421  1.0
  Ni  Ni815  1  0.43207400  0.71805333  0.28484421  1.0
  Ni  Ni816  1  0.76540733  0.05138667  0.28484421  1.0
  Ni  Ni817  1  0.76540733  0.38472000  0.28484421  1.0
  Ni  Ni818  1  0.76540733  0.71805333  0.28484421  1.0
  Ni  Ni819  1  0.26540733  0.05138667  0.21341564  1.0
  Ni  Ni820  1  0.26540733  0.38472000  0.21341564  1.0
  Ni  Ni821  1  0.26540733  0.71805333  0.21341564  1.0
  Ni  Ni822  1  0.59874067  0.05138667  0.21341564  1.0
  Ni  Ni823  1  0.59874067  0.38472000  0.21341564  1.0
  Ni  Ni824  1  0.59874067  0.71805333  0.21341564  1.0
  Ni  Ni825  1  0.93207400  0.05138667  0.21341564  1.0
  Ni  Ni826  1  0.93207400  0.38472000  0.21341564  1.0
  Ni  Ni827  1  0.93207400  0.71805333  0.21341564  1.0
  Ni  Ni828  1  0.06792600  0.28194667  0.20871307  1.0
  Ni  Ni829  1  0.06792600  0.61528000  0.20871307  1.0
  Ni  Ni830  1  0.06792600  0.94861333  0.20871307  1.0
  Ni  Ni831  1  0.40125933  0.28194667  0.20871307  1.0
  Ni  Ni832  1  0.40125933  0.61528000  0.20871307  1.0
  Ni  Ni833  1  0.40125933  0.94861333  0.20871307  1.0
  Ni  Ni834  1  0.73459267  0.28194667  0.20871307  1.0
  Ni  Ni835  1  0.73459267  0.61528000  0.20871307  1.0
  Ni  Ni836  1  0.73459267  0.94861333  0.20871307  1.0
  Ni  Ni837  1  0.23459267  0.28194667  0.28014164  1.0
  Ni  Ni838  1  0.23459267  0.61528000  0.28014164  1.0
  Ni  Ni839  1  0.23459267  0.94861333  0.28014164  1.0
  Ni  Ni840  1  0.56792600  0.28194667  0.28014164  1.0
  Ni  Ni841  1  0.56792600  0.61528000  0.28014164  1.0
  Ni  Ni842  1  0.56792600  0.94861333  0.28014164  1.0
  Ni  Ni843  1  0.90125933  0.28194667  0.28014164  1.0
  Ni  Ni844  1  0.90125933  0.61528000  0.28014164  1.0
  Ni  Ni845  1  0.90125933  0.94861333  0.28014164  1.0
  Ni  Ni846  1  0.26299300  0.21715133  0.17303607  1.0
  Ni  Ni847  1  0.26299300  0.55048467  0.17303607  1.0
  Ni  Ni848  1  0.26299300  0.88381800  0.17303607  1.0
  Ni  Ni849  1  0.59632633  0.21715133  0.17303607  1.0
  Ni  Ni850  1  0.59632633  0.55048467  0.17303607  1.0
  Ni  Ni851  1  0.59632633  0.88381800  0.17303607  1.0
  Ni  Ni852  1  0.92965967  0.21715133  0.17303607  1.0
  Ni  Ni853  1  0.92965967  0.55048467  0.17303607  1.0
  Ni  Ni854  1  0.92965967  0.88381800  0.17303607  1.0
  Ni  Ni855  1  0.09632633  0.21715133  0.24446464  1.0
  Ni  Ni856  1  0.09632633  0.55048467  0.24446464  1.0
  Ni  Ni857  1  0.09632633  0.88381800  0.24446464  1.0
  Ni  Ni858  1  0.42965967  0.21715133  0.24446464  1.0
  Ni  Ni859  1  0.42965967  0.55048467  0.24446464  1.0
  Ni  Ni860  1  0.42965967  0.88381800  0.24446464  1.0
  Ni  Ni861  1  0.76299300  0.21715133  0.24446464  1.0
  Ni  Ni862  1  0.76299300  0.55048467  0.24446464  1.0
  Ni  Ni863  1  0.76299300  0.88381800  0.24446464  1.0
  Ni  Ni864  1  0.23700700  0.11618200  0.17766407  1.0
  Ni  Ni865  1  0.23700700  0.44951533  0.17766407  1.0
  Ni  Ni866  1  0.23700700  0.78284867  0.17766407  1.0
  Ni  Ni867  1  0.57034033  0.11618200  0.17766407  1.0
  Ni  Ni868  1  0.57034033  0.44951533  0.17766407  1.0
  Ni  Ni869  1  0.57034033  0.78284867  0.17766407  1.0
  Ni  Ni870  1  0.90367367  0.11618200  0.17766407  1.0
  Ni  Ni871  1  0.90367367  0.44951533  0.17766407  1.0
  Ni  Ni872  1  0.90367367  0.78284867  0.17766407  1.0
  Ni  Ni873  1  0.07034033  0.11618200  0.24909264  1.0
  Ni  Ni874  1  0.07034033  0.44951533  0.24909264  1.0
  Ni  Ni875  1  0.07034033  0.78284867  0.24909264  1.0
  Ni  Ni876  1  0.40367367  0.11618200  0.24909264  1.0
  Ni  Ni877  1  0.40367367  0.44951533  0.24909264  1.0
  Ni  Ni878  1  0.40367367  0.78284867  0.24909264  1.0
  Ni  Ni879  1  0.73700700  0.11618200  0.24909264  1.0
  Ni  Ni880  1  0.73700700  0.44951533  0.24909264  1.0
  Ni  Ni881  1  0.73700700  0.78284867  0.24909264  1.0
  Ni  Ni882  1  0.25809700  0.21919533  0.21985836  1.0
  Ni  Ni883  1  0.25809700  0.55252867  0.21985836  1.0
  Ni  Ni884  1  0.25809700  0.88586200  0.21985836  1.0
  Ni  Ni885  1  0.59143033  0.21919533  0.21985836  1.0
  Ni  Ni886  1  0.59143033  0.55252867  0.21985836  1.0
  Ni  Ni887  1  0.59143033  0.88586200  0.21985836  1.0
  Ni  Ni888  1  0.92476367  0.21919533  0.21985836  1.0
  Ni  Ni889  1  0.92476367  0.55252867  0.21985836  1.0
  Ni  Ni890  1  0.92476367  0.88586200  0.21985836  1.0
  Ni  Ni891  1  0.09143033  0.21919533  0.14842979  1.0
  Ni  Ni892  1  0.09143033  0.55252867  0.14842979  1.0
  Ni  Ni893  1  0.09143033  0.88586200  0.14842979  1.0
  Ni  Ni894  1  0.42476367  0.21919533  0.14842979  1.0
  Ni  Ni895  1  0.42476367  0.55252867  0.14842979  1.0
  Ni  Ni896  1  0.42476367  0.88586200  0.14842979  1.0
  Ni  Ni897  1  0.75809700  0.21919533  0.14842979  1.0
  Ni  Ni898  1  0.75809700  0.55252867  0.14842979  1.0
  Ni  Ni899  1  0.75809700  0.88586200  0.14842979  1.0
  Ni  Ni900  1  0.24190300  0.11413800  0.27369893  1.0
  Ni  Ni901  1  0.24190300  0.44747133  0.27369893  1.0
  Ni  Ni902  1  0.24190300  0.78080467  0.27369893  1.0
  Ni  Ni903  1  0.57523633  0.11413800  0.27369893  1.0
  Ni  Ni904  1  0.57523633  0.44747133  0.27369893  1.0
  Ni  Ni905  1  0.57523633  0.78080467  0.27369893  1.0
  Ni  Ni906  1  0.90856967  0.11413800  0.27369893  1.0
  Ni  Ni907  1  0.90856967  0.44747133  0.27369893  1.0
  Ni  Ni908  1  0.90856967  0.78080467  0.27369893  1.0
  Ni  Ni909  1  0.07523633  0.11413800  0.20227036  1.0
  Ni  Ni910  1  0.07523633  0.44747133  0.20227036  1.0
  Ni  Ni911  1  0.07523633  0.78080467  0.20227036  1.0
  Ni  Ni912  1  0.40856967  0.11413800  0.20227036  1.0
  Ni  Ni913  1  0.40856967  0.44747133  0.20227036  1.0
  Ni  Ni914  1  0.40856967  0.78080467  0.20227036  1.0
  Ni  Ni915  1  0.74190300  0.11413800  0.20227036  1.0
  Ni  Ni916  1  0.74190300  0.44747133  0.20227036  1.0
  Ni  Ni917  1  0.74190300  0.78080467  0.20227036  1.0
  Ni  Ni918  1  0.29657550  0.15285933  0.23169600  1.0
  Ni  Ni919  1  0.29657550  0.48619267  0.23169600  1.0
  Ni  Ni920  1  0.29657550  0.81952600  0.23169600  1.0
  Ni  Ni921  1  0.62990883  0.15285933  0.23169600  1.0
  Ni  Ni922  1  0.62990883  0.48619267  0.23169600  1.0
  Ni  Ni923  1  0.62990883  0.81952600  0.23169600  1.0
  Ni  Ni924  1  0.96324217  0.15285933  0.23169600  1.0
  Ni  Ni925  1  0.96324217  0.48619267  0.23169600  1.0
  Ni  Ni926  1  0.96324217  0.81952600  0.23169600  1.0
  Ni  Ni927  1  0.12990883  0.15285933  0.16026743  1.0
  Ni  Ni928  1  0.12990883  0.48619267  0.16026743  1.0
  Ni  Ni929  1  0.12990883  0.81952600  0.16026743  1.0
  Ni  Ni930  1  0.46324217  0.15285933  0.16026743  1.0
  Ni  Ni931  1  0.46324217  0.48619267  0.16026743  1.0
  Ni  Ni932  1  0.46324217  0.81952600  0.16026743  1.0
  Ni  Ni933  1  0.79657550  0.15285933  0.16026743  1.0
  Ni  Ni934  1  0.79657550  0.48619267  0.16026743  1.0
  Ni  Ni935  1  0.79657550  0.81952600  0.16026743  1.0
  Ni  Ni936  1  0.20342450  0.18047400  0.26186129  1.0
  Ni  Ni937  1  0.20342450  0.51380733  0.26186129  1.0
  Ni  Ni938  1  0.20342450  0.84714067  0.26186129  1.0
  Ni  Ni939  1  0.53675783  0.18047400  0.26186129  1.0
  Ni  Ni940  1  0.53675783  0.51380733  0.26186129  1.0
  Ni  Ni941  1  0.53675783  0.84714067  0.26186129  1.0
  Ni  Ni942  1  0.87009117  0.18047400  0.26186129  1.0
  Ni  Ni943  1  0.87009117  0.51380733  0.26186129  1.0
  Ni  Ni944  1  0.87009117  0.84714067  0.26186129  1.0
  Ni  Ni945  1  0.03675783  0.18047400  0.19043271  1.0
  Ni  Ni946  1  0.03675783  0.51380733  0.19043271  1.0
  Ni  Ni947  1  0.03675783  0.84714067  0.19043271  1.0
  Ni  Ni948  1  0.37009117  0.18047400  0.19043271  1.0
  Ni  Ni949  1  0.37009117  0.51380733  0.19043271  1.0
  Ni  Ni950  1  0.37009117  0.84714067  0.19043271  1.0
  Ni  Ni951  1  0.70342450  0.18047400  0.19043271  1.0
  Ni  Ni952  1  0.70342450  0.51380733  0.19043271  1.0
  Ni  Ni953  1  0.70342450  0.84714067  0.19043271  1.0
  Ni  Ni954  1  0.12584717  0.32141467  0.17944857  1.0
  Ni  Ni955  1  0.12584717  0.65474800  0.17944857  1.0
  Ni  Ni956  1  0.12584717  0.98808133  0.17944857  1.0
  Ni  Ni957  1  0.45918050  0.32141467  0.17944857  1.0
  Ni  Ni958  1  0.45918050  0.65474800  0.17944857  1.0
  Ni  Ni959  1  0.45918050  0.98808133  0.17944857  1.0
  Ni  Ni960  1  0.79251383  0.32141467  0.17944857  1.0
  Ni  Ni961  1  0.79251383  0.65474800  0.17944857  1.0
  Ni  Ni962  1  0.79251383  0.98808133  0.17944857  1.0
  Ni  Ni963  1  0.29251383  0.32141467  0.25087714  1.0
  Ni  Ni964  1  0.29251383  0.65474800  0.25087714  1.0
  Ni  Ni965  1  0.29251383  0.98808133  0.25087714  1.0
  Ni  Ni966  1  0.62584717  0.32141467  0.25087714  1.0
  Ni  Ni967  1  0.62584717  0.65474800  0.25087714  1.0
  Ni  Ni968  1  0.62584717  0.98808133  0.25087714  1.0
  Ni  Ni969  1  0.95918050  0.32141467  0.25087714  1.0
  Ni  Ni970  1  0.95918050  0.65474800  0.25087714  1.0
  Ni  Ni971  1  0.95918050  0.98808133  0.25087714  1.0
  Ni  Ni972  1  0.04081950  0.01191867  0.17125157  1.0
  Ni  Ni973  1  0.04081950  0.34525200  0.17125157  1.0
  Ni  Ni974  1  0.04081950  0.67858533  0.17125157  1.0
  Ni  Ni975  1  0.37415283  0.01191867  0.17125157  1.0
  Ni  Ni976  1  0.37415283  0.34525200  0.17125157  1.0
  Ni  Ni977  1  0.37415283  0.67858533  0.17125157  1.0
  Ni  Ni978  1  0.70748617  0.01191867  0.17125157  1.0
  Ni  Ni979  1  0.70748617  0.34525200  0.17125157  1.0
  Ni  Ni980  1  0.70748617  0.67858533  0.17125157  1.0
  Ni  Ni981  1  0.20748617  0.01191867  0.24268014  1.0
  Ni  Ni982  1  0.20748617  0.34525200  0.24268014  1.0
  Ni  Ni983  1  0.20748617  0.67858533  0.24268014  1.0
  Ni  Ni984  1  0.54081950  0.01191867  0.24268014  1.0
  Ni  Ni985  1  0.54081950  0.34525200  0.24268014  1.0
  Ni  Ni986  1  0.54081950  0.67858533  0.24268014  1.0
  Ni  Ni987  1  0.87415283  0.01191867  0.24268014  1.0
  Ni  Ni988  1  0.87415283  0.34525200  0.24268014  1.0
  Ni  Ni989  1  0.87415283  0.67858533  0.24268014  1.0
  Ni  Ni990  1  0.12975050  0.31732100  0.23183743  1.0
  Ni  Ni991  1  0.12975050  0.65065433  0.23183743  1.0
  Ni  Ni992  1  0.12975050  0.98398767  0.23183743  1.0
  Ni  Ni993  1  0.46308383  0.31732100  0.23183743  1.0
  Ni  Ni994  1  0.46308383  0.65065433  0.23183743  1.0
  Ni  Ni995  1  0.46308383  0.98398767  0.23183743  1.0
  Ni  Ni996  1  0.79641717  0.31732100  0.23183743  1.0
  Ni  Ni997  1  0.79641717  0.65065433  0.23183743  1.0
  Ni  Ni998  1  0.79641717  0.98398767  0.23183743  1.0
  Ni  Ni999  1  0.29641717  0.31732100  0.16040886  1.0
  Ni  Ni1000  1  0.29641717  0.65065433  0.16040886  1.0
  Ni  Ni1001  1  0.29641717  0.98398767  0.16040886  1.0
  Ni  Ni1002  1  0.62975050  0.31732100  0.16040886  1.0
  Ni  Ni1003  1  0.62975050  0.65065433  0.16040886  1.0
  Ni  Ni1004  1  0.62975050  0.98398767  0.16040886  1.0
  Ni  Ni1005  1  0.96308383  0.31732100  0.16040886  1.0
  Ni  Ni1006  1  0.96308383  0.65065433  0.16040886  1.0
  Ni  Ni1007  1  0.96308383  0.98398767  0.16040886  1.0
  Ni  Ni1008  1  0.03691617  0.01601233  0.26171986  1.0
  Ni  Ni1009  1  0.03691617  0.34934567  0.26171986  1.0
  Ni  Ni1010  1  0.03691617  0.68267900  0.26171986  1.0
  Ni  Ni1011  1  0.37024950  0.01601233  0.26171986  1.0
  Ni  Ni1012  1  0.37024950  0.34934567  0.26171986  1.0
  Ni  Ni1013  1  0.37024950  0.68267900  0.26171986  1.0
  Ni  Ni1014  1  0.70358283  0.01601233  0.26171986  1.0
  Ni  Ni1015  1  0.70358283  0.34934567  0.26171986  1.0
  Ni  Ni1016  1  0.70358283  0.68267900  0.26171986  1.0
  Ni  Ni1017  1  0.20358283  0.01601233  0.19029129  1.0
  Ni  Ni1018  1  0.20358283  0.34934567  0.19029129  1.0
  Ni  Ni1019  1  0.20358283  0.68267900  0.19029129  1.0
  Ni  Ni1020  1  0.53691617  0.01601233  0.19029129  1.0
  Ni  Ni1021  1  0.53691617  0.34934567  0.19029129  1.0
  Ni  Ni1022  1  0.53691617  0.68267900  0.19029129  1.0
  Ni  Ni1023  1  0.87024950  0.01601233  0.19029129  1.0
  Ni  Ni1024  1  0.87024950  0.34934567  0.19029129  1.0
  Ni  Ni1025  1  0.87024950  0.68267900  0.19029129  1.0
  Ni  Ni1026  1  0.17730533  0.24190800  0.25736593  1.0
  Ni  Ni1027  1  0.17730533  0.57524133  0.25736593  1.0
  Ni  Ni1028  1  0.17730533  0.90857467  0.25736593  1.0
  Ni  Ni1029  1  0.51063867  0.24190800  0.25736593  1.0
  Ni  Ni1030  1  0.51063867  0.57524133  0.25736593  1.0
  Ni  Ni1031  1  0.51063867  0.90857467  0.25736593  1.0
  Ni  Ni1032  1  0.84397200  0.24190800  0.25736593  1.0
  Ni  Ni1033  1  0.84397200  0.57524133  0.25736593  1.0
  Ni  Ni1034  1  0.84397200  0.90857467  0.25736593  1.0
  Ni  Ni1035  1  0.01063867  0.24190800  0.18593736  1.0
  Ni  Ni1036  1  0.01063867  0.57524133  0.18593736  1.0
  Ni  Ni1037  1  0.01063867  0.90857467  0.18593736  1.0
  Ni  Ni1038  1  0.34397200  0.24190800  0.18593736  1.0
  Ni  Ni1039  1  0.34397200  0.57524133  0.18593736  1.0
  Ni  Ni1040  1  0.34397200  0.90857467  0.18593736  1.0
  Ni  Ni1041  1  0.67730533  0.24190800  0.18593736  1.0
  Ni  Ni1042  1  0.67730533  0.57524133  0.18593736  1.0
  Ni  Ni1043  1  0.67730533  0.90857467  0.18593736  1.0
  Zr  Zr1044  1  0.01200683  0.08248933  0.29301757  1.0
  Zr  Zr1045  1  0.01200683  0.41582267  0.29301757  1.0
  Zr  Zr1046  1  0.01200683  0.74915600  0.29301757  1.0
  Zr  Zr1047  1  0.34534017  0.08248933  0.29301757  1.0
  Zr  Zr1048  1  0.34534017  0.41582267  0.29301757  1.0
  Zr  Zr1049  1  0.34534017  0.74915600  0.29301757  1.0
  Zr  Zr1050  1  0.67867350  0.08248933  0.29301757  1.0
  Zr  Zr1051  1  0.67867350  0.41582267  0.29301757  1.0
  Zr  Zr1052  1  0.67867350  0.74915600  0.29301757  1.0
  Zr  Zr1053  1  0.17867350  0.08248933  0.36444614  1.0
  Zr  Zr1054  1  0.17867350  0.41582267  0.36444614  1.0
  Zr  Zr1055  1  0.17867350  0.74915600  0.36444614  1.0
  Zr  Zr1056  1  0.51200683  0.08248933  0.36444614  1.0
  Zr  Zr1057  1  0.51200683  0.41582267  0.36444614  1.0
  Zr  Zr1058  1  0.51200683  0.74915600  0.36444614  1.0
  Zr  Zr1059  1  0.84534017  0.08248933  0.36444614  1.0
  Zr  Zr1060  1  0.84534017  0.41582267  0.36444614  1.0
  Zr  Zr1061  1  0.84534017  0.74915600  0.36444614  1.0
  Zr  Zr1062  1  0.15465983  0.25084400  0.34339686  1.0
  Zr  Zr1063  1  0.15465983  0.58417733  0.34339686  1.0
  Zr  Zr1064  1  0.15465983  0.91751067  0.34339686  1.0
  Zr  Zr1065  1  0.48799317  0.25084400  0.34339686  1.0
  Zr  Zr1066  1  0.48799317  0.58417733  0.34339686  1.0
  Zr  Zr1067  1  0.48799317  0.91751067  0.34339686  1.0
  Zr  Zr1068  1  0.82132650  0.25084400  0.34339686  1.0
  Zr  Zr1069  1  0.82132650  0.58417733  0.34339686  1.0
  Zr  Zr1070  1  0.82132650  0.91751067  0.34339686  1.0
  Zr  Zr1071  1  0.32132650  0.25084400  0.41482543  1.0
  Zr  Zr1072  1  0.32132650  0.58417733  0.41482543  1.0
  Zr  Zr1073  1  0.32132650  0.91751067  0.41482543  1.0
  Zr  Zr1074  1  0.65465983  0.25084400  0.41482543  1.0
  Zr  Zr1075  1  0.65465983  0.58417733  0.41482543  1.0
  Zr  Zr1076  1  0.65465983  0.91751067  0.41482543  1.0
  Zr  Zr1077  1  0.98799317  0.25084400  0.41482543  1.0
  Zr  Zr1078  1  0.98799317  0.58417733  0.41482543  1.0
  Zr  Zr1079  1  0.98799317  0.91751067  0.41482543  1.0
  Zr  Zr1080  1  0.17212900  0.20243200  0.29336393  1.0
  Zr  Zr1081  1  0.17212900  0.53576533  0.29336393  1.0
  Zr  Zr1082  1  0.17212900  0.86909867  0.29336393  1.0
  Zr  Zr1083  1  0.50546233  0.20243200  0.29336393  1.0
  Zr  Zr1084  1  0.50546233  0.53576533  0.29336393  1.0
  Zr  Zr1085  1  0.50546233  0.86909867  0.29336393  1.0
  Zr  Zr1086  1  0.83879567  0.20243200  0.29336393  1.0
  Zr  Zr1087  1  0.83879567  0.53576533  0.29336393  1.0
  Zr  Zr1088  1  0.83879567  0.86909867  0.29336393  1.0
  Zr  Zr1089  1  0.00546233  0.20243200  0.36479250  1.0
  Zr  Zr1090  1  0.00546233  0.53576533  0.36479250  1.0
  Zr  Zr1091  1  0.00546233  0.86909867  0.36479250  1.0
  Zr  Zr1092  1  0.33879567  0.20243200  0.36479250  1.0
  Zr  Zr1093  1  0.33879567  0.53576533  0.36479250  1.0
  Zr  Zr1094  1  0.33879567  0.86909867  0.36479250  1.0
  Zr  Zr1095  1  0.67212900  0.20243200  0.36479250  1.0
  Zr  Zr1096  1  0.67212900  0.53576533  0.36479250  1.0
  Zr  Zr1097  1  0.67212900  0.86909867  0.36479250  1.0
  Zr  Zr1098  1  0.32787100  0.13090133  0.34305050  1.0
  Zr  Zr1099  1  0.32787100  0.46423467  0.34305050  1.0
  Zr  Zr1100  1  0.32787100  0.79756800  0.34305050  1.0
  Zr  Zr1101  1  0.66120433  0.13090133  0.34305050  1.0
  Zr  Zr1102  1  0.66120433  0.46423467  0.34305050  1.0
  Zr  Zr1103  1  0.66120433  0.79756800  0.34305050  1.0
  Zr  Zr1104  1  0.99453767  0.13090133  0.34305050  1.0
  Zr  Zr1105  1  0.99453767  0.46423467  0.34305050  1.0
  Zr  Zr1106  1  0.99453767  0.79756800  0.34305050  1.0
  Zr  Zr1107  1  0.16120433  0.13090133  0.41447907  1.0
  Zr  Zr1108  1  0.16120433  0.46423467  0.41447907  1.0
  Zr  Zr1109  1  0.16120433  0.79756800  0.41447907  1.0
  Zr  Zr1110  1  0.49453767  0.13090133  0.41447907  1.0
  Zr  Zr1111  1  0.49453767  0.46423467  0.41447907  1.0
  Zr  Zr1112  1  0.49453767  0.79756800  0.41447907  1.0
  Zr  Zr1113  1  0.82787100  0.13090133  0.41447907  1.0
  Zr  Zr1114  1  0.82787100  0.46423467  0.41447907  1.0
  Zr  Zr1115  1  0.82787100  0.79756800  0.41447907  1.0
  Zr  Zr1116  1  0.03011833  0.01127167  0.35776421  1.0
  Zr  Zr1117  1  0.03011833  0.34460500  0.35776421  1.0
  Zr  Zr1118  1  0.03011833  0.67793833  0.35776421  1.0
  Zr  Zr1119  1  0.36345167  0.01127167  0.35776421  1.0
  Zr  Zr1120  1  0.36345167  0.34460500  0.35776421  1.0
  Zr  Zr1121  1  0.36345167  0.67793833  0.35776421  1.0
  Zr  Zr1122  1  0.69678500  0.01127167  0.35776421  1.0
  Zr  Zr1123  1  0.69678500  0.34460500  0.35776421  1.0
  Zr  Zr1124  1  0.69678500  0.67793833  0.35776421  1.0
  Zr  Zr1125  1  0.19678500  0.01127167  0.28633564  1.0
  Zr  Zr1126  1  0.19678500  0.34460500  0.28633564  1.0
  Zr  Zr1127  1  0.19678500  0.67793833  0.28633564  1.0
  Zr  Zr1128  1  0.53011833  0.01127167  0.28633564  1.0
  Zr  Zr1129  1  0.53011833  0.34460500  0.28633564  1.0
  Zr  Zr1130  1  0.53011833  0.67793833  0.28633564  1.0
  Zr  Zr1131  1  0.86345167  0.01127167  0.28633564  1.0
  Zr  Zr1132  1  0.86345167  0.34460500  0.28633564  1.0
  Zr  Zr1133  1  0.86345167  0.67793833  0.28633564  1.0
  Zr  Zr1134  1  0.13654833  0.32206167  0.42150736  1.0
  Zr  Zr1135  1  0.13654833  0.65539500  0.42150736  1.0
  Zr  Zr1136  1  0.13654833  0.98872833  0.42150736  1.0
  Zr  Zr1137  1  0.46988167  0.32206167  0.42150736  1.0
  Zr  Zr1138  1  0.46988167  0.65539500  0.42150736  1.0
  Zr  Zr1139  1  0.46988167  0.98872833  0.42150736  1.0
  Zr  Zr1140  1  0.80321500  0.32206167  0.42150736  1.0
  Zr  Zr1141  1  0.80321500  0.65539500  0.42150736  1.0
  Zr  Zr1142  1  0.80321500  0.98872833  0.42150736  1.0
  Zr  Zr1143  1  0.30321500  0.32206167  0.35007879  1.0
  Zr  Zr1144  1  0.30321500  0.65539500  0.35007879  1.0
  Zr  Zr1145  1  0.30321500  0.98872833  0.35007879  1.0
  Zr  Zr1146  1  0.63654833  0.32206167  0.35007879  1.0
  Zr  Zr1147  1  0.63654833  0.65539500  0.35007879  1.0
  Zr  Zr1148  1  0.63654833  0.98872833  0.35007879  1.0
  Zr  Zr1149  1  0.96988167  0.32206167  0.35007879  1.0
  Zr  Zr1150  1  0.96988167  0.65539500  0.35007879  1.0
  Zr  Zr1151  1  0.96988167  0.98872833  0.35007879  1.0
  Zr  Zr1152  1  0.24007167  0.10482500  0.37172907  1.0
  Zr  Zr1153  1  0.24007167  0.43815833  0.37172907  1.0
  Zr  Zr1154  1  0.24007167  0.77149167  0.37172907  1.0
  Zr  Zr1155  1  0.57340500  0.10482500  0.37172907  1.0
  Zr  Zr1156  1  0.57340500  0.43815833  0.37172907  1.0
  Zr  Zr1157  1  0.57340500  0.77149167  0.37172907  1.0
  Zr  Zr1158  1  0.90673833  0.10482500  0.37172907  1.0
  Zr  Zr1159  1  0.90673833  0.43815833  0.37172907  1.0
  Zr  Zr1160  1  0.90673833  0.77149167  0.37172907  1.0
  Zr  Zr1161  1  0.07340500  0.10482500  0.30030050  1.0
  Zr  Zr1162  1  0.07340500  0.43815833  0.30030050  1.0
  Zr  Zr1163  1  0.07340500  0.77149167  0.30030050  1.0
  Zr  Zr1164  1  0.40673833  0.10482500  0.30030050  1.0
  Zr  Zr1165  1  0.40673833  0.43815833  0.30030050  1.0
  Zr  Zr1166  1  0.40673833  0.77149167  0.30030050  1.0
  Zr  Zr1167  1  0.74007167  0.10482500  0.30030050  1.0
  Zr  Zr1168  1  0.74007167  0.43815833  0.30030050  1.0
  Zr  Zr1169  1  0.74007167  0.77149167  0.30030050  1.0
  Zr  Zr1170  1  0.25992833  0.22850833  0.40754250  1.0
  Zr  Zr1171  1  0.25992833  0.56184167  0.40754250  1.0
  Zr  Zr1172  1  0.25992833  0.89517500  0.40754250  1.0
  Zr  Zr1173  1  0.59326167  0.22850833  0.40754250  1.0
  Zr  Zr1174  1  0.59326167  0.56184167  0.40754250  1.0
  Zr  Zr1175  1  0.59326167  0.89517500  0.40754250  1.0
  Zr  Zr1176  1  0.92659500  0.22850833  0.40754250  1.0
  Zr  Zr1177  1  0.92659500  0.56184167  0.40754250  1.0
  Zr  Zr1178  1  0.92659500  0.89517500  0.40754250  1.0
  Zr  Zr1179  1  0.09326167  0.22850833  0.33611393  1.0
  Zr  Zr1180  1  0.09326167  0.56184167  0.33611393  1.0
  Zr  Zr1181  1  0.09326167  0.89517500  0.33611393  1.0
  Zr  Zr1182  1  0.42659500  0.22850833  0.33611393  1.0
  Zr  Zr1183  1  0.42659500  0.56184167  0.33611393  1.0
  Zr  Zr1184  1  0.42659500  0.89517500  0.33611393  1.0
  Zr  Zr1185  1  0.75992833  0.22850833  0.33611393  1.0
  Zr  Zr1186  1  0.75992833  0.56184167  0.33611393  1.0
  Zr  Zr1187  1  0.75992833  0.89517500  0.33611393  1.0
  Ni  Ni1188  1  0.16666667  0.00000000  0.35392150  1.0
  Ni  Ni1189  1  0.16666667  0.33333333  0.35392150  1.0
  Ni  Ni1190  1  0.16666667  0.66666667  0.35392150  1.0
  Ni  Ni1191  1  0.50000000  0.00000000  0.35392150  1.0
  Ni  Ni1192  1  0.50000000  0.33333333  0.35392150  1.0
  Ni  Ni1193  1  0.50000000  0.66666667  0.35392150  1.0
  Ni  Ni1194  1  0.83333333  0.00000000  0.35392150  1.0
  Ni  Ni1195  1  0.83333333  0.33333333  0.35392150  1.0
  Ni  Ni1196  1  0.83333333  0.66666667  0.35392150  1.0
  Ni  Ni1197  1  0.00000000  0.00000000  0.42535007  1.0
  Ni  Ni1198  1  0.00000000  0.33333333  0.42535007  1.0
  Ni  Ni1199  1  0.00000000  0.66666667  0.42535007  1.0
  Ni  Ni1200  1  0.33333333  0.00000000  0.42535007  1.0
  Ni  Ni1201  1  0.33333333  0.33333333  0.42535007  1.0
  Ni  Ni1202  1  0.33333333  0.66666667  0.42535007  1.0
  Ni  Ni1203  1  0.66666667  0.00000000  0.42535007  1.0
  Ni  Ni1204  1  0.66666667  0.33333333  0.42535007  1.0
  Ni  Ni1205  1  0.66666667  0.66666667  0.42535007  1.0
  Ni  Ni1206  1  0.09950217  0.05082867  0.35950471  1.0
  Ni  Ni1207  1  0.09950217  0.38416200  0.35950471  1.0
  Ni  Ni1208  1  0.09950217  0.71749533  0.35950471  1.0
  Ni  Ni1209  1  0.43283550  0.05082867  0.35950471  1.0
  Ni  Ni1210  1  0.43283550  0.38416200  0.35950471  1.0
  Ni  Ni1211  1  0.43283550  0.71749533  0.35950471  1.0
  Ni  Ni1212  1  0.76616883  0.05082867  0.35950471  1.0
  Ni  Ni1213  1  0.76616883  0.38416200  0.35950471  1.0
  Ni  Ni1214  1  0.76616883  0.71749533  0.35950471  1.0
  Ni  Ni1215  1  0.26616883  0.05082867  0.28807614  1.0
  Ni  Ni1216  1  0.26616883  0.38416200  0.28807614  1.0
  Ni  Ni1217  1  0.26616883  0.71749533  0.28807614  1.0
  Ni  Ni1218  1  0.59950217  0.05082867  0.28807614  1.0
  Ni  Ni1219  1  0.59950217  0.38416200  0.28807614  1.0
  Ni  Ni1220  1  0.59950217  0.71749533  0.28807614  1.0
  Ni  Ni1221  1  0.93283550  0.05082867  0.28807614  1.0
  Ni  Ni1222  1  0.93283550  0.38416200  0.28807614  1.0
  Ni  Ni1223  1  0.93283550  0.71749533  0.28807614  1.0
  Ni  Ni1224  1  0.06716450  0.28250467  0.41976686  1.0
  Ni  Ni1225  1  0.06716450  0.61583800  0.41976686  1.0
  Ni  Ni1226  1  0.06716450  0.94917133  0.41976686  1.0
  Ni  Ni1227  1  0.40049783  0.28250467  0.41976686  1.0
  Ni  Ni1228  1  0.40049783  0.61583800  0.41976686  1.0
  Ni  Ni1229  1  0.40049783  0.94917133  0.41976686  1.0
  Ni  Ni1230  1  0.73383117  0.28250467  0.41976686  1.0
  Ni  Ni1231  1  0.73383117  0.61583800  0.41976686  1.0
  Ni  Ni1232  1  0.73383117  0.94917133  0.41976686  1.0
  Ni  Ni1233  1  0.23383117  0.28250467  0.34833829  1.0
  Ni  Ni1234  1  0.23383117  0.61583800  0.34833829  1.0
  Ni  Ni1235  1  0.23383117  0.94917133  0.34833829  1.0
  Ni  Ni1236  1  0.56716450  0.28250467  0.34833829  1.0
  Ni  Ni1237  1  0.56716450  0.61583800  0.34833829  1.0
  Ni  Ni1238  1  0.56716450  0.94917133  0.34833829  1.0
  Ni  Ni1239  1  0.90049783  0.28250467  0.34833829  1.0
  Ni  Ni1240  1  0.90049783  0.61583800  0.34833829  1.0
  Ni  Ni1241  1  0.90049783  0.94917133  0.34833829  1.0
  Ni  Ni1242  1  0.29547950  0.15674067  0.42550457  1.0
  Ni  Ni1243  1  0.29547950  0.49007400  0.42550457  1.0
  Ni  Ni1244  1  0.29547950  0.82340733  0.42550457  1.0
  Ni  Ni1245  1  0.62881283  0.15674067  0.42550457  1.0
  Ni  Ni1246  1  0.62881283  0.49007400  0.42550457  1.0
  Ni  Ni1247  1  0.62881283  0.82340733  0.42550457  1.0
  Ni  Ni1248  1  0.96214617  0.15674067  0.42550457  1.0
  Ni  Ni1249  1  0.96214617  0.49007400  0.42550457  1.0
  Ni  Ni1250  1  0.96214617  0.82340733  0.42550457  1.0
  Ni  Ni1251  1  0.12881283  0.15674067  0.35407600  1.0
  Ni  Ni1252  1  0.12881283  0.49007400  0.35407600  1.0
  Ni  Ni1253  1  0.12881283  0.82340733  0.35407600  1.0
  Ni  Ni1254  1  0.46214617  0.15674067  0.35407600  1.0
  Ni  Ni1255  1  0.46214617  0.49007400  0.35407600  1.0
  Ni  Ni1256  1  0.46214617  0.82340733  0.35407600  1.0
  Ni  Ni1257  1  0.79547950  0.15674067  0.35407600  1.0
  Ni  Ni1258  1  0.79547950  0.49007400  0.35407600  1.0
  Ni  Ni1259  1  0.79547950  0.82340733  0.35407600  1.0
  Ni  Ni1260  1  0.20452050  0.17659267  0.35376700  1.0
  Ni  Ni1261  1  0.20452050  0.50992600  0.35376700  1.0
  Ni  Ni1262  1  0.20452050  0.84325933  0.35376700  1.0
  Ni  Ni1263  1  0.53785383  0.17659267  0.35376700  1.0
  Ni  Ni1264  1  0.53785383  0.50992600  0.35376700  1.0
  Ni  Ni1265  1  0.53785383  0.84325933  0.35376700  1.0
  Ni  Ni1266  1  0.87118717  0.17659267  0.35376700  1.0
  Ni  Ni1267  1  0.87118717  0.50992600  0.35376700  1.0
  Ni  Ni1268  1  0.87118717  0.84325933  0.35376700  1.0
  Ni  Ni1269  1  0.03785383  0.17659267  0.42519557  1.0
  Ni  Ni1270  1  0.03785383  0.50992600  0.42519557  1.0
  Ni  Ni1271  1  0.03785383  0.84325933  0.42519557  1.0
  Ni  Ni1272  1  0.37118717  0.17659267  0.42519557  1.0
  Ni  Ni1273  1  0.37118717  0.50992600  0.42519557  1.0
  Ni  Ni1274  1  0.37118717  0.84325933  0.42519557  1.0
  Ni  Ni1275  1  0.70452050  0.17659267  0.42519557  1.0
  Ni  Ni1276  1  0.70452050  0.50992600  0.42519557  1.0
  Ni  Ni1277  1  0.70452050  0.84325933  0.42519557  1.0
  Ni  Ni1278  1  0.33267750  0.08144233  0.33688214  1.0
  Ni  Ni1279  1  0.33267750  0.41477567  0.33688214  1.0
  Ni  Ni1280  1  0.33267750  0.74810900  0.33688214  1.0
  Ni  Ni1281  1  0.66601083  0.08144233  0.33688214  1.0
  Ni  Ni1282  1  0.66601083  0.41477567  0.33688214  1.0
  Ni  Ni1283  1  0.66601083  0.74810900  0.33688214  1.0
  Ni  Ni1284  1  0.99934417  0.08144233  0.33688214  1.0
  Ni  Ni1285  1  0.99934417  0.41477567  0.33688214  1.0
  Ni  Ni1286  1  0.99934417  0.74810900  0.33688214  1.0
  Ni  Ni1287  1  0.16601083  0.08144233  0.40831071  1.0
  Ni  Ni1288  1  0.16601083  0.41477567  0.40831071  1.0
  Ni  Ni1289  1  0.16601083  0.74810900  0.40831071  1.0
  Ni  Ni1290  1  0.49934417  0.08144233  0.40831071  1.0
  Ni  Ni1291  1  0.49934417  0.41477567  0.40831071  1.0
  Ni  Ni1292  1  0.49934417  0.74810900  0.40831071  1.0
  Ni  Ni1293  1  0.83267750  0.08144233  0.40831071  1.0
  Ni  Ni1294  1  0.83267750  0.41477567  0.40831071  1.0
  Ni  Ni1295  1  0.83267750  0.74810900  0.40831071  1.0
  Ni  Ni1296  1  0.16732250  0.25189100  0.29953229  1.0
  Ni  Ni1297  1  0.16732250  0.58522433  0.29953229  1.0
  Ni  Ni1298  1  0.16732250  0.91855767  0.29953229  1.0
  Ni  Ni1299  1  0.50065583  0.25189100  0.29953229  1.0
  Ni  Ni1300  1  0.50065583  0.58522433  0.29953229  1.0
  Ni  Ni1301  1  0.50065583  0.91855767  0.29953229  1.0
  Ni  Ni1302  1  0.83398917  0.25189100  0.29953229  1.0
  Ni  Ni1303  1  0.83398917  0.58522433  0.29953229  1.0
  Ni  Ni1304  1  0.83398917  0.91855767  0.29953229  1.0
  Ni  Ni1305  1  0.00065583  0.25189100  0.37096086  1.0
  Ni  Ni1306  1  0.00065583  0.58522433  0.37096086  1.0
  Ni  Ni1307  1  0.00065583  0.91855767  0.37096086  1.0
  Ni  Ni1308  1  0.33398917  0.25189100  0.37096086  1.0
  Ni  Ni1309  1  0.33398917  0.58522433  0.37096086  1.0
  Ni  Ni1310  1  0.33398917  0.91855767  0.37096086  1.0
  Ni  Ni1311  1  0.66732250  0.25189100  0.37096086  1.0
  Ni  Ni1312  1  0.66732250  0.58522433  0.37096086  1.0
  Ni  Ni1313  1  0.66732250  0.91855767  0.37096086  1.0
  Ni  Ni1314  1  0.32269467  0.09142533  0.37904850  1.0
  Ni  Ni1315  1  0.32269467  0.42475867  0.37904850  1.0
  Ni  Ni1316  1  0.32269467  0.75809200  0.37904850  1.0
  Ni  Ni1317  1  0.65602800  0.09142533  0.37904850  1.0
  Ni  Ni1318  1  0.65602800  0.42475867  0.37904850  1.0
  Ni  Ni1319  1  0.65602800  0.75809200  0.37904850  1.0
  Ni  Ni1320  1  0.98936133  0.09142533  0.37904850  1.0
  Ni  Ni1321  1  0.98936133  0.42475867  0.37904850  1.0
  Ni  Ni1322  1  0.98936133  0.75809200  0.37904850  1.0
  Ni  Ni1323  1  0.15602800  0.09142533  0.30761993  1.0
  Ni  Ni1324  1  0.15602800  0.42475867  0.30761993  1.0
  Ni  Ni1325  1  0.15602800  0.75809200  0.30761993  1.0
  Ni  Ni1326  1  0.48936133  0.09142533  0.30761993  1.0
  Ni  Ni1327  1  0.48936133  0.42475867  0.30761993  1.0
  Ni  Ni1328  1  0.48936133  0.75809200  0.30761993  1.0
  Ni  Ni1329  1  0.82269467  0.09142533  0.30761993  1.0
  Ni  Ni1330  1  0.82269467  0.42475867  0.30761993  1.0
  Ni  Ni1331  1  0.82269467  0.75809200  0.30761993  1.0
  Ni  Ni1332  1  0.09874067  0.05138667  0.42770136  1.0
  Ni  Ni1333  1  0.09874067  0.38472000  0.42770136  1.0
  Ni  Ni1334  1  0.09874067  0.71805333  0.42770136  1.0
  Ni  Ni1335  1  0.43207400  0.05138667  0.42770136  1.0
  Ni  Ni1336  1  0.43207400  0.38472000  0.42770136  1.0
  Ni  Ni1337  1  0.43207400  0.71805333  0.42770136  1.0
  Ni  Ni1338  1  0.76540733  0.05138667  0.42770136  1.0
  Ni  Ni1339  1  0.76540733  0.38472000  0.42770136  1.0
  Ni  Ni1340  1  0.76540733  0.71805333  0.42770136  1.0
  Ni  Ni1341  1  0.26540733  0.05138667  0.35627279  1.0
  Ni  Ni1342  1  0.26540733  0.38472000  0.35627279  1.0
  Ni  Ni1343  1  0.26540733  0.71805333  0.35627279  1.0
  Ni  Ni1344  1  0.59874067  0.05138667  0.35627279  1.0
  Ni  Ni1345  1  0.59874067  0.38472000  0.35627279  1.0
  Ni  Ni1346  1  0.59874067  0.71805333  0.35627279  1.0
  Ni  Ni1347  1  0.93207400  0.05138667  0.35627279  1.0
  Ni  Ni1348  1  0.93207400  0.38472000  0.35627279  1.0
  Ni  Ni1349  1  0.93207400  0.71805333  0.35627279  1.0
  Ni  Ni1350  1  0.06792600  0.28194667  0.35157021  1.0
  Ni  Ni1351  1  0.06792600  0.61528000  0.35157021  1.0
  Ni  Ni1352  1  0.06792600  0.94861333  0.35157021  1.0
  Ni  Ni1353  1  0.40125933  0.28194667  0.35157021  1.0
  Ni  Ni1354  1  0.40125933  0.61528000  0.35157021  1.0
  Ni  Ni1355  1  0.40125933  0.94861333  0.35157021  1.0
  Ni  Ni1356  1  0.73459267  0.28194667  0.35157021  1.0
  Ni  Ni1357  1  0.73459267  0.61528000  0.35157021  1.0
  Ni  Ni1358  1  0.73459267  0.94861333  0.35157021  1.0
  Ni  Ni1359  1  0.23459267  0.28194667  0.42299879  1.0
  Ni  Ni1360  1  0.23459267  0.61528000  0.42299879  1.0
  Ni  Ni1361  1  0.23459267  0.94861333  0.42299879  1.0
  Ni  Ni1362  1  0.56792600  0.28194667  0.42299879  1.0
  Ni  Ni1363  1  0.56792600  0.61528000  0.42299879  1.0
  Ni  Ni1364  1  0.56792600  0.94861333  0.42299879  1.0
  Ni  Ni1365  1  0.90125933  0.28194667  0.42299879  1.0
  Ni  Ni1366  1  0.90125933  0.61528000  0.42299879  1.0
  Ni  Ni1367  1  0.90125933  0.94861333  0.42299879  1.0
  Ni  Ni1368  1  0.26299300  0.21715133  0.31589321  1.0
  Ni  Ni1369  1  0.26299300  0.55048467  0.31589321  1.0
  Ni  Ni1370  1  0.26299300  0.88381800  0.31589321  1.0
  Ni  Ni1371  1  0.59632633  0.21715133  0.31589321  1.0
  Ni  Ni1372  1  0.59632633  0.55048467  0.31589321  1.0
  Ni  Ni1373  1  0.59632633  0.88381800  0.31589321  1.0
  Ni  Ni1374  1  0.92965967  0.21715133  0.31589321  1.0
  Ni  Ni1375  1  0.92965967  0.55048467  0.31589321  1.0
  Ni  Ni1376  1  0.92965967  0.88381800  0.31589321  1.0
  Ni  Ni1377  1  0.09632633  0.21715133  0.38732179  1.0
  Ni  Ni1378  1  0.09632633  0.55048467  0.38732179  1.0
  Ni  Ni1379  1  0.09632633  0.88381800  0.38732179  1.0
  Ni  Ni1380  1  0.42965967  0.21715133  0.38732179  1.0
  Ni  Ni1381  1  0.42965967  0.55048467  0.38732179  1.0
  Ni  Ni1382  1  0.42965967  0.88381800  0.38732179  1.0
  Ni  Ni1383  1  0.76299300  0.21715133  0.38732179  1.0
  Ni  Ni1384  1  0.76299300  0.55048467  0.38732179  1.0
  Ni  Ni1385  1  0.76299300  0.88381800  0.38732179  1.0
  Ni  Ni1386  1  0.23700700  0.11618200  0.32052121  1.0
  Ni  Ni1387  1  0.23700700  0.44951533  0.32052121  1.0
  Ni  Ni1388  1  0.23700700  0.78284867  0.32052121  1.0
  Ni  Ni1389  1  0.57034033  0.11618200  0.32052121  1.0
  Ni  Ni1390  1  0.57034033  0.44951533  0.32052121  1.0
  Ni  Ni1391  1  0.57034033  0.78284867  0.32052121  1.0
  Ni  Ni1392  1  0.90367367  0.11618200  0.32052121  1.0
  Ni  Ni1393  1  0.90367367  0.44951533  0.32052121  1.0
  Ni  Ni1394  1  0.90367367  0.78284867  0.32052121  1.0
  Ni  Ni1395  1  0.07034033  0.11618200  0.39194979  1.0
  Ni  Ni1396  1  0.07034033  0.44951533  0.39194979  1.0
  Ni  Ni1397  1  0.07034033  0.78284867  0.39194979  1.0
  Ni  Ni1398  1  0.40367367  0.11618200  0.39194979  1.0
  Ni  Ni1399  1  0.40367367  0.44951533  0.39194979  1.0
  Ni  Ni1400  1  0.40367367  0.78284867  0.39194979  1.0
  Ni  Ni1401  1  0.73700700  0.11618200  0.39194979  1.0
  Ni  Ni1402  1  0.73700700  0.44951533  0.39194979  1.0
  Ni  Ni1403  1  0.73700700  0.78284867  0.39194979  1.0
  Ni  Ni1404  1  0.25809700  0.21919533  0.36271550  1.0
  Ni  Ni1405  1  0.25809700  0.55252867  0.36271550  1.0
  Ni  Ni1406  1  0.25809700  0.88586200  0.36271550  1.0
  Ni  Ni1407  1  0.59143033  0.21919533  0.36271550  1.0
  Ni  Ni1408  1  0.59143033  0.55252867  0.36271550  1.0
  Ni  Ni1409  1  0.59143033  0.88586200  0.36271550  1.0
  Ni  Ni1410  1  0.92476367  0.21919533  0.36271550  1.0
  Ni  Ni1411  1  0.92476367  0.55252867  0.36271550  1.0
  Ni  Ni1412  1  0.92476367  0.88586200  0.36271550  1.0
  Ni  Ni1413  1  0.09143033  0.21919533  0.29128693  1.0
  Ni  Ni1414  1  0.09143033  0.55252867  0.29128693  1.0
  Ni  Ni1415  1  0.09143033  0.88586200  0.29128693  1.0
  Ni  Ni1416  1  0.42476367  0.21919533  0.29128693  1.0
  Ni  Ni1417  1  0.42476367  0.55252867  0.29128693  1.0
  Ni  Ni1418  1  0.42476367  0.88586200  0.29128693  1.0
  Ni  Ni1419  1  0.75809700  0.21919533  0.29128693  1.0
  Ni  Ni1420  1  0.75809700  0.55252867  0.29128693  1.0
  Ni  Ni1421  1  0.75809700  0.88586200  0.29128693  1.0
  Ni  Ni1422  1  0.24190300  0.11413800  0.41655607  1.0
  Ni  Ni1423  1  0.24190300  0.44747133  0.41655607  1.0
  Ni  Ni1424  1  0.24190300  0.78080467  0.41655607  1.0
  Ni  Ni1425  1  0.57523633  0.11413800  0.41655607  1.0
  Ni  Ni1426  1  0.57523633  0.44747133  0.41655607  1.0
  Ni  Ni1427  1  0.57523633  0.78080467  0.41655607  1.0
  Ni  Ni1428  1  0.90856967  0.11413800  0.41655607  1.0
  Ni  Ni1429  1  0.90856967  0.44747133  0.41655607  1.0
  Ni  Ni1430  1  0.90856967  0.78080467  0.41655607  1.0
  Ni  Ni1431  1  0.07523633  0.11413800  0.34512750  1.0
  Ni  Ni1432  1  0.07523633  0.44747133  0.34512750  1.0
  Ni  Ni1433  1  0.07523633  0.78080467  0.34512750  1.0
  Ni  Ni1434  1  0.40856967  0.11413800  0.34512750  1.0
  Ni  Ni1435  1  0.40856967  0.44747133  0.34512750  1.0
  Ni  Ni1436  1  0.40856967  0.78080467  0.34512750  1.0
  Ni  Ni1437  1  0.74190300  0.11413800  0.34512750  1.0
  Ni  Ni1438  1  0.74190300  0.44747133  0.34512750  1.0
  Ni  Ni1439  1  0.74190300  0.78080467  0.34512750  1.0
  Ni  Ni1440  1  0.29657550  0.15285933  0.37455314  1.0
  Ni  Ni1441  1  0.29657550  0.48619267  0.37455314  1.0
  Ni  Ni1442  1  0.29657550  0.81952600  0.37455314  1.0
  Ni  Ni1443  1  0.62990883  0.15285933  0.37455314  1.0
  Ni  Ni1444  1  0.62990883  0.48619267  0.37455314  1.0
  Ni  Ni1445  1  0.62990883  0.81952600  0.37455314  1.0
  Ni  Ni1446  1  0.96324217  0.15285933  0.37455314  1.0
  Ni  Ni1447  1  0.96324217  0.48619267  0.37455314  1.0
  Ni  Ni1448  1  0.96324217  0.81952600  0.37455314  1.0
  Ni  Ni1449  1  0.12990883  0.15285933  0.30312457  1.0
  Ni  Ni1450  1  0.12990883  0.48619267  0.30312457  1.0
  Ni  Ni1451  1  0.12990883  0.81952600  0.30312457  1.0
  Ni  Ni1452  1  0.46324217  0.15285933  0.30312457  1.0
  Ni  Ni1453  1  0.46324217  0.48619267  0.30312457  1.0
  Ni  Ni1454  1  0.46324217  0.81952600  0.30312457  1.0
  Ni  Ni1455  1  0.79657550  0.15285933  0.30312457  1.0
  Ni  Ni1456  1  0.79657550  0.48619267  0.30312457  1.0
  Ni  Ni1457  1  0.79657550  0.81952600  0.30312457  1.0
  Ni  Ni1458  1  0.20342450  0.18047400  0.40471843  1.0
  Ni  Ni1459  1  0.20342450  0.51380733  0.40471843  1.0
  Ni  Ni1460  1  0.20342450  0.84714067  0.40471843  1.0
  Ni  Ni1461  1  0.53675783  0.18047400  0.40471843  1.0
  Ni  Ni1462  1  0.53675783  0.51380733  0.40471843  1.0
  Ni  Ni1463  1  0.53675783  0.84714067  0.40471843  1.0
  Ni  Ni1464  1  0.87009117  0.18047400  0.40471843  1.0
  Ni  Ni1465  1  0.87009117  0.51380733  0.40471843  1.0
  Ni  Ni1466  1  0.87009117  0.84714067  0.40471843  1.0
  Ni  Ni1467  1  0.03675783  0.18047400  0.33328986  1.0
  Ni  Ni1468  1  0.03675783  0.51380733  0.33328986  1.0
  Ni  Ni1469  1  0.03675783  0.84714067  0.33328986  1.0
  Ni  Ni1470  1  0.37009117  0.18047400  0.33328986  1.0
  Ni  Ni1471  1  0.37009117  0.51380733  0.33328986  1.0
  Ni  Ni1472  1  0.37009117  0.84714067  0.33328986  1.0
  Ni  Ni1473  1  0.70342450  0.18047400  0.33328986  1.0
  Ni  Ni1474  1  0.70342450  0.51380733  0.33328986  1.0
  Ni  Ni1475  1  0.70342450  0.84714067  0.33328986  1.0
  Ni  Ni1476  1  0.12584717  0.32141467  0.32230571  1.0
  Ni  Ni1477  1  0.12584717  0.65474800  0.32230571  1.0
  Ni  Ni1478  1  0.12584717  0.98808133  0.32230571  1.0
  Ni  Ni1479  1  0.45918050  0.32141467  0.32230571  1.0
  Ni  Ni1480  1  0.45918050  0.65474800  0.32230571  1.0
  Ni  Ni1481  1  0.45918050  0.98808133  0.32230571  1.0
  Ni  Ni1482  1  0.79251383  0.32141467  0.32230571  1.0
  Ni  Ni1483  1  0.79251383  0.65474800  0.32230571  1.0
  Ni  Ni1484  1  0.79251383  0.98808133  0.32230571  1.0
  Ni  Ni1485  1  0.29251383  0.32141467  0.39373429  1.0
  Ni  Ni1486  1  0.29251383  0.65474800  0.39373429  1.0
  Ni  Ni1487  1  0.29251383  0.98808133  0.39373429  1.0
  Ni  Ni1488  1  0.62584717  0.32141467  0.39373429  1.0
  Ni  Ni1489  1  0.62584717  0.65474800  0.39373429  1.0
  Ni  Ni1490  1  0.62584717  0.98808133  0.39373429  1.0
  Ni  Ni1491  1  0.95918050  0.32141467  0.39373429  1.0
  Ni  Ni1492  1  0.95918050  0.65474800  0.39373429  1.0
  Ni  Ni1493  1  0.95918050  0.98808133  0.39373429  1.0
  Ni  Ni1494  1  0.04081950  0.01191867  0.31410871  1.0
  Ni  Ni1495  1  0.04081950  0.34525200  0.31410871  1.0
  Ni  Ni1496  1  0.04081950  0.67858533  0.31410871  1.0
  Ni  Ni1497  1  0.37415283  0.01191867  0.31410871  1.0
  Ni  Ni1498  1  0.37415283  0.34525200  0.31410871  1.0
  Ni  Ni1499  1  0.37415283  0.67858533  0.31410871  1.0
  Ni  Ni1500  1  0.70748617  0.01191867  0.31410871  1.0
  Ni  Ni1501  1  0.70748617  0.34525200  0.31410871  1.0
  Ni  Ni1502  1  0.70748617  0.67858533  0.31410871  1.0
  Ni  Ni1503  1  0.20748617  0.01191867  0.38553729  1.0
  Ni  Ni1504  1  0.20748617  0.34525200  0.38553729  1.0
  Ni  Ni1505  1  0.20748617  0.67858533  0.38553729  1.0
  Ni  Ni1506  1  0.54081950  0.01191867  0.38553729  1.0
  Ni  Ni1507  1  0.54081950  0.34525200  0.38553729  1.0
  Ni  Ni1508  1  0.54081950  0.67858533  0.38553729  1.0
  Ni  Ni1509  1  0.87415283  0.01191867  0.38553729  1.0
  Ni  Ni1510  1  0.87415283  0.34525200  0.38553729  1.0
  Ni  Ni1511  1  0.87415283  0.67858533  0.38553729  1.0
  Ni  Ni1512  1  0.12975050  0.31732100  0.37469457  1.0
  Ni  Ni1513  1  0.12975050  0.65065433  0.37469457  1.0
  Ni  Ni1514  1  0.12975050  0.98398767  0.37469457  1.0
  Ni  Ni1515  1  0.46308383  0.31732100  0.37469457  1.0
  Ni  Ni1516  1  0.46308383  0.65065433  0.37469457  1.0
  Ni  Ni1517  1  0.46308383  0.98398767  0.37469457  1.0
  Ni  Ni1518  1  0.79641717  0.31732100  0.37469457  1.0
  Ni  Ni1519  1  0.79641717  0.65065433  0.37469457  1.0
  Ni  Ni1520  1  0.79641717  0.98398767  0.37469457  1.0
  Ni  Ni1521  1  0.29641717  0.31732100  0.30326600  1.0
  Ni  Ni1522  1  0.29641717  0.65065433  0.30326600  1.0
  Ni  Ni1523  1  0.29641717  0.98398767  0.30326600  1.0
  Ni  Ni1524  1  0.62975050  0.31732100  0.30326600  1.0
  Ni  Ni1525  1  0.62975050  0.65065433  0.30326600  1.0
  Ni  Ni1526  1  0.62975050  0.98398767  0.30326600  1.0
  Ni  Ni1527  1  0.96308383  0.31732100  0.30326600  1.0
  Ni  Ni1528  1  0.96308383  0.65065433  0.30326600  1.0
  Ni  Ni1529  1  0.96308383  0.98398767  0.30326600  1.0
  Ni  Ni1530  1  0.03691617  0.01601233  0.40457700  1.0
  Ni  Ni1531  1  0.03691617  0.34934567  0.40457700  1.0
  Ni  Ni1532  1  0.03691617  0.68267900  0.40457700  1.0
  Ni  Ni1533  1  0.37024950  0.01601233  0.40457700  1.0
  Ni  Ni1534  1  0.37024950  0.34934567  0.40457700  1.0
  Ni  Ni1535  1  0.37024950  0.68267900  0.40457700  1.0
  Ni  Ni1536  1  0.70358283  0.01601233  0.40457700  1.0
  Ni  Ni1537  1  0.70358283  0.34934567  0.40457700  1.0
  Ni  Ni1538  1  0.70358283  0.68267900  0.40457700  1.0
  Ni  Ni1539  1  0.20358283  0.01601233  0.33314843  1.0
  Ni  Ni1540  1  0.20358283  0.34934567  0.33314843  1.0
  Ni  Ni1541  1  0.20358283  0.68267900  0.33314843  1.0
  Ni  Ni1542  1  0.53691617  0.01601233  0.33314843  1.0
  Ni  Ni1543  1  0.53691617  0.34934567  0.33314843  1.0
  Ni  Ni1544  1  0.53691617  0.68267900  0.33314843  1.0
  Ni  Ni1545  1  0.87024950  0.01601233  0.33314843  1.0
  Ni  Ni1546  1  0.87024950  0.34934567  0.33314843  1.0
  Ni  Ni1547  1  0.87024950  0.68267900  0.33314843  1.0
  Ni  Ni1548  1  0.17730533  0.24190800  0.40022307  1.0
  Ni  Ni1549  1  0.17730533  0.57524133  0.40022307  1.0
  Ni  Ni1550  1  0.17730533  0.90857467  0.40022307  1.0
  Ni  Ni1551  1  0.51063867  0.24190800  0.40022307  1.0
  Ni  Ni1552  1  0.51063867  0.57524133  0.40022307  1.0
  Ni  Ni1553  1  0.51063867  0.90857467  0.40022307  1.0
  Ni  Ni1554  1  0.84397200  0.24190800  0.40022307  1.0
  Ni  Ni1555  1  0.84397200  0.57524133  0.40022307  1.0
  Ni  Ni1556  1  0.84397200  0.90857467  0.40022307  1.0
  Ni  Ni1557  1  0.01063867  0.24190800  0.32879450  1.0
  Ni  Ni1558  1  0.01063867  0.57524133  0.32879450  1.0
  Ni  Ni1559  1  0.01063867  0.90857467  0.32879450  1.0
  Ni  Ni1560  1  0.34397200  0.24190800  0.32879450  1.0
  Ni  Ni1561  1  0.34397200  0.57524133  0.32879450  1.0
  Ni  Ni1562  1  0.34397200  0.90857467  0.32879450  1.0
  Ni  Ni1563  1  0.67730533  0.24190800  0.32879450  1.0
  Ni  Ni1564  1  0.67730533  0.57524133  0.32879450  1.0
  Ni  Ni1565  1  0.67730533  0.90857467  0.32879450  1.0
