# generated using pymatgen
data_Zr8Ni21
_symmetry_space_group_name_H-M   'P 1'
_cell_length_a   40.13238558
_cell_length_b   25.74552847
_cell_length_c   32.32793776
_cell_angle_alpha   86.44363832
_cell_angle_beta   68.91126035
_cell_angle_gamma   66.28187966
_symmetry_Int_Tables_number   1
_chemical_formula_structural   Zr8Ni21
_chemical_formula_sum   'Zr288 Ni756'
_cell_volume   28398.66854607
_cell_formula_units_Z   36
loop_
 _symmetry_equiv_pos_site_id
 _symmetry_equiv_pos_as_xyz
  1  'x, y, z'
loop_
 _atom_site_type_symbol
 _atom_site_label
 _atom_site_symmetry_multiplicity
 _atom_site_fract_x
 _atom_site_fract_y
 _atom_site_fract_z
 _atom_site_occupancy
  Zr  Zr0  1  0.30240750  0.25084400  0.00778925  1.0
  Zr  Zr1  1  0.30240750  0.58417733  0.00778925  1.0
  Zr  Zr2  1  0.30240750  0.91751067  0.00778925  1.0
  Zr  Zr3  1  0.63574083  0.25084400  0.00778925  1.0
  Zr  Zr4  1  0.63574083  0.58417733  0.00778925  1.0
  Zr  Zr5  1  0.63574083  0.91751067  0.00778925  1.0
  Zr  Zr6  1  0.96907417  0.25084400  0.00778925  1.0
  Zr  Zr7  1  0.96907417  0.58417733  0.00778925  1.0
  Zr  Zr8  1  0.96907417  0.91751067  0.00778925  1.0
  Zr  Zr9  1  0.13574083  0.25084400  0.13278925  1.0
  Zr  Zr10  1  0.13574083  0.58417733  0.13278925  1.0
  Zr  Zr11  1  0.13574083  0.91751067  0.13278925  1.0
  Zr  Zr12  1  0.46907417  0.25084400  0.13278925  1.0
  Zr  Zr13  1  0.46907417  0.58417733  0.13278925  1.0
  Zr  Zr14  1  0.46907417  0.91751067  0.13278925  1.0
  Zr  Zr15  1  0.80240750  0.25084400  0.13278925  1.0
  Zr  Zr16  1  0.80240750  0.58417733  0.13278925  1.0
  Zr  Zr17  1  0.80240750  0.91751067  0.13278925  1.0
  Zr  Zr18  1  0.03092583  0.08248933  0.23022650  1.0
  Zr  Zr19  1  0.03092583  0.41582267  0.23022650  1.0
  Zr  Zr20  1  0.03092583  0.74915600  0.23022650  1.0
  Zr  Zr21  1  0.36425917  0.08248933  0.23022650  1.0
  Zr  Zr22  1  0.36425917  0.41582267  0.23022650  1.0
  Zr  Zr23  1  0.36425917  0.74915600  0.23022650  1.0
  Zr  Zr24  1  0.69759250  0.08248933  0.23022650  1.0
  Zr  Zr25  1  0.69759250  0.41582267  0.23022650  1.0
  Zr  Zr26  1  0.69759250  0.74915600  0.23022650  1.0
  Zr  Zr27  1  0.19759250  0.08248933  0.10522650  1.0
  Zr  Zr28  1  0.19759250  0.41582267  0.10522650  1.0
  Zr  Zr29  1  0.19759250  0.74915600  0.10522650  1.0
  Zr  Zr30  1  0.53092583  0.08248933  0.10522650  1.0
  Zr  Zr31  1  0.53092583  0.41582267  0.10522650  1.0
  Zr  Zr32  1  0.53092583  0.74915600  0.10522650  1.0
  Zr  Zr33  1  0.86425917  0.08248933  0.10522650  1.0
  Zr  Zr34  1  0.86425917  0.41582267  0.10522650  1.0
  Zr  Zr35  1  0.86425917  0.74915600  0.10522650  1.0
  Zr  Zr36  1  0.30911033  0.13090133  0.12224762  1.0
  Zr  Zr37  1  0.30911033  0.46423467  0.12224762  1.0
  Zr  Zr38  1  0.30911033  0.79756800  0.12224762  1.0
  Zr  Zr39  1  0.64244367  0.13090133  0.12224762  1.0
  Zr  Zr40  1  0.64244367  0.46423467  0.12224763  1.0
  Zr  Zr41  1  0.64244367  0.79756800  0.12224762  1.0
  Zr  Zr42  1  0.97577700  0.13090133  0.12224762  1.0
  Zr  Zr43  1  0.97577700  0.46423467  0.12224763  1.0
  Zr  Zr44  1  0.97577700  0.79756800  0.12224762  1.0
  Zr  Zr45  1  0.14244367  0.13090133  0.24724762  1.0
  Zr  Zr46  1  0.14244367  0.46423467  0.24724763  1.0
  Zr  Zr47  1  0.14244367  0.79756800  0.24724762  1.0
  Zr  Zr48  1  0.47577700  0.13090133  0.24724762  1.0
  Zr  Zr49  1  0.47577700  0.46423467  0.24724763  1.0
  Zr  Zr50  1  0.47577700  0.79756800  0.24724762  1.0
  Zr  Zr51  1  0.80911033  0.13090133  0.24724763  1.0
  Zr  Zr52  1  0.80911033  0.46423467  0.24724763  1.0
  Zr  Zr53  1  0.80911033  0.79756800  0.24724763  1.0
  Zr  Zr54  1  0.02422300  0.20243200  0.11576812  1.0
  Zr  Zr55  1  0.02422300  0.53576533  0.11576812  1.0
  Zr  Zr56  1  0.02422300  0.86909867  0.11576812  1.0
  Zr  Zr57  1  0.35755633  0.20243200  0.11576812  1.0
  Zr  Zr58  1  0.35755633  0.53576533  0.11576812  1.0
  Zr  Zr59  1  0.35755633  0.86909867  0.11576812  1.0
  Zr  Zr60  1  0.69088967  0.20243200  0.11576812  1.0
  Zr  Zr61  1  0.69088967  0.53576533  0.11576813  1.0
  Zr  Zr62  1  0.69088967  0.86909867  0.11576812  1.0
  Zr  Zr63  1  0.19088967  0.20243200  0.24076812  1.0
  Zr  Zr64  1  0.19088967  0.53576533  0.24076812  1.0
  Zr  Zr65  1  0.19088967  0.86909867  0.24076812  1.0
  Zr  Zr66  1  0.52422300  0.20243200  0.24076812  1.0
  Zr  Zr67  1  0.52422300  0.53576533  0.24076812  1.0
  Zr  Zr68  1  0.52422300  0.86909867  0.24076812  1.0
  Zr  Zr69  1  0.85755633  0.20243200  0.24076813  1.0
  Zr  Zr70  1  0.85755633  0.53576533  0.24076813  1.0
  Zr  Zr71  1  0.85755633  0.86909867  0.24076812  1.0
  Zr  Zr72  1  0.21369250  0.32206167  0.22460250  1.0
  Zr  Zr73  1  0.21369250  0.65539500  0.22460250  1.0
  Zr  Zr74  1  0.21369250  0.98872833  0.22460250  1.0
  Zr  Zr75  1  0.54702583  0.32206167  0.22460250  1.0
  Zr  Zr76  1  0.54702583  0.65539500  0.22460250  1.0
  Zr  Zr77  1  0.54702583  0.98872833  0.22460250  1.0
  Zr  Zr78  1  0.88035917  0.32206167  0.22460250  1.0
  Zr  Zr79  1  0.88035917  0.65539500  0.22460250  1.0
  Zr  Zr80  1  0.88035917  0.98872833  0.22460250  1.0
  Zr  Zr81  1  0.04702583  0.32206167  0.09960250  1.0
  Zr  Zr82  1  0.04702583  0.65539500  0.09960250  1.0
  Zr  Zr83  1  0.04702583  0.98872833  0.09960250  1.0
  Zr  Zr84  1  0.38035917  0.32206167  0.09960250  1.0
  Zr  Zr85  1  0.38035917  0.65539500  0.09960250  1.0
  Zr  Zr86  1  0.38035917  0.98872833  0.09960250  1.0
  Zr  Zr87  1  0.71369250  0.32206167  0.09960250  1.0
  Zr  Zr88  1  0.71369250  0.65539500  0.09960250  1.0
  Zr  Zr89  1  0.71369250  0.98872833  0.09960250  1.0
  Zr  Zr90  1  0.11964083  0.01127167  0.01341325  1.0
  Zr  Zr91  1  0.11964083  0.34460500  0.01341325  1.0
  Zr  Zr92  1  0.11964083  0.67793833  0.01341325  1.0
  Zr  Zr93  1  0.45297417  0.01127167  0.01341325  1.0
  Zr  Zr94  1  0.45297417  0.34460500  0.01341325  1.0
  Zr  Zr95  1  0.45297417  0.67793833  0.01341325  1.0
  Zr  Zr96  1  0.78630750  0.01127167  0.01341325  1.0
  Zr  Zr97  1  0.78630750  0.34460500  0.01341325  1.0
  Zr  Zr98  1  0.78630750  0.67793833  0.01341325  1.0
  Zr  Zr99  1  0.28630750  0.01127167  0.13841325  1.0
  Zr  Zr100  1  0.28630750  0.34460500  0.13841325  1.0
  Zr  Zr101  1  0.28630750  0.67793833  0.13841325  1.0
  Zr  Zr102  1  0.61964083  0.01127167  0.13841325  1.0
  Zr  Zr103  1  0.61964083  0.34460500  0.13841325  1.0
  Zr  Zr104  1  0.61964083  0.67793833  0.13841325  1.0
  Zr  Zr105  1  0.95297417  0.01127167  0.13841325  1.0
  Zr  Zr106  1  0.95297417  0.34460500  0.13841325  1.0
  Zr  Zr107  1  0.95297417  0.67793833  0.13841325  1.0
  Zr  Zr108  1  0.23064250  0.22850833  0.09491650  1.0
  Zr  Zr109  1  0.23064250  0.56184167  0.09491650  1.0
  Zr  Zr110  1  0.23064250  0.89517500  0.09491650  1.0
  Zr  Zr111  1  0.56397583  0.22850833  0.09491650  1.0
  Zr  Zr112  1  0.56397583  0.56184167  0.09491650  1.0
  Zr  Zr113  1  0.56397583  0.89517500  0.09491650  1.0
  Zr  Zr114  1  0.89730917  0.22850833  0.09491650  1.0
  Zr  Zr115  1  0.89730917  0.56184167  0.09491650  1.0
  Zr  Zr116  1  0.89730917  0.89517500  0.09491650  1.0
  Zr  Zr117  1  0.06397583  0.22850833  0.21991650  1.0
  Zr  Zr118  1  0.06397583  0.56184167  0.21991650  1.0
  Zr  Zr119  1  0.06397583  0.89517500  0.21991650  1.0
  Zr  Zr120  1  0.39730917  0.22850833  0.21991650  1.0
  Zr  Zr121  1  0.39730917  0.56184167  0.21991650  1.0
  Zr  Zr122  1  0.39730917  0.89517500  0.21991650  1.0
  Zr  Zr123  1  0.73064250  0.22850833  0.21991650  1.0
  Zr  Zr124  1  0.73064250  0.56184167  0.21991650  1.0
  Zr  Zr125  1  0.73064250  0.89517500  0.21991650  1.0
  Zr  Zr126  1  0.10269083  0.10482500  0.14309925  1.0
  Zr  Zr127  1  0.10269083  0.43815833  0.14309925  1.0
  Zr  Zr128  1  0.10269083  0.77149167  0.14309925  1.0
  Zr  Zr129  1  0.43602417  0.10482500  0.14309925  1.0
  Zr  Zr130  1  0.43602417  0.43815833  0.14309925  1.0
  Zr  Zr131  1  0.43602417  0.77149167  0.14309925  1.0
  Zr  Zr132  1  0.76935750  0.10482500  0.14309925  1.0
  Zr  Zr133  1  0.76935750  0.43815833  0.14309925  1.0
  Zr  Zr134  1  0.76935750  0.77149167  0.14309925  1.0
  Zr  Zr135  1  0.26935750  0.10482500  0.01809925  1.0
  Zr  Zr136  1  0.26935750  0.43815833  0.01809925  1.0
  Zr  Zr137  1  0.26935750  0.77149167  0.01809925  1.0
  Zr  Zr138  1  0.60269083  0.10482500  0.01809925  1.0
  Zr  Zr139  1  0.60269083  0.43815833  0.01809925  1.0
  Zr  Zr140  1  0.60269083  0.77149167  0.01809925  1.0
  Zr  Zr141  1  0.93602417  0.10482500  0.01809925  1.0
  Zr  Zr142  1  0.93602417  0.43815833  0.01809925  1.0
  Zr  Zr143  1  0.93602417  0.77149167  0.01809925  1.0
  Ni  Ni144  1  0.16666667  0.00000000  0.11900787  1.0
  Ni  Ni145  1  0.16666667  0.33333333  0.11900787  1.0
  Ni  Ni146  1  0.16666667  0.66666667  0.11900787  1.0
  Ni  Ni147  1  0.50000000  0.00000000  0.11900787  1.0
  Ni  Ni148  1  0.50000000  0.33333333  0.11900787  1.0
  Ni  Ni149  1  0.50000000  0.66666667  0.11900787  1.0
  Ni  Ni150  1  0.83333333  0.00000000  0.11900788  1.0
  Ni  Ni151  1  0.83333333  0.33333333  0.11900788  1.0
  Ni  Ni152  1  0.83333333  0.66666667  0.11900787  1.0
  Ni  Ni153  1  0.00000000  0.00000000  0.24400788  1.0
  Ni  Ni154  1  0.00000000  0.33333333  0.24400788  1.0
  Ni  Ni155  1  0.00000000  0.66666667  0.24400788  1.0
  Ni  Ni156  1  0.33333333  0.00000000  0.24400788  1.0
  Ni  Ni157  1  0.33333333  0.33333333  0.24400788  1.0
  Ni  Ni158  1  0.33333333  0.66666667  0.24400787  1.0
  Ni  Ni159  1  0.66666667  0.00000000  0.24400788  1.0
  Ni  Ni160  1  0.66666667  0.33333333  0.24400788  1.0
  Ni  Ni161  1  0.66666667  0.66666667  0.24400787  1.0
  Ni  Ni162  1  0.00907850  0.28250467  0.17705500  1.0
  Ni  Ni163  1  0.00907850  0.61583800  0.17705500  1.0
  Ni  Ni164  1  0.00907850  0.94917133  0.17705500  1.0
  Ni  Ni165  1  0.34241183  0.28250467  0.17705500  1.0
  Ni  Ni166  1  0.34241183  0.61583800  0.17705500  1.0
  Ni  Ni167  1  0.34241183  0.94917133  0.17705500  1.0
  Ni  Ni168  1  0.67574517  0.28250467  0.17705500  1.0
  Ni  Ni169  1  0.67574517  0.61583800  0.17705500  1.0
  Ni  Ni170  1  0.67574517  0.94917133  0.17705500  1.0
  Ni  Ni171  1  0.17574517  0.28250467  0.05205500  1.0
  Ni  Ni172  1  0.17574517  0.61583800  0.05205500  1.0
  Ni  Ni173  1  0.17574517  0.94917133  0.05205500  1.0
  Ni  Ni174  1  0.50907850  0.28250467  0.05205500  1.0
  Ni  Ni175  1  0.50907850  0.61583800  0.05205500  1.0
  Ni  Ni176  1  0.50907850  0.94917133  0.05205500  1.0
  Ni  Ni177  1  0.84241183  0.28250467  0.05205500  1.0
  Ni  Ni178  1  0.84241183  0.61583800  0.05205500  1.0
  Ni  Ni179  1  0.84241183  0.94917133  0.05205500  1.0
  Ni  Ni180  1  0.32425483  0.05082867  0.06096075  1.0
  Ni  Ni181  1  0.32425483  0.38416200  0.06096075  1.0
  Ni  Ni182  1  0.32425483  0.71749533  0.06096075  1.0
  Ni  Ni183  1  0.65758817  0.05082867  0.06096075  1.0
  Ni  Ni184  1  0.65758817  0.38416200  0.06096075  1.0
  Ni  Ni185  1  0.65758817  0.71749533  0.06096075  1.0
  Ni  Ni186  1  0.99092150  0.05082867  0.06096075  1.0
  Ni  Ni187  1  0.99092150  0.38416200  0.06096075  1.0
  Ni  Ni188  1  0.99092150  0.71749533  0.06096075  1.0
  Ni  Ni189  1  0.15758817  0.05082867  0.18596075  1.0
  Ni  Ni190  1  0.15758817  0.38416200  0.18596075  1.0
  Ni  Ni191  1  0.15758817  0.71749533  0.18596075  1.0
  Ni  Ni192  1  0.49092150  0.05082867  0.18596075  1.0
  Ni  Ni193  1  0.49092150  0.38416200  0.18596075  1.0
  Ni  Ni194  1  0.49092150  0.71749533  0.18596075  1.0
  Ni  Ni195  1  0.82425483  0.05082867  0.18596075  1.0
  Ni  Ni196  1  0.82425483  0.38416200  0.18596075  1.0
  Ni  Ni197  1  0.82425483  0.71749533  0.18596075  1.0
  Ni  Ni198  1  0.03059050  0.17659267  0.19240425  1.0
  Ni  Ni199  1  0.03059050  0.50992600  0.19240425  1.0
  Ni  Ni200  1  0.03059050  0.84325933  0.19240425  1.0
  Ni  Ni201  1  0.36392383  0.17659267  0.19240425  1.0
  Ni  Ni202  1  0.36392383  0.50992600  0.19240425  1.0
  Ni  Ni203  1  0.36392383  0.84325933  0.19240425  1.0
  Ni  Ni204  1  0.69725717  0.17659267  0.19240425  1.0
  Ni  Ni205  1  0.69725717  0.50992600  0.19240425  1.0
  Ni  Ni206  1  0.69725717  0.84325933  0.19240425  1.0
  Ni  Ni207  1  0.19725717  0.17659267  0.06740425  1.0
  Ni  Ni208  1  0.19725717  0.50992600  0.06740425  1.0
  Ni  Ni209  1  0.19725717  0.84325933  0.06740425  1.0
  Ni  Ni210  1  0.53059050  0.17659267  0.06740425  1.0
  Ni  Ni211  1  0.53059050  0.50992600  0.06740425  1.0
  Ni  Ni212  1  0.53059050  0.84325933  0.06740425  1.0
  Ni  Ni213  1  0.86392383  0.17659267  0.06740425  1.0
  Ni  Ni214  1  0.86392383  0.50992600  0.06740425  1.0
  Ni  Ni215  1  0.86392383  0.84325933  0.06740425  1.0
  Ni  Ni216  1  0.30274283  0.15674067  0.04561150  1.0
  Ni  Ni217  1  0.30274283  0.49007400  0.04561150  1.0
  Ni  Ni218  1  0.30274283  0.82340733  0.04561150  1.0
  Ni  Ni219  1  0.63607617  0.15674067  0.04561150  1.0
  Ni  Ni220  1  0.63607617  0.49007400  0.04561150  1.0
  Ni  Ni221  1  0.63607617  0.82340733  0.04561150  1.0
  Ni  Ni222  1  0.96940950  0.15674067  0.04561150  1.0
  Ni  Ni223  1  0.96940950  0.49007400  0.04561150  1.0
  Ni  Ni224  1  0.96940950  0.82340733  0.04561150  1.0
  Ni  Ni225  1  0.13607617  0.15674067  0.17061150  1.0
  Ni  Ni226  1  0.13607617  0.49007400  0.17061150  1.0
  Ni  Ni227  1  0.13607617  0.82340733  0.17061150  1.0
  Ni  Ni228  1  0.46940950  0.15674067  0.17061150  1.0
  Ni  Ni229  1  0.46940950  0.49007400  0.17061150  1.0
  Ni  Ni230  1  0.46940950  0.82340733  0.17061150  1.0
  Ni  Ni231  1  0.80274283  0.15674067  0.17061150  1.0
  Ni  Ni232  1  0.80274283  0.49007400  0.17061150  1.0
  Ni  Ni233  1  0.80274283  0.82340733  0.17061150  1.0
  Ni  Ni234  1  0.28817433  0.25189100  0.18220412  1.0
  Ni  Ni235  1  0.28817433  0.58522433  0.18220412  1.0
  Ni  Ni236  1  0.28817433  0.91855767  0.18220412  1.0
  Ni  Ni237  1  0.62150767  0.25189100  0.18220412  1.0
  Ni  Ni238  1  0.62150767  0.58522433  0.18220412  1.0
  Ni  Ni239  1  0.62150767  0.91855767  0.18220412  1.0
  Ni  Ni240  1  0.95484100  0.25189100  0.18220412  1.0
  Ni  Ni241  1  0.95484100  0.58522433  0.18220413  1.0
  Ni  Ni242  1  0.95484100  0.91855767  0.18220413  1.0
  Ni  Ni243  1  0.12150767  0.25189100  0.05720412  1.0
  Ni  Ni244  1  0.12150767  0.58522433  0.05720412  1.0
  Ni  Ni245  1  0.12150767  0.91855767  0.05720412  1.0
  Ni  Ni246  1  0.45484100  0.25189100  0.05720412  1.0
  Ni  Ni247  1  0.45484100  0.58522433  0.05720412  1.0
  Ni  Ni248  1  0.45484100  0.91855767  0.05720412  1.0
  Ni  Ni249  1  0.78817433  0.25189100  0.05720412  1.0
  Ni  Ni250  1  0.78817433  0.58522433  0.05720413  1.0
  Ni  Ni251  1  0.78817433  0.91855767  0.05720412  1.0
  Ni  Ni252  1  0.04515900  0.08144233  0.05581162  1.0
  Ni  Ni253  1  0.04515900  0.41477567  0.05581162  1.0
  Ni  Ni254  1  0.04515900  0.74810900  0.05581162  1.0
  Ni  Ni255  1  0.37849233  0.08144233  0.05581162  1.0
  Ni  Ni256  1  0.37849233  0.41477567  0.05581163  1.0
  Ni  Ni257  1  0.37849233  0.74810900  0.05581162  1.0
  Ni  Ni258  1  0.71182567  0.08144233  0.05581163  1.0
  Ni  Ni259  1  0.71182567  0.41477567  0.05581163  1.0
  Ni  Ni260  1  0.71182567  0.74810900  0.05581163  1.0
  Ni  Ni261  1  0.21182567  0.08144233  0.18081162  1.0
  Ni  Ni262  1  0.21182567  0.41477567  0.18081163  1.0
  Ni  Ni263  1  0.21182567  0.74810900  0.18081163  1.0
  Ni  Ni264  1  0.54515900  0.08144233  0.18081163  1.0
  Ni  Ni265  1  0.54515900  0.41477567  0.18081162  1.0
  Ni  Ni266  1  0.54515900  0.74810900  0.18081162  1.0
  Ni  Ni267  1  0.87849233  0.08144233  0.18081162  1.0
  Ni  Ni268  1  0.87849233  0.41477567  0.18081163  1.0
  Ni  Ni269  1  0.87849233  0.74810900  0.18081163  1.0
  Ni  Ni270  1  0.29316600  0.24190800  0.09718212  1.0
  Ni  Ni271  1  0.29316600  0.57524133  0.09718212  1.0
  Ni  Ni272  1  0.29316600  0.90857467  0.09718212  1.0
  Ni  Ni273  1  0.62649933  0.24190800  0.09718212  1.0
  Ni  Ni274  1  0.62649933  0.57524133  0.09718212  1.0
  Ni  Ni275  1  0.62649933  0.90857467  0.09718212  1.0
  Ni  Ni276  1  0.95983267  0.24190800  0.09718212  1.0
  Ni  Ni277  1  0.95983267  0.57524133  0.09718212  1.0
  Ni  Ni278  1  0.95983267  0.90857467  0.09718212  1.0
  Ni  Ni279  1  0.12649933  0.24190800  0.22218212  1.0
  Ni  Ni280  1  0.12649933  0.57524133  0.22218213  1.0
  Ni  Ni281  1  0.12649933  0.90857467  0.22218212  1.0
  Ni  Ni282  1  0.45983267  0.24190800  0.22218213  1.0
  Ni  Ni283  1  0.45983267  0.57524133  0.22218212  1.0
  Ni  Ni284  1  0.45983267  0.90857467  0.22218212  1.0
  Ni  Ni285  1  0.79316600  0.24190800  0.22218213  1.0
  Ni  Ni286  1  0.79316600  0.57524133  0.22218213  1.0
  Ni  Ni287  1  0.79316600  0.90857467  0.22218212  1.0
  Ni  Ni288  1  0.00915400  0.28194667  0.05708313  1.0
  Ni  Ni289  1  0.00915400  0.61528000  0.05708313  1.0
  Ni  Ni290  1  0.00915400  0.94861333  0.05708313  1.0
  Ni  Ni291  1  0.34248733  0.28194667  0.05708313  1.0
  Ni  Ni292  1  0.34248733  0.61528000  0.05708313  1.0
  Ni  Ni293  1  0.34248733  0.94861333  0.05708312  1.0
  Ni  Ni294  1  0.67582067  0.28194667  0.05708313  1.0
  Ni  Ni295  1  0.67582067  0.61528000  0.05708313  1.0
  Ni  Ni296  1  0.67582067  0.94861333  0.05708313  1.0
  Ni  Ni297  1  0.17582067  0.28194667  0.18208312  1.0
  Ni  Ni298  1  0.17582067  0.61528000  0.18208313  1.0
  Ni  Ni299  1  0.17582067  0.94861333  0.18208312  1.0
  Ni  Ni300  1  0.50915400  0.28194667  0.18208312  1.0
  Ni  Ni301  1  0.50915400  0.61528000  0.18208313  1.0
  Ni  Ni302  1  0.50915400  0.94861333  0.18208312  1.0
  Ni  Ni303  1  0.84248733  0.28194667  0.18208313  1.0
  Ni  Ni304  1  0.84248733  0.61528000  0.18208313  1.0
  Ni  Ni305  1  0.84248733  0.94861333  0.18208312  1.0
  Ni  Ni306  1  0.32417933  0.05138667  0.18093262  1.0
  Ni  Ni307  1  0.32417933  0.38472000  0.18093262  1.0
  Ni  Ni308  1  0.32417933  0.71805333  0.18093262  1.0
  Ni  Ni309  1  0.65751267  0.05138667  0.18093263  1.0
  Ni  Ni310  1  0.65751267  0.38472000  0.18093262  1.0
  Ni  Ni311  1  0.65751267  0.71805333  0.18093262  1.0
  Ni  Ni312  1  0.99084600  0.05138667  0.18093262  1.0
  Ni  Ni313  1  0.99084600  0.38472000  0.18093263  1.0
  Ni  Ni314  1  0.99084600  0.71805333  0.18093262  1.0
  Ni  Ni315  1  0.15751267  0.05138667  0.05593262  1.0
  Ni  Ni316  1  0.15751267  0.38472000  0.05593262  1.0
  Ni  Ni317  1  0.15751267  0.71805333  0.05593262  1.0
  Ni  Ni318  1  0.49084600  0.05138667  0.05593263  1.0
  Ni  Ni319  1  0.49084600  0.38472000  0.05593262  1.0
  Ni  Ni320  1  0.49084600  0.71805333  0.05593262  1.0
  Ni  Ni321  1  0.82417933  0.05138667  0.05593263  1.0
  Ni  Ni322  1  0.82417933  0.38472000  0.05593263  1.0
  Ni  Ni323  1  0.82417933  0.71805333  0.05593263  1.0
  Ni  Ni324  1  0.08872000  0.11618200  0.06626212  1.0
  Ni  Ni325  1  0.08872000  0.44951533  0.06626212  1.0
  Ni  Ni326  1  0.08872000  0.78284867  0.06626212  1.0
  Ni  Ni327  1  0.42205333  0.11618200  0.06626212  1.0
  Ni  Ni328  1  0.42205333  0.44951533  0.06626212  1.0
  Ni  Ni329  1  0.42205333  0.78284867  0.06626212  1.0
  Ni  Ni330  1  0.75538667  0.11618200  0.06626213  1.0
  Ni  Ni331  1  0.75538667  0.44951533  0.06626213  1.0
  Ni  Ni332  1  0.75538667  0.78284867  0.06626212  1.0
  Ni  Ni333  1  0.25538667  0.11618200  0.19126213  1.0
  Ni  Ni334  1  0.25538667  0.44951533  0.19126213  1.0
  Ni  Ni335  1  0.25538667  0.78284867  0.19126213  1.0
  Ni  Ni336  1  0.58872000  0.11618200  0.19126213  1.0
  Ni  Ni337  1  0.58872000  0.44951533  0.19126213  1.0
  Ni  Ni338  1  0.58872000  0.78284867  0.19126212  1.0
  Ni  Ni339  1  0.92205333  0.11618200  0.19126213  1.0
  Ni  Ni340  1  0.92205333  0.44951533  0.19126213  1.0
  Ni  Ni341  1  0.92205333  0.78284867  0.19126213  1.0
  Ni  Ni342  1  0.24461333  0.21715133  0.17175362  1.0
  Ni  Ni343  1  0.24461333  0.55048467  0.17175363  1.0
  Ni  Ni344  1  0.24461333  0.88381800  0.17175363  1.0
  Ni  Ni345  1  0.57794667  0.21715133  0.17175363  1.0
  Ni  Ni346  1  0.57794667  0.55048467  0.17175363  1.0
  Ni  Ni347  1  0.57794667  0.88381800  0.17175362  1.0
  Ni  Ni348  1  0.91128000  0.21715133  0.17175363  1.0
  Ni  Ni349  1  0.91128000  0.55048467  0.17175363  1.0
  Ni  Ni350  1  0.91128000  0.88381800  0.17175362  1.0
  Ni  Ni351  1  0.07794667  0.21715133  0.04675362  1.0
  Ni  Ni352  1  0.07794667  0.55048467  0.04675362  1.0
  Ni  Ni353  1  0.07794667  0.88381800  0.04675362  1.0
  Ni  Ni354  1  0.41128000  0.21715133  0.04675362  1.0
  Ni  Ni355  1  0.41128000  0.55048467  0.04675362  1.0
  Ni  Ni356  1  0.41128000  0.88381800  0.04675362  1.0
  Ni  Ni357  1  0.74461333  0.21715133  0.04675362  1.0
  Ni  Ni358  1  0.74461333  0.55048467  0.04675363  1.0
  Ni  Ni359  1  0.74461333  0.88381800  0.04675362  1.0
  Ni  Ni360  1  0.08689000  0.11413800  0.23202362  1.0
  Ni  Ni361  1  0.08689000  0.44747133  0.23202363  1.0
  Ni  Ni362  1  0.08689000  0.78080467  0.23202363  1.0
  Ni  Ni363  1  0.42022333  0.11413800  0.23202363  1.0
  Ni  Ni364  1  0.42022333  0.44747133  0.23202362  1.0
  Ni  Ni365  1  0.42022333  0.78080467  0.23202362  1.0
  Ni  Ni366  1  0.75355667  0.11413800  0.23202363  1.0
  Ni  Ni367  1  0.75355667  0.44747133  0.23202363  1.0
  Ni  Ni368  1  0.75355667  0.78080467  0.23202363  1.0
  Ni  Ni369  1  0.25355667  0.11413800  0.10702362  1.0
  Ni  Ni370  1  0.25355667  0.44747133  0.10702362  1.0
  Ni  Ni371  1  0.25355667  0.78080467  0.10702362  1.0
  Ni  Ni372  1  0.58689000  0.11413800  0.10702363  1.0
  Ni  Ni373  1  0.58689000  0.44747133  0.10702362  1.0
  Ni  Ni374  1  0.58689000  0.78080467  0.10702362  1.0
  Ni  Ni375  1  0.92022333  0.11413800  0.10702363  1.0
  Ni  Ni376  1  0.92022333  0.44747133  0.10702363  1.0
  Ni  Ni377  1  0.92022333  0.78080467  0.10702363  1.0
  Ni  Ni378  1  0.24644333  0.21919533  0.00599212  1.0
  Ni  Ni379  1  0.24644333  0.55252867  0.00599212  1.0
  Ni  Ni380  1  0.24644333  0.88586200  0.00599213  1.0
  Ni  Ni381  1  0.57977667  0.21919533  0.00599212  1.0
  Ni  Ni382  1  0.57977667  0.55252867  0.00599213  1.0
  Ni  Ni383  1  0.57977667  0.88586200  0.00599213  1.0
  Ni  Ni384  1  0.91311000  0.21919533  0.00599213  1.0
  Ni  Ni385  1  0.91311000  0.55252867  0.00599213  1.0
  Ni  Ni386  1  0.91311000  0.88586200  0.00599213  1.0
  Ni  Ni387  1  0.07977667  0.21919533  0.13099212  1.0
  Ni  Ni388  1  0.07977667  0.55252867  0.13099212  1.0
  Ni  Ni389  1  0.07977667  0.88586200  0.13099212  1.0
  Ni  Ni390  1  0.41311000  0.21919533  0.13099212  1.0
  Ni  Ni391  1  0.41311000  0.55252867  0.13099212  1.0
  Ni  Ni392  1  0.41311000  0.88586200  0.13099212  1.0
  Ni  Ni393  1  0.74644333  0.21919533  0.13099212  1.0
  Ni  Ni394  1  0.74644333  0.55252867  0.13099213  1.0
  Ni  Ni395  1  0.74644333  0.88586200  0.13099212  1.0
  Ni  Ni396  1  0.02586450  0.18047400  0.03593575  1.0
  Ni  Ni397  1  0.02586450  0.51380733  0.03593575  1.0
  Ni  Ni398  1  0.02586450  0.84714067  0.03593575  1.0
  Ni  Ni399  1  0.35919783  0.18047400  0.03593575  1.0
  Ni  Ni400  1  0.35919783  0.51380733  0.03593575  1.0
  Ni  Ni401  1  0.35919783  0.84714067  0.03593575  1.0
  Ni  Ni402  1  0.69253117  0.18047400  0.03593575  1.0
  Ni  Ni403  1  0.69253117  0.51380733  0.03593575  1.0
  Ni  Ni404  1  0.69253117  0.84714067  0.03593575  1.0
  Ni  Ni405  1  0.19253117  0.18047400  0.16093575  1.0
  Ni  Ni406  1  0.19253117  0.51380733  0.16093575  1.0
  Ni  Ni407  1  0.19253117  0.84714067  0.16093575  1.0
  Ni  Ni408  1  0.52586450  0.18047400  0.16093575  1.0
  Ni  Ni409  1  0.52586450  0.51380733  0.16093575  1.0
  Ni  Ni410  1  0.52586450  0.84714067  0.16093575  1.0
  Ni  Ni411  1  0.85919783  0.18047400  0.16093575  1.0
  Ni  Ni412  1  0.85919783  0.51380733  0.16093575  1.0
  Ni  Ni413  1  0.85919783  0.84714067  0.16093575  1.0
  Ni  Ni414  1  0.30746883  0.15285933  0.20208000  1.0
  Ni  Ni415  1  0.30746883  0.48619267  0.20208000  1.0
  Ni  Ni416  1  0.30746883  0.81952600  0.20208000  1.0
  Ni  Ni417  1  0.64080217  0.15285933  0.20208000  1.0
  Ni  Ni418  1  0.64080217  0.48619267  0.20208000  1.0
  Ni  Ni419  1  0.64080217  0.81952600  0.20208000  1.0
  Ni  Ni420  1  0.97413550  0.15285933  0.20208000  1.0
  Ni  Ni421  1  0.97413550  0.48619267  0.20208000  1.0
  Ni  Ni422  1  0.97413550  0.81952600  0.20208000  1.0
  Ni  Ni423  1  0.14080217  0.15285933  0.07708000  1.0
  Ni  Ni424  1  0.14080217  0.48619267  0.07708000  1.0
  Ni  Ni425  1  0.14080217  0.81952600  0.07708000  1.0
  Ni  Ni426  1  0.47413550  0.15285933  0.07708000  1.0
  Ni  Ni427  1  0.47413550  0.48619267  0.07708000  1.0
  Ni  Ni428  1  0.47413550  0.81952600  0.07708000  1.0
  Ni  Ni429  1  0.80746883  0.15285933  0.07708000  1.0
  Ni  Ni430  1  0.80746883  0.48619267  0.07708000  1.0
  Ni  Ni431  1  0.80746883  0.81952600  0.07708000  1.0
  Ni  Ni432  1  0.10796917  0.01191867  0.18774400  1.0
  Ni  Ni433  1  0.10796917  0.34525200  0.18774400  1.0
  Ni  Ni434  1  0.10796917  0.67858533  0.18774400  1.0
  Ni  Ni435  1  0.44130250  0.01191867  0.18774400  1.0
  Ni  Ni436  1  0.44130250  0.34525200  0.18774400  1.0
  Ni  Ni437  1  0.44130250  0.67858533  0.18774400  1.0
  Ni  Ni438  1  0.77463583  0.01191867  0.18774400  1.0
  Ni  Ni439  1  0.77463583  0.34525200  0.18774400  1.0
  Ni  Ni440  1  0.77463583  0.67858533  0.18774400  1.0
  Ni  Ni441  1  0.27463583  0.01191867  0.06274400  1.0
  Ni  Ni442  1  0.27463583  0.34525200  0.06274400  1.0
  Ni  Ni443  1  0.27463583  0.67858533  0.06274400  1.0
  Ni  Ni444  1  0.60796917  0.01191867  0.06274400  1.0
  Ni  Ni445  1  0.60796917  0.34525200  0.06274400  1.0
  Ni  Ni446  1  0.60796917  0.67858533  0.06274400  1.0
  Ni  Ni447  1  0.94130250  0.01191867  0.06274400  1.0
  Ni  Ni448  1  0.94130250  0.34525200  0.06274400  1.0
  Ni  Ni449  1  0.94130250  0.67858533  0.06274400  1.0
  Ni  Ni450  1  0.22536417  0.32141467  0.05027175  1.0
  Ni  Ni451  1  0.22536417  0.65474800  0.05027175  1.0
  Ni  Ni452  1  0.22536417  0.98808133  0.05027175  1.0
  Ni  Ni453  1  0.55869750  0.32141467  0.05027175  1.0
  Ni  Ni454  1  0.55869750  0.65474800  0.05027175  1.0
  Ni  Ni455  1  0.55869750  0.98808133  0.05027175  1.0
  Ni  Ni456  1  0.89203083  0.32141467  0.05027175  1.0
  Ni  Ni457  1  0.89203083  0.65474800  0.05027175  1.0
  Ni  Ni458  1  0.89203083  0.98808133  0.05027175  1.0
  Ni  Ni459  1  0.05869750  0.32141467  0.17527175  1.0
  Ni  Ni460  1  0.05869750  0.65474800  0.17527175  1.0
  Ni  Ni461  1  0.05869750  0.98808133  0.17527175  1.0
  Ni  Ni462  1  0.39203083  0.32141467  0.17527175  1.0
  Ni  Ni463  1  0.39203083  0.65474800  0.17527175  1.0
  Ni  Ni464  1  0.39203083  0.98808133  0.17527175  1.0
  Ni  Ni465  1  0.72536417  0.32141467  0.17527175  1.0
  Ni  Ni466  1  0.72536417  0.65474800  0.17527175  1.0
  Ni  Ni467  1  0.72536417  0.98808133  0.17527175  1.0
  Ni  Ni468  1  0.10573200  0.01601233  0.10066887  1.0
  Ni  Ni469  1  0.10573200  0.34934567  0.10066887  1.0
  Ni  Ni470  1  0.10573200  0.68267900  0.10066887  1.0
  Ni  Ni471  1  0.43906533  0.01601233  0.10066887  1.0
  Ni  Ni472  1  0.43906533  0.34934567  0.10066887  1.0
  Ni  Ni473  1  0.43906533  0.68267900  0.10066887  1.0
  Ni  Ni474  1  0.77239867  0.01601233  0.10066887  1.0
  Ni  Ni475  1  0.77239867  0.34934567  0.10066887  1.0
  Ni  Ni476  1  0.77239867  0.68267900  0.10066887  1.0
  Ni  Ni477  1  0.27239867  0.01601233  0.22566887  1.0
  Ni  Ni478  1  0.27239867  0.34934567  0.22566887  1.0
  Ni  Ni479  1  0.27239867  0.68267900  0.22566887  1.0
  Ni  Ni480  1  0.60573200  0.01601233  0.22566887  1.0
  Ni  Ni481  1  0.60573200  0.34934567  0.22566887  1.0
  Ni  Ni482  1  0.60573200  0.68267900  0.22566887  1.0
  Ni  Ni483  1  0.93906533  0.01601233  0.22566887  1.0
  Ni  Ni484  1  0.93906533  0.34934567  0.22566887  1.0
  Ni  Ni485  1  0.93906533  0.68267900  0.22566887  1.0
  Ni  Ni486  1  0.22760133  0.31732100  0.13734687  1.0
  Ni  Ni487  1  0.22760133  0.65065433  0.13734688  1.0
  Ni  Ni488  1  0.22760133  0.98398767  0.13734687  1.0
  Ni  Ni489  1  0.56093467  0.31732100  0.13734688  1.0
  Ni  Ni490  1  0.56093467  0.65065433  0.13734688  1.0
  Ni  Ni491  1  0.56093467  0.98398767  0.13734687  1.0
  Ni  Ni492  1  0.89426800  0.31732100  0.13734688  1.0
  Ni  Ni493  1  0.89426800  0.65065433  0.13734688  1.0
  Ni  Ni494  1  0.89426800  0.98398767  0.13734687  1.0
  Ni  Ni495  1  0.06093467  0.31732100  0.01234687  1.0
  Ni  Ni496  1  0.06093467  0.65065433  0.01234687  1.0
  Ni  Ni497  1  0.06093467  0.98398767  0.01234687  1.0
  Ni  Ni498  1  0.39426800  0.31732100  0.01234687  1.0
  Ni  Ni499  1  0.39426800  0.65065433  0.01234688  1.0
  Ni  Ni500  1  0.39426800  0.98398767  0.01234688  1.0
  Ni  Ni501  1  0.72760133  0.31732100  0.01234688  1.0
  Ni  Ni502  1  0.72760133  0.65065433  0.01234688  1.0
  Ni  Ni503  1  0.72760133  0.98398767  0.01234688  1.0
  Ni  Ni504  1  0.04016733  0.09142533  0.14083362  1.0
  Ni  Ni505  1  0.04016733  0.42475867  0.14083362  1.0
  Ni  Ni506  1  0.04016733  0.75809200  0.14083362  1.0
  Ni  Ni507  1  0.37350067  0.09142533  0.14083362  1.0
  Ni  Ni508  1  0.37350067  0.42475867  0.14083363  1.0
  Ni  Ni509  1  0.37350067  0.75809200  0.14083363  1.0
  Ni  Ni510  1  0.70683400  0.09142533  0.14083362  1.0
  Ni  Ni511  1  0.70683400  0.42475867  0.14083363  1.0
  Ni  Ni512  1  0.70683400  0.75809200  0.14083363  1.0
  Ni  Ni513  1  0.20683400  0.09142533  0.01583362  1.0
  Ni  Ni514  1  0.20683400  0.42475867  0.01583362  1.0
  Ni  Ni515  1  0.20683400  0.75809200  0.01583362  1.0
  Ni  Ni516  1  0.54016733  0.09142533  0.01583362  1.0
  Ni  Ni517  1  0.54016733  0.42475867  0.01583362  1.0
  Ni  Ni518  1  0.54016733  0.75809200  0.01583363  1.0
  Ni  Ni519  1  0.87350067  0.09142533  0.01583363  1.0
  Ni  Ni520  1  0.87350067  0.42475867  0.01583363  1.0
  Ni  Ni521  1  0.87350067  0.75809200  0.01583363  1.0
  Zr  Zr522  1  0.30240750  0.25084400  0.25778925  1.0
  Zr  Zr523  1  0.30240750  0.58417733  0.25778925  1.0
  Zr  Zr524  1  0.30240750  0.91751067  0.25778925  1.0
  Zr  Zr525  1  0.63574083  0.25084400  0.25778925  1.0
  Zr  Zr526  1  0.63574083  0.58417733  0.25778925  1.0
  Zr  Zr527  1  0.63574083  0.91751067  0.25778925  1.0
  Zr  Zr528  1  0.96907417  0.25084400  0.25778925  1.0
  Zr  Zr529  1  0.96907417  0.58417733  0.25778925  1.0
  Zr  Zr530  1  0.96907417  0.91751067  0.25778925  1.0
  Zr  Zr531  1  0.13574083  0.25084400  0.38278925  1.0
  Zr  Zr532  1  0.13574083  0.58417733  0.38278925  1.0
  Zr  Zr533  1  0.13574083  0.91751067  0.38278925  1.0
  Zr  Zr534  1  0.46907417  0.25084400  0.38278925  1.0
  Zr  Zr535  1  0.46907417  0.58417733  0.38278925  1.0
  Zr  Zr536  1  0.46907417  0.91751067  0.38278925  1.0
  Zr  Zr537  1  0.80240750  0.25084400  0.38278925  1.0
  Zr  Zr538  1  0.80240750  0.58417733  0.38278925  1.0
  Zr  Zr539  1  0.80240750  0.91751067  0.38278925  1.0
  Zr  Zr540  1  0.03092583  0.08248933  0.48022650  1.0
  Zr  Zr541  1  0.03092583  0.41582267  0.48022650  1.0
  Zr  Zr542  1  0.03092583  0.74915600  0.48022650  1.0
  Zr  Zr543  1  0.36425917  0.08248933  0.48022650  1.0
  Zr  Zr544  1  0.36425917  0.41582267  0.48022650  1.0
  Zr  Zr545  1  0.36425917  0.74915600  0.48022650  1.0
  Zr  Zr546  1  0.69759250  0.08248933  0.48022650  1.0
  Zr  Zr547  1  0.69759250  0.41582267  0.48022650  1.0
  Zr  Zr548  1  0.69759250  0.74915600  0.48022650  1.0
  Zr  Zr549  1  0.19759250  0.08248933  0.35522650  1.0
  Zr  Zr550  1  0.19759250  0.41582267  0.35522650  1.0
  Zr  Zr551  1  0.19759250  0.74915600  0.35522650  1.0
  Zr  Zr552  1  0.53092583  0.08248933  0.35522650  1.0
  Zr  Zr553  1  0.53092583  0.41582267  0.35522650  1.0
  Zr  Zr554  1  0.53092583  0.74915600  0.35522650  1.0
  Zr  Zr555  1  0.86425917  0.08248933  0.35522650  1.0
  Zr  Zr556  1  0.86425917  0.41582267  0.35522650  1.0
  Zr  Zr557  1  0.86425917  0.74915600  0.35522650  1.0
  Zr  Zr558  1  0.30911033  0.13090133  0.37224762  1.0
  Zr  Zr559  1  0.30911033  0.46423467  0.37224762  1.0
  Zr  Zr560  1  0.30911033  0.79756800  0.37224763  1.0
  Zr  Zr561  1  0.64244367  0.13090133  0.37224763  1.0
  Zr  Zr562  1  0.64244367  0.46423467  0.37224763  1.0
  Zr  Zr563  1  0.64244367  0.79756800  0.37224762  1.0
  Zr  Zr564  1  0.97577700  0.13090133  0.37224763  1.0
  Zr  Zr565  1  0.97577700  0.46423467  0.37224763  1.0
  Zr  Zr566  1  0.97577700  0.79756800  0.37224763  1.0
  Zr  Zr567  1  0.14244367  0.13090133  0.49724763  1.0
  Zr  Zr568  1  0.14244367  0.46423467  0.49724763  1.0
  Zr  Zr569  1  0.14244367  0.79756800  0.49724763  1.0
  Zr  Zr570  1  0.47577700  0.13090133  0.49724763  1.0
  Zr  Zr571  1  0.47577700  0.46423467  0.49724763  1.0
  Zr  Zr572  1  0.47577700  0.79756800  0.49724762  1.0
  Zr  Zr573  1  0.80911033  0.13090133  0.49724763  1.0
  Zr  Zr574  1  0.80911033  0.46423467  0.49724763  1.0
  Zr  Zr575  1  0.80911033  0.79756800  0.49724763  1.0
  Zr  Zr576  1  0.02422300  0.20243200  0.36576812  1.0
  Zr  Zr577  1  0.02422300  0.53576533  0.36576812  1.0
  Zr  Zr578  1  0.02422300  0.86909867  0.36576812  1.0
  Zr  Zr579  1  0.35755633  0.20243200  0.36576812  1.0
  Zr  Zr580  1  0.35755633  0.53576533  0.36576812  1.0
  Zr  Zr581  1  0.35755633  0.86909867  0.36576812  1.0
  Zr  Zr582  1  0.69088967  0.20243200  0.36576812  1.0
  Zr  Zr583  1  0.69088967  0.53576533  0.36576813  1.0
  Zr  Zr584  1  0.69088967  0.86909867  0.36576812  1.0
  Zr  Zr585  1  0.19088967  0.20243200  0.49076812  1.0
  Zr  Zr586  1  0.19088967  0.53576533  0.49076812  1.0
  Zr  Zr587  1  0.19088967  0.86909867  0.49076812  1.0
  Zr  Zr588  1  0.52422300  0.20243200  0.49076812  1.0
  Zr  Zr589  1  0.52422300  0.53576533  0.49076812  1.0
  Zr  Zr590  1  0.52422300  0.86909867  0.49076812  1.0
  Zr  Zr591  1  0.85755633  0.20243200  0.49076812  1.0
  Zr  Zr592  1  0.85755633  0.53576533  0.49076813  1.0
  Zr  Zr593  1  0.85755633  0.86909867  0.49076813  1.0
  Zr  Zr594  1  0.21369250  0.32206167  0.47460250  1.0
  Zr  Zr595  1  0.21369250  0.65539500  0.47460250  1.0
  Zr  Zr596  1  0.21369250  0.98872833  0.47460250  1.0
  Zr  Zr597  1  0.54702583  0.32206167  0.47460250  1.0
  Zr  Zr598  1  0.54702583  0.65539500  0.47460250  1.0
  Zr  Zr599  1  0.54702583  0.98872833  0.47460250  1.0
  Zr  Zr600  1  0.88035917  0.32206167  0.47460250  1.0
  Zr  Zr601  1  0.88035917  0.65539500  0.47460250  1.0
  Zr  Zr602  1  0.88035917  0.98872833  0.47460250  1.0
  Zr  Zr603  1  0.04702583  0.32206167  0.34960250  1.0
  Zr  Zr604  1  0.04702583  0.65539500  0.34960250  1.0
  Zr  Zr605  1  0.04702583  0.98872833  0.34960250  1.0
  Zr  Zr606  1  0.38035917  0.32206167  0.34960250  1.0
  Zr  Zr607  1  0.38035917  0.65539500  0.34960250  1.0
  Zr  Zr608  1  0.38035917  0.98872833  0.34960250  1.0
  Zr  Zr609  1  0.71369250  0.32206167  0.34960250  1.0
  Zr  Zr610  1  0.71369250  0.65539500  0.34960250  1.0
  Zr  Zr611  1  0.71369250  0.98872833  0.34960250  1.0
  Zr  Zr612  1  0.11964083  0.01127167  0.26341325  1.0
  Zr  Zr613  1  0.11964083  0.34460500  0.26341325  1.0
  Zr  Zr614  1  0.11964083  0.67793833  0.26341325  1.0
  Zr  Zr615  1  0.45297417  0.01127167  0.26341325  1.0
  Zr  Zr616  1  0.45297417  0.34460500  0.26341325  1.0
  Zr  Zr617  1  0.45297417  0.67793833  0.26341325  1.0
  Zr  Zr618  1  0.78630750  0.01127167  0.26341325  1.0
  Zr  Zr619  1  0.78630750  0.34460500  0.26341325  1.0
  Zr  Zr620  1  0.78630750  0.67793833  0.26341325  1.0
  Zr  Zr621  1  0.28630750  0.01127167  0.38841325  1.0
  Zr  Zr622  1  0.28630750  0.34460500  0.38841325  1.0
  Zr  Zr623  1  0.28630750  0.67793833  0.38841325  1.0
  Zr  Zr624  1  0.61964083  0.01127167  0.38841325  1.0
  Zr  Zr625  1  0.61964083  0.34460500  0.38841325  1.0
  Zr  Zr626  1  0.61964083  0.67793833  0.38841325  1.0
  Zr  Zr627  1  0.95297417  0.01127167  0.38841325  1.0
  Zr  Zr628  1  0.95297417  0.34460500  0.38841325  1.0
  Zr  Zr629  1  0.95297417  0.67793833  0.38841325  1.0
  Zr  Zr630  1  0.23064250  0.22850833  0.34491650  1.0
  Zr  Zr631  1  0.23064250  0.56184167  0.34491650  1.0
  Zr  Zr632  1  0.23064250  0.89517500  0.34491650  1.0
  Zr  Zr633  1  0.56397583  0.22850833  0.34491650  1.0
  Zr  Zr634  1  0.56397583  0.56184167  0.34491650  1.0
  Zr  Zr635  1  0.56397583  0.89517500  0.34491650  1.0
  Zr  Zr636  1  0.89730917  0.22850833  0.34491650  1.0
  Zr  Zr637  1  0.89730917  0.56184167  0.34491650  1.0
  Zr  Zr638  1  0.89730917  0.89517500  0.34491650  1.0
  Zr  Zr639  1  0.06397583  0.22850833  0.46991650  1.0
  Zr  Zr640  1  0.06397583  0.56184167  0.46991650  1.0
  Zr  Zr641  1  0.06397583  0.89517500  0.46991650  1.0
  Zr  Zr642  1  0.39730917  0.22850833  0.46991650  1.0
  Zr  Zr643  1  0.39730917  0.56184167  0.46991650  1.0
  Zr  Zr644  1  0.39730917  0.89517500  0.46991650  1.0
  Zr  Zr645  1  0.73064250  0.22850833  0.46991650  1.0
  Zr  Zr646  1  0.73064250  0.56184167  0.46991650  1.0
  Zr  Zr647  1  0.73064250  0.89517500  0.46991650  1.0
  Zr  Zr648  1  0.10269083  0.10482500  0.39309925  1.0
  Zr  Zr649  1  0.10269083  0.43815833  0.39309925  1.0
  Zr  Zr650  1  0.10269083  0.77149167  0.39309925  1.0
  Zr  Zr651  1  0.43602417  0.10482500  0.39309925  1.0
  Zr  Zr652  1  0.43602417  0.43815833  0.39309925  1.0
  Zr  Zr653  1  0.43602417  0.77149167  0.39309925  1.0
  Zr  Zr654  1  0.76935750  0.10482500  0.39309925  1.0
  Zr  Zr655  1  0.76935750  0.43815833  0.39309925  1.0
  Zr  Zr656  1  0.76935750  0.77149167  0.39309925  1.0
  Zr  Zr657  1  0.26935750  0.10482500  0.26809925  1.0
  Zr  Zr658  1  0.26935750  0.43815833  0.26809925  1.0
  Zr  Zr659  1  0.26935750  0.77149167  0.26809925  1.0
  Zr  Zr660  1  0.60269083  0.10482500  0.26809925  1.0
  Zr  Zr661  1  0.60269083  0.43815833  0.26809925  1.0
  Zr  Zr662  1  0.60269083  0.77149167  0.26809925  1.0
  Zr  Zr663  1  0.93602417  0.10482500  0.26809925  1.0
  Zr  Zr664  1  0.93602417  0.43815833  0.26809925  1.0
  Zr  Zr665  1  0.93602417  0.77149167  0.26809925  1.0
  Ni  Ni666  1  0.16666667  0.00000000  0.36900787  1.0
  Ni  Ni667  1  0.16666667  0.33333333  0.36900787  1.0
  Ni  Ni668  1  0.16666667  0.66666667  0.36900787  1.0
  Ni  Ni669  1  0.50000000  0.00000000  0.36900787  1.0
  Ni  Ni670  1  0.50000000  0.33333333  0.36900787  1.0
  Ni  Ni671  1  0.50000000  0.66666667  0.36900787  1.0
  Ni  Ni672  1  0.83333333  0.00000000  0.36900788  1.0
  Ni  Ni673  1  0.83333333  0.33333333  0.36900788  1.0
  Ni  Ni674  1  0.83333333  0.66666667  0.36900788  1.0
  Ni  Ni675  1  0.00000000  0.00000000  0.49400788  1.0
  Ni  Ni676  1  0.00000000  0.33333333  0.49400787  1.0
  Ni  Ni677  1  0.00000000  0.66666667  0.49400787  1.0
  Ni  Ni678  1  0.33333333  0.00000000  0.49400787  1.0
  Ni  Ni679  1  0.33333333  0.33333333  0.49400787  1.0
  Ni  Ni680  1  0.33333333  0.66666667  0.49400788  1.0
  Ni  Ni681  1  0.66666667  0.00000000  0.49400788  1.0
  Ni  Ni682  1  0.66666667  0.33333333  0.49400788  1.0
  Ni  Ni683  1  0.66666667  0.66666667  0.49400787  1.0
  Ni  Ni684  1  0.00907850  0.28250467  0.42705500  1.0
  Ni  Ni685  1  0.00907850  0.61583800  0.42705500  1.0
  Ni  Ni686  1  0.00907850  0.94917133  0.42705500  1.0
  Ni  Ni687  1  0.34241183  0.28250467  0.42705500  1.0
  Ni  Ni688  1  0.34241183  0.61583800  0.42705500  1.0
  Ni  Ni689  1  0.34241183  0.94917133  0.42705500  1.0
  Ni  Ni690  1  0.67574517  0.28250467  0.42705500  1.0
  Ni  Ni691  1  0.67574517  0.61583800  0.42705500  1.0
  Ni  Ni692  1  0.67574517  0.94917133  0.42705500  1.0
  Ni  Ni693  1  0.17574517  0.28250467  0.30205500  1.0
  Ni  Ni694  1  0.17574517  0.61583800  0.30205500  1.0
  Ni  Ni695  1  0.17574517  0.94917133  0.30205500  1.0
  Ni  Ni696  1  0.50907850  0.28250467  0.30205500  1.0
  Ni  Ni697  1  0.50907850  0.61583800  0.30205500  1.0
  Ni  Ni698  1  0.50907850  0.94917133  0.30205500  1.0
  Ni  Ni699  1  0.84241183  0.28250467  0.30205500  1.0
  Ni  Ni700  1  0.84241183  0.61583800  0.30205500  1.0
  Ni  Ni701  1  0.84241183  0.94917133  0.30205500  1.0
  Ni  Ni702  1  0.32425483  0.05082867  0.31096075  1.0
  Ni  Ni703  1  0.32425483  0.38416200  0.31096075  1.0
  Ni  Ni704  1  0.32425483  0.71749533  0.31096075  1.0
  Ni  Ni705  1  0.65758817  0.05082867  0.31096075  1.0
  Ni  Ni706  1  0.65758817  0.38416200  0.31096075  1.0
  Ni  Ni707  1  0.65758817  0.71749533  0.31096075  1.0
  Ni  Ni708  1  0.99092150  0.05082867  0.31096075  1.0
  Ni  Ni709  1  0.99092150  0.38416200  0.31096075  1.0
  Ni  Ni710  1  0.99092150  0.71749533  0.31096075  1.0
  Ni  Ni711  1  0.15758817  0.05082867  0.43596075  1.0
  Ni  Ni712  1  0.15758817  0.38416200  0.43596075  1.0
  Ni  Ni713  1  0.15758817  0.71749533  0.43596075  1.0
  Ni  Ni714  1  0.49092150  0.05082867  0.43596075  1.0
  Ni  Ni715  1  0.49092150  0.38416200  0.43596075  1.0
  Ni  Ni716  1  0.49092150  0.71749533  0.43596075  1.0
  Ni  Ni717  1  0.82425483  0.05082867  0.43596075  1.0
  Ni  Ni718  1  0.82425483  0.38416200  0.43596075  1.0
  Ni  Ni719  1  0.82425483  0.71749533  0.43596075  1.0
  Ni  Ni720  1  0.03059050  0.17659267  0.44240425  1.0
  Ni  Ni721  1  0.03059050  0.50992600  0.44240425  1.0
  Ni  Ni722  1  0.03059050  0.84325933  0.44240425  1.0
  Ni  Ni723  1  0.36392383  0.17659267  0.44240425  1.0
  Ni  Ni724  1  0.36392383  0.50992600  0.44240425  1.0
  Ni  Ni725  1  0.36392383  0.84325933  0.44240425  1.0
  Ni  Ni726  1  0.69725717  0.17659267  0.44240425  1.0
  Ni  Ni727  1  0.69725717  0.50992600  0.44240425  1.0
  Ni  Ni728  1  0.69725717  0.84325933  0.44240425  1.0
  Ni  Ni729  1  0.19725717  0.17659267  0.31740425  1.0
  Ni  Ni730  1  0.19725717  0.50992600  0.31740425  1.0
  Ni  Ni731  1  0.19725717  0.84325933  0.31740425  1.0
  Ni  Ni732  1  0.53059050  0.17659267  0.31740425  1.0
  Ni  Ni733  1  0.53059050  0.50992600  0.31740425  1.0
  Ni  Ni734  1  0.53059050  0.84325933  0.31740425  1.0
  Ni  Ni735  1  0.86392383  0.17659267  0.31740425  1.0
  Ni  Ni736  1  0.86392383  0.50992600  0.31740425  1.0
  Ni  Ni737  1  0.86392383  0.84325933  0.31740425  1.0
  Ni  Ni738  1  0.30274283  0.15674067  0.29561150  1.0
  Ni  Ni739  1  0.30274283  0.49007400  0.29561150  1.0
  Ni  Ni740  1  0.30274283  0.82340733  0.29561150  1.0
  Ni  Ni741  1  0.63607617  0.15674067  0.29561150  1.0
  Ni  Ni742  1  0.63607617  0.49007400  0.29561150  1.0
  Ni  Ni743  1  0.63607617  0.82340733  0.29561150  1.0
  Ni  Ni744  1  0.96940950  0.15674067  0.29561150  1.0
  Ni  Ni745  1  0.96940950  0.49007400  0.29561150  1.0
  Ni  Ni746  1  0.96940950  0.82340733  0.29561150  1.0
  Ni  Ni747  1  0.13607617  0.15674067  0.42061150  1.0
  Ni  Ni748  1  0.13607617  0.49007400  0.42061150  1.0
  Ni  Ni749  1  0.13607617  0.82340733  0.42061150  1.0
  Ni  Ni750  1  0.46940950  0.15674067  0.42061150  1.0
  Ni  Ni751  1  0.46940950  0.49007400  0.42061150  1.0
  Ni  Ni752  1  0.46940950  0.82340733  0.42061150  1.0
  Ni  Ni753  1  0.80274283  0.15674067  0.42061150  1.0
  Ni  Ni754  1  0.80274283  0.49007400  0.42061150  1.0
  Ni  Ni755  1  0.80274283  0.82340733  0.42061150  1.0
  Ni  Ni756  1  0.28817433  0.25189100  0.43220412  1.0
  Ni  Ni757  1  0.28817433  0.58522433  0.43220412  1.0
  Ni  Ni758  1  0.28817433  0.91855767  0.43220412  1.0
  Ni  Ni759  1  0.62150767  0.25189100  0.43220412  1.0
  Ni  Ni760  1  0.62150767  0.58522433  0.43220412  1.0
  Ni  Ni761  1  0.62150767  0.91855767  0.43220412  1.0
  Ni  Ni762  1  0.95484100  0.25189100  0.43220412  1.0
  Ni  Ni763  1  0.95484100  0.58522433  0.43220412  1.0
  Ni  Ni764  1  0.95484100  0.91855767  0.43220413  1.0
  Ni  Ni765  1  0.12150767  0.25189100  0.30720412  1.0
  Ni  Ni766  1  0.12150767  0.58522433  0.30720412  1.0
  Ni  Ni767  1  0.12150767  0.91855767  0.30720412  1.0
  Ni  Ni768  1  0.45484100  0.25189100  0.30720412  1.0
  Ni  Ni769  1  0.45484100  0.58522433  0.30720413  1.0
  Ni  Ni770  1  0.45484100  0.91855767  0.30720412  1.0
  Ni  Ni771  1  0.78817433  0.25189100  0.30720412  1.0
  Ni  Ni772  1  0.78817433  0.58522433  0.30720413  1.0
  Ni  Ni773  1  0.78817433  0.91855767  0.30720413  1.0
  Ni  Ni774  1  0.04515900  0.08144233  0.30581162  1.0
  Ni  Ni775  1  0.04515900  0.41477567  0.30581162  1.0
  Ni  Ni776  1  0.04515900  0.74810900  0.30581162  1.0
  Ni  Ni777  1  0.37849233  0.08144233  0.30581162  1.0
  Ni  Ni778  1  0.37849233  0.41477567  0.30581163  1.0
  Ni  Ni779  1  0.37849233  0.74810900  0.30581162  1.0
  Ni  Ni780  1  0.71182567  0.08144233  0.30581162  1.0
  Ni  Ni781  1  0.71182567  0.41477567  0.30581163  1.0
  Ni  Ni782  1  0.71182567  0.74810900  0.30581163  1.0
  Ni  Ni783  1  0.21182567  0.08144233  0.43081162  1.0
  Ni  Ni784  1  0.21182567  0.41477567  0.43081163  1.0
  Ni  Ni785  1  0.21182567  0.74810900  0.43081163  1.0
  Ni  Ni786  1  0.54515900  0.08144233  0.43081163  1.0
  Ni  Ni787  1  0.54515900  0.41477567  0.43081163  1.0
  Ni  Ni788  1  0.54515900  0.74810900  0.43081163  1.0
  Ni  Ni789  1  0.87849233  0.08144233  0.43081162  1.0
  Ni  Ni790  1  0.87849233  0.41477567  0.43081163  1.0
  Ni  Ni791  1  0.87849233  0.74810900  0.43081163  1.0
  Ni  Ni792  1  0.29316600  0.24190800  0.34718212  1.0
  Ni  Ni793  1  0.29316600  0.57524133  0.34718212  1.0
  Ni  Ni794  1  0.29316600  0.90857467  0.34718213  1.0
  Ni  Ni795  1  0.62649933  0.24190800  0.34718212  1.0
  Ni  Ni796  1  0.62649933  0.57524133  0.34718213  1.0
  Ni  Ni797  1  0.62649933  0.90857467  0.34718212  1.0
  Ni  Ni798  1  0.95983267  0.24190800  0.34718213  1.0
  Ni  Ni799  1  0.95983267  0.57524133  0.34718213  1.0
  Ni  Ni800  1  0.95983267  0.90857467  0.34718212  1.0
  Ni  Ni801  1  0.12649933  0.24190800  0.47218213  1.0
  Ni  Ni802  1  0.12649933  0.57524133  0.47218213  1.0
  Ni  Ni803  1  0.12649933  0.90857467  0.47218213  1.0
  Ni  Ni804  1  0.45983267  0.24190800  0.47218213  1.0
  Ni  Ni805  1  0.45983267  0.57524133  0.47218213  1.0
  Ni  Ni806  1  0.45983267  0.90857467  0.47218213  1.0
  Ni  Ni807  1  0.79316600  0.24190800  0.47218213  1.0
  Ni  Ni808  1  0.79316600  0.57524133  0.47218213  1.0
  Ni  Ni809  1  0.79316600  0.90857467  0.47218212  1.0
  Ni  Ni810  1  0.00915400  0.28194667  0.30708313  1.0
  Ni  Ni811  1  0.00915400  0.61528000  0.30708313  1.0
  Ni  Ni812  1  0.00915400  0.94861333  0.30708313  1.0
  Ni  Ni813  1  0.34248733  0.28194667  0.30708313  1.0
  Ni  Ni814  1  0.34248733  0.61528000  0.30708313  1.0
  Ni  Ni815  1  0.34248733  0.94861333  0.30708312  1.0
  Ni  Ni816  1  0.67582067  0.28194667  0.30708313  1.0
  Ni  Ni817  1  0.67582067  0.61528000  0.30708313  1.0
  Ni  Ni818  1  0.67582067  0.94861333  0.30708313  1.0
  Ni  Ni819  1  0.17582067  0.28194667  0.43208313  1.0
  Ni  Ni820  1  0.17582067  0.61528000  0.43208313  1.0
  Ni  Ni821  1  0.17582067  0.94861333  0.43208313  1.0
  Ni  Ni822  1  0.50915400  0.28194667  0.43208313  1.0
  Ni  Ni823  1  0.50915400  0.61528000  0.43208313  1.0
  Ni  Ni824  1  0.50915400  0.94861333  0.43208313  1.0
  Ni  Ni825  1  0.84248733  0.28194667  0.43208313  1.0
  Ni  Ni826  1  0.84248733  0.61528000  0.43208313  1.0
  Ni  Ni827  1  0.84248733  0.94861333  0.43208313  1.0
  Ni  Ni828  1  0.32417933  0.05138667  0.43093262  1.0
  Ni  Ni829  1  0.32417933  0.38472000  0.43093263  1.0
  Ni  Ni830  1  0.32417933  0.71805333  0.43093263  1.0
  Ni  Ni831  1  0.65751267  0.05138667  0.43093263  1.0
  Ni  Ni832  1  0.65751267  0.38472000  0.43093263  1.0
  Ni  Ni833  1  0.65751267  0.71805333  0.43093262  1.0
  Ni  Ni834  1  0.99084600  0.05138667  0.43093262  1.0
  Ni  Ni835  1  0.99084600  0.38472000  0.43093263  1.0
  Ni  Ni836  1  0.99084600  0.71805333  0.43093263  1.0
  Ni  Ni837  1  0.15751267  0.05138667  0.30593262  1.0
  Ni  Ni838  1  0.15751267  0.38472000  0.30593263  1.0
  Ni  Ni839  1  0.15751267  0.71805333  0.30593262  1.0
  Ni  Ni840  1  0.49084600  0.05138667  0.30593263  1.0
  Ni  Ni841  1  0.49084600  0.38472000  0.30593263  1.0
  Ni  Ni842  1  0.49084600  0.71805333  0.30593262  1.0
  Ni  Ni843  1  0.82417933  0.05138667  0.30593263  1.0
  Ni  Ni844  1  0.82417933  0.38472000  0.30593263  1.0
  Ni  Ni845  1  0.82417933  0.71805333  0.30593262  1.0
  Ni  Ni846  1  0.08872000  0.11618200  0.31626212  1.0
  Ni  Ni847  1  0.08872000  0.44951533  0.31626212  1.0
  Ni  Ni848  1  0.08872000  0.78284867  0.31626212  1.0
  Ni  Ni849  1  0.42205333  0.11618200  0.31626212  1.0
  Ni  Ni850  1  0.42205333  0.44951533  0.31626212  1.0
  Ni  Ni851  1  0.42205333  0.78284867  0.31626212  1.0
  Ni  Ni852  1  0.75538667  0.11618200  0.31626213  1.0
  Ni  Ni853  1  0.75538667  0.44951533  0.31626212  1.0
  Ni  Ni854  1  0.75538667  0.78284867  0.31626212  1.0
  Ni  Ni855  1  0.25538667  0.11618200  0.44126212  1.0
  Ni  Ni856  1  0.25538667  0.44951533  0.44126213  1.0
  Ni  Ni857  1  0.25538667  0.78284867  0.44126213  1.0
  Ni  Ni858  1  0.58872000  0.11618200  0.44126213  1.0
  Ni  Ni859  1  0.58872000  0.44951533  0.44126212  1.0
  Ni  Ni860  1  0.58872000  0.78284867  0.44126212  1.0
  Ni  Ni861  1  0.92205333  0.11618200  0.44126213  1.0
  Ni  Ni862  1  0.92205333  0.44951533  0.44126212  1.0
  Ni  Ni863  1  0.92205333  0.78284867  0.44126213  1.0
  Ni  Ni864  1  0.24461333  0.21715133  0.42175362  1.0
  Ni  Ni865  1  0.24461333  0.55048467  0.42175363  1.0
  Ni  Ni866  1  0.24461333  0.88381800  0.42175363  1.0
  Ni  Ni867  1  0.57794667  0.21715133  0.42175363  1.0
  Ni  Ni868  1  0.57794667  0.55048467  0.42175362  1.0
  Ni  Ni869  1  0.57794667  0.88381800  0.42175362  1.0
  Ni  Ni870  1  0.91128000  0.21715133  0.42175363  1.0
  Ni  Ni871  1  0.91128000  0.55048467  0.42175362  1.0
  Ni  Ni872  1  0.91128000  0.88381800  0.42175362  1.0
  Ni  Ni873  1  0.07794667  0.21715133  0.29675362  1.0
  Ni  Ni874  1  0.07794667  0.55048467  0.29675362  1.0
  Ni  Ni875  1  0.07794667  0.88381800  0.29675362  1.0
  Ni  Ni876  1  0.41128000  0.21715133  0.29675362  1.0
  Ni  Ni877  1  0.41128000  0.55048467  0.29675362  1.0
  Ni  Ni878  1  0.41128000  0.88381800  0.29675362  1.0
  Ni  Ni879  1  0.74461333  0.21715133  0.29675362  1.0
  Ni  Ni880  1  0.74461333  0.55048467  0.29675362  1.0
  Ni  Ni881  1  0.74461333  0.88381800  0.29675363  1.0
  Ni  Ni882  1  0.08689000  0.11413800  0.48202363  1.0
  Ni  Ni883  1  0.08689000  0.44747133  0.48202363  1.0
  Ni  Ni884  1  0.08689000  0.78080467  0.48202363  1.0
  Ni  Ni885  1  0.42022333  0.11413800  0.48202363  1.0
  Ni  Ni886  1  0.42022333  0.44747133  0.48202362  1.0
  Ni  Ni887  1  0.42022333  0.78080467  0.48202362  1.0
  Ni  Ni888  1  0.75355667  0.11413800  0.48202363  1.0
  Ni  Ni889  1  0.75355667  0.44747133  0.48202363  1.0
  Ni  Ni890  1  0.75355667  0.78080467  0.48202363  1.0
  Ni  Ni891  1  0.25355667  0.11413800  0.35702362  1.0
  Ni  Ni892  1  0.25355667  0.44747133  0.35702363  1.0
  Ni  Ni893  1  0.25355667  0.78080467  0.35702363  1.0
  Ni  Ni894  1  0.58689000  0.11413800  0.35702363  1.0
  Ni  Ni895  1  0.58689000  0.44747133  0.35702363  1.0
  Ni  Ni896  1  0.58689000  0.78080467  0.35702362  1.0
  Ni  Ni897  1  0.92022333  0.11413800  0.35702363  1.0
  Ni  Ni898  1  0.92022333  0.44747133  0.35702363  1.0
  Ni  Ni899  1  0.92022333  0.78080467  0.35702363  1.0
  Ni  Ni900  1  0.24644333  0.21919533  0.25599213  1.0
  Ni  Ni901  1  0.24644333  0.55252867  0.25599213  1.0
  Ni  Ni902  1  0.24644333  0.88586200  0.25599213  1.0
  Ni  Ni903  1  0.57977667  0.21919533  0.25599212  1.0
  Ni  Ni904  1  0.57977667  0.55252867  0.25599213  1.0
  Ni  Ni905  1  0.57977667  0.88586200  0.25599213  1.0
  Ni  Ni906  1  0.91311000  0.21919533  0.25599213  1.0
  Ni  Ni907  1  0.91311000  0.55252867  0.25599213  1.0
  Ni  Ni908  1  0.91311000  0.88586200  0.25599213  1.0
  Ni  Ni909  1  0.07977667  0.21919533  0.38099213  1.0
  Ni  Ni910  1  0.07977667  0.55252867  0.38099213  1.0
  Ni  Ni911  1  0.07977667  0.88586200  0.38099213  1.0
  Ni  Ni912  1  0.41311000  0.21919533  0.38099213  1.0
  Ni  Ni913  1  0.41311000  0.55252867  0.38099213  1.0
  Ni  Ni914  1  0.41311000  0.88586200  0.38099213  1.0
  Ni  Ni915  1  0.74644333  0.21919533  0.38099213  1.0
  Ni  Ni916  1  0.74644333  0.55252867  0.38099213  1.0
  Ni  Ni917  1  0.74644333  0.88586200  0.38099212  1.0
  Ni  Ni918  1  0.02586450  0.18047400  0.28593575  1.0
  Ni  Ni919  1  0.02586450  0.51380733  0.28593575  1.0
  Ni  Ni920  1  0.02586450  0.84714067  0.28593575  1.0
  Ni  Ni921  1  0.35919783  0.18047400  0.28593575  1.0
  Ni  Ni922  1  0.35919783  0.51380733  0.28593575  1.0
  Ni  Ni923  1  0.35919783  0.84714067  0.28593575  1.0
  Ni  Ni924  1  0.69253117  0.18047400  0.28593575  1.0
  Ni  Ni925  1  0.69253117  0.51380733  0.28593575  1.0
  Ni  Ni926  1  0.69253117  0.84714067  0.28593575  1.0
  Ni  Ni927  1  0.19253117  0.18047400  0.41093575  1.0
  Ni  Ni928  1  0.19253117  0.51380733  0.41093575  1.0
  Ni  Ni929  1  0.19253117  0.84714067  0.41093575  1.0
  Ni  Ni930  1  0.52586450  0.18047400  0.41093575  1.0
  Ni  Ni931  1  0.52586450  0.51380733  0.41093575  1.0
  Ni  Ni932  1  0.52586450  0.84714067  0.41093575  1.0
  Ni  Ni933  1  0.85919783  0.18047400  0.41093575  1.0
  Ni  Ni934  1  0.85919783  0.51380733  0.41093575  1.0
  Ni  Ni935  1  0.85919783  0.84714067  0.41093575  1.0
  Ni  Ni936  1  0.30746883  0.15285933  0.45208000  1.0
  Ni  Ni937  1  0.30746883  0.48619267  0.45208000  1.0
  Ni  Ni938  1  0.30746883  0.81952600  0.45208000  1.0
  Ni  Ni939  1  0.64080217  0.15285933  0.45208000  1.0
  Ni  Ni940  1  0.64080217  0.48619267  0.45208000  1.0
  Ni  Ni941  1  0.64080217  0.81952600  0.45208000  1.0
  Ni  Ni942  1  0.97413550  0.15285933  0.45208000  1.0
  Ni  Ni943  1  0.97413550  0.48619267  0.45208000  1.0
  Ni  Ni944  1  0.97413550  0.81952600  0.45208000  1.0
  Ni  Ni945  1  0.14080217  0.15285933  0.32708000  1.0
  Ni  Ni946  1  0.14080217  0.48619267  0.32708000  1.0
  Ni  Ni947  1  0.14080217  0.81952600  0.32708000  1.0
  Ni  Ni948  1  0.47413550  0.15285933  0.32708000  1.0
  Ni  Ni949  1  0.47413550  0.48619267  0.32708000  1.0
  Ni  Ni950  1  0.47413550  0.81952600  0.32708000  1.0
  Ni  Ni951  1  0.80746883  0.15285933  0.32708000  1.0
  Ni  Ni952  1  0.80746883  0.48619267  0.32708000  1.0
  Ni  Ni953  1  0.80746883  0.81952600  0.32708000  1.0
  Ni  Ni954  1  0.10796917  0.01191867  0.43774400  1.0
  Ni  Ni955  1  0.10796917  0.34525200  0.43774400  1.0
  Ni  Ni956  1  0.10796917  0.67858533  0.43774400  1.0
  Ni  Ni957  1  0.44130250  0.01191867  0.43774400  1.0
  Ni  Ni958  1  0.44130250  0.34525200  0.43774400  1.0
  Ni  Ni959  1  0.44130250  0.67858533  0.43774400  1.0
  Ni  Ni960  1  0.77463583  0.01191867  0.43774400  1.0
  Ni  Ni961  1  0.77463583  0.34525200  0.43774400  1.0
  Ni  Ni962  1  0.77463583  0.67858533  0.43774400  1.0
  Ni  Ni963  1  0.27463583  0.01191867  0.31274400  1.0
  Ni  Ni964  1  0.27463583  0.34525200  0.31274400  1.0
  Ni  Ni965  1  0.27463583  0.67858533  0.31274400  1.0
  Ni  Ni966  1  0.60796917  0.01191867  0.31274400  1.0
  Ni  Ni967  1  0.60796917  0.34525200  0.31274400  1.0
  Ni  Ni968  1  0.60796917  0.67858533  0.31274400  1.0
  Ni  Ni969  1  0.94130250  0.01191867  0.31274400  1.0
  Ni  Ni970  1  0.94130250  0.34525200  0.31274400  1.0
  Ni  Ni971  1  0.94130250  0.67858533  0.31274400  1.0
  Ni  Ni972  1  0.22536417  0.32141467  0.30027175  1.0
  Ni  Ni973  1  0.22536417  0.65474800  0.30027175  1.0
  Ni  Ni974  1  0.22536417  0.98808133  0.30027175  1.0
  Ni  Ni975  1  0.55869750  0.32141467  0.30027175  1.0
  Ni  Ni976  1  0.55869750  0.65474800  0.30027175  1.0
  Ni  Ni977  1  0.55869750  0.98808133  0.30027175  1.0
  Ni  Ni978  1  0.89203083  0.32141467  0.30027175  1.0
  Ni  Ni979  1  0.89203083  0.65474800  0.30027175  1.0
  Ni  Ni980  1  0.89203083  0.98808133  0.30027175  1.0
  Ni  Ni981  1  0.05869750  0.32141467  0.42527175  1.0
  Ni  Ni982  1  0.05869750  0.65474800  0.42527175  1.0
  Ni  Ni983  1  0.05869750  0.98808133  0.42527175  1.0
  Ni  Ni984  1  0.39203083  0.32141467  0.42527175  1.0
  Ni  Ni985  1  0.39203083  0.65474800  0.42527175  1.0
  Ni  Ni986  1  0.39203083  0.98808133  0.42527175  1.0
  Ni  Ni987  1  0.72536417  0.32141467  0.42527175  1.0
  Ni  Ni988  1  0.72536417  0.65474800  0.42527175  1.0
  Ni  Ni989  1  0.72536417  0.98808133  0.42527175  1.0
  Ni  Ni990  1  0.10573200  0.01601233  0.35066887  1.0
  Ni  Ni991  1  0.10573200  0.34934567  0.35066888  1.0
  Ni  Ni992  1  0.10573200  0.68267900  0.35066887  1.0
  Ni  Ni993  1  0.43906533  0.01601233  0.35066887  1.0
  Ni  Ni994  1  0.43906533  0.34934567  0.35066887  1.0
  Ni  Ni995  1  0.43906533  0.68267900  0.35066887  1.0
  Ni  Ni996  1  0.77239867  0.01601233  0.35066887  1.0
  Ni  Ni997  1  0.77239867  0.34934567  0.35066887  1.0
  Ni  Ni998  1  0.77239867  0.68267900  0.35066887  1.0
  Ni  Ni999  1  0.27239867  0.01601233  0.47566888  1.0
  Ni  Ni1000  1  0.27239867  0.34934567  0.47566888  1.0
  Ni  Ni1001  1  0.27239867  0.68267900  0.47566888  1.0
  Ni  Ni1002  1  0.60573200  0.01601233  0.47566887  1.0
  Ni  Ni1003  1  0.60573200  0.34934567  0.47566888  1.0
  Ni  Ni1004  1  0.60573200  0.68267900  0.47566887  1.0
  Ni  Ni1005  1  0.93906533  0.01601233  0.47566888  1.0
  Ni  Ni1006  1  0.93906533  0.34934567  0.47566888  1.0
  Ni  Ni1007  1  0.93906533  0.68267900  0.47566888  1.0
  Ni  Ni1008  1  0.22760133  0.31732100  0.38734687  1.0
  Ni  Ni1009  1  0.22760133  0.65065433  0.38734687  1.0
  Ni  Ni1010  1  0.22760133  0.98398767  0.38734687  1.0
  Ni  Ni1011  1  0.56093467  0.31732100  0.38734687  1.0
  Ni  Ni1012  1  0.56093467  0.65065433  0.38734687  1.0
  Ni  Ni1013  1  0.56093467  0.98398767  0.38734687  1.0
  Ni  Ni1014  1  0.89426800  0.31732100  0.38734687  1.0
  Ni  Ni1015  1  0.89426800  0.65065433  0.38734688  1.0
  Ni  Ni1016  1  0.89426800  0.98398767  0.38734687  1.0
  Ni  Ni1017  1  0.06093467  0.31732100  0.26234687  1.0
  Ni  Ni1018  1  0.06093467  0.65065433  0.26234688  1.0
  Ni  Ni1019  1  0.06093467  0.98398767  0.26234688  1.0
  Ni  Ni1020  1  0.39426800  0.31732100  0.26234687  1.0
  Ni  Ni1021  1  0.39426800  0.65065433  0.26234688  1.0
  Ni  Ni1022  1  0.39426800  0.98398767  0.26234688  1.0
  Ni  Ni1023  1  0.72760133  0.31732100  0.26234688  1.0
  Ni  Ni1024  1  0.72760133  0.65065433  0.26234688  1.0
  Ni  Ni1025  1  0.72760133  0.98398767  0.26234688  1.0
  Ni  Ni1026  1  0.04016733  0.09142533  0.39083362  1.0
  Ni  Ni1027  1  0.04016733  0.42475867  0.39083363  1.0
  Ni  Ni1028  1  0.04016733  0.75809200  0.39083362  1.0
  Ni  Ni1029  1  0.37350067  0.09142533  0.39083362  1.0
  Ni  Ni1030  1  0.37350067  0.42475867  0.39083362  1.0
  Ni  Ni1031  1  0.37350067  0.75809200  0.39083363  1.0
  Ni  Ni1032  1  0.70683400  0.09142533  0.39083362  1.0
  Ni  Ni1033  1  0.70683400  0.42475867  0.39083363  1.0
  Ni  Ni1034  1  0.70683400  0.75809200  0.39083363  1.0
  Ni  Ni1035  1  0.20683400  0.09142533  0.26583362  1.0
  Ni  Ni1036  1  0.20683400  0.42475867  0.26583362  1.0
  Ni  Ni1037  1  0.20683400  0.75809200  0.26583362  1.0
  Ni  Ni1038  1  0.54016733  0.09142533  0.26583362  1.0
  Ni  Ni1039  1  0.54016733  0.42475867  0.26583362  1.0
  Ni  Ni1040  1  0.54016733  0.75809200  0.26583362  1.0
  Ni  Ni1041  1  0.87350067  0.09142533  0.26583363  1.0
  Ni  Ni1042  1  0.87350067  0.42475867  0.26583363  1.0
  Ni  Ni1043  1  0.87350067  0.75809200  0.26583362  1.0
