# generated using pymatgen
data_Zr8Ni21
_symmetry_space_group_name_H-M   'P 1'
_cell_length_a   34.25283470
_cell_length_b   39.54199056
_cell_length_c   26.75492372
_cell_angle_alpha   85.10277029
_cell_angle_beta   87.26941581
_cell_angle_gamma   99.87790470
_symmetry_Int_Tables_number   1
_chemical_formula_structural   Zr8Ni21
_chemical_formula_sum   'Zr288 Ni756'
_cell_volume   35498.33568259
_cell_formula_units_Z   36
loop_
 _symmetry_equiv_pos_site_id
 _symmetry_equiv_pos_as_xyz
  1  'x, y, z'
loop_
 _atom_site_type_symbol
 _atom_site_label
 _atom_site_symmetry_multiplicity
 _atom_site_fract_x
 _atom_site_fract_y
 _atom_site_fract_z
 _atom_site_occupancy
  Ni  Ni0  1  0.19819557  0.13513777  0.09458670  1.0
  Ni  Ni1  1  0.19819557  0.46847110  0.09458670  1.0
  Ni  Ni2  1  0.19819557  0.80180443  0.09458670  1.0
  Ni  Ni3  1  0.53152890  0.13513777  0.09458670  1.0
  Ni  Ni4  1  0.53152890  0.46847110  0.09458670  1.0
  Ni  Ni5  1  0.53152890  0.80180443  0.09458670  1.0
  Ni  Ni6  1  0.86486223  0.13513777  0.09458670  1.0
  Ni  Ni7  1  0.86486223  0.46847110  0.09458670  1.0
  Ni  Ni8  1  0.86486223  0.80180443  0.09458670  1.0
  Ni  Ni9  1  0.06486223  0.26847110  0.19458670  1.0
  Ni  Ni10  1  0.06486223  0.60180443  0.19458670  1.0
  Ni  Ni11  1  0.06486223  0.93513777  0.19458670  1.0
  Ni  Ni12  1  0.39819557  0.26847110  0.19458670  1.0
  Ni  Ni13  1  0.39819557  0.60180443  0.19458670  1.0
  Ni  Ni14  1  0.39819557  0.93513777  0.19458670  1.0
  Ni  Ni15  1  0.73152890  0.26847110  0.19458670  1.0
  Ni  Ni16  1  0.73152890  0.60180443  0.19458670  1.0
  Ni  Ni17  1  0.73152890  0.93513777  0.19458670  1.0
  Ni  Ni18  1  0.20340657  0.07909810  0.06617470  1.0
  Ni  Ni19  1  0.20340657  0.41243143  0.06617470  1.0
  Ni  Ni20  1  0.20340657  0.74576477  0.06617470  1.0
  Ni  Ni21  1  0.53673990  0.07909810  0.06617470  1.0
  Ni  Ni22  1  0.53673990  0.41243143  0.06617470  1.0
  Ni  Ni23  1  0.53673990  0.74576477  0.06617470  1.0
  Ni  Ni24  1  0.87007323  0.07909810  0.06617470  1.0
  Ni  Ni25  1  0.87007323  0.41243143  0.06617470  1.0
  Ni  Ni26  1  0.87007323  0.74576477  0.06617470  1.0
  Ni  Ni27  1  0.07007323  0.21243143  0.16617470  1.0
  Ni  Ni28  1  0.07007323  0.54576477  0.16617470  1.0
  Ni  Ni29  1  0.07007323  0.87909810  0.16617470  1.0
  Ni  Ni30  1  0.40340657  0.21243143  0.16617470  1.0
  Ni  Ni31  1  0.40340657  0.54576477  0.16617470  1.0
  Ni  Ni32  1  0.40340657  0.87909810  0.16617470  1.0
  Ni  Ni33  1  0.73673990  0.21243143  0.16617470  1.0
  Ni  Ni34  1  0.73673990  0.54576477  0.16617470  1.0
  Ni  Ni35  1  0.73673990  0.87909810  0.16617470  1.0
  Ni  Ni36  1  0.19298457  0.19117743  0.12299870  1.0
  Ni  Ni37  1  0.19298457  0.52451077  0.12299870  1.0
  Ni  Ni38  1  0.19298457  0.85784410  0.12299870  1.0
  Ni  Ni39  1  0.52631790  0.19117743  0.12299870  1.0
  Ni  Ni40  1  0.52631790  0.52451077  0.12299870  1.0
  Ni  Ni41  1  0.52631790  0.85784410  0.12299870  1.0
  Ni  Ni42  1  0.85965123  0.19117743  0.12299870  1.0
  Ni  Ni43  1  0.85965123  0.52451077  0.12299870  1.0
  Ni  Ni44  1  0.85965123  0.85784410  0.12299870  1.0
  Ni  Ni45  1  0.32631790  0.05784410  0.02299870  1.0
  Ni  Ni46  1  0.32631790  0.39117743  0.02299870  1.0
  Ni  Ni47  1  0.32631790  0.72451077  0.02299870  1.0
  Ni  Ni48  1  0.65965123  0.05784410  0.02299870  1.0
  Ni  Ni49  1  0.65965123  0.39117743  0.02299870  1.0
  Ni  Ni50  1  0.65965123  0.72451077  0.02299870  1.0
  Ni  Ni51  1  0.99298457  0.05784410  0.02299870  1.0
  Ni  Ni52  1  0.99298457  0.39117743  0.02299870  1.0
  Ni  Ni53  1  0.99298457  0.72451077  0.02299870  1.0
  Ni  Ni54  1  0.13167310  0.04491957  0.07280880  1.0
  Ni  Ni55  1  0.13167310  0.37825290  0.07280880  1.0
  Ni  Ni56  1  0.13167310  0.71158623  0.07280880  1.0
  Ni  Ni57  1  0.46500643  0.04491957  0.07280880  1.0
  Ni  Ni58  1  0.46500643  0.37825290  0.07280880  1.0
  Ni  Ni59  1  0.46500643  0.71158623  0.07280880  1.0
  Ni  Ni60  1  0.79833977  0.04491957  0.07280880  1.0
  Ni  Ni61  1  0.79833977  0.37825290  0.07280880  1.0
  Ni  Ni62  1  0.79833977  0.71158623  0.07280880  1.0
  Ni  Ni63  1  0.33167310  0.17825290  0.17280880  1.0
  Ni  Ni64  1  0.33167310  0.51158623  0.17280880  1.0
  Ni  Ni65  1  0.33167310  0.84491957  0.17280880  1.0
  Ni  Ni66  1  0.66500643  0.17825290  0.17280880  1.0
  Ni  Ni67  1  0.66500643  0.51158623  0.17280880  1.0
  Ni  Ni68  1  0.66500643  0.84491957  0.17280880  1.0
  Ni  Ni69  1  0.99833977  0.17825290  0.17280880  1.0
  Ni  Ni70  1  0.99833977  0.51158623  0.17280880  1.0
  Ni  Ni71  1  0.99833977  0.84491957  0.17280880  1.0
  Ni  Ni72  1  0.26471803  0.22535597  0.11636460  1.0
  Ni  Ni73  1  0.26471803  0.55868930  0.11636460  1.0
  Ni  Ni74  1  0.26471803  0.89202263  0.11636460  1.0
  Ni  Ni75  1  0.59805137  0.22535597  0.11636460  1.0
  Ni  Ni76  1  0.59805137  0.55868930  0.11636460  1.0
  Ni  Ni77  1  0.59805137  0.89202263  0.11636460  1.0
  Ni  Ni78  1  0.93138470  0.22535597  0.11636460  1.0
  Ni  Ni79  1  0.93138470  0.55868930  0.11636460  1.0
  Ni  Ni80  1  0.93138470  0.89202263  0.11636460  1.0
  Ni  Ni81  1  0.06471803  0.09202263  0.01636460  1.0
  Ni  Ni82  1  0.06471803  0.42535597  0.01636460  1.0
  Ni  Ni83  1  0.06471803  0.75868930  0.01636460  1.0
  Ni  Ni84  1  0.39805137  0.09202263  0.01636460  1.0
  Ni  Ni85  1  0.39805137  0.42535597  0.01636460  1.0
  Ni  Ni86  1  0.39805137  0.75868930  0.01636460  1.0
  Ni  Ni87  1  0.73138470  0.09202263  0.01636460  1.0
  Ni  Ni88  1  0.73138470  0.42535597  0.01636460  1.0
  Ni  Ni89  1  0.73138470  0.75868930  0.01636460  1.0
  Ni  Ni90  1  0.24895883  0.00293217  0.17769400  1.0
  Ni  Ni91  1  0.24895883  0.33626550  0.17769400  1.0
  Ni  Ni92  1  0.24895883  0.66959883  0.17769400  1.0
  Ni  Ni93  1  0.58229217  0.00293217  0.17769400  1.0
  Ni  Ni94  1  0.58229217  0.33626550  0.17769400  1.0
  Ni  Ni95  1  0.58229217  0.66959883  0.17769400  1.0
  Ni  Ni96  1  0.91562550  0.00293217  0.17769400  1.0
  Ni  Ni97  1  0.91562550  0.33626550  0.17769400  1.0
  Ni  Ni98  1  0.91562550  0.66959883  0.17769400  1.0
  Ni  Ni99  1  0.04895883  0.20293217  0.07769400  1.0
  Ni  Ni100  1  0.04895883  0.53626550  0.07769400  1.0
  Ni  Ni101  1  0.04895883  0.86959883  0.07769400  1.0
  Ni  Ni102  1  0.38229217  0.20293217  0.07769400  1.0
  Ni  Ni103  1  0.38229217  0.53626550  0.07769400  1.0
  Ni  Ni104  1  0.38229217  0.86959883  0.07769400  1.0
  Ni  Ni105  1  0.71562550  0.20293217  0.07769400  1.0
  Ni  Ni106  1  0.71562550  0.53626550  0.07769400  1.0
  Ni  Ni107  1  0.71562550  0.86959883  0.07769400  1.0
  Ni  Ni108  1  0.14743230  0.26734337  0.01147940  1.0
  Ni  Ni109  1  0.14743230  0.60067670  0.01147940  1.0
  Ni  Ni110  1  0.14743230  0.93401003  0.01147940  1.0
  Ni  Ni111  1  0.48076563  0.26734337  0.01147940  1.0
  Ni  Ni112  1  0.48076563  0.60067670  0.01147940  1.0
  Ni  Ni113  1  0.48076563  0.93401003  0.01147940  1.0
  Ni  Ni114  1  0.81409897  0.26734337  0.01147940  1.0
  Ni  Ni115  1  0.81409897  0.60067670  0.01147940  1.0
  Ni  Ni116  1  0.81409897  0.93401003  0.01147940  1.0
  Ni  Ni117  1  0.01409897  0.06734337  0.11147940  1.0
  Ni  Ni118  1  0.01409897  0.40067670  0.11147940  1.0
  Ni  Ni119  1  0.01409897  0.73401003  0.11147940  1.0
  Ni  Ni120  1  0.34743230  0.06734337  0.11147940  1.0
  Ni  Ni121  1  0.34743230  0.40067670  0.11147940  1.0
  Ni  Ni122  1  0.34743230  0.73401003  0.11147940  1.0
  Ni  Ni123  1  0.68076563  0.06734337  0.11147940  1.0
  Ni  Ni124  1  0.68076563  0.40067670  0.11147940  1.0
  Ni  Ni125  1  0.68076563  0.73401003  0.11147940  1.0
  Ni  Ni126  1  0.28831410  0.28692723  0.14817780  1.0
  Ni  Ni127  1  0.28831410  0.62026057  0.14817780  1.0
  Ni  Ni128  1  0.28831410  0.95359390  0.14817780  1.0
  Ni  Ni129  1  0.62164743  0.28692723  0.14817780  1.0
  Ni  Ni130  1  0.62164743  0.62026057  0.14817780  1.0
  Ni  Ni131  1  0.62164743  0.95359390  0.14817780  1.0
  Ni  Ni132  1  0.95498077  0.28692723  0.14817780  1.0
  Ni  Ni133  1  0.95498077  0.62026057  0.14817780  1.0
  Ni  Ni134  1  0.95498077  0.95359390  0.14817780  1.0
  Ni  Ni135  1  0.08831410  0.15359390  0.04817780  1.0
  Ni  Ni136  1  0.08831410  0.48692723  0.04817780  1.0
  Ni  Ni137  1  0.08831410  0.82026057  0.04817780  1.0
  Ni  Ni138  1  0.42164743  0.15359390  0.04817780  1.0
  Ni  Ni139  1  0.42164743  0.48692723  0.04817780  1.0
  Ni  Ni140  1  0.42164743  0.82026057  0.04817780  1.0
  Ni  Ni141  1  0.75498077  0.15359390  0.04817780  1.0
  Ni  Ni142  1  0.75498077  0.48692723  0.04817780  1.0
  Ni  Ni143  1  0.75498077  0.82026057  0.04817780  1.0
  Ni  Ni144  1  0.26705677  0.01488990  0.01813180  1.0
  Ni  Ni145  1  0.26705677  0.34822323  0.01813180  1.0
  Ni  Ni146  1  0.26705677  0.68155657  0.01813180  1.0
  Ni  Ni147  1  0.60039010  0.01488990  0.01813180  1.0
  Ni  Ni148  1  0.60039010  0.34822323  0.01813180  1.0
  Ni  Ni149  1  0.60039010  0.68155657  0.01813180  1.0
  Ni  Ni150  1  0.93372343  0.01488990  0.01813180  1.0
  Ni  Ni151  1  0.93372343  0.34822323  0.01813180  1.0
  Ni  Ni152  1  0.93372343  0.68155657  0.01813180  1.0
  Ni  Ni153  1  0.13372343  0.14822323  0.11813180  1.0
  Ni  Ni154  1  0.13372343  0.48155657  0.11813180  1.0
  Ni  Ni155  1  0.13372343  0.81488990  0.11813180  1.0
  Ni  Ni156  1  0.46705677  0.14822323  0.11813180  1.0
  Ni  Ni157  1  0.46705677  0.48155657  0.11813180  1.0
  Ni  Ni158  1  0.46705677  0.81488990  0.11813180  1.0
  Ni  Ni159  1  0.80039010  0.14822323  0.11813180  1.0
  Ni  Ni160  1  0.80039010  0.48155657  0.11813180  1.0
  Ni  Ni161  1  0.80039010  0.81488990  0.11813180  1.0
  Ni  Ni162  1  0.12933437  0.25538563  0.17104160  1.0
  Ni  Ni163  1  0.12933437  0.58871897  0.17104160  1.0
  Ni  Ni164  1  0.12933437  0.92205230  0.17104160  1.0
  Ni  Ni165  1  0.46266770  0.25538563  0.17104160  1.0
  Ni  Ni166  1  0.46266770  0.58871897  0.17104160  1.0
  Ni  Ni167  1  0.46266770  0.92205230  0.17104160  1.0
  Ni  Ni168  1  0.79600103  0.25538563  0.17104160  1.0
  Ni  Ni169  1  0.79600103  0.58871897  0.17104160  1.0
  Ni  Ni170  1  0.79600103  0.92205230  0.17104160  1.0
  Ni  Ni171  1  0.26266770  0.12205230  0.07104160  1.0
  Ni  Ni172  1  0.26266770  0.45538563  0.07104160  1.0
  Ni  Ni173  1  0.26266770  0.78871897  0.07104160  1.0
  Ni  Ni174  1  0.59600103  0.12205230  0.07104160  1.0
  Ni  Ni175  1  0.59600103  0.45538563  0.07104160  1.0
  Ni  Ni176  1  0.59600103  0.78871897  0.07104160  1.0
  Ni  Ni177  1  0.92933437  0.12205230  0.07104160  1.0
  Ni  Ni178  1  0.92933437  0.45538563  0.07104160  1.0
  Ni  Ni179  1  0.92933437  0.78871897  0.07104160  1.0
  Ni  Ni180  1  0.16270250  0.28681283  0.09142300  1.0
  Ni  Ni181  1  0.16270250  0.62014617  0.09142300  1.0
  Ni  Ni182  1  0.16270250  0.95347950  0.09142300  1.0
  Ni  Ni183  1  0.49603583  0.28681283  0.09142300  1.0
  Ni  Ni184  1  0.49603583  0.62014617  0.09142300  1.0
  Ni  Ni185  1  0.49603583  0.95347950  0.09142300  1.0
  Ni  Ni186  1  0.82936917  0.28681283  0.09142300  1.0
  Ni  Ni187  1  0.82936917  0.62014617  0.09142300  1.0
  Ni  Ni188  1  0.82936917  0.95347950  0.09142300  1.0
  Ni  Ni189  1  0.02936917  0.08681283  0.19142300  1.0
  Ni  Ni190  1  0.02936917  0.42014617  0.19142300  1.0
  Ni  Ni191  1  0.02936917  0.75347950  0.19142300  1.0
  Ni  Ni192  1  0.36270250  0.08681283  0.19142300  1.0
  Ni  Ni193  1  0.36270250  0.42014617  0.19142300  1.0
  Ni  Ni194  1  0.36270250  0.75347950  0.19142300  1.0
  Ni  Ni195  1  0.69603583  0.08681283  0.19142300  1.0
  Ni  Ni196  1  0.69603583  0.42014617  0.19142300  1.0
  Ni  Ni197  1  0.69603583  0.75347950  0.19142300  1.0
  Ni  Ni198  1  0.23368863  0.31679603  0.09775040  1.0
  Ni  Ni199  1  0.23368863  0.65012937  0.09775040  1.0
  Ni  Ni200  1  0.23368863  0.98346270  0.09775040  1.0
  Ni  Ni201  1  0.56702197  0.31679603  0.09775040  1.0
  Ni  Ni202  1  0.56702197  0.65012937  0.09775040  1.0
  Ni  Ni203  1  0.56702197  0.98346270  0.09775040  1.0
  Ni  Ni204  1  0.90035530  0.31679603  0.09775040  1.0
  Ni  Ni205  1  0.90035530  0.65012937  0.09775040  1.0
  Ni  Ni206  1  0.90035530  0.98346270  0.09775040  1.0
  Ni  Ni207  1  0.10035530  0.11679603  0.19775040  1.0
  Ni  Ni208  1  0.10035530  0.45012937  0.19775040  1.0
  Ni  Ni209  1  0.10035530  0.78346270  0.19775040  1.0
  Ni  Ni210  1  0.43368863  0.11679603  0.19775040  1.0
  Ni  Ni211  1  0.43368863  0.45012937  0.19775040  1.0
  Ni  Ni212  1  0.43368863  0.78346270  0.19775040  1.0
  Ni  Ni213  1  0.76702197  0.11679603  0.19775040  1.0
  Ni  Ni214  1  0.76702197  0.45012937  0.19775040  1.0
  Ni  Ni215  1  0.76702197  0.78346270  0.19775040  1.0
  Ni  Ni216  1  0.20640330  0.24106803  0.05436940  1.0
  Ni  Ni217  1  0.20640330  0.57440137  0.05436940  1.0
  Ni  Ni218  1  0.20640330  0.90773470  0.05436940  1.0
  Ni  Ni219  1  0.53973663  0.24106803  0.05436940  1.0
  Ni  Ni220  1  0.53973663  0.57440137  0.05436940  1.0
  Ni  Ni221  1  0.53973663  0.90773470  0.05436940  1.0
  Ni  Ni222  1  0.87306997  0.24106803  0.05436940  1.0
  Ni  Ni223  1  0.87306997  0.57440137  0.05436940  1.0
  Ni  Ni224  1  0.87306997  0.90773470  0.05436940  1.0
  Ni  Ni225  1  0.07306997  0.04106803  0.15436940  1.0
  Ni  Ni226  1  0.07306997  0.37440137  0.15436940  1.0
  Ni  Ni227  1  0.07306997  0.70773470  0.15436940  1.0
  Ni  Ni228  1  0.40640330  0.04106803  0.15436940  1.0
  Ni  Ni229  1  0.40640330  0.37440137  0.15436940  1.0
  Ni  Ni230  1  0.40640330  0.70773470  0.15436940  1.0
  Ni  Ni231  1  0.73973663  0.04106803  0.15436940  1.0
  Ni  Ni232  1  0.73973663  0.37440137  0.15436940  1.0
  Ni  Ni233  1  0.73973663  0.70773470  0.15436940  1.0
  Ni  Ni234  1  0.18998783  0.02920750  0.13480400  1.0
  Ni  Ni235  1  0.18998783  0.36254083  0.13480400  1.0
  Ni  Ni236  1  0.18998783  0.69587417  0.13480400  1.0
  Ni  Ni237  1  0.52332117  0.02920750  0.13480400  1.0
  Ni  Ni238  1  0.52332117  0.36254083  0.13480400  1.0
  Ni  Ni239  1  0.52332117  0.69587417  0.13480400  1.0
  Ni  Ni240  1  0.85665450  0.02920750  0.13480400  1.0
  Ni  Ni241  1  0.85665450  0.36254083  0.13480400  1.0
  Ni  Ni242  1  0.85665450  0.69587417  0.13480400  1.0
  Ni  Ni243  1  0.32332117  0.22920750  0.03480400  1.0
  Ni  Ni244  1  0.32332117  0.56254083  0.03480400  1.0
  Ni  Ni245  1  0.32332117  0.89587417  0.03480400  1.0
  Ni  Ni246  1  0.65665450  0.22920750  0.03480400  1.0
  Ni  Ni247  1  0.65665450  0.56254083  0.03480400  1.0
  Ni  Ni248  1  0.65665450  0.89587417  0.03480400  1.0
  Ni  Ni249  1  0.98998783  0.22920750  0.03480400  1.0
  Ni  Ni250  1  0.98998783  0.56254083  0.03480400  1.0
  Ni  Ni251  1  0.98998783  0.89587417  0.03480400  1.0
  Ni  Ni252  1  0.21745177  0.29635557  0.00429680  1.0
  Ni  Ni253  1  0.21745177  0.62968890  0.00429680  1.0
  Ni  Ni254  1  0.21745177  0.96302223  0.00429680  1.0
  Ni  Ni255  1  0.55078510  0.29635557  0.00429680  1.0
  Ni  Ni256  1  0.55078510  0.62968890  0.00429680  1.0
  Ni  Ni257  1  0.55078510  0.96302223  0.00429680  1.0
  Ni  Ni258  1  0.88411843  0.29635557  0.00429680  1.0
  Ni  Ni259  1  0.88411843  0.62968890  0.00429680  1.0
  Ni  Ni260  1  0.88411843  0.96302223  0.00429680  1.0
  Ni  Ni261  1  0.08411843  0.09635557  0.10429680  1.0
  Ni  Ni262  1  0.08411843  0.42968890  0.10429680  1.0
  Ni  Ni263  1  0.08411843  0.76302223  0.10429680  1.0
  Ni  Ni264  1  0.41745177  0.09635557  0.10429680  1.0
  Ni  Ni265  1  0.41745177  0.42968890  0.10429680  1.0
  Ni  Ni266  1  0.41745177  0.76302223  0.10429680  1.0
  Ni  Ni267  1  0.75078510  0.09635557  0.10429680  1.0
  Ni  Ni268  1  0.75078510  0.42968890  0.10429680  1.0
  Ni  Ni269  1  0.75078510  0.76302223  0.10429680  1.0
  Ni  Ni270  1  0.17893937  0.30725330  0.18487660  1.0
  Ni  Ni271  1  0.17893937  0.64058663  0.18487660  1.0
  Ni  Ni272  1  0.17893937  0.97391997  0.18487660  1.0
  Ni  Ni273  1  0.51227270  0.30725330  0.18487660  1.0
  Ni  Ni274  1  0.51227270  0.64058663  0.18487660  1.0
  Ni  Ni275  1  0.51227270  0.97391997  0.18487660  1.0
  Ni  Ni276  1  0.84560603  0.30725330  0.18487660  1.0
  Ni  Ni277  1  0.84560603  0.64058663  0.18487660  1.0
  Ni  Ni278  1  0.84560603  0.97391997  0.18487660  1.0
  Ni  Ni279  1  0.31227270  0.17391997  0.08487660  1.0
  Ni  Ni280  1  0.31227270  0.50725330  0.08487660  1.0
  Ni  Ni281  1  0.31227270  0.84058663  0.08487660  1.0
  Ni  Ni282  1  0.64560603  0.17391997  0.08487660  1.0
  Ni  Ni283  1  0.64560603  0.50725330  0.08487660  1.0
  Ni  Ni284  1  0.64560603  0.84058663  0.08487660  1.0
  Ni  Ni285  1  0.97893937  0.17391997  0.08487660  1.0
  Ni  Ni286  1  0.97893937  0.50725330  0.08487660  1.0
  Ni  Ni287  1  0.97893937  0.84058663  0.08487660  1.0
  Ni  Ni288  1  0.16868750  0.17656450  0.03761050  1.0
  Ni  Ni289  1  0.16868750  0.50989783  0.03761050  1.0
  Ni  Ni290  1  0.16868750  0.84323117  0.03761050  1.0
  Ni  Ni291  1  0.50202083  0.17656450  0.03761050  1.0
  Ni  Ni292  1  0.50202083  0.50989783  0.03761050  1.0
  Ni  Ni293  1  0.50202083  0.84323117  0.03761050  1.0
  Ni  Ni294  1  0.83535417  0.17656450  0.03761050  1.0
  Ni  Ni295  1  0.83535417  0.50989783  0.03761050  1.0
  Ni  Ni296  1  0.83535417  0.84323117  0.03761050  1.0
  Ni  Ni297  1  0.03535417  0.30989783  0.13761050  1.0
  Ni  Ni298  1  0.03535417  0.64323117  0.13761050  1.0
  Ni  Ni299  1  0.03535417  0.97656450  0.13761050  1.0
  Ni  Ni300  1  0.36868750  0.30989783  0.13761050  1.0
  Ni  Ni301  1  0.36868750  0.64323117  0.13761050  1.0
  Ni  Ni302  1  0.36868750  0.97656450  0.13761050  1.0
  Ni  Ni303  1  0.70202083  0.30989783  0.13761050  1.0
  Ni  Ni304  1  0.70202083  0.64323117  0.13761050  1.0
  Ni  Ni305  1  0.70202083  0.97656450  0.13761050  1.0
  Ni  Ni306  1  0.22770363  0.09371103  0.15156290  1.0
  Ni  Ni307  1  0.22770363  0.42704437  0.15156290  1.0
  Ni  Ni308  1  0.22770363  0.76037770  0.15156290  1.0
  Ni  Ni309  1  0.56103697  0.09371103  0.15156290  1.0
  Ni  Ni310  1  0.56103697  0.42704437  0.15156290  1.0
  Ni  Ni311  1  0.56103697  0.76037770  0.15156290  1.0
  Ni  Ni312  1  0.89437030  0.09371103  0.15156290  1.0
  Ni  Ni313  1  0.89437030  0.42704437  0.15156290  1.0
  Ni  Ni314  1  0.89437030  0.76037770  0.15156290  1.0
  Ni  Ni315  1  0.02770363  0.29371103  0.05156290  1.0
  Ni  Ni316  1  0.02770363  0.62704437  0.05156290  1.0
  Ni  Ni317  1  0.02770363  0.96037770  0.05156290  1.0
  Ni  Ni318  1  0.36103697  0.29371103  0.05156290  1.0
  Ni  Ni319  1  0.36103697  0.62704437  0.05156290  1.0
  Ni  Ni320  1  0.36103697  0.96037770  0.05156290  1.0
  Ni  Ni321  1  0.69437030  0.29371103  0.05156290  1.0
  Ni  Ni322  1  0.69437030  0.62704437  0.05156290  1.0
  Ni  Ni323  1  0.69437030  0.96037770  0.05156290  1.0
  Ni  Ni324  1  0.08425043  0.26509523  0.10065280  1.0
  Ni  Ni325  1  0.08425043  0.59842857  0.10065280  1.0
  Ni  Ni326  1  0.08425043  0.93176190  0.10065280  1.0
  Ni  Ni327  1  0.41758377  0.26509523  0.10065280  1.0
  Ni  Ni328  1  0.41758377  0.59842857  0.10065280  1.0
  Ni  Ni329  1  0.41758377  0.93176190  0.10065280  1.0
  Ni  Ni330  1  0.75091710  0.26509523  0.10065280  1.0
  Ni  Ni331  1  0.75091710  0.59842857  0.10065280  1.0
  Ni  Ni332  1  0.75091710  0.93176190  0.10065280  1.0
  Ni  Ni333  1  0.21758377  0.13176190  0.00065280  1.0
  Ni  Ni334  1  0.21758377  0.46509523  0.00065280  1.0
  Ni  Ni335  1  0.21758377  0.79842857  0.00065280  1.0
  Ni  Ni336  1  0.55091710  0.13176190  0.00065280  1.0
  Ni  Ni337  1  0.55091710  0.46509523  0.00065280  1.0
  Ni  Ni338  1  0.55091710  0.79842857  0.00065280  1.0
  Ni  Ni339  1  0.88425043  0.13176190  0.00065280  1.0
  Ni  Ni340  1  0.88425043  0.46509523  0.00065280  1.0
  Ni  Ni341  1  0.88425043  0.79842857  0.00065280  1.0
  Ni  Ni342  1  0.31214070  0.00518030  0.08852060  1.0
  Ni  Ni343  1  0.31214070  0.33851363  0.08852060  1.0
  Ni  Ni344  1  0.31214070  0.67184697  0.08852060  1.0
  Ni  Ni345  1  0.64547403  0.00518030  0.08852060  1.0
  Ni  Ni346  1  0.64547403  0.33851363  0.08852060  1.0
  Ni  Ni347  1  0.64547403  0.67184697  0.08852060  1.0
  Ni  Ni348  1  0.97880737  0.00518030  0.08852060  1.0
  Ni  Ni349  1  0.97880737  0.33851363  0.08852060  1.0
  Ni  Ni350  1  0.97880737  0.67184697  0.08852060  1.0
  Ni  Ni351  1  0.17880737  0.13851363  0.18852060  1.0
  Ni  Ni352  1  0.17880737  0.47184697  0.18852060  1.0
  Ni  Ni353  1  0.17880737  0.80518030  0.18852060  1.0
  Ni  Ni354  1  0.51214070  0.13851363  0.18852060  1.0
  Ni  Ni355  1  0.51214070  0.47184697  0.18852060  1.0
  Ni  Ni356  1  0.51214070  0.80518030  0.18852060  1.0
  Ni  Ni357  1  0.84547403  0.13851363  0.18852060  1.0
  Ni  Ni358  1  0.84547403  0.47184697  0.18852060  1.0
  Ni  Ni359  1  0.84547403  0.80518030  0.18852060  1.0
  Ni  Ni360  1  0.10807703  0.31668163  0.04099560  1.0
  Ni  Ni361  1  0.10807703  0.65001497  0.04099560  1.0
  Ni  Ni362  1  0.10807703  0.98334830  0.04099560  1.0
  Ni  Ni363  1  0.44141037  0.31668163  0.04099560  1.0
  Ni  Ni364  1  0.44141037  0.65001497  0.04099560  1.0
  Ni  Ni365  1  0.44141037  0.98334830  0.04099560  1.0
  Ni  Ni366  1  0.77474370  0.31668163  0.04099560  1.0
  Ni  Ni367  1  0.77474370  0.65001497  0.04099560  1.0
  Ni  Ni368  1  0.77474370  0.98334830  0.04099560  1.0
  Ni  Ni369  1  0.30807703  0.11668163  0.14099560  1.0
  Ni  Ni370  1  0.30807703  0.45001497  0.14099560  1.0
  Ni  Ni371  1  0.30807703  0.78334830  0.14099560  1.0
  Ni  Ni372  1  0.64141037  0.11668163  0.14099560  1.0
  Ni  Ni373  1  0.64141037  0.45001497  0.14099560  1.0
  Ni  Ni374  1  0.64141037  0.78334830  0.14099560  1.0
  Ni  Ni375  1  0.97474370  0.11668163  0.14099560  1.0
  Ni  Ni376  1  0.97474370  0.45001497  0.14099560  1.0
  Ni  Ni377  1  0.97474370  0.78334830  0.14099560  1.0
  Ni  Ni378  1  0.26486223  0.06847110  0.29458670  1.0
  Ni  Ni379  1  0.26486223  0.40180443  0.29458670  1.0
  Ni  Ni380  1  0.26486223  0.73513777  0.29458670  1.0
  Ni  Ni381  1  0.59819557  0.06847110  0.29458670  1.0
  Ni  Ni382  1  0.59819557  0.40180443  0.29458670  1.0
  Ni  Ni383  1  0.59819557  0.73513777  0.29458670  1.0
  Ni  Ni384  1  0.93152890  0.06847110  0.29458670  1.0
  Ni  Ni385  1  0.93152890  0.40180443  0.29458670  1.0
  Ni  Ni386  1  0.93152890  0.73513777  0.29458670  1.0
  Ni  Ni387  1  0.13152890  0.20180443  0.39458670  1.0
  Ni  Ni388  1  0.13152890  0.53513777  0.39458670  1.0
  Ni  Ni389  1  0.13152890  0.86847110  0.39458670  1.0
  Ni  Ni390  1  0.46486223  0.20180443  0.39458670  1.0
  Ni  Ni391  1  0.46486223  0.53513777  0.39458670  1.0
  Ni  Ni392  1  0.46486223  0.86847110  0.39458670  1.0
  Ni  Ni393  1  0.79819557  0.20180443  0.39458670  1.0
  Ni  Ni394  1  0.79819557  0.53513777  0.39458670  1.0
  Ni  Ni395  1  0.79819557  0.86847110  0.39458670  1.0
  Ni  Ni396  1  0.27007323  0.01243143  0.26617470  1.0
  Ni  Ni397  1  0.27007323  0.34576477  0.26617470  1.0
  Ni  Ni398  1  0.27007323  0.67909810  0.26617470  1.0
  Ni  Ni399  1  0.60340657  0.01243143  0.26617470  1.0
  Ni  Ni400  1  0.60340657  0.34576477  0.26617470  1.0
  Ni  Ni401  1  0.60340657  0.67909810  0.26617470  1.0
  Ni  Ni402  1  0.93673990  0.01243143  0.26617470  1.0
  Ni  Ni403  1  0.93673990  0.34576477  0.26617470  1.0
  Ni  Ni404  1  0.93673990  0.67909810  0.26617470  1.0
  Ni  Ni405  1  0.13673990  0.14576477  0.36617470  1.0
  Ni  Ni406  1  0.13673990  0.47909810  0.36617470  1.0
  Ni  Ni407  1  0.13673990  0.81243143  0.36617470  1.0
  Ni  Ni408  1  0.47007323  0.14576477  0.36617470  1.0
  Ni  Ni409  1  0.47007323  0.47909810  0.36617470  1.0
  Ni  Ni410  1  0.47007323  0.81243143  0.36617470  1.0
  Ni  Ni411  1  0.80340657  0.14576477  0.36617470  1.0
  Ni  Ni412  1  0.80340657  0.47909810  0.36617470  1.0
  Ni  Ni413  1  0.80340657  0.81243143  0.36617470  1.0
  Ni  Ni414  1  0.25965123  0.12451077  0.32299870  1.0
  Ni  Ni415  1  0.25965123  0.45784410  0.32299870  1.0
  Ni  Ni416  1  0.25965123  0.79117743  0.32299870  1.0
  Ni  Ni417  1  0.59298457  0.12451077  0.32299870  1.0
  Ni  Ni418  1  0.59298457  0.45784410  0.32299870  1.0
  Ni  Ni419  1  0.59298457  0.79117743  0.32299870  1.0
  Ni  Ni420  1  0.92631790  0.12451077  0.32299870  1.0
  Ni  Ni421  1  0.92631790  0.45784410  0.32299870  1.0
  Ni  Ni422  1  0.92631790  0.79117743  0.32299870  1.0
  Ni  Ni423  1  0.05965123  0.32451077  0.22299870  1.0
  Ni  Ni424  1  0.05965123  0.65784410  0.22299870  1.0
  Ni  Ni425  1  0.05965123  0.99117743  0.22299870  1.0
  Ni  Ni426  1  0.39298457  0.32451077  0.22299870  1.0
  Ni  Ni427  1  0.39298457  0.65784410  0.22299870  1.0
  Ni  Ni428  1  0.39298457  0.99117743  0.22299870  1.0
  Ni  Ni429  1  0.72631790  0.32451077  0.22299870  1.0
  Ni  Ni430  1  0.72631790  0.65784410  0.22299870  1.0
  Ni  Ni431  1  0.72631790  0.99117743  0.22299870  1.0
  Ni  Ni432  1  0.19833977  0.31158623  0.27280880  1.0
  Ni  Ni433  1  0.19833977  0.64491957  0.27280880  1.0
  Ni  Ni434  1  0.19833977  0.97825290  0.27280880  1.0
  Ni  Ni435  1  0.53167310  0.31158623  0.27280880  1.0
  Ni  Ni436  1  0.53167310  0.64491957  0.27280880  1.0
  Ni  Ni437  1  0.53167310  0.97825290  0.27280880  1.0
  Ni  Ni438  1  0.86500643  0.31158623  0.27280880  1.0
  Ni  Ni439  1  0.86500643  0.64491957  0.27280880  1.0
  Ni  Ni440  1  0.86500643  0.97825290  0.27280880  1.0
  Ni  Ni441  1  0.06500643  0.11158623  0.37280880  1.0
  Ni  Ni442  1  0.06500643  0.44491957  0.37280880  1.0
  Ni  Ni443  1  0.06500643  0.77825290  0.37280880  1.0
  Ni  Ni444  1  0.39833977  0.11158623  0.37280880  1.0
  Ni  Ni445  1  0.39833977  0.44491957  0.37280880  1.0
  Ni  Ni446  1  0.39833977  0.77825290  0.37280880  1.0
  Ni  Ni447  1  0.73167310  0.11158623  0.37280880  1.0
  Ni  Ni448  1  0.73167310  0.44491957  0.37280880  1.0
  Ni  Ni449  1  0.73167310  0.77825290  0.37280880  1.0
  Ni  Ni450  1  0.33138470  0.15868930  0.31636460  1.0
  Ni  Ni451  1  0.33138470  0.49202263  0.31636460  1.0
  Ni  Ni452  1  0.33138470  0.82535597  0.31636460  1.0
  Ni  Ni453  1  0.66471803  0.15868930  0.31636460  1.0
  Ni  Ni454  1  0.66471803  0.49202263  0.31636460  1.0
  Ni  Ni455  1  0.66471803  0.82535597  0.31636460  1.0
  Ni  Ni456  1  0.99805137  0.15868930  0.31636460  1.0
  Ni  Ni457  1  0.99805137  0.49202263  0.31636460  1.0
  Ni  Ni458  1  0.99805137  0.82535597  0.31636460  1.0
  Ni  Ni459  1  0.13138470  0.02535597  0.21636460  1.0
  Ni  Ni460  1  0.13138470  0.35868930  0.21636460  1.0
  Ni  Ni461  1  0.13138470  0.69202263  0.21636460  1.0
  Ni  Ni462  1  0.46471803  0.02535597  0.21636460  1.0
  Ni  Ni463  1  0.46471803  0.35868930  0.21636460  1.0
  Ni  Ni464  1  0.46471803  0.69202263  0.21636460  1.0
  Ni  Ni465  1  0.79805137  0.02535597  0.21636460  1.0
  Ni  Ni466  1  0.79805137  0.35868930  0.21636460  1.0
  Ni  Ni467  1  0.79805137  0.69202263  0.21636460  1.0
  Ni  Ni468  1  0.31562550  0.26959883  0.37769400  1.0
  Ni  Ni469  1  0.31562550  0.60293217  0.37769400  1.0
  Ni  Ni470  1  0.31562550  0.93626550  0.37769400  1.0
  Ni  Ni471  1  0.64895883  0.26959883  0.37769400  1.0
  Ni  Ni472  1  0.64895883  0.60293217  0.37769400  1.0
  Ni  Ni473  1  0.64895883  0.93626550  0.37769400  1.0
  Ni  Ni474  1  0.98229217  0.26959883  0.37769400  1.0
  Ni  Ni475  1  0.98229217  0.60293217  0.37769400  1.0
  Ni  Ni476  1  0.98229217  0.93626550  0.37769400  1.0
  Ni  Ni477  1  0.11562550  0.13626550  0.27769400  1.0
  Ni  Ni478  1  0.11562550  0.46959883  0.27769400  1.0
  Ni  Ni479  1  0.11562550  0.80293217  0.27769400  1.0
  Ni  Ni480  1  0.44895883  0.13626550  0.27769400  1.0
  Ni  Ni481  1  0.44895883  0.46959883  0.27769400  1.0
  Ni  Ni482  1  0.44895883  0.80293217  0.27769400  1.0
  Ni  Ni483  1  0.78229217  0.13626550  0.27769400  1.0
  Ni  Ni484  1  0.78229217  0.46959883  0.27769400  1.0
  Ni  Ni485  1  0.78229217  0.80293217  0.27769400  1.0
  Ni  Ni486  1  0.21409897  0.20067670  0.21147940  1.0
  Ni  Ni487  1  0.21409897  0.53401003  0.21147940  1.0
  Ni  Ni488  1  0.21409897  0.86734337  0.21147940  1.0
  Ni  Ni489  1  0.54743230  0.20067670  0.21147940  1.0
  Ni  Ni490  1  0.54743230  0.53401003  0.21147940  1.0
  Ni  Ni491  1  0.54743230  0.86734337  0.21147940  1.0
  Ni  Ni492  1  0.88076563  0.20067670  0.21147940  1.0
  Ni  Ni493  1  0.88076563  0.53401003  0.21147940  1.0
  Ni  Ni494  1  0.88076563  0.86734337  0.21147940  1.0
  Ni  Ni495  1  0.08076563  0.00067670  0.31147940  1.0
  Ni  Ni496  1  0.08076563  0.33401003  0.31147940  1.0
  Ni  Ni497  1  0.08076563  0.66734337  0.31147940  1.0
  Ni  Ni498  1  0.41409897  0.00067670  0.31147940  1.0
  Ni  Ni499  1  0.41409897  0.33401003  0.31147940  1.0
  Ni  Ni500  1  0.41409897  0.66734337  0.31147940  1.0
  Ni  Ni501  1  0.74743230  0.00067670  0.31147940  1.0
  Ni  Ni502  1  0.74743230  0.33401003  0.31147940  1.0
  Ni  Ni503  1  0.74743230  0.66734337  0.31147940  1.0
  Ni  Ni504  1  0.02164743  0.22026057  0.34817780  1.0
  Ni  Ni505  1  0.02164743  0.55359390  0.34817780  1.0
  Ni  Ni506  1  0.02164743  0.88692723  0.34817780  1.0
  Ni  Ni507  1  0.35498077  0.22026057  0.34817780  1.0
  Ni  Ni508  1  0.35498077  0.55359390  0.34817780  1.0
  Ni  Ni509  1  0.35498077  0.88692723  0.34817780  1.0
  Ni  Ni510  1  0.68831410  0.22026057  0.34817780  1.0
  Ni  Ni511  1  0.68831410  0.55359390  0.34817780  1.0
  Ni  Ni512  1  0.68831410  0.88692723  0.34817780  1.0
  Ni  Ni513  1  0.15498077  0.08692723  0.24817780  1.0
  Ni  Ni514  1  0.15498077  0.42026057  0.24817780  1.0
  Ni  Ni515  1  0.15498077  0.75359390  0.24817780  1.0
  Ni  Ni516  1  0.48831410  0.08692723  0.24817780  1.0
  Ni  Ni517  1  0.48831410  0.42026057  0.24817780  1.0
  Ni  Ni518  1  0.48831410  0.75359390  0.24817780  1.0
  Ni  Ni519  1  0.82164743  0.08692723  0.24817780  1.0
  Ni  Ni520  1  0.82164743  0.42026057  0.24817780  1.0
  Ni  Ni521  1  0.82164743  0.75359390  0.24817780  1.0
  Ni  Ni522  1  0.00039010  0.28155657  0.21813180  1.0
  Ni  Ni523  1  0.00039010  0.61488990  0.21813180  1.0
  Ni  Ni524  1  0.00039010  0.94822323  0.21813180  1.0
  Ni  Ni525  1  0.33372343  0.28155657  0.21813180  1.0
  Ni  Ni526  1  0.33372343  0.61488990  0.21813180  1.0
  Ni  Ni527  1  0.33372343  0.94822323  0.21813180  1.0
  Ni  Ni528  1  0.66705677  0.28155657  0.21813180  1.0
  Ni  Ni529  1  0.66705677  0.61488990  0.21813180  1.0
  Ni  Ni530  1  0.66705677  0.94822323  0.21813180  1.0
  Ni  Ni531  1  0.20039010  0.08155657  0.31813180  1.0
  Ni  Ni532  1  0.20039010  0.41488990  0.31813180  1.0
  Ni  Ni533  1  0.20039010  0.74822323  0.31813180  1.0
  Ni  Ni534  1  0.53372343  0.08155657  0.31813180  1.0
  Ni  Ni535  1  0.53372343  0.41488990  0.31813180  1.0
  Ni  Ni536  1  0.53372343  0.74822323  0.31813180  1.0
  Ni  Ni537  1  0.86705677  0.08155657  0.31813180  1.0
  Ni  Ni538  1  0.86705677  0.41488990  0.31813180  1.0
  Ni  Ni539  1  0.86705677  0.74822323  0.31813180  1.0
  Ni  Ni540  1  0.19600103  0.18871897  0.37104160  1.0
  Ni  Ni541  1  0.19600103  0.52205230  0.37104160  1.0
  Ni  Ni542  1  0.19600103  0.85538563  0.37104160  1.0
  Ni  Ni543  1  0.52933437  0.18871897  0.37104160  1.0
  Ni  Ni544  1  0.52933437  0.52205230  0.37104160  1.0
  Ni  Ni545  1  0.52933437  0.85538563  0.37104160  1.0
  Ni  Ni546  1  0.86266770  0.18871897  0.37104160  1.0
  Ni  Ni547  1  0.86266770  0.52205230  0.37104160  1.0
  Ni  Ni548  1  0.86266770  0.85538563  0.37104160  1.0
  Ni  Ni549  1  0.32933437  0.05538563  0.27104160  1.0
  Ni  Ni550  1  0.32933437  0.38871897  0.27104160  1.0
  Ni  Ni551  1  0.32933437  0.72205230  0.27104160  1.0
  Ni  Ni552  1  0.66266770  0.05538563  0.27104160  1.0
  Ni  Ni553  1  0.66266770  0.38871897  0.27104160  1.0
  Ni  Ni554  1  0.66266770  0.72205230  0.27104160  1.0
  Ni  Ni555  1  0.99600103  0.05538563  0.27104160  1.0
  Ni  Ni556  1  0.99600103  0.38871897  0.27104160  1.0
  Ni  Ni557  1  0.99600103  0.72205230  0.27104160  1.0
  Ni  Ni558  1  0.22936917  0.22014617  0.29142300  1.0
  Ni  Ni559  1  0.22936917  0.55347950  0.29142300  1.0
  Ni  Ni560  1  0.22936917  0.88681283  0.29142300  1.0
  Ni  Ni561  1  0.56270250  0.22014617  0.29142300  1.0
  Ni  Ni562  1  0.56270250  0.55347950  0.29142300  1.0
  Ni  Ni563  1  0.56270250  0.88681283  0.29142300  1.0
  Ni  Ni564  1  0.89603583  0.22014617  0.29142300  1.0
  Ni  Ni565  1  0.89603583  0.55347950  0.29142300  1.0
  Ni  Ni566  1  0.89603583  0.88681283  0.29142300  1.0
  Ni  Ni567  1  0.09603583  0.02014617  0.39142300  1.0
  Ni  Ni568  1  0.09603583  0.35347950  0.39142300  1.0
  Ni  Ni569  1  0.09603583  0.68681283  0.39142300  1.0
  Ni  Ni570  1  0.42936917  0.02014617  0.39142300  1.0
  Ni  Ni571  1  0.42936917  0.35347950  0.39142300  1.0
  Ni  Ni572  1  0.42936917  0.68681283  0.39142300  1.0
  Ni  Ni573  1  0.76270250  0.02014617  0.39142300  1.0
  Ni  Ni574  1  0.76270250  0.35347950  0.39142300  1.0
  Ni  Ni575  1  0.76270250  0.68681283  0.39142300  1.0
  Ni  Ni576  1  0.30035530  0.25012937  0.29775040  1.0
  Ni  Ni577  1  0.30035530  0.58346270  0.29775040  1.0
  Ni  Ni578  1  0.30035530  0.91679603  0.29775040  1.0
  Ni  Ni579  1  0.63368863  0.25012937  0.29775040  1.0
  Ni  Ni580  1  0.63368863  0.58346270  0.29775040  1.0
  Ni  Ni581  1  0.63368863  0.91679603  0.29775040  1.0
  Ni  Ni582  1  0.96702197  0.25012937  0.29775040  1.0
  Ni  Ni583  1  0.96702197  0.58346270  0.29775040  1.0
  Ni  Ni584  1  0.96702197  0.91679603  0.29775040  1.0
  Ni  Ni585  1  0.16702197  0.05012937  0.39775040  1.0
  Ni  Ni586  1  0.16702197  0.38346270  0.39775040  1.0
  Ni  Ni587  1  0.16702197  0.71679603  0.39775040  1.0
  Ni  Ni588  1  0.50035530  0.05012937  0.39775040  1.0
  Ni  Ni589  1  0.50035530  0.38346270  0.39775040  1.0
  Ni  Ni590  1  0.50035530  0.71679603  0.39775040  1.0
  Ni  Ni591  1  0.83368863  0.05012937  0.39775040  1.0
  Ni  Ni592  1  0.83368863  0.38346270  0.39775040  1.0
  Ni  Ni593  1  0.83368863  0.71679603  0.39775040  1.0
  Ni  Ni594  1  0.27306997  0.17440137  0.25436940  1.0
  Ni  Ni595  1  0.27306997  0.50773470  0.25436940  1.0
  Ni  Ni596  1  0.27306997  0.84106803  0.25436940  1.0
  Ni  Ni597  1  0.60640330  0.17440137  0.25436940  1.0
  Ni  Ni598  1  0.60640330  0.50773470  0.25436940  1.0
  Ni  Ni599  1  0.60640330  0.84106803  0.25436940  1.0
  Ni  Ni600  1  0.93973663  0.17440137  0.25436940  1.0
  Ni  Ni601  1  0.93973663  0.50773470  0.25436940  1.0
  Ni  Ni602  1  0.93973663  0.84106803  0.25436940  1.0
  Ni  Ni603  1  0.13973663  0.30773470  0.35436940  1.0
  Ni  Ni604  1  0.13973663  0.64106803  0.35436940  1.0
  Ni  Ni605  1  0.13973663  0.97440137  0.35436940  1.0
  Ni  Ni606  1  0.47306997  0.30773470  0.35436940  1.0
  Ni  Ni607  1  0.47306997  0.64106803  0.35436940  1.0
  Ni  Ni608  1  0.47306997  0.97440137  0.35436940  1.0
  Ni  Ni609  1  0.80640330  0.30773470  0.35436940  1.0
  Ni  Ni610  1  0.80640330  0.64106803  0.35436940  1.0
  Ni  Ni611  1  0.80640330  0.97440137  0.35436940  1.0
  Ni  Ni612  1  0.25665450  0.29587417  0.33480400  1.0
  Ni  Ni613  1  0.25665450  0.62920750  0.33480400  1.0
  Ni  Ni614  1  0.25665450  0.96254083  0.33480400  1.0
  Ni  Ni615  1  0.58998783  0.29587417  0.33480400  1.0
  Ni  Ni616  1  0.58998783  0.62920750  0.33480400  1.0
  Ni  Ni617  1  0.58998783  0.96254083  0.33480400  1.0
  Ni  Ni618  1  0.92332117  0.29587417  0.33480400  1.0
  Ni  Ni619  1  0.92332117  0.62920750  0.33480400  1.0
  Ni  Ni620  1  0.92332117  0.96254083  0.33480400  1.0
  Ni  Ni621  1  0.05665450  0.16254083  0.23480400  1.0
  Ni  Ni622  1  0.05665450  0.49587417  0.23480400  1.0
  Ni  Ni623  1  0.05665450  0.82920750  0.23480400  1.0
  Ni  Ni624  1  0.38998783  0.16254083  0.23480400  1.0
  Ni  Ni625  1  0.38998783  0.49587417  0.23480400  1.0
  Ni  Ni626  1  0.38998783  0.82920750  0.23480400  1.0
  Ni  Ni627  1  0.72332117  0.16254083  0.23480400  1.0
  Ni  Ni628  1  0.72332117  0.49587417  0.23480400  1.0
  Ni  Ni629  1  0.72332117  0.82920750  0.23480400  1.0
  Ni  Ni630  1  0.28411843  0.22968890  0.20429680  1.0
  Ni  Ni631  1  0.28411843  0.56302223  0.20429680  1.0
  Ni  Ni632  1  0.28411843  0.89635557  0.20429680  1.0
  Ni  Ni633  1  0.61745177  0.22968890  0.20429680  1.0
  Ni  Ni634  1  0.61745177  0.56302223  0.20429680  1.0
  Ni  Ni635  1  0.61745177  0.89635557  0.20429680  1.0
  Ni  Ni636  1  0.95078510  0.22968890  0.20429680  1.0
  Ni  Ni637  1  0.95078510  0.56302223  0.20429680  1.0
  Ni  Ni638  1  0.95078510  0.89635557  0.20429680  1.0
  Ni  Ni639  1  0.15078510  0.02968890  0.30429680  1.0
  Ni  Ni640  1  0.15078510  0.36302223  0.30429680  1.0
  Ni  Ni641  1  0.15078510  0.69635557  0.30429680  1.0
  Ni  Ni642  1  0.48411843  0.02968890  0.30429680  1.0
  Ni  Ni643  1  0.48411843  0.36302223  0.30429680  1.0
  Ni  Ni644  1  0.48411843  0.69635557  0.30429680  1.0
  Ni  Ni645  1  0.81745177  0.02968890  0.30429680  1.0
  Ni  Ni646  1  0.81745177  0.36302223  0.30429680  1.0
  Ni  Ni647  1  0.81745177  0.69635557  0.30429680  1.0
  Ni  Ni648  1  0.24560603  0.24058663  0.38487660  1.0
  Ni  Ni649  1  0.24560603  0.57391997  0.38487660  1.0
  Ni  Ni650  1  0.24560603  0.90725330  0.38487660  1.0
  Ni  Ni651  1  0.57893937  0.24058663  0.38487660  1.0
  Ni  Ni652  1  0.57893937  0.57391997  0.38487660  1.0
  Ni  Ni653  1  0.57893937  0.90725330  0.38487660  1.0
  Ni  Ni654  1  0.91227270  0.24058663  0.38487660  1.0
  Ni  Ni655  1  0.91227270  0.57391997  0.38487660  1.0
  Ni  Ni656  1  0.91227270  0.90725330  0.38487660  1.0
  Ni  Ni657  1  0.04560603  0.10725330  0.28487660  1.0
  Ni  Ni658  1  0.04560603  0.44058663  0.28487660  1.0
  Ni  Ni659  1  0.04560603  0.77391997  0.28487660  1.0
  Ni  Ni660  1  0.37893937  0.10725330  0.28487660  1.0
  Ni  Ni661  1  0.37893937  0.44058663  0.28487660  1.0
  Ni  Ni662  1  0.37893937  0.77391997  0.28487660  1.0
  Ni  Ni663  1  0.71227270  0.10725330  0.28487660  1.0
  Ni  Ni664  1  0.71227270  0.44058663  0.28487660  1.0
  Ni  Ni665  1  0.71227270  0.77391997  0.28487660  1.0
  Ni  Ni666  1  0.23535417  0.10989783  0.23761050  1.0
  Ni  Ni667  1  0.23535417  0.44323117  0.23761050  1.0
  Ni  Ni668  1  0.23535417  0.77656450  0.23761050  1.0
  Ni  Ni669  1  0.56868750  0.10989783  0.23761050  1.0
  Ni  Ni670  1  0.56868750  0.44323117  0.23761050  1.0
  Ni  Ni671  1  0.56868750  0.77656450  0.23761050  1.0
  Ni  Ni672  1  0.90202083  0.10989783  0.23761050  1.0
  Ni  Ni673  1  0.90202083  0.44323117  0.23761050  1.0
  Ni  Ni674  1  0.90202083  0.77656450  0.23761050  1.0
  Ni  Ni675  1  0.10202083  0.24323117  0.33761050  1.0
  Ni  Ni676  1  0.10202083  0.57656450  0.33761050  1.0
  Ni  Ni677  1  0.10202083  0.90989783  0.33761050  1.0
  Ni  Ni678  1  0.43535417  0.24323117  0.33761050  1.0
  Ni  Ni679  1  0.43535417  0.57656450  0.33761050  1.0
  Ni  Ni680  1  0.43535417  0.90989783  0.33761050  1.0
  Ni  Ni681  1  0.76868750  0.24323117  0.33761050  1.0
  Ni  Ni682  1  0.76868750  0.57656450  0.33761050  1.0
  Ni  Ni683  1  0.76868750  0.90989783  0.33761050  1.0
  Ni  Ni684  1  0.29437030  0.02704437  0.35156290  1.0
  Ni  Ni685  1  0.29437030  0.36037770  0.35156290  1.0
  Ni  Ni686  1  0.29437030  0.69371103  0.35156290  1.0
  Ni  Ni687  1  0.62770363  0.02704437  0.35156290  1.0
  Ni  Ni688  1  0.62770363  0.36037770  0.35156290  1.0
  Ni  Ni689  1  0.62770363  0.69371103  0.35156290  1.0
  Ni  Ni690  1  0.96103697  0.02704437  0.35156290  1.0
  Ni  Ni691  1  0.96103697  0.36037770  0.35156290  1.0
  Ni  Ni692  1  0.96103697  0.69371103  0.35156290  1.0
  Ni  Ni693  1  0.09437030  0.22704437  0.25156290  1.0
  Ni  Ni694  1  0.09437030  0.56037770  0.25156290  1.0
  Ni  Ni695  1  0.09437030  0.89371103  0.25156290  1.0
  Ni  Ni696  1  0.42770363  0.22704437  0.25156290  1.0
  Ni  Ni697  1  0.42770363  0.56037770  0.25156290  1.0
  Ni  Ni698  1  0.42770363  0.89371103  0.25156290  1.0
  Ni  Ni699  1  0.76103697  0.22704437  0.25156290  1.0
  Ni  Ni700  1  0.76103697  0.56037770  0.25156290  1.0
  Ni  Ni701  1  0.76103697  0.89371103  0.25156290  1.0
  Ni  Ni702  1  0.15091710  0.19842857  0.30065280  1.0
  Ni  Ni703  1  0.15091710  0.53176190  0.30065280  1.0
  Ni  Ni704  1  0.15091710  0.86509523  0.30065280  1.0
  Ni  Ni705  1  0.48425043  0.19842857  0.30065280  1.0
  Ni  Ni706  1  0.48425043  0.53176190  0.30065280  1.0
  Ni  Ni707  1  0.48425043  0.86509523  0.30065280  1.0
  Ni  Ni708  1  0.81758377  0.19842857  0.30065280  1.0
  Ni  Ni709  1  0.81758377  0.53176190  0.30065280  1.0
  Ni  Ni710  1  0.81758377  0.86509523  0.30065280  1.0
  Ni  Ni711  1  0.28425043  0.06509523  0.20065280  1.0
  Ni  Ni712  1  0.28425043  0.39842857  0.20065280  1.0
  Ni  Ni713  1  0.28425043  0.73176190  0.20065280  1.0
  Ni  Ni714  1  0.61758377  0.06509523  0.20065280  1.0
  Ni  Ni715  1  0.61758377  0.39842857  0.20065280  1.0
  Ni  Ni716  1  0.61758377  0.73176190  0.20065280  1.0
  Ni  Ni717  1  0.95091710  0.06509523  0.20065280  1.0
  Ni  Ni718  1  0.95091710  0.39842857  0.20065280  1.0
  Ni  Ni719  1  0.95091710  0.73176190  0.20065280  1.0
  Ni  Ni720  1  0.04547403  0.27184697  0.28852060  1.0
  Ni  Ni721  1  0.04547403  0.60518030  0.28852060  1.0
  Ni  Ni722  1  0.04547403  0.93851363  0.28852060  1.0
  Ni  Ni723  1  0.37880737  0.27184697  0.28852060  1.0
  Ni  Ni724  1  0.37880737  0.60518030  0.28852060  1.0
  Ni  Ni725  1  0.37880737  0.93851363  0.28852060  1.0
  Ni  Ni726  1  0.71214070  0.27184697  0.28852060  1.0
  Ni  Ni727  1  0.71214070  0.60518030  0.28852060  1.0
  Ni  Ni728  1  0.71214070  0.93851363  0.28852060  1.0
  Ni  Ni729  1  0.24547403  0.07184697  0.38852060  1.0
  Ni  Ni730  1  0.24547403  0.40518030  0.38852060  1.0
  Ni  Ni731  1  0.24547403  0.73851363  0.38852060  1.0
  Ni  Ni732  1  0.57880737  0.07184697  0.38852060  1.0
  Ni  Ni733  1  0.57880737  0.40518030  0.38852060  1.0
  Ni  Ni734  1  0.57880737  0.73851363  0.38852060  1.0
  Ni  Ni735  1  0.91214070  0.07184697  0.38852060  1.0
  Ni  Ni736  1  0.91214070  0.40518030  0.38852060  1.0
  Ni  Ni737  1  0.91214070  0.73851363  0.38852060  1.0
  Ni  Ni738  1  0.17474370  0.25001497  0.24099560  1.0
  Ni  Ni739  1  0.17474370  0.58334830  0.24099560  1.0
  Ni  Ni740  1  0.17474370  0.91668163  0.24099560  1.0
  Ni  Ni741  1  0.50807703  0.25001497  0.24099560  1.0
  Ni  Ni742  1  0.50807703  0.58334830  0.24099560  1.0
  Ni  Ni743  1  0.50807703  0.91668163  0.24099560  1.0
  Ni  Ni744  1  0.84141037  0.25001497  0.24099560  1.0
  Ni  Ni745  1  0.84141037  0.58334830  0.24099560  1.0
  Ni  Ni746  1  0.84141037  0.91668163  0.24099560  1.0
  Ni  Ni747  1  0.04141037  0.05001497  0.34099560  1.0
  Ni  Ni748  1  0.04141037  0.38334830  0.34099560  1.0
  Ni  Ni749  1  0.04141037  0.71668163  0.34099560  1.0
  Ni  Ni750  1  0.37474370  0.05001497  0.34099560  1.0
  Ni  Ni751  1  0.37474370  0.38334830  0.34099560  1.0
  Ni  Ni752  1  0.37474370  0.71668163  0.34099560  1.0
  Ni  Ni753  1  0.70807703  0.05001497  0.34099560  1.0
  Ni  Ni754  1  0.70807703  0.38334830  0.34099560  1.0
  Ni  Ni755  1  0.70807703  0.71668163  0.34099560  1.0
  Zr  Zr756  1  0.14135190  0.10949210  0.02896370  1.0
  Zr  Zr757  1  0.14135190  0.44282543  0.02896370  1.0
  Zr  Zr758  1  0.14135190  0.77615877  0.02896370  1.0
  Zr  Zr759  1  0.47468523  0.10949210  0.02896370  1.0
  Zr  Zr760  1  0.47468523  0.44282543  0.02896370  1.0
  Zr  Zr761  1  0.47468523  0.77615877  0.02896370  1.0
  Zr  Zr762  1  0.80801857  0.10949210  0.02896370  1.0
  Zr  Zr763  1  0.80801857  0.44282543  0.02896370  1.0
  Zr  Zr764  1  0.80801857  0.77615877  0.02896370  1.0
  Zr  Zr765  1  0.00801857  0.24282543  0.12896370  1.0
  Zr  Zr766  1  0.00801857  0.57615877  0.12896370  1.0
  Zr  Zr767  1  0.00801857  0.90949210  0.12896370  1.0
  Zr  Zr768  1  0.34135190  0.24282543  0.12896370  1.0
  Zr  Zr769  1  0.34135190  0.57615877  0.12896370  1.0
  Zr  Zr770  1  0.34135190  0.90949210  0.12896370  1.0
  Zr  Zr771  1  0.67468523  0.24282543  0.12896370  1.0
  Zr  Zr772  1  0.67468523  0.57615877  0.12896370  1.0
  Zr  Zr773  1  0.67468523  0.90949210  0.12896370  1.0
  Zr  Zr774  1  0.25503923  0.16078343  0.16020970  1.0
  Zr  Zr775  1  0.25503923  0.49411677  0.16020970  1.0
  Zr  Zr776  1  0.25503923  0.82745010  0.16020970  1.0
  Zr  Zr777  1  0.58837257  0.16078343  0.16020970  1.0
  Zr  Zr778  1  0.58837257  0.49411677  0.16020970  1.0
  Zr  Zr779  1  0.58837257  0.82745010  0.16020970  1.0
  Zr  Zr780  1  0.92170590  0.16078343  0.16020970  1.0
  Zr  Zr781  1  0.92170590  0.49411677  0.16020970  1.0
  Zr  Zr782  1  0.92170590  0.82745010  0.16020970  1.0
  Zr  Zr783  1  0.05503923  0.02745010  0.06020970  1.0
  Zr  Zr784  1  0.05503923  0.36078343  0.06020970  1.0
  Zr  Zr785  1  0.05503923  0.69411677  0.06020970  1.0
  Zr  Zr786  1  0.38837257  0.02745010  0.06020970  1.0
  Zr  Zr787  1  0.38837257  0.36078343  0.06020970  1.0
  Zr  Zr788  1  0.38837257  0.69411677  0.06020970  1.0
  Zr  Zr789  1  0.72170590  0.02745010  0.06020970  1.0
  Zr  Zr790  1  0.72170590  0.36078343  0.06020970  1.0
  Zr  Zr791  1  0.72170590  0.69411677  0.06020970  1.0
  Zr  Zr792  1  0.20834183  0.25589283  0.14881850  1.0
  Zr  Zr793  1  0.20834183  0.58922617  0.14881850  1.0
  Zr  Zr794  1  0.20834183  0.92255950  0.14881850  1.0
  Zr  Zr795  1  0.54167517  0.25589283  0.14881850  1.0
  Zr  Zr796  1  0.54167517  0.58922617  0.14881850  1.0
  Zr  Zr797  1  0.54167517  0.92255950  0.14881850  1.0
  Zr  Zr798  1  0.87500850  0.25589283  0.14881850  1.0
  Zr  Zr799  1  0.87500850  0.58922617  0.14881850  1.0
  Zr  Zr800  1  0.87500850  0.92255950  0.14881850  1.0
  Zr  Zr801  1  0.00834183  0.12255950  0.04881850  1.0
  Zr  Zr802  1  0.00834183  0.45589283  0.04881850  1.0
  Zr  Zr803  1  0.00834183  0.78922617  0.04881850  1.0
  Zr  Zr804  1  0.34167517  0.12255950  0.04881850  1.0
  Zr  Zr805  1  0.34167517  0.45589283  0.04881850  1.0
  Zr  Zr806  1  0.34167517  0.78922617  0.04881850  1.0
  Zr  Zr807  1  0.67500850  0.12255950  0.04881850  1.0
  Zr  Zr808  1  0.67500850  0.45589283  0.04881850  1.0
  Zr  Zr809  1  0.67500850  0.78922617  0.04881850  1.0
  Zr  Zr810  1  0.18804930  0.01438270  0.04035490  1.0
  Zr  Zr811  1  0.18804930  0.34771603  0.04035490  1.0
  Zr  Zr812  1  0.18804930  0.68104937  0.04035490  1.0
  Zr  Zr813  1  0.52138263  0.01438270  0.04035490  1.0
  Zr  Zr814  1  0.52138263  0.34771603  0.04035490  1.0
  Zr  Zr815  1  0.52138263  0.68104937  0.04035490  1.0
  Zr  Zr816  1  0.85471597  0.01438270  0.04035490  1.0
  Zr  Zr817  1  0.85471597  0.34771603  0.04035490  1.0
  Zr  Zr818  1  0.85471597  0.68104937  0.04035490  1.0
  Zr  Zr819  1  0.05471597  0.14771603  0.14035490  1.0
  Zr  Zr820  1  0.05471597  0.48104937  0.14035490  1.0
  Zr  Zr821  1  0.05471597  0.81438270  0.14035490  1.0
  Zr  Zr822  1  0.38804930  0.14771603  0.14035490  1.0
  Zr  Zr823  1  0.38804930  0.48104937  0.14035490  1.0
  Zr  Zr824  1  0.38804930  0.81438270  0.14035490  1.0
  Zr  Zr825  1  0.72138263  0.14771603  0.14035490  1.0
  Zr  Zr826  1  0.72138263  0.48104937  0.14035490  1.0
  Zr  Zr827  1  0.72138263  0.81438270  0.14035490  1.0
  Zr  Zr828  1  0.26844877  0.05361290  0.10398180  1.0
  Zr  Zr829  1  0.26844877  0.38694623  0.10398180  1.0
  Zr  Zr830  1  0.26844877  0.72027957  0.10398180  1.0
  Zr  Zr831  1  0.60178210  0.05361290  0.10398180  1.0
  Zr  Zr832  1  0.60178210  0.38694623  0.10398180  1.0
  Zr  Zr833  1  0.60178210  0.72027957  0.10398180  1.0
  Zr  Zr834  1  0.93511543  0.05361290  0.10398180  1.0
  Zr  Zr835  1  0.93511543  0.38694623  0.10398180  1.0
  Zr  Zr836  1  0.93511543  0.72027957  0.10398180  1.0
  Zr  Zr837  1  0.06844877  0.25361290  0.00398180  1.0
  Zr  Zr838  1  0.06844877  0.58694623  0.00398180  1.0
  Zr  Zr839  1  0.06844877  0.92027957  0.00398180  1.0
  Zr  Zr840  1  0.40178210  0.25361290  0.00398180  1.0
  Zr  Zr841  1  0.40178210  0.58694623  0.00398180  1.0
  Zr  Zr842  1  0.40178210  0.92027957  0.00398180  1.0
  Zr  Zr843  1  0.73511543  0.25361290  0.00398180  1.0
  Zr  Zr844  1  0.73511543  0.58694623  0.00398180  1.0
  Zr  Zr845  1  0.73511543  0.92027957  0.00398180  1.0
  Zr  Zr846  1  0.12794237  0.21666263  0.08519160  1.0
  Zr  Zr847  1  0.12794237  0.54999597  0.08519160  1.0
  Zr  Zr848  1  0.12794237  0.88332930  0.08519160  1.0
  Zr  Zr849  1  0.46127570  0.21666263  0.08519160  1.0
  Zr  Zr850  1  0.46127570  0.54999597  0.08519160  1.0
  Zr  Zr851  1  0.46127570  0.88332930  0.08519160  1.0
  Zr  Zr852  1  0.79460903  0.21666263  0.08519160  1.0
  Zr  Zr853  1  0.79460903  0.54999597  0.08519160  1.0
  Zr  Zr854  1  0.79460903  0.88332930  0.08519160  1.0
  Zr  Zr855  1  0.32794237  0.01666263  0.18519160  1.0
  Zr  Zr856  1  0.32794237  0.34999597  0.18519160  1.0
  Zr  Zr857  1  0.32794237  0.68332930  0.18519160  1.0
  Zr  Zr858  1  0.66127570  0.01666263  0.18519160  1.0
  Zr  Zr859  1  0.66127570  0.34999597  0.18519160  1.0
  Zr  Zr860  1  0.66127570  0.68332930  0.18519160  1.0
  Zr  Zr861  1  0.99460903  0.01666263  0.18519160  1.0
  Zr  Zr862  1  0.99460903  0.34999597  0.18519160  1.0
  Zr  Zr863  1  0.99460903  0.68332930  0.18519160  1.0
  Zr  Zr864  1  0.28148263  0.28035903  0.04946640  1.0
  Zr  Zr865  1  0.28148263  0.61369237  0.04946640  1.0
  Zr  Zr866  1  0.28148263  0.94702570  0.04946640  1.0
  Zr  Zr867  1  0.61481597  0.28035903  0.04946640  1.0
  Zr  Zr868  1  0.61481597  0.61369237  0.04946640  1.0
  Zr  Zr869  1  0.61481597  0.94702570  0.04946640  1.0
  Zr  Zr870  1  0.94814930  0.28035903  0.04946640  1.0
  Zr  Zr871  1  0.94814930  0.61369237  0.04946640  1.0
  Zr  Zr872  1  0.94814930  0.94702570  0.04946640  1.0
  Zr  Zr873  1  0.14814930  0.08035903  0.14946640  1.0
  Zr  Zr874  1  0.14814930  0.41369237  0.14946640  1.0
  Zr  Zr875  1  0.14814930  0.74702570  0.14946640  1.0
  Zr  Zr876  1  0.48148263  0.08035903  0.14946640  1.0
  Zr  Zr877  1  0.48148263  0.41369237  0.14946640  1.0
  Zr  Zr878  1  0.48148263  0.74702570  0.14946640  1.0
  Zr  Zr879  1  0.81481597  0.08035903  0.14946640  1.0
  Zr  Zr880  1  0.81481597  0.41369237  0.14946640  1.0
  Zr  Zr881  1  0.81481597  0.74702570  0.14946640  1.0
  Zr  Zr882  1  0.11490850  0.32324983  0.13970700  1.0
  Zr  Zr883  1  0.11490850  0.65658317  0.13970700  1.0
  Zr  Zr884  1  0.11490850  0.98991650  0.13970700  1.0
  Zr  Zr885  1  0.44824183  0.32324983  0.13970700  1.0
  Zr  Zr886  1  0.44824183  0.65658317  0.13970700  1.0
  Zr  Zr887  1  0.44824183  0.98991650  0.13970700  1.0
  Zr  Zr888  1  0.78157517  0.32324983  0.13970700  1.0
  Zr  Zr889  1  0.78157517  0.65658317  0.13970700  1.0
  Zr  Zr890  1  0.78157517  0.98991650  0.13970700  1.0
  Zr  Zr891  1  0.24824183  0.18991650  0.03970700  1.0
  Zr  Zr892  1  0.24824183  0.52324983  0.03970700  1.0
  Zr  Zr893  1  0.24824183  0.85658317  0.03970700  1.0
  Zr  Zr894  1  0.58157517  0.18991650  0.03970700  1.0
  Zr  Zr895  1  0.58157517  0.52324983  0.03970700  1.0
  Zr  Zr896  1  0.58157517  0.85658317  0.03970700  1.0
  Zr  Zr897  1  0.91490850  0.18991650  0.03970700  1.0
  Zr  Zr898  1  0.91490850  0.52324983  0.03970700  1.0
  Zr  Zr899  1  0.91490850  0.85658317  0.03970700  1.0
  Zr  Zr900  1  0.20801857  0.04282543  0.22896370  1.0
  Zr  Zr901  1  0.20801857  0.37615877  0.22896370  1.0
  Zr  Zr902  1  0.20801857  0.70949210  0.22896370  1.0
  Zr  Zr903  1  0.54135190  0.04282543  0.22896370  1.0
  Zr  Zr904  1  0.54135190  0.37615877  0.22896370  1.0
  Zr  Zr905  1  0.54135190  0.70949210  0.22896370  1.0
  Zr  Zr906  1  0.87468523  0.04282543  0.22896370  1.0
  Zr  Zr907  1  0.87468523  0.37615877  0.22896370  1.0
  Zr  Zr908  1  0.87468523  0.70949210  0.22896370  1.0
  Zr  Zr909  1  0.07468523  0.17615877  0.32896370  1.0
  Zr  Zr910  1  0.07468523  0.50949210  0.32896370  1.0
  Zr  Zr911  1  0.07468523  0.84282543  0.32896370  1.0
  Zr  Zr912  1  0.40801857  0.17615877  0.32896370  1.0
  Zr  Zr913  1  0.40801857  0.50949210  0.32896370  1.0
  Zr  Zr914  1  0.40801857  0.84282543  0.32896370  1.0
  Zr  Zr915  1  0.74135190  0.17615877  0.32896370  1.0
  Zr  Zr916  1  0.74135190  0.50949210  0.32896370  1.0
  Zr  Zr917  1  0.74135190  0.84282543  0.32896370  1.0
  Zr  Zr918  1  0.32170590  0.09411677  0.36020970  1.0
  Zr  Zr919  1  0.32170590  0.42745010  0.36020970  1.0
  Zr  Zr920  1  0.32170590  0.76078343  0.36020970  1.0
  Zr  Zr921  1  0.65503923  0.09411677  0.36020970  1.0
  Zr  Zr922  1  0.65503923  0.42745010  0.36020970  1.0
  Zr  Zr923  1  0.65503923  0.76078343  0.36020970  1.0
  Zr  Zr924  1  0.98837257  0.09411677  0.36020970  1.0
  Zr  Zr925  1  0.98837257  0.42745010  0.36020970  1.0
  Zr  Zr926  1  0.98837257  0.76078343  0.36020970  1.0
  Zr  Zr927  1  0.12170590  0.29411677  0.26020970  1.0
  Zr  Zr928  1  0.12170590  0.62745010  0.26020970  1.0
  Zr  Zr929  1  0.12170590  0.96078343  0.26020970  1.0
  Zr  Zr930  1  0.45503923  0.29411677  0.26020970  1.0
  Zr  Zr931  1  0.45503923  0.62745010  0.26020970  1.0
  Zr  Zr932  1  0.45503923  0.96078343  0.26020970  1.0
  Zr  Zr933  1  0.78837257  0.29411677  0.26020970  1.0
  Zr  Zr934  1  0.78837257  0.62745010  0.26020970  1.0
  Zr  Zr935  1  0.78837257  0.96078343  0.26020970  1.0
  Zr  Zr936  1  0.27500850  0.18922617  0.34881850  1.0
  Zr  Zr937  1  0.27500850  0.52255950  0.34881850  1.0
  Zr  Zr938  1  0.27500850  0.85589283  0.34881850  1.0
  Zr  Zr939  1  0.60834183  0.18922617  0.34881850  1.0
  Zr  Zr940  1  0.60834183  0.52255950  0.34881850  1.0
  Zr  Zr941  1  0.60834183  0.85589283  0.34881850  1.0
  Zr  Zr942  1  0.94167517  0.18922617  0.34881850  1.0
  Zr  Zr943  1  0.94167517  0.52255950  0.34881850  1.0
  Zr  Zr944  1  0.94167517  0.85589283  0.34881850  1.0
  Zr  Zr945  1  0.07500850  0.05589283  0.24881850  1.0
  Zr  Zr946  1  0.07500850  0.38922617  0.24881850  1.0
  Zr  Zr947  1  0.07500850  0.72255950  0.24881850  1.0
  Zr  Zr948  1  0.40834183  0.05589283  0.24881850  1.0
  Zr  Zr949  1  0.40834183  0.38922617  0.24881850  1.0
  Zr  Zr950  1  0.40834183  0.72255950  0.24881850  1.0
  Zr  Zr951  1  0.74167517  0.05589283  0.24881850  1.0
  Zr  Zr952  1  0.74167517  0.38922617  0.24881850  1.0
  Zr  Zr953  1  0.74167517  0.72255950  0.24881850  1.0
  Zr  Zr954  1  0.25471597  0.28104937  0.24035490  1.0
  Zr  Zr955  1  0.25471597  0.61438270  0.24035490  1.0
  Zr  Zr956  1  0.25471597  0.94771603  0.24035490  1.0
  Zr  Zr957  1  0.58804930  0.28104937  0.24035490  1.0
  Zr  Zr958  1  0.58804930  0.61438270  0.24035490  1.0
  Zr  Zr959  1  0.58804930  0.94771603  0.24035490  1.0
  Zr  Zr960  1  0.92138263  0.28104937  0.24035490  1.0
  Zr  Zr961  1  0.92138263  0.61438270  0.24035490  1.0
  Zr  Zr962  1  0.92138263  0.94771603  0.24035490  1.0
  Zr  Zr963  1  0.12138263  0.08104937  0.34035490  1.0
  Zr  Zr964  1  0.12138263  0.41438270  0.34035490  1.0
  Zr  Zr965  1  0.12138263  0.74771603  0.34035490  1.0
  Zr  Zr966  1  0.45471597  0.08104937  0.34035490  1.0
  Zr  Zr967  1  0.45471597  0.41438270  0.34035490  1.0
  Zr  Zr968  1  0.45471597  0.74771603  0.34035490  1.0
  Zr  Zr969  1  0.78804930  0.08104937  0.34035490  1.0
  Zr  Zr970  1  0.78804930  0.41438270  0.34035490  1.0
  Zr  Zr971  1  0.78804930  0.74771603  0.34035490  1.0
  Zr  Zr972  1  0.00178210  0.32027957  0.30398180  1.0
  Zr  Zr973  1  0.00178210  0.65361290  0.30398180  1.0
  Zr  Zr974  1  0.00178210  0.98694623  0.30398180  1.0
  Zr  Zr975  1  0.33511543  0.32027957  0.30398180  1.0
  Zr  Zr976  1  0.33511543  0.65361290  0.30398180  1.0
  Zr  Zr977  1  0.33511543  0.98694623  0.30398180  1.0
  Zr  Zr978  1  0.66844877  0.32027957  0.30398180  1.0
  Zr  Zr979  1  0.66844877  0.65361290  0.30398180  1.0
  Zr  Zr980  1  0.66844877  0.98694623  0.30398180  1.0
  Zr  Zr981  1  0.13511543  0.18694623  0.20398180  1.0
  Zr  Zr982  1  0.13511543  0.52027957  0.20398180  1.0
  Zr  Zr983  1  0.13511543  0.85361290  0.20398180  1.0
  Zr  Zr984  1  0.46844877  0.18694623  0.20398180  1.0
  Zr  Zr985  1  0.46844877  0.52027957  0.20398180  1.0
  Zr  Zr986  1  0.46844877  0.85361290  0.20398180  1.0
  Zr  Zr987  1  0.80178210  0.18694623  0.20398180  1.0
  Zr  Zr988  1  0.80178210  0.52027957  0.20398180  1.0
  Zr  Zr989  1  0.80178210  0.85361290  0.20398180  1.0
  Zr  Zr990  1  0.19460903  0.14999597  0.28519160  1.0
  Zr  Zr991  1  0.19460903  0.48332930  0.28519160  1.0
  Zr  Zr992  1  0.19460903  0.81666263  0.28519160  1.0
  Zr  Zr993  1  0.52794237  0.14999597  0.28519160  1.0
  Zr  Zr994  1  0.52794237  0.48332930  0.28519160  1.0
  Zr  Zr995  1  0.52794237  0.81666263  0.28519160  1.0
  Zr  Zr996  1  0.86127570  0.14999597  0.28519160  1.0
  Zr  Zr997  1  0.86127570  0.48332930  0.28519160  1.0
  Zr  Zr998  1  0.86127570  0.81666263  0.28519160  1.0
  Zr  Zr999  1  0.06127570  0.28332930  0.38519160  1.0
  Zr  Zr1000  1  0.06127570  0.61666263  0.38519160  1.0
  Zr  Zr1001  1  0.06127570  0.94999597  0.38519160  1.0
  Zr  Zr1002  1  0.39460903  0.28332930  0.38519160  1.0
  Zr  Zr1003  1  0.39460903  0.61666263  0.38519160  1.0
  Zr  Zr1004  1  0.39460903  0.94999597  0.38519160  1.0
  Zr  Zr1005  1  0.72794237  0.28332930  0.38519160  1.0
  Zr  Zr1006  1  0.72794237  0.61666263  0.38519160  1.0
  Zr  Zr1007  1  0.72794237  0.94999597  0.38519160  1.0
  Zr  Zr1008  1  0.01481597  0.21369237  0.24946640  1.0
  Zr  Zr1009  1  0.01481597  0.54702570  0.24946640  1.0
  Zr  Zr1010  1  0.01481597  0.88035903  0.24946640  1.0
  Zr  Zr1011  1  0.34814930  0.21369237  0.24946640  1.0
  Zr  Zr1012  1  0.34814930  0.54702570  0.24946640  1.0
  Zr  Zr1013  1  0.34814930  0.88035903  0.24946640  1.0
  Zr  Zr1014  1  0.68148263  0.21369237  0.24946640  1.0
  Zr  Zr1015  1  0.68148263  0.54702570  0.24946640  1.0
  Zr  Zr1016  1  0.68148263  0.88035903  0.24946640  1.0
  Zr  Zr1017  1  0.21481597  0.01369237  0.34946640  1.0
  Zr  Zr1018  1  0.21481597  0.34702570  0.34946640  1.0
  Zr  Zr1019  1  0.21481597  0.68035903  0.34946640  1.0
  Zr  Zr1020  1  0.54814930  0.01369237  0.34946640  1.0
  Zr  Zr1021  1  0.54814930  0.34702570  0.34946640  1.0
  Zr  Zr1022  1  0.54814930  0.68035903  0.34946640  1.0
  Zr  Zr1023  1  0.88148263  0.01369237  0.34946640  1.0
  Zr  Zr1024  1  0.88148263  0.34702570  0.34946640  1.0
  Zr  Zr1025  1  0.88148263  0.68035903  0.34946640  1.0
  Zr  Zr1026  1  0.18157517  0.25658317  0.33970700  1.0
  Zr  Zr1027  1  0.18157517  0.58991650  0.33970700  1.0
  Zr  Zr1028  1  0.18157517  0.92324983  0.33970700  1.0
  Zr  Zr1029  1  0.51490850  0.25658317  0.33970700  1.0
  Zr  Zr1030  1  0.51490850  0.58991650  0.33970700  1.0
  Zr  Zr1031  1  0.51490850  0.92324983  0.33970700  1.0
  Zr  Zr1032  1  0.84824183  0.25658317  0.33970700  1.0
  Zr  Zr1033  1  0.84824183  0.58991650  0.33970700  1.0
  Zr  Zr1034  1  0.84824183  0.92324983  0.33970700  1.0
  Zr  Zr1035  1  0.31490850  0.12324983  0.23970700  1.0
  Zr  Zr1036  1  0.31490850  0.45658317  0.23970700  1.0
  Zr  Zr1037  1  0.31490850  0.78991650  0.23970700  1.0
  Zr  Zr1038  1  0.64824183  0.12324983  0.23970700  1.0
  Zr  Zr1039  1  0.64824183  0.45658317  0.23970700  1.0
  Zr  Zr1040  1  0.64824183  0.78991650  0.23970700  1.0
  Zr  Zr1041  1  0.98157517  0.12324983  0.23970700  1.0
  Zr  Zr1042  1  0.98157517  0.45658317  0.23970700  1.0
  Zr  Zr1043  1  0.98157517  0.78991650  0.23970700  1.0
