# generated using pymatgen
data_Zr9Ni11
_symmetry_space_group_name_H-M   'P 1'
_cell_length_a   35.72274156
_cell_length_b   48.38643585
_cell_length_c   27.62738666
_cell_angle_alpha   80.52229372
_cell_angle_beta   89.46938710
_cell_angle_gamma   81.32505048
_symmetry_Int_Tables_number   1
_chemical_formula_structural   Zr9Ni11
_chemical_formula_sum   'Zr486 Ni594'
_cell_volume   46557.18850618
_cell_formula_units_Z   54
loop_
 _symmetry_equiv_pos_site_id
 _symmetry_equiv_pos_as_xyz
  1  'x, y, z'
loop_
 _atom_site_type_symbol
 _atom_site_label
 _atom_site_symmetry_multiplicity
 _atom_site_fract_x
 _atom_site_fract_y
 _atom_site_fract_z
 _atom_site_occupancy
  Ni  Ni0  1  0.28015047  0.00711807  0.09045141  1.0
  Ni  Ni1  1  0.28015047  0.34045141  0.09045141  1.0
  Ni  Ni2  1  0.28015047  0.67378474  0.09045141  1.0
  Ni  Ni3  1  0.61348380  0.00711807  0.09045141  1.0
  Ni  Ni4  1  0.61348380  0.34045141  0.09045141  1.0
  Ni  Ni5  1  0.61348380  0.67378474  0.09045141  1.0
  Ni  Ni6  1  0.94681714  0.00711807  0.09045141  1.0
  Ni  Ni7  1  0.94681714  0.34045141  0.09045141  1.0
  Ni  Ni8  1  0.94681714  0.67378474  0.09045141  1.0
  Ni  Ni9  1  0.09265047  0.11128474  0.02795141  1.0
  Ni  Ni10  1  0.09265047  0.44461807  0.02795141  1.0
  Ni  Ni11  1  0.09265047  0.77795141  0.02795141  1.0
  Ni  Ni12  1  0.42598380  0.11128474  0.02795141  1.0
  Ni  Ni13  1  0.42598380  0.44461807  0.02795141  1.0
  Ni  Ni14  1  0.42598380  0.77795141  0.02795141  1.0
  Ni  Ni15  1  0.75931714  0.11128474  0.02795141  1.0
  Ni  Ni16  1  0.75931714  0.44461807  0.02795141  1.0
  Ni  Ni17  1  0.75931714  0.77795141  0.02795141  1.0
  Ni  Ni18  1  0.04577547  0.22065974  0.01232641  1.0
  Ni  Ni19  1  0.04577547  0.55399307  0.01232641  1.0
  Ni  Ni20  1  0.04577547  0.88732641  0.01232641  1.0
  Ni  Ni21  1  0.37910880  0.22065974  0.01232641  1.0
  Ni  Ni22  1  0.37910880  0.55399307  0.01232641  1.0
  Ni  Ni23  1  0.37910880  0.88732641  0.01232641  1.0
  Ni  Ni24  1  0.71244214  0.22065974  0.01232641  1.0
  Ni  Ni25  1  0.71244214  0.55399307  0.01232641  1.0
  Ni  Ni26  1  0.71244214  0.88732641  0.01232641  1.0
  Ni  Ni27  1  0.23327547  0.11649307  0.07482641  1.0
  Ni  Ni28  1  0.23327547  0.44982641  0.07482641  1.0
  Ni  Ni29  1  0.23327547  0.78315974  0.07482641  1.0
  Ni  Ni30  1  0.56660880  0.11649307  0.07482641  1.0
  Ni  Ni31  1  0.56660880  0.44982641  0.07482641  1.0
  Ni  Ni32  1  0.56660880  0.78315974  0.07482641  1.0
  Ni  Ni33  1  0.89994214  0.11649307  0.07482641  1.0
  Ni  Ni34  1  0.89994214  0.44982641  0.07482641  1.0
  Ni  Ni35  1  0.89994214  0.78315974  0.07482641  1.0
  Ni  Ni36  1  0.32702547  0.23107641  0.10607641  1.0
  Ni  Ni37  1  0.32702547  0.56440974  0.10607641  1.0
  Ni  Ni38  1  0.32702547  0.89774307  0.10607641  1.0
  Ni  Ni39  1  0.66035880  0.23107641  0.10607641  1.0
  Ni  Ni40  1  0.66035880  0.56440974  0.10607641  1.0
  Ni  Ni41  1  0.66035880  0.89774307  0.10607641  1.0
  Ni  Ni42  1  0.99369214  0.23107641  0.10607641  1.0
  Ni  Ni43  1  0.99369214  0.56440974  0.10607641  1.0
  Ni  Ni44  1  0.99369214  0.89774307  0.10607641  1.0
  Ni  Ni45  1  0.13952547  0.00190974  0.04357641  1.0
  Ni  Ni46  1  0.13952547  0.33524307  0.04357641  1.0
  Ni  Ni47  1  0.13952547  0.66857641  0.04357641  1.0
  Ni  Ni48  1  0.47285880  0.00190974  0.04357641  1.0
  Ni  Ni49  1  0.47285880  0.33524307  0.04357641  1.0
  Ni  Ni50  1  0.47285880  0.66857641  0.04357641  1.0
  Ni  Ni51  1  0.80619214  0.00190974  0.04357641  1.0
  Ni  Ni52  1  0.80619214  0.33524307  0.04357641  1.0
  Ni  Ni53  1  0.80619214  0.66857641  0.04357641  1.0
  Ni  Ni54  1  0.00576059  0.13752278  0.02632278  1.0
  Ni  Ni55  1  0.00576059  0.47085611  0.02632278  1.0
  Ni  Ni56  1  0.00576059  0.80418945  0.02632278  1.0
  Ni  Ni57  1  0.33909393  0.13752278  0.02632278  1.0
  Ni  Ni58  1  0.33909393  0.47085611  0.02632278  1.0
  Ni  Ni59  1  0.33909393  0.80418945  0.02632278  1.0
  Ni  Ni60  1  0.67242726  0.13752278  0.02632278  1.0
  Ni  Ni61  1  0.67242726  0.47085611  0.02632278  1.0
  Ni  Ni62  1  0.67242726  0.80418945  0.02632278  1.0
  Ni  Ni63  1  0.19326059  0.03335611  0.08882278  1.0
  Ni  Ni64  1  0.19326059  0.36668945  0.08882278  1.0
  Ni  Ni65  1  0.19326059  0.70002278  0.08882278  1.0
  Ni  Ni66  1  0.52659393  0.03335611  0.08882278  1.0
  Ni  Ni67  1  0.52659393  0.36668945  0.08882278  1.0
  Ni  Ni68  1  0.52659393  0.70002278  0.08882278  1.0
  Ni  Ni69  1  0.85992726  0.03335611  0.08882278  1.0
  Ni  Ni70  1  0.85992726  0.36668945  0.08882278  1.0
  Ni  Ni71  1  0.85992726  0.70002278  0.08882278  1.0
  Ni  Ni72  1  0.07991291  0.16650905  0.07745922  1.0
  Ni  Ni73  1  0.07991291  0.49984239  0.07745922  1.0
  Ni  Ni74  1  0.07991291  0.83317572  0.07745922  1.0
  Ni  Ni75  1  0.41324624  0.16650905  0.07745922  1.0
  Ni  Ni76  1  0.41324624  0.49984239  0.07745922  1.0
  Ni  Ni77  1  0.41324624  0.83317572  0.07745922  1.0
  Ni  Ni78  1  0.74657957  0.16650905  0.07745922  1.0
  Ni  Ni79  1  0.74657957  0.49984239  0.07745922  1.0
  Ni  Ni80  1  0.74657957  0.83317572  0.07745922  1.0
  Ni  Ni81  1  0.22574624  0.27067572  0.01495922  1.0
  Ni  Ni82  1  0.22574624  0.60400905  0.01495922  1.0
  Ni  Ni83  1  0.22574624  0.93734239  0.01495922  1.0
  Ni  Ni84  1  0.55907957  0.27067572  0.01495922  1.0
  Ni  Ni85  1  0.55907957  0.60400905  0.01495922  1.0
  Ni  Ni86  1  0.55907957  0.93734239  0.01495922  1.0
  Ni  Ni87  1  0.89241291  0.27067572  0.01495922  1.0
  Ni  Ni88  1  0.89241291  0.60400905  0.01495922  1.0
  Ni  Ni89  1  0.89241291  0.93734239  0.01495922  1.0
  Ni  Ni90  1  0.04407001  0.06832403  0.08881603  1.0
  Ni  Ni91  1  0.04407001  0.40165736  0.08881603  1.0
  Ni  Ni92  1  0.04407001  0.73499070  0.08881603  1.0
  Ni  Ni93  1  0.37740334  0.06832403  0.08881603  1.0
  Ni  Ni94  1  0.37740334  0.40165736  0.08881603  1.0
  Ni  Ni95  1  0.37740334  0.73499070  0.08881603  1.0
  Ni  Ni96  1  0.71073668  0.06832403  0.08881603  1.0
  Ni  Ni97  1  0.71073668  0.40165736  0.08881603  1.0
  Ni  Ni98  1  0.71073668  0.73499070  0.08881603  1.0
  Ni  Ni99  1  0.18990334  0.17249070  0.02631603  1.0
  Ni  Ni100  1  0.18990334  0.50582403  0.02631603  1.0
  Ni  Ni101  1  0.18990334  0.83915736  0.02631603  1.0
  Ni  Ni102  1  0.52323668  0.17249070  0.02631603  1.0
  Ni  Ni103  1  0.52323668  0.50582403  0.02631603  1.0
  Ni  Ni104  1  0.52323668  0.83915736  0.02631603  1.0
  Ni  Ni105  1  0.85657001  0.17249070  0.02631603  1.0
  Ni  Ni106  1  0.85657001  0.50582403  0.02631603  1.0
  Ni  Ni107  1  0.85657001  0.83915736  0.02631603  1.0
  Ni  Ni108  1  0.26405566  0.20147697  0.07745247  1.0
  Ni  Ni109  1  0.26405566  0.53481030  0.07745247  1.0
  Ni  Ni110  1  0.26405566  0.86814364  0.07745247  1.0
  Ni  Ni111  1  0.59738899  0.20147697  0.07745247  1.0
  Ni  Ni112  1  0.59738899  0.53481030  0.07745247  1.0
  Ni  Ni113  1  0.59738899  0.86814364  0.07745247  1.0
  Ni  Ni114  1  0.93072232  0.20147697  0.07745247  1.0
  Ni  Ni115  1  0.93072232  0.53481030  0.07745247  1.0
  Ni  Ni116  1  0.93072232  0.86814364  0.07745247  1.0
  Ni  Ni117  1  0.07655566  0.30564364  0.01495247  1.0
  Ni  Ni118  1  0.07655566  0.63897697  0.01495247  1.0
  Ni  Ni119  1  0.07655566  0.97231030  0.01495247  1.0
  Ni  Ni120  1  0.40988899  0.30564364  0.01495247  1.0
  Ni  Ni121  1  0.40988899  0.63897697  0.01495247  1.0
  Ni  Ni122  1  0.40988899  0.97231030  0.01495247  1.0
  Ni  Ni123  1  0.74322232  0.30564364  0.01495247  1.0
  Ni  Ni124  1  0.74322232  0.63897697  0.01495247  1.0
  Ni  Ni125  1  0.74322232  0.97231030  0.01495247  1.0
  Ni  Ni126  1  0.03370701  0.31421336  0.09208003  1.0
  Ni  Ni127  1  0.03370701  0.64754670  0.09208003  1.0
  Ni  Ni128  1  0.03370701  0.98088003  0.09208003  1.0
  Ni  Ni129  1  0.36704034  0.31421336  0.09208003  1.0
  Ni  Ni130  1  0.36704034  0.64754670  0.09208003  1.0
  Ni  Ni131  1  0.36704034  0.98088003  0.09208003  1.0
  Ni  Ni132  1  0.70037368  0.31421336  0.09208003  1.0
  Ni  Ni133  1  0.70037368  0.64754670  0.09208003  1.0
  Ni  Ni134  1  0.70037368  0.98088003  0.09208003  1.0
  Ni  Ni135  1  0.17954034  0.08504670  0.02958003  1.0
  Ni  Ni136  1  0.17954034  0.41838003  0.02958003  1.0
  Ni  Ni137  1  0.17954034  0.75171336  0.02958003  1.0
  Ni  Ni138  1  0.51287368  0.08504670  0.02958003  1.0
  Ni  Ni139  1  0.51287368  0.41838003  0.02958003  1.0
  Ni  Ni140  1  0.51287368  0.75171336  0.02958003  1.0
  Ni  Ni141  1  0.84620701  0.08504670  0.02958003  1.0
  Ni  Ni142  1  0.84620701  0.41838003  0.02958003  1.0
  Ni  Ni143  1  0.84620701  0.75171336  0.02958003  1.0
  Ni  Ni144  1  0.29288803  0.28522709  0.04094359  1.0
  Ni  Ni145  1  0.29288803  0.61856043  0.04094359  1.0
  Ni  Ni146  1  0.29288803  0.95189376  0.04094359  1.0
  Ni  Ni147  1  0.62622136  0.28522709  0.04094359  1.0
  Ni  Ni148  1  0.62622136  0.61856043  0.04094359  1.0
  Ni  Ni149  1  0.62622136  0.95189376  0.04094359  1.0
  Ni  Ni150  1  0.95955470  0.28522709  0.04094359  1.0
  Ni  Ni151  1  0.95955470  0.61856043  0.04094359  1.0
  Ni  Ni152  1  0.95955470  0.95189376  0.04094359  1.0
  Ni  Ni153  1  0.14705470  0.18106043  0.10344359  1.0
  Ni  Ni154  1  0.14705470  0.51439376  0.10344359  1.0
  Ni  Ni155  1  0.14705470  0.84772709  0.10344359  1.0
  Ni  Ni156  1  0.48038803  0.18106043  0.10344359  1.0
  Ni  Ni157  1  0.48038803  0.51439376  0.10344359  1.0
  Ni  Ni158  1  0.48038803  0.84772709  0.10344359  1.0
  Ni  Ni159  1  0.81372136  0.18106043  0.10344359  1.0
  Ni  Ni160  1  0.81372136  0.51439376  0.10344359  1.0
  Ni  Ni161  1  0.81372136  0.84772709  0.10344359  1.0
  Ni  Ni162  1  0.32873093  0.05007878  0.02958678  1.0
  Ni  Ni163  1  0.32873093  0.38341211  0.02958678  1.0
  Ni  Ni164  1  0.32873093  0.71674545  0.02958678  1.0
  Ni  Ni165  1  0.66206426  0.05007878  0.02958678  1.0
  Ni  Ni166  1  0.66206426  0.38341211  0.02958678  1.0
  Ni  Ni167  1  0.66206426  0.71674545  0.02958678  1.0
  Ni  Ni168  1  0.99539759  0.05007878  0.02958678  1.0
  Ni  Ni169  1  0.99539759  0.38341211  0.02958678  1.0
  Ni  Ni170  1  0.99539759  0.71674545  0.02958678  1.0
  Ni  Ni171  1  0.18289759  0.27924545  0.09208678  1.0
  Ni  Ni172  1  0.18289759  0.61257878  0.09208678  1.0
  Ni  Ni173  1  0.18289759  0.94591211  0.09208678  1.0
  Ni  Ni174  1  0.51623093  0.27924545  0.09208678  1.0
  Ni  Ni175  1  0.51623093  0.61257878  0.09208678  1.0
  Ni  Ni176  1  0.51623093  0.94591211  0.09208678  1.0
  Ni  Ni177  1  0.84956426  0.27924545  0.09208678  1.0
  Ni  Ni178  1  0.84956426  0.61257878  0.09208678  1.0
  Ni  Ni179  1  0.84956426  0.94591211  0.09208678  1.0
  Ni  Ni180  1  0.10874528  0.25025918  0.04095034  1.0
  Ni  Ni181  1  0.10874528  0.58359251  0.04095034  1.0
  Ni  Ni182  1  0.10874528  0.91692584  0.04095034  1.0
  Ni  Ni183  1  0.44207861  0.25025918  0.04095034  1.0
  Ni  Ni184  1  0.44207861  0.58359251  0.04095034  1.0
  Ni  Ni185  1  0.44207861  0.91692584  0.04095034  1.0
  Ni  Ni186  1  0.77541195  0.25025918  0.04095034  1.0
  Ni  Ni187  1  0.77541195  0.58359251  0.04095034  1.0
  Ni  Ni188  1  0.77541195  0.91692584  0.04095034  1.0
  Ni  Ni189  1  0.29624528  0.14609251  0.10345034  1.0
  Ni  Ni190  1  0.29624528  0.47942584  0.10345034  1.0
  Ni  Ni191  1  0.29624528  0.81275918  0.10345034  1.0
  Ni  Ni192  1  0.62957861  0.14609251  0.10345034  1.0
  Ni  Ni193  1  0.62957861  0.47942584  0.10345034  1.0
  Ni  Ni194  1  0.62957861  0.81275918  0.10345034  1.0
  Ni  Ni195  1  0.96291195  0.14609251  0.10345034  1.0
  Ni  Ni196  1  0.96291195  0.47942584  0.10345034  1.0
  Ni  Ni197  1  0.96291195  0.81275918  0.10345034  1.0
  Ni  Ni198  1  0.32181714  0.13211807  0.21545141  1.0
  Ni  Ni199  1  0.32181714  0.46545141  0.21545141  1.0
  Ni  Ni200  1  0.32181714  0.79878474  0.21545141  1.0
  Ni  Ni201  1  0.65515047  0.13211807  0.21545141  1.0
  Ni  Ni202  1  0.65515047  0.46545141  0.21545141  1.0
  Ni  Ni203  1  0.65515047  0.79878474  0.21545141  1.0
  Ni  Ni204  1  0.98848380  0.13211807  0.21545141  1.0
  Ni  Ni205  1  0.98848380  0.46545141  0.21545141  1.0
  Ni  Ni206  1  0.98848380  0.79878474  0.21545141  1.0
  Ni  Ni207  1  0.13431714  0.23628474  0.15295141  1.0
  Ni  Ni208  1  0.13431714  0.56961807  0.15295141  1.0
  Ni  Ni209  1  0.13431714  0.90295141  0.15295141  1.0
  Ni  Ni210  1  0.46765047  0.23628474  0.15295141  1.0
  Ni  Ni211  1  0.46765047  0.56961807  0.15295141  1.0
  Ni  Ni212  1  0.46765047  0.90295141  0.15295141  1.0
  Ni  Ni213  1  0.80098380  0.23628474  0.15295141  1.0
  Ni  Ni214  1  0.80098380  0.56961807  0.15295141  1.0
  Ni  Ni215  1  0.80098380  0.90295141  0.15295141  1.0
  Ni  Ni216  1  0.08744214  0.01232641  0.13732641  1.0
  Ni  Ni217  1  0.08744214  0.34565974  0.13732641  1.0
  Ni  Ni218  1  0.08744214  0.67899307  0.13732641  1.0
  Ni  Ni219  1  0.42077547  0.01232641  0.13732641  1.0
  Ni  Ni220  1  0.42077547  0.34565974  0.13732641  1.0
  Ni  Ni221  1  0.42077547  0.67899307  0.13732641  1.0
  Ni  Ni222  1  0.75410880  0.01232641  0.13732641  1.0
  Ni  Ni223  1  0.75410880  0.34565974  0.13732641  1.0
  Ni  Ni224  1  0.75410880  0.67899307  0.13732641  1.0
  Ni  Ni225  1  0.27494214  0.24149307  0.19982641  1.0
  Ni  Ni226  1  0.27494214  0.57482641  0.19982641  1.0
  Ni  Ni227  1  0.27494214  0.90815974  0.19982641  1.0
  Ni  Ni228  1  0.60827547  0.24149307  0.19982641  1.0
  Ni  Ni229  1  0.60827547  0.57482641  0.19982641  1.0
  Ni  Ni230  1  0.60827547  0.90815974  0.19982641  1.0
  Ni  Ni231  1  0.94160880  0.24149307  0.19982641  1.0
  Ni  Ni232  1  0.94160880  0.57482641  0.19982641  1.0
  Ni  Ni233  1  0.94160880  0.90815974  0.19982641  1.0
  Ni  Ni234  1  0.03535880  0.02274307  0.23107641  1.0
  Ni  Ni235  1  0.03535880  0.35607641  0.23107641  1.0
  Ni  Ni236  1  0.03535880  0.68940974  0.23107641  1.0
  Ni  Ni237  1  0.36869214  0.02274307  0.23107641  1.0
  Ni  Ni238  1  0.36869214  0.35607641  0.23107641  1.0
  Ni  Ni239  1  0.36869214  0.68940974  0.23107641  1.0
  Ni  Ni240  1  0.70202547  0.02274307  0.23107641  1.0
  Ni  Ni241  1  0.70202547  0.35607641  0.23107641  1.0
  Ni  Ni242  1  0.70202547  0.68940974  0.23107641  1.0
  Ni  Ni243  1  0.18119214  0.12690974  0.16857641  1.0
  Ni  Ni244  1  0.18119214  0.46024307  0.16857641  1.0
  Ni  Ni245  1  0.18119214  0.79357641  0.16857641  1.0
  Ni  Ni246  1  0.51452547  0.12690974  0.16857641  1.0
  Ni  Ni247  1  0.51452547  0.46024307  0.16857641  1.0
  Ni  Ni248  1  0.51452547  0.79357641  0.16857641  1.0
  Ni  Ni249  1  0.84785880  0.12690974  0.16857641  1.0
  Ni  Ni250  1  0.84785880  0.46024307  0.16857641  1.0
  Ni  Ni251  1  0.84785880  0.79357641  0.16857641  1.0
  Ni  Ni252  1  0.04742726  0.26252278  0.15132278  1.0
  Ni  Ni253  1  0.04742726  0.59585611  0.15132278  1.0
  Ni  Ni254  1  0.04742726  0.92918945  0.15132278  1.0
  Ni  Ni255  1  0.38076059  0.26252278  0.15132278  1.0
  Ni  Ni256  1  0.38076059  0.59585611  0.15132278  1.0
  Ni  Ni257  1  0.38076059  0.92918945  0.15132278  1.0
  Ni  Ni258  1  0.71409393  0.26252278  0.15132278  1.0
  Ni  Ni259  1  0.71409393  0.59585611  0.15132278  1.0
  Ni  Ni260  1  0.71409393  0.92918945  0.15132278  1.0
  Ni  Ni261  1  0.23492726  0.15835611  0.21382278  1.0
  Ni  Ni262  1  0.23492726  0.49168945  0.21382278  1.0
  Ni  Ni263  1  0.23492726  0.82502278  0.21382278  1.0
  Ni  Ni264  1  0.56826059  0.15835611  0.21382278  1.0
  Ni  Ni265  1  0.56826059  0.49168945  0.21382278  1.0
  Ni  Ni266  1  0.56826059  0.82502278  0.21382278  1.0
  Ni  Ni267  1  0.90159393  0.15835611  0.21382278  1.0
  Ni  Ni268  1  0.90159393  0.49168945  0.21382278  1.0
  Ni  Ni269  1  0.90159393  0.82502278  0.21382278  1.0
  Ni  Ni270  1  0.12157957  0.29150905  0.20245922  1.0
  Ni  Ni271  1  0.12157957  0.62484239  0.20245922  1.0
  Ni  Ni272  1  0.12157957  0.95817572  0.20245922  1.0
  Ni  Ni273  1  0.45491291  0.29150905  0.20245922  1.0
  Ni  Ni274  1  0.45491291  0.62484239  0.20245922  1.0
  Ni  Ni275  1  0.45491291  0.95817572  0.20245922  1.0
  Ni  Ni276  1  0.78824624  0.29150905  0.20245922  1.0
  Ni  Ni277  1  0.78824624  0.62484239  0.20245922  1.0
  Ni  Ni278  1  0.78824624  0.95817572  0.20245922  1.0
  Ni  Ni279  1  0.26741291  0.06234239  0.13995922  1.0
  Ni  Ni280  1  0.26741291  0.39567572  0.13995922  1.0
  Ni  Ni281  1  0.26741291  0.72900905  0.13995922  1.0
  Ni  Ni282  1  0.60074624  0.06234239  0.13995922  1.0
  Ni  Ni283  1  0.60074624  0.39567572  0.13995922  1.0
  Ni  Ni284  1  0.60074624  0.72900905  0.13995922  1.0
  Ni  Ni285  1  0.93407957  0.06234239  0.13995922  1.0
  Ni  Ni286  1  0.93407957  0.39567572  0.13995922  1.0
  Ni  Ni287  1  0.93407957  0.72900905  0.13995922  1.0
  Ni  Ni288  1  0.08573668  0.19332403  0.21381603  1.0
  Ni  Ni289  1  0.08573668  0.52665736  0.21381603  1.0
  Ni  Ni290  1  0.08573668  0.85999070  0.21381603  1.0
  Ni  Ni291  1  0.41907001  0.19332403  0.21381603  1.0
  Ni  Ni292  1  0.41907001  0.52665736  0.21381603  1.0
  Ni  Ni293  1  0.41907001  0.85999070  0.21381603  1.0
  Ni  Ni294  1  0.75240334  0.19332403  0.21381603  1.0
  Ni  Ni295  1  0.75240334  0.52665736  0.21381603  1.0
  Ni  Ni296  1  0.75240334  0.85999070  0.21381603  1.0
  Ni  Ni297  1  0.23157001  0.29749070  0.15131603  1.0
  Ni  Ni298  1  0.23157001  0.63082403  0.15131603  1.0
  Ni  Ni299  1  0.23157001  0.96415736  0.15131603  1.0
  Ni  Ni300  1  0.56490334  0.29749070  0.15131603  1.0
  Ni  Ni301  1  0.56490334  0.63082403  0.15131603  1.0
  Ni  Ni302  1  0.56490334  0.96415736  0.15131603  1.0
  Ni  Ni303  1  0.89823668  0.29749070  0.15131603  1.0
  Ni  Ni304  1  0.89823668  0.63082403  0.15131603  1.0
  Ni  Ni305  1  0.89823668  0.96415736  0.15131603  1.0
  Ni  Ni306  1  0.30572232  0.32647697  0.20245247  1.0
  Ni  Ni307  1  0.30572232  0.65981030  0.20245247  1.0
  Ni  Ni308  1  0.30572232  0.99314364  0.20245247  1.0
  Ni  Ni309  1  0.63905566  0.32647697  0.20245247  1.0
  Ni  Ni310  1  0.63905566  0.65981030  0.20245247  1.0
  Ni  Ni311  1  0.63905566  0.99314364  0.20245247  1.0
  Ni  Ni312  1  0.97238899  0.32647697  0.20245247  1.0
  Ni  Ni313  1  0.97238899  0.65981030  0.20245247  1.0
  Ni  Ni314  1  0.97238899  0.99314364  0.20245247  1.0
  Ni  Ni315  1  0.11822232  0.09731030  0.13995247  1.0
  Ni  Ni316  1  0.11822232  0.43064364  0.13995247  1.0
  Ni  Ni317  1  0.11822232  0.76397697  0.13995247  1.0
  Ni  Ni318  1  0.45155566  0.09731030  0.13995247  1.0
  Ni  Ni319  1  0.45155566  0.43064364  0.13995247  1.0
  Ni  Ni320  1  0.45155566  0.76397697  0.13995247  1.0
  Ni  Ni321  1  0.78488899  0.09731030  0.13995247  1.0
  Ni  Ni322  1  0.78488899  0.43064364  0.13995247  1.0
  Ni  Ni323  1  0.78488899  0.76397697  0.13995247  1.0
  Ni  Ni324  1  0.07537368  0.10588003  0.21708003  1.0
  Ni  Ni325  1  0.07537368  0.43921336  0.21708003  1.0
  Ni  Ni326  1  0.07537368  0.77254670  0.21708003  1.0
  Ni  Ni327  1  0.40870701  0.10588003  0.21708003  1.0
  Ni  Ni328  1  0.40870701  0.43921336  0.21708003  1.0
  Ni  Ni329  1  0.40870701  0.77254670  0.21708003  1.0
  Ni  Ni330  1  0.74204034  0.10588003  0.21708003  1.0
  Ni  Ni331  1  0.74204034  0.43921336  0.21708003  1.0
  Ni  Ni332  1  0.74204034  0.77254670  0.21708003  1.0
  Ni  Ni333  1  0.22120701  0.21004670  0.15458003  1.0
  Ni  Ni334  1  0.22120701  0.54338003  0.15458003  1.0
  Ni  Ni335  1  0.22120701  0.87671336  0.15458003  1.0
  Ni  Ni336  1  0.55454034  0.21004670  0.15458003  1.0
  Ni  Ni337  1  0.55454034  0.54338003  0.15458003  1.0
  Ni  Ni338  1  0.55454034  0.87671336  0.15458003  1.0
  Ni  Ni339  1  0.88787368  0.21004670  0.15458003  1.0
  Ni  Ni340  1  0.88787368  0.54338003  0.15458003  1.0
  Ni  Ni341  1  0.88787368  0.87671336  0.15458003  1.0
  Ni  Ni342  1  0.00122136  0.07689376  0.16594359  1.0
  Ni  Ni343  1  0.00122136  0.41022709  0.16594359  1.0
  Ni  Ni344  1  0.00122136  0.74356043  0.16594359  1.0
  Ni  Ni345  1  0.33455470  0.07689376  0.16594359  1.0
  Ni  Ni346  1  0.33455470  0.41022709  0.16594359  1.0
  Ni  Ni347  1  0.33455470  0.74356043  0.16594359  1.0
  Ni  Ni348  1  0.66788803  0.07689376  0.16594359  1.0
  Ni  Ni349  1  0.66788803  0.41022709  0.16594359  1.0
  Ni  Ni350  1  0.66788803  0.74356043  0.16594359  1.0
  Ni  Ni351  1  0.18872136  0.30606043  0.22844359  1.0
  Ni  Ni352  1  0.18872136  0.63939376  0.22844359  1.0
  Ni  Ni353  1  0.18872136  0.97272709  0.22844359  1.0
  Ni  Ni354  1  0.52205470  0.30606043  0.22844359  1.0
  Ni  Ni355  1  0.52205470  0.63939376  0.22844359  1.0
  Ni  Ni356  1  0.52205470  0.97272709  0.22844359  1.0
  Ni  Ni357  1  0.85538803  0.30606043  0.22844359  1.0
  Ni  Ni358  1  0.85538803  0.63939376  0.22844359  1.0
  Ni  Ni359  1  0.85538803  0.97272709  0.22844359  1.0
  Ni  Ni360  1  0.03706426  0.17507878  0.15458678  1.0
  Ni  Ni361  1  0.03706426  0.50841211  0.15458678  1.0
  Ni  Ni362  1  0.03706426  0.84174545  0.15458678  1.0
  Ni  Ni363  1  0.37039759  0.17507878  0.15458678  1.0
  Ni  Ni364  1  0.37039759  0.50841211  0.15458678  1.0
  Ni  Ni365  1  0.37039759  0.84174545  0.15458678  1.0
  Ni  Ni366  1  0.70373093  0.17507878  0.15458678  1.0
  Ni  Ni367  1  0.70373093  0.50841211  0.15458678  1.0
  Ni  Ni368  1  0.70373093  0.84174545  0.15458678  1.0
  Ni  Ni369  1  0.22456426  0.07091211  0.21708678  1.0
  Ni  Ni370  1  0.22456426  0.40424545  0.21708678  1.0
  Ni  Ni371  1  0.22456426  0.73757878  0.21708678  1.0
  Ni  Ni372  1  0.55789759  0.07091211  0.21708678  1.0
  Ni  Ni373  1  0.55789759  0.40424545  0.21708678  1.0
  Ni  Ni374  1  0.55789759  0.73757878  0.21708678  1.0
  Ni  Ni375  1  0.89123093  0.07091211  0.21708678  1.0
  Ni  Ni376  1  0.89123093  0.40424545  0.21708678  1.0
  Ni  Ni377  1  0.89123093  0.73757878  0.21708678  1.0
  Ni  Ni378  1  0.15041195  0.04192584  0.16595034  1.0
  Ni  Ni379  1  0.15041195  0.37525918  0.16595034  1.0
  Ni  Ni380  1  0.15041195  0.70859251  0.16595034  1.0
  Ni  Ni381  1  0.48374528  0.04192584  0.16595034  1.0
  Ni  Ni382  1  0.48374528  0.37525918  0.16595034  1.0
  Ni  Ni383  1  0.48374528  0.70859251  0.16595034  1.0
  Ni  Ni384  1  0.81707861  0.04192584  0.16595034  1.0
  Ni  Ni385  1  0.81707861  0.37525918  0.16595034  1.0
  Ni  Ni386  1  0.81707861  0.70859251  0.16595034  1.0
  Ni  Ni387  1  0.00457861  0.27109251  0.22845034  1.0
  Ni  Ni388  1  0.00457861  0.60442584  0.22845034  1.0
  Ni  Ni389  1  0.00457861  0.93775918  0.22845034  1.0
  Ni  Ni390  1  0.33791195  0.27109251  0.22845034  1.0
  Ni  Ni391  1  0.33791195  0.60442584  0.22845034  1.0
  Ni  Ni392  1  0.33791195  0.93775918  0.22845034  1.0
  Ni  Ni393  1  0.67124528  0.27109251  0.22845034  1.0
  Ni  Ni394  1  0.67124528  0.60442584  0.22845034  1.0
  Ni  Ni395  1  0.67124528  0.93775918  0.22845034  1.0
  Ni  Ni396  1  0.03015047  0.25711807  0.34045141  1.0
  Ni  Ni397  1  0.03015047  0.59045141  0.34045141  1.0
  Ni  Ni398  1  0.03015047  0.92378474  0.34045141  1.0
  Ni  Ni399  1  0.36348380  0.25711807  0.34045141  1.0
  Ni  Ni400  1  0.36348380  0.59045141  0.34045141  1.0
  Ni  Ni401  1  0.36348380  0.92378474  0.34045141  1.0
  Ni  Ni402  1  0.69681714  0.25711807  0.34045141  1.0
  Ni  Ni403  1  0.69681714  0.59045141  0.34045141  1.0
  Ni  Ni404  1  0.69681714  0.92378474  0.34045141  1.0
  Ni  Ni405  1  0.17598380  0.02795141  0.27795141  1.0
  Ni  Ni406  1  0.17598380  0.36128474  0.27795141  1.0
  Ni  Ni407  1  0.17598380  0.69461807  0.27795141  1.0
  Ni  Ni408  1  0.50931714  0.02795141  0.27795141  1.0
  Ni  Ni409  1  0.50931714  0.36128474  0.27795141  1.0
  Ni  Ni410  1  0.50931714  0.69461807  0.27795141  1.0
  Ni  Ni411  1  0.84265047  0.02795141  0.27795141  1.0
  Ni  Ni412  1  0.84265047  0.36128474  0.27795141  1.0
  Ni  Ni413  1  0.84265047  0.69461807  0.27795141  1.0
  Ni  Ni414  1  0.12910880  0.13732641  0.26232641  1.0
  Ni  Ni415  1  0.12910880  0.47065974  0.26232641  1.0
  Ni  Ni416  1  0.12910880  0.80399307  0.26232641  1.0
  Ni  Ni417  1  0.46244214  0.13732641  0.26232641  1.0
  Ni  Ni418  1  0.46244214  0.47065974  0.26232641  1.0
  Ni  Ni419  1  0.46244214  0.80399307  0.26232641  1.0
  Ni  Ni420  1  0.79577547  0.13732641  0.26232641  1.0
  Ni  Ni421  1  0.79577547  0.47065974  0.26232641  1.0
  Ni  Ni422  1  0.79577547  0.80399307  0.26232641  1.0
  Ni  Ni423  1  0.31660880  0.03315974  0.32482641  1.0
  Ni  Ni424  1  0.31660880  0.36649307  0.32482641  1.0
  Ni  Ni425  1  0.31660880  0.69982641  0.32482641  1.0
  Ni  Ni426  1  0.64994214  0.03315974  0.32482641  1.0
  Ni  Ni427  1  0.64994214  0.36649307  0.32482641  1.0
  Ni  Ni428  1  0.64994214  0.69982641  0.32482641  1.0
  Ni  Ni429  1  0.98327547  0.03315974  0.32482641  1.0
  Ni  Ni430  1  0.98327547  0.36649307  0.32482641  1.0
  Ni  Ni431  1  0.98327547  0.69982641  0.32482641  1.0
  Ni  Ni432  1  0.07702547  0.14774307  0.35607641  1.0
  Ni  Ni433  1  0.07702547  0.48107641  0.35607641  1.0
  Ni  Ni434  1  0.07702547  0.81440974  0.35607641  1.0
  Ni  Ni435  1  0.41035880  0.14774307  0.35607641  1.0
  Ni  Ni436  1  0.41035880  0.48107641  0.35607641  1.0
  Ni  Ni437  1  0.41035880  0.81440974  0.35607641  1.0
  Ni  Ni438  1  0.74369214  0.14774307  0.35607641  1.0
  Ni  Ni439  1  0.74369214  0.48107641  0.35607641  1.0
  Ni  Ni440  1  0.74369214  0.81440974  0.35607641  1.0
  Ni  Ni441  1  0.22285880  0.25190974  0.29357641  1.0
  Ni  Ni442  1  0.22285880  0.58524307  0.29357641  1.0
  Ni  Ni443  1  0.22285880  0.91857641  0.29357641  1.0
  Ni  Ni444  1  0.55619214  0.25190974  0.29357641  1.0
  Ni  Ni445  1  0.55619214  0.58524307  0.29357641  1.0
  Ni  Ni446  1  0.55619214  0.91857641  0.29357641  1.0
  Ni  Ni447  1  0.88952547  0.25190974  0.29357641  1.0
  Ni  Ni448  1  0.88952547  0.58524307  0.29357641  1.0
  Ni  Ni449  1  0.88952547  0.91857641  0.29357641  1.0
  Ni  Ni450  1  0.08909393  0.05418945  0.27632278  1.0
  Ni  Ni451  1  0.08909393  0.38752278  0.27632278  1.0
  Ni  Ni452  1  0.08909393  0.72085611  0.27632278  1.0
  Ni  Ni453  1  0.42242726  0.05418945  0.27632278  1.0
  Ni  Ni454  1  0.42242726  0.38752278  0.27632278  1.0
  Ni  Ni455  1  0.42242726  0.72085611  0.27632278  1.0
  Ni  Ni456  1  0.75576059  0.05418945  0.27632278  1.0
  Ni  Ni457  1  0.75576059  0.38752278  0.27632278  1.0
  Ni  Ni458  1  0.75576059  0.72085611  0.27632278  1.0
  Ni  Ni459  1  0.27659393  0.28335611  0.33882278  1.0
  Ni  Ni460  1  0.27659393  0.61668945  0.33882278  1.0
  Ni  Ni461  1  0.27659393  0.95002278  0.33882278  1.0
  Ni  Ni462  1  0.60992726  0.28335611  0.33882278  1.0
  Ni  Ni463  1  0.60992726  0.61668945  0.33882278  1.0
  Ni  Ni464  1  0.60992726  0.95002278  0.33882278  1.0
  Ni  Ni465  1  0.94326059  0.28335611  0.33882278  1.0
  Ni  Ni466  1  0.94326059  0.61668945  0.33882278  1.0
  Ni  Ni467  1  0.94326059  0.95002278  0.33882278  1.0
  Ni  Ni468  1  0.16324624  0.08317572  0.32745922  1.0
  Ni  Ni469  1  0.16324624  0.41650905  0.32745922  1.0
  Ni  Ni470  1  0.16324624  0.74984239  0.32745922  1.0
  Ni  Ni471  1  0.49657957  0.08317572  0.32745922  1.0
  Ni  Ni472  1  0.49657957  0.41650905  0.32745922  1.0
  Ni  Ni473  1  0.49657957  0.74984239  0.32745922  1.0
  Ni  Ni474  1  0.82991291  0.08317572  0.32745922  1.0
  Ni  Ni475  1  0.82991291  0.41650905  0.32745922  1.0
  Ni  Ni476  1  0.82991291  0.74984239  0.32745922  1.0
  Ni  Ni477  1  0.30907957  0.18734239  0.26495922  1.0
  Ni  Ni478  1  0.30907957  0.52067572  0.26495922  1.0
  Ni  Ni479  1  0.30907957  0.85400905  0.26495922  1.0
  Ni  Ni480  1  0.64241291  0.18734239  0.26495922  1.0
  Ni  Ni481  1  0.64241291  0.52067572  0.26495922  1.0
  Ni  Ni482  1  0.64241291  0.85400905  0.26495922  1.0
  Ni  Ni483  1  0.97574624  0.18734239  0.26495922  1.0
  Ni  Ni484  1  0.97574624  0.52067572  0.26495922  1.0
  Ni  Ni485  1  0.97574624  0.85400905  0.26495922  1.0
  Ni  Ni486  1  0.12740334  0.31832403  0.33881603  1.0
  Ni  Ni487  1  0.12740334  0.65165736  0.33881603  1.0
  Ni  Ni488  1  0.12740334  0.98499070  0.33881603  1.0
  Ni  Ni489  1  0.46073668  0.31832403  0.33881603  1.0
  Ni  Ni490  1  0.46073668  0.65165736  0.33881603  1.0
  Ni  Ni491  1  0.46073668  0.98499070  0.33881603  1.0
  Ni  Ni492  1  0.79407001  0.31832403  0.33881603  1.0
  Ni  Ni493  1  0.79407001  0.65165736  0.33881603  1.0
  Ni  Ni494  1  0.79407001  0.98499070  0.33881603  1.0
  Ni  Ni495  1  0.27323668  0.08915736  0.27631603  1.0
  Ni  Ni496  1  0.27323668  0.42249070  0.27631603  1.0
  Ni  Ni497  1  0.27323668  0.75582403  0.27631603  1.0
  Ni  Ni498  1  0.60657001  0.08915736  0.27631603  1.0
  Ni  Ni499  1  0.60657001  0.42249070  0.27631603  1.0
  Ni  Ni500  1  0.60657001  0.75582403  0.27631603  1.0
  Ni  Ni501  1  0.93990334  0.08915736  0.27631603  1.0
  Ni  Ni502  1  0.93990334  0.42249070  0.27631603  1.0
  Ni  Ni503  1  0.93990334  0.75582403  0.27631603  1.0
  Ni  Ni504  1  0.01405566  0.11814364  0.32745247  1.0
  Ni  Ni505  1  0.01405566  0.45147697  0.32745247  1.0
  Ni  Ni506  1  0.01405566  0.78481030  0.32745247  1.0
  Ni  Ni507  1  0.34738899  0.11814364  0.32745247  1.0
  Ni  Ni508  1  0.34738899  0.45147697  0.32745247  1.0
  Ni  Ni509  1  0.34738899  0.78481030  0.32745247  1.0
  Ni  Ni510  1  0.68072232  0.11814364  0.32745247  1.0
  Ni  Ni511  1  0.68072232  0.45147697  0.32745247  1.0
  Ni  Ni512  1  0.68072232  0.78481030  0.32745247  1.0
  Ni  Ni513  1  0.15988899  0.22231030  0.26495247  1.0
  Ni  Ni514  1  0.15988899  0.55564364  0.26495247  1.0
  Ni  Ni515  1  0.15988899  0.88897697  0.26495247  1.0
  Ni  Ni516  1  0.49322232  0.22231030  0.26495247  1.0
  Ni  Ni517  1  0.49322232  0.55564364  0.26495247  1.0
  Ni  Ni518  1  0.49322232  0.88897697  0.26495247  1.0
  Ni  Ni519  1  0.82655566  0.22231030  0.26495247  1.0
  Ni  Ni520  1  0.82655566  0.55564364  0.26495247  1.0
  Ni  Ni521  1  0.82655566  0.88897697  0.26495247  1.0
  Ni  Ni522  1  0.11704034  0.23088003  0.34208003  1.0
  Ni  Ni523  1  0.11704034  0.56421336  0.34208003  1.0
  Ni  Ni524  1  0.11704034  0.89754670  0.34208003  1.0
  Ni  Ni525  1  0.45037368  0.23088003  0.34208003  1.0
  Ni  Ni526  1  0.45037368  0.56421336  0.34208003  1.0
  Ni  Ni527  1  0.45037368  0.89754670  0.34208003  1.0
  Ni  Ni528  1  0.78370701  0.23088003  0.34208003  1.0
  Ni  Ni529  1  0.78370701  0.56421336  0.34208003  1.0
  Ni  Ni530  1  0.78370701  0.89754670  0.34208003  1.0
  Ni  Ni531  1  0.26287368  0.00171336  0.27958003  1.0
  Ni  Ni532  1  0.26287368  0.33504670  0.27958003  1.0
  Ni  Ni533  1  0.26287368  0.66838003  0.27958003  1.0
  Ni  Ni534  1  0.59620701  0.00171336  0.27958003  1.0
  Ni  Ni535  1  0.59620701  0.33504670  0.27958003  1.0
  Ni  Ni536  1  0.59620701  0.66838003  0.27958003  1.0
  Ni  Ni537  1  0.92954034  0.00171336  0.27958003  1.0
  Ni  Ni538  1  0.92954034  0.33504670  0.27958003  1.0
  Ni  Ni539  1  0.92954034  0.66838003  0.27958003  1.0
  Ni  Ni540  1  0.04288803  0.20189376  0.29094359  1.0
  Ni  Ni541  1  0.04288803  0.53522709  0.29094359  1.0
  Ni  Ni542  1  0.04288803  0.86856043  0.29094359  1.0
  Ni  Ni543  1  0.37622136  0.20189376  0.29094359  1.0
  Ni  Ni544  1  0.37622136  0.53522709  0.29094359  1.0
  Ni  Ni545  1  0.37622136  0.86856043  0.29094359  1.0
  Ni  Ni546  1  0.70955470  0.20189376  0.29094359  1.0
  Ni  Ni547  1  0.70955470  0.53522709  0.29094359  1.0
  Ni  Ni548  1  0.70955470  0.86856043  0.29094359  1.0
  Ni  Ni549  1  0.23038803  0.09772709  0.35344359  1.0
  Ni  Ni550  1  0.23038803  0.43106043  0.35344359  1.0
  Ni  Ni551  1  0.23038803  0.76439376  0.35344359  1.0
  Ni  Ni552  1  0.56372136  0.09772709  0.35344359  1.0
  Ni  Ni553  1  0.56372136  0.43106043  0.35344359  1.0
  Ni  Ni554  1  0.56372136  0.76439376  0.35344359  1.0
  Ni  Ni555  1  0.89705470  0.09772709  0.35344359  1.0
  Ni  Ni556  1  0.89705470  0.43106043  0.35344359  1.0
  Ni  Ni557  1  0.89705470  0.76439376  0.35344359  1.0
  Ni  Ni558  1  0.07873093  0.30007878  0.27958678  1.0
  Ni  Ni559  1  0.07873093  0.63341211  0.27958678  1.0
  Ni  Ni560  1  0.07873093  0.96674545  0.27958678  1.0
  Ni  Ni561  1  0.41206426  0.30007878  0.27958678  1.0
  Ni  Ni562  1  0.41206426  0.63341211  0.27958678  1.0
  Ni  Ni563  1  0.41206426  0.96674545  0.27958678  1.0
  Ni  Ni564  1  0.74539759  0.30007878  0.27958678  1.0
  Ni  Ni565  1  0.74539759  0.63341211  0.27958678  1.0
  Ni  Ni566  1  0.74539759  0.96674545  0.27958678  1.0
  Ni  Ni567  1  0.26623093  0.19591211  0.34208678  1.0
  Ni  Ni568  1  0.26623093  0.52924545  0.34208678  1.0
  Ni  Ni569  1  0.26623093  0.86257878  0.34208678  1.0
  Ni  Ni570  1  0.59956426  0.19591211  0.34208678  1.0
  Ni  Ni571  1  0.59956426  0.52924545  0.34208678  1.0
  Ni  Ni572  1  0.59956426  0.86257878  0.34208678  1.0
  Ni  Ni573  1  0.93289759  0.19591211  0.34208678  1.0
  Ni  Ni574  1  0.93289759  0.52924545  0.34208678  1.0
  Ni  Ni575  1  0.93289759  0.86257878  0.34208678  1.0
  Ni  Ni576  1  0.19207861  0.16692584  0.29095034  1.0
  Ni  Ni577  1  0.19207861  0.50025918  0.29095034  1.0
  Ni  Ni578  1  0.19207861  0.83359251  0.29095034  1.0
  Ni  Ni579  1  0.52541195  0.16692584  0.29095034  1.0
  Ni  Ni580  1  0.52541195  0.50025918  0.29095034  1.0
  Ni  Ni581  1  0.52541195  0.83359251  0.29095034  1.0
  Ni  Ni582  1  0.85874528  0.16692584  0.29095034  1.0
  Ni  Ni583  1  0.85874528  0.50025918  0.29095034  1.0
  Ni  Ni584  1  0.85874528  0.83359251  0.29095034  1.0
  Ni  Ni585  1  0.04624528  0.06275918  0.35345034  1.0
  Ni  Ni586  1  0.04624528  0.39609251  0.35345034  1.0
  Ni  Ni587  1  0.04624528  0.72942584  0.35345034  1.0
  Ni  Ni588  1  0.37957861  0.06275918  0.35345034  1.0
  Ni  Ni589  1  0.37957861  0.39609251  0.35345034  1.0
  Ni  Ni590  1  0.37957861  0.72942584  0.35345034  1.0
  Ni  Ni591  1  0.71291195  0.06275918  0.35345034  1.0
  Ni  Ni592  1  0.71291195  0.39609251  0.35345034  1.0
  Ni  Ni593  1  0.71291195  0.72942584  0.35345034  1.0
  Zr  Zr594  1  0.04056714  0.12170141  0.12170141  1.0
  Zr  Zr595  1  0.04056714  0.45503474  0.12170141  1.0
  Zr  Zr596  1  0.04056714  0.78836807  0.12170141  1.0
  Zr  Zr597  1  0.37390047  0.12170141  0.12170141  1.0
  Zr  Zr598  1  0.37390047  0.45503474  0.12170141  1.0
  Zr  Zr599  1  0.37390047  0.78836807  0.12170141  1.0
  Zr  Zr600  1  0.70723380  0.12170141  0.12170141  1.0
  Zr  Zr601  1  0.70723380  0.45503474  0.12170141  1.0
  Zr  Zr602  1  0.70723380  0.78836807  0.12170141  1.0
  Zr  Zr603  1  0.18640047  0.22586807  0.05920141  1.0
  Zr  Zr604  1  0.18640047  0.55920141  0.05920141  1.0
  Zr  Zr605  1  0.18640047  0.89253474  0.05920141  1.0
  Zr  Zr606  1  0.51973380  0.22586807  0.05920141  1.0
  Zr  Zr607  1  0.51973380  0.55920141  0.05920141  1.0
  Zr  Zr608  1  0.51973380  0.89253474  0.05920141  1.0
  Zr  Zr609  1  0.85306714  0.22586807  0.05920141  1.0
  Zr  Zr610  1  0.85306714  0.55920141  0.05920141  1.0
  Zr  Zr611  1  0.85306714  0.89253474  0.05920141  1.0
  Zr  Zr612  1  0.26844032  0.16462664  0.01291047  1.0
  Zr  Zr613  1  0.26844032  0.49795997  0.01291047  1.0
  Zr  Zr614  1  0.26844032  0.83129330  0.01291047  1.0
  Zr  Zr615  1  0.60177366  0.16462664  0.01291047  1.0
  Zr  Zr616  1  0.60177366  0.49795997  0.01291047  1.0
  Zr  Zr617  1  0.60177366  0.83129330  0.01291047  1.0
  Zr  Zr618  1  0.93510699  0.16462664  0.01291047  1.0
  Zr  Zr619  1  0.93510699  0.49795997  0.01291047  1.0
  Zr  Zr620  1  0.93510699  0.83129330  0.01291047  1.0
  Zr  Zr621  1  0.12260699  0.06045997  0.07541047  1.0
  Zr  Zr622  1  0.12260699  0.39379330  0.07541047  1.0
  Zr  Zr623  1  0.12260699  0.72712664  0.07541047  1.0
  Zr  Zr624  1  0.45594032  0.06045997  0.07541047  1.0
  Zr  Zr625  1  0.45594032  0.39379330  0.07541047  1.0
  Zr  Zr626  1  0.45594032  0.72712664  0.07541047  1.0
  Zr  Zr627  1  0.78927366  0.06045997  0.07541047  1.0
  Zr  Zr628  1  0.78927366  0.39379330  0.07541047  1.0
  Zr  Zr629  1  0.78927366  0.72712664  0.07541047  1.0
  Zr  Zr630  1  0.08000028  0.21335451  0.11622134  1.0
  Zr  Zr631  1  0.08000028  0.54668784  0.11622134  1.0
  Zr  Zr632  1  0.08000028  0.88002118  0.11622134  1.0
  Zr  Zr633  1  0.41333361  0.21335451  0.11622134  1.0
  Zr  Zr634  1  0.41333361  0.54668784  0.11622134  1.0
  Zr  Zr635  1  0.41333361  0.88002118  0.11622134  1.0
  Zr  Zr636  1  0.74666695  0.21335451  0.11622134  1.0
  Zr  Zr637  1  0.74666695  0.54668784  0.11622134  1.0
  Zr  Zr638  1  0.74666695  0.88002118  0.11622134  1.0
  Zr  Zr639  1  0.22583361  0.31752118  0.05372134  1.0
  Zr  Zr640  1  0.22583361  0.65085451  0.05372134  1.0
  Zr  Zr641  1  0.22583361  0.98418784  0.05372134  1.0
  Zr  Zr642  1  0.55916695  0.31752118  0.05372134  1.0
  Zr  Zr643  1  0.55916695  0.65085451  0.05372134  1.0
  Zr  Zr644  1  0.55916695  0.98418784  0.05372134  1.0
  Zr  Zr645  1  0.89250028  0.31752118  0.05372134  1.0
  Zr  Zr646  1  0.89250028  0.65085451  0.05372134  1.0
  Zr  Zr647  1  0.89250028  0.98418784  0.05372134  1.0
  Zr  Zr648  1  0.29280066  0.23838164  0.00218147  1.0
  Zr  Zr649  1  0.29280066  0.57171497  0.00218147  1.0
  Zr  Zr650  1  0.29280066  0.90504830  0.00218147  1.0
  Zr  Zr651  1  0.62613399  0.23838164  0.00218147  1.0
  Zr  Zr652  1  0.62613399  0.57171497  0.00218147  1.0
  Zr  Zr653  1  0.62613399  0.90504830  0.00218147  1.0
  Zr  Zr654  1  0.95946732  0.23838164  0.00218147  1.0
  Zr  Zr655  1  0.95946732  0.57171497  0.00218147  1.0
  Zr  Zr656  1  0.95946732  0.90504830  0.00218147  1.0
  Zr  Zr657  1  0.14696732  0.13421497  0.06468147  1.0
  Zr  Zr658  1  0.14696732  0.46754830  0.06468147  1.0
  Zr  Zr659  1  0.14696732  0.80088164  0.06468147  1.0
  Zr  Zr660  1  0.48030066  0.13421497  0.06468147  1.0
  Zr  Zr661  1  0.48030066  0.46754830  0.06468147  1.0
  Zr  Zr662  1  0.48030066  0.80088164  0.06468147  1.0
  Zr  Zr663  1  0.81363399  0.13421497  0.06468147  1.0
  Zr  Zr664  1  0.81363399  0.46754830  0.06468147  1.0
  Zr  Zr665  1  0.81363399  0.80088164  0.06468147  1.0
  Zr  Zr666  1  0.10436061  0.28710951  0.10549234  1.0
  Zr  Zr667  1  0.10436061  0.62044284  0.10549234  1.0
  Zr  Zr668  1  0.10436061  0.95377618  0.10549234  1.0
  Zr  Zr669  1  0.43769395  0.28710951  0.10549234  1.0
  Zr  Zr670  1  0.43769395  0.62044284  0.10549234  1.0
  Zr  Zr671  1  0.43769395  0.95377618  0.10549234  1.0
  Zr  Zr672  1  0.77102728  0.28710951  0.10549234  1.0
  Zr  Zr673  1  0.77102728  0.62044284  0.10549234  1.0
  Zr  Zr674  1  0.77102728  0.95377618  0.10549234  1.0
  Zr  Zr675  1  0.25019395  0.05794284  0.04299234  1.0
  Zr  Zr676  1  0.25019395  0.39127618  0.04299234  1.0
  Zr  Zr677  1  0.25019395  0.72460951  0.04299234  1.0
  Zr  Zr678  1  0.58352728  0.05794284  0.04299234  1.0
  Zr  Zr679  1  0.58352728  0.39127618  0.04299234  1.0
  Zr  Zr680  1  0.58352728  0.72460951  0.04299234  1.0
  Zr  Zr681  1  0.91686061  0.05794284  0.04299234  1.0
  Zr  Zr682  1  0.91686061  0.39127618  0.04299234  1.0
  Zr  Zr683  1  0.91686061  0.72460951  0.04299234  1.0
  Zr  Zr684  1  0.00683303  0.18467309  0.06579859  1.0
  Zr  Zr685  1  0.00683303  0.51800643  0.06579859  1.0
  Zr  Zr686  1  0.00683303  0.85133976  0.06579859  1.0
  Zr  Zr687  1  0.34016636  0.18467309  0.06579859  1.0
  Zr  Zr688  1  0.34016636  0.51800643  0.06579859  1.0
  Zr  Zr689  1  0.34016636  0.85133976  0.06579859  1.0
  Zr  Zr690  1  0.67349970  0.18467309  0.06579859  1.0
  Zr  Zr691  1  0.67349970  0.51800643  0.06579859  1.0
  Zr  Zr692  1  0.67349970  0.85133976  0.06579859  1.0
  Zr  Zr693  1  0.15266636  0.28883976  0.00329859  1.0
  Zr  Zr694  1  0.15266636  0.62217309  0.00329859  1.0
  Zr  Zr695  1  0.15266636  0.95550643  0.00329859  1.0
  Zr  Zr696  1  0.48599970  0.28883976  0.00329859  1.0
  Zr  Zr697  1  0.48599970  0.62217309  0.00329859  1.0
  Zr  Zr698  1  0.48599970  0.95550643  0.00329859  1.0
  Zr  Zr699  1  0.81933303  0.28883976  0.00329859  1.0
  Zr  Zr700  1  0.81933303  0.62217309  0.00329859  1.0
  Zr  Zr701  1  0.81933303  0.95550643  0.00329859  1.0
  Zr  Zr702  1  0.25397059  0.25122878  0.10624978  1.0
  Zr  Zr703  1  0.25397059  0.58456211  0.10624978  1.0
  Zr  Zr704  1  0.25397059  0.91789545  0.10624978  1.0
  Zr  Zr705  1  0.58730393  0.25122878  0.10624978  1.0
  Zr  Zr706  1  0.58730393  0.58456211  0.10624978  1.0
  Zr  Zr707  1  0.58730393  0.91789545  0.10624978  1.0
  Zr  Zr708  1  0.92063726  0.25122878  0.10624978  1.0
  Zr  Zr709  1  0.92063726  0.58456211  0.10624978  1.0
  Zr  Zr710  1  0.92063726  0.91789545  0.10624978  1.0
  Zr  Zr711  1  0.06647059  0.02206211  0.04374978  1.0
  Zr  Zr712  1  0.06647059  0.35539545  0.04374978  1.0
  Zr  Zr713  1  0.06647059  0.68872878  0.04374978  1.0
  Zr  Zr714  1  0.39980393  0.02206211  0.04374978  1.0
  Zr  Zr715  1  0.39980393  0.35539545  0.04374978  1.0
  Zr  Zr716  1  0.39980393  0.68872878  0.04374978  1.0
  Zr  Zr717  1  0.73313726  0.02206211  0.04374978  1.0
  Zr  Zr718  1  0.73313726  0.35539545  0.04374978  1.0
  Zr  Zr719  1  0.73313726  0.68872878  0.04374978  1.0
  Zr  Zr720  1  0.11883034  0.20050736  0.01215303  1.0
  Zr  Zr721  1  0.11883034  0.53384070  0.01215303  1.0
  Zr  Zr722  1  0.11883034  0.86717403  0.01215303  1.0
  Zr  Zr723  1  0.45216368  0.20050736  0.01215303  1.0
  Zr  Zr724  1  0.45216368  0.53384070  0.01215303  1.0
  Zr  Zr725  1  0.45216368  0.86717403  0.01215303  1.0
  Zr  Zr726  1  0.78549701  0.20050736  0.01215303  1.0
  Zr  Zr727  1  0.78549701  0.53384070  0.01215303  1.0
  Zr  Zr728  1  0.78549701  0.86717403  0.01215303  1.0
  Zr  Zr729  1  0.30633034  0.09634070  0.07465303  1.0
  Zr  Zr730  1  0.30633034  0.42967403  0.07465303  1.0
  Zr  Zr731  1  0.30633034  0.76300736  0.07465303  1.0
  Zr  Zr732  1  0.63966368  0.09634070  0.07465303  1.0
  Zr  Zr733  1  0.63966368  0.42967403  0.07465303  1.0
  Zr  Zr734  1  0.63966368  0.76300736  0.07465303  1.0
  Zr  Zr735  1  0.97299701  0.09634070  0.07465303  1.0
  Zr  Zr736  1  0.97299701  0.42967403  0.07465303  1.0
  Zr  Zr737  1  0.97299701  0.76300736  0.07465303  1.0
  Zr  Zr738  1  0.03263457  0.26706305  0.05260422  1.0
  Zr  Zr739  1  0.03263457  0.60039639  0.05260422  1.0
  Zr  Zr740  1  0.03263457  0.93372972  0.05260422  1.0
  Zr  Zr741  1  0.36596791  0.26706305  0.05260422  1.0
  Zr  Zr742  1  0.36596791  0.60039639  0.05260422  1.0
  Zr  Zr743  1  0.36596791  0.93372972  0.05260422  1.0
  Zr  Zr744  1  0.69930124  0.26706305  0.05260422  1.0
  Zr  Zr745  1  0.69930124  0.60039639  0.05260422  1.0
  Zr  Zr746  1  0.69930124  0.93372972  0.05260422  1.0
  Zr  Zr747  1  0.22013457  0.16289639  0.11510422  1.0
  Zr  Zr748  1  0.22013457  0.49622972  0.11510422  1.0
  Zr  Zr749  1  0.22013457  0.82956305  0.11510422  1.0
  Zr  Zr750  1  0.55346791  0.16289639  0.11510422  1.0
  Zr  Zr751  1  0.55346791  0.49622972  0.11510422  1.0
  Zr  Zr752  1  0.55346791  0.82956305  0.11510422  1.0
  Zr  Zr753  1  0.88680124  0.16289639  0.11510422  1.0
  Zr  Zr754  1  0.88680124  0.49622972  0.11510422  1.0
  Zr  Zr755  1  0.88680124  0.82956305  0.11510422  1.0
  Zr  Zr756  1  0.08223380  0.24670141  0.24670141  1.0
  Zr  Zr757  1  0.08223380  0.58003474  0.24670141  1.0
  Zr  Zr758  1  0.08223380  0.91336807  0.24670141  1.0
  Zr  Zr759  1  0.41556714  0.24670141  0.24670141  1.0
  Zr  Zr760  1  0.41556714  0.58003474  0.24670141  1.0
  Zr  Zr761  1  0.41556714  0.91336807  0.24670141  1.0
  Zr  Zr762  1  0.74890047  0.24670141  0.24670141  1.0
  Zr  Zr763  1  0.74890047  0.58003474  0.24670141  1.0
  Zr  Zr764  1  0.74890047  0.91336807  0.24670141  1.0
  Zr  Zr765  1  0.22806714  0.01753474  0.18420141  1.0
  Zr  Zr766  1  0.22806714  0.35086807  0.18420141  1.0
  Zr  Zr767  1  0.22806714  0.68420141  0.18420141  1.0
  Zr  Zr768  1  0.56140047  0.01753474  0.18420141  1.0
  Zr  Zr769  1  0.56140047  0.35086807  0.18420141  1.0
  Zr  Zr770  1  0.56140047  0.68420141  0.18420141  1.0
  Zr  Zr771  1  0.89473380  0.01753474  0.18420141  1.0
  Zr  Zr772  1  0.89473380  0.35086807  0.18420141  1.0
  Zr  Zr773  1  0.89473380  0.68420141  0.18420141  1.0
  Zr  Zr774  1  0.31010699  0.28962664  0.13791047  1.0
  Zr  Zr775  1  0.31010699  0.62295997  0.13791047  1.0
  Zr  Zr776  1  0.31010699  0.95629330  0.13791047  1.0
  Zr  Zr777  1  0.64344032  0.28962664  0.13791047  1.0
  Zr  Zr778  1  0.64344032  0.62295997  0.13791047  1.0
  Zr  Zr779  1  0.64344032  0.95629330  0.13791047  1.0
  Zr  Zr780  1  0.97677366  0.28962664  0.13791047  1.0
  Zr  Zr781  1  0.97677366  0.62295997  0.13791047  1.0
  Zr  Zr782  1  0.97677366  0.95629330  0.13791047  1.0
  Zr  Zr783  1  0.16427366  0.18545997  0.20041047  1.0
  Zr  Zr784  1  0.16427366  0.51879330  0.20041047  1.0
  Zr  Zr785  1  0.16427366  0.85212664  0.20041047  1.0
  Zr  Zr786  1  0.49760699  0.18545997  0.20041047  1.0
  Zr  Zr787  1  0.49760699  0.51879330  0.20041047  1.0
  Zr  Zr788  1  0.49760699  0.85212664  0.20041047  1.0
  Zr  Zr789  1  0.83094032  0.18545997  0.20041047  1.0
  Zr  Zr790  1  0.83094032  0.51879330  0.20041047  1.0
  Zr  Zr791  1  0.83094032  0.85212664  0.20041047  1.0
  Zr  Zr792  1  0.12166695  0.00502118  0.24122134  1.0
  Zr  Zr793  1  0.12166695  0.33835451  0.24122134  1.0
  Zr  Zr794  1  0.12166695  0.67168784  0.24122134  1.0
  Zr  Zr795  1  0.45500028  0.00502118  0.24122134  1.0
  Zr  Zr796  1  0.45500028  0.33835451  0.24122134  1.0
  Zr  Zr797  1  0.45500028  0.67168784  0.24122134  1.0
  Zr  Zr798  1  0.78833361  0.00502118  0.24122134  1.0
  Zr  Zr799  1  0.78833361  0.33835451  0.24122134  1.0
  Zr  Zr800  1  0.78833361  0.67168784  0.24122134  1.0
  Zr  Zr801  1  0.26750028  0.10918784  0.17872134  1.0
  Zr  Zr802  1  0.26750028  0.44252118  0.17872134  1.0
  Zr  Zr803  1  0.26750028  0.77585451  0.17872134  1.0
  Zr  Zr804  1  0.60083361  0.10918784  0.17872134  1.0
  Zr  Zr805  1  0.60083361  0.44252118  0.17872134  1.0
  Zr  Zr806  1  0.60083361  0.77585451  0.17872134  1.0
  Zr  Zr807  1  0.93416695  0.10918784  0.17872134  1.0
  Zr  Zr808  1  0.93416695  0.44252118  0.17872134  1.0
  Zr  Zr809  1  0.93416695  0.77585451  0.17872134  1.0
  Zr  Zr810  1  0.00113399  0.03004830  0.12718147  1.0
  Zr  Zr811  1  0.00113399  0.36338164  0.12718147  1.0
  Zr  Zr812  1  0.00113399  0.69671497  0.12718147  1.0
  Zr  Zr813  1  0.33446732  0.03004830  0.12718147  1.0
  Zr  Zr814  1  0.33446732  0.36338164  0.12718147  1.0
  Zr  Zr815  1  0.33446732  0.69671497  0.12718147  1.0
  Zr  Zr816  1  0.66780066  0.03004830  0.12718147  1.0
  Zr  Zr817  1  0.66780066  0.36338164  0.12718147  1.0
  Zr  Zr818  1  0.66780066  0.69671497  0.12718147  1.0
  Zr  Zr819  1  0.18863399  0.25921497  0.18968147  1.0
  Zr  Zr820  1  0.18863399  0.59254830  0.18968147  1.0
  Zr  Zr821  1  0.18863399  0.92588164  0.18968147  1.0
  Zr  Zr822  1  0.52196732  0.25921497  0.18968147  1.0
  Zr  Zr823  1  0.52196732  0.59254830  0.18968147  1.0
  Zr  Zr824  1  0.52196732  0.92588164  0.18968147  1.0
  Zr  Zr825  1  0.85530066  0.25921497  0.18968147  1.0
  Zr  Zr826  1  0.85530066  0.59254830  0.18968147  1.0
  Zr  Zr827  1  0.85530066  0.92588164  0.18968147  1.0
  Zr  Zr828  1  0.14602728  0.07877618  0.23049234  1.0
  Zr  Zr829  1  0.14602728  0.41210951  0.23049234  1.0
  Zr  Zr830  1  0.14602728  0.74544284  0.23049234  1.0
  Zr  Zr831  1  0.47936061  0.07877618  0.23049234  1.0
  Zr  Zr832  1  0.47936061  0.41210951  0.23049234  1.0
  Zr  Zr833  1  0.47936061  0.74544284  0.23049234  1.0
  Zr  Zr834  1  0.81269395  0.07877618  0.23049234  1.0
  Zr  Zr835  1  0.81269395  0.41210951  0.23049234  1.0
  Zr  Zr836  1  0.81269395  0.74544284  0.23049234  1.0
  Zr  Zr837  1  0.29186061  0.18294284  0.16799234  1.0
  Zr  Zr838  1  0.29186061  0.51627618  0.16799234  1.0
  Zr  Zr839  1  0.29186061  0.84960951  0.16799234  1.0
  Zr  Zr840  1  0.62519395  0.18294284  0.16799234  1.0
  Zr  Zr841  1  0.62519395  0.51627618  0.16799234  1.0
  Zr  Zr842  1  0.62519395  0.84960951  0.16799234  1.0
  Zr  Zr843  1  0.95852728  0.18294284  0.16799234  1.0
  Zr  Zr844  1  0.95852728  0.51627618  0.16799234  1.0
  Zr  Zr845  1  0.95852728  0.84960951  0.16799234  1.0
  Zr  Zr846  1  0.04849970  0.30967309  0.19079859  1.0
  Zr  Zr847  1  0.04849970  0.64300643  0.19079859  1.0
  Zr  Zr848  1  0.04849970  0.97633976  0.19079859  1.0
  Zr  Zr849  1  0.38183303  0.30967309  0.19079859  1.0
  Zr  Zr850  1  0.38183303  0.64300643  0.19079859  1.0
  Zr  Zr851  1  0.38183303  0.97633976  0.19079859  1.0
  Zr  Zr852  1  0.71516636  0.30967309  0.19079859  1.0
  Zr  Zr853  1  0.71516636  0.64300643  0.19079859  1.0
  Zr  Zr854  1  0.71516636  0.97633976  0.19079859  1.0
  Zr  Zr855  1  0.19433303  0.08050643  0.12829859  1.0
  Zr  Zr856  1  0.19433303  0.41383976  0.12829859  1.0
  Zr  Zr857  1  0.19433303  0.74717309  0.12829859  1.0
  Zr  Zr858  1  0.52766636  0.08050643  0.12829859  1.0
  Zr  Zr859  1  0.52766636  0.41383976  0.12829859  1.0
  Zr  Zr860  1  0.52766636  0.74717309  0.12829859  1.0
  Zr  Zr861  1  0.86099970  0.08050643  0.12829859  1.0
  Zr  Zr862  1  0.86099970  0.41383976  0.12829859  1.0
  Zr  Zr863  1  0.86099970  0.74717309  0.12829859  1.0
  Zr  Zr864  1  0.29563726  0.04289545  0.23124978  1.0
  Zr  Zr865  1  0.29563726  0.37622878  0.23124978  1.0
  Zr  Zr866  1  0.29563726  0.70956211  0.23124978  1.0
  Zr  Zr867  1  0.62897059  0.04289545  0.23124978  1.0
  Zr  Zr868  1  0.62897059  0.37622878  0.23124978  1.0
  Zr  Zr869  1  0.62897059  0.70956211  0.23124978  1.0
  Zr  Zr870  1  0.96230393  0.04289545  0.23124978  1.0
  Zr  Zr871  1  0.96230393  0.37622878  0.23124978  1.0
  Zr  Zr872  1  0.96230393  0.70956211  0.23124978  1.0
  Zr  Zr873  1  0.10813726  0.14706211  0.16874978  1.0
  Zr  Zr874  1  0.10813726  0.48039545  0.16874978  1.0
  Zr  Zr875  1  0.10813726  0.81372878  0.16874978  1.0
  Zr  Zr876  1  0.44147059  0.14706211  0.16874978  1.0
  Zr  Zr877  1  0.44147059  0.48039545  0.16874978  1.0
  Zr  Zr878  1  0.44147059  0.81372878  0.16874978  1.0
  Zr  Zr879  1  0.77480393  0.14706211  0.16874978  1.0
  Zr  Zr880  1  0.77480393  0.48039545  0.16874978  1.0
  Zr  Zr881  1  0.77480393  0.81372878  0.16874978  1.0
  Zr  Zr882  1  0.16049701  0.32550736  0.13715303  1.0
  Zr  Zr883  1  0.16049701  0.65884070  0.13715303  1.0
  Zr  Zr884  1  0.16049701  0.99217403  0.13715303  1.0
  Zr  Zr885  1  0.49383034  0.32550736  0.13715303  1.0
  Zr  Zr886  1  0.49383034  0.65884070  0.13715303  1.0
  Zr  Zr887  1  0.49383034  0.99217403  0.13715303  1.0
  Zr  Zr888  1  0.82716368  0.32550736  0.13715303  1.0
  Zr  Zr889  1  0.82716368  0.65884070  0.13715303  1.0
  Zr  Zr890  1  0.82716368  0.99217403  0.13715303  1.0
  Zr  Zr891  1  0.01466368  0.22134070  0.19965303  1.0
  Zr  Zr892  1  0.01466368  0.55467403  0.19965303  1.0
  Zr  Zr893  1  0.01466368  0.88800736  0.19965303  1.0
  Zr  Zr894  1  0.34799701  0.22134070  0.19965303  1.0
  Zr  Zr895  1  0.34799701  0.55467403  0.19965303  1.0
  Zr  Zr896  1  0.34799701  0.88800736  0.19965303  1.0
  Zr  Zr897  1  0.68133034  0.22134070  0.19965303  1.0
  Zr  Zr898  1  0.68133034  0.55467403  0.19965303  1.0
  Zr  Zr899  1  0.68133034  0.88800736  0.19965303  1.0
  Zr  Zr900  1  0.07430124  0.05872972  0.17760422  1.0
  Zr  Zr901  1  0.07430124  0.39206305  0.17760422  1.0
  Zr  Zr902  1  0.07430124  0.72539639  0.17760422  1.0
  Zr  Zr903  1  0.40763457  0.05872972  0.17760422  1.0
  Zr  Zr904  1  0.40763457  0.39206305  0.17760422  1.0
  Zr  Zr905  1  0.40763457  0.72539639  0.17760422  1.0
  Zr  Zr906  1  0.74096791  0.05872972  0.17760422  1.0
  Zr  Zr907  1  0.74096791  0.39206305  0.17760422  1.0
  Zr  Zr908  1  0.74096791  0.72539639  0.17760422  1.0
  Zr  Zr909  1  0.26180124  0.28789639  0.24010422  1.0
  Zr  Zr910  1  0.26180124  0.62122972  0.24010422  1.0
  Zr  Zr911  1  0.26180124  0.95456305  0.24010422  1.0
  Zr  Zr912  1  0.59513457  0.28789639  0.24010422  1.0
  Zr  Zr913  1  0.59513457  0.62122972  0.24010422  1.0
  Zr  Zr914  1  0.59513457  0.95456305  0.24010422  1.0
  Zr  Zr915  1  0.92846791  0.28789639  0.24010422  1.0
  Zr  Zr916  1  0.92846791  0.62122972  0.24010422  1.0
  Zr  Zr917  1  0.92846791  0.95456305  0.24010422  1.0
  Zr  Zr918  1  0.12390047  0.03836807  0.37170141  1.0
  Zr  Zr919  1  0.12390047  0.37170141  0.37170141  1.0
  Zr  Zr920  1  0.12390047  0.70503474  0.37170141  1.0
  Zr  Zr921  1  0.45723380  0.03836807  0.37170141  1.0
  Zr  Zr922  1  0.45723380  0.37170141  0.37170141  1.0
  Zr  Zr923  1  0.45723380  0.70503474  0.37170141  1.0
  Zr  Zr924  1  0.79056714  0.03836807  0.37170141  1.0
  Zr  Zr925  1  0.79056714  0.37170141  0.37170141  1.0
  Zr  Zr926  1  0.79056714  0.70503474  0.37170141  1.0
  Zr  Zr927  1  0.26973380  0.14253474  0.30920141  1.0
  Zr  Zr928  1  0.26973380  0.47586807  0.30920141  1.0
  Zr  Zr929  1  0.26973380  0.80920141  0.30920141  1.0
  Zr  Zr930  1  0.60306714  0.14253474  0.30920141  1.0
  Zr  Zr931  1  0.60306714  0.47586807  0.30920141  1.0
  Zr  Zr932  1  0.60306714  0.80920141  0.30920141  1.0
  Zr  Zr933  1  0.93640047  0.14253474  0.30920141  1.0
  Zr  Zr934  1  0.93640047  0.47586807  0.30920141  1.0
  Zr  Zr935  1  0.93640047  0.80920141  0.30920141  1.0
  Zr  Zr936  1  0.01844032  0.08129330  0.26291047  1.0
  Zr  Zr937  1  0.01844032  0.41462664  0.26291047  1.0
  Zr  Zr938  1  0.01844032  0.74795997  0.26291047  1.0
  Zr  Zr939  1  0.35177366  0.08129330  0.26291047  1.0
  Zr  Zr940  1  0.35177366  0.41462664  0.26291047  1.0
  Zr  Zr941  1  0.35177366  0.74795997  0.26291047  1.0
  Zr  Zr942  1  0.68510699  0.08129330  0.26291047  1.0
  Zr  Zr943  1  0.68510699  0.41462664  0.26291047  1.0
  Zr  Zr944  1  0.68510699  0.74795997  0.26291047  1.0
  Zr  Zr945  1  0.20594032  0.31045997  0.32541047  1.0
  Zr  Zr946  1  0.20594032  0.64379330  0.32541047  1.0
  Zr  Zr947  1  0.20594032  0.97712664  0.32541047  1.0
  Zr  Zr948  1  0.53927366  0.31045997  0.32541047  1.0
  Zr  Zr949  1  0.53927366  0.64379330  0.32541047  1.0
  Zr  Zr950  1  0.53927366  0.97712664  0.32541047  1.0
  Zr  Zr951  1  0.87260699  0.31045997  0.32541047  1.0
  Zr  Zr952  1  0.87260699  0.64379330  0.32541047  1.0
  Zr  Zr953  1  0.87260699  0.97712664  0.32541047  1.0
  Zr  Zr954  1  0.16333361  0.13002118  0.36622134  1.0
  Zr  Zr955  1  0.16333361  0.46335451  0.36622134  1.0
  Zr  Zr956  1  0.16333361  0.79668784  0.36622134  1.0
  Zr  Zr957  1  0.49666695  0.13002118  0.36622134  1.0
  Zr  Zr958  1  0.49666695  0.46335451  0.36622134  1.0
  Zr  Zr959  1  0.49666695  0.79668784  0.36622134  1.0
  Zr  Zr960  1  0.83000028  0.13002118  0.36622134  1.0
  Zr  Zr961  1  0.83000028  0.46335451  0.36622134  1.0
  Zr  Zr962  1  0.83000028  0.79668784  0.36622134  1.0
  Zr  Zr963  1  0.30916695  0.23418784  0.30372134  1.0
  Zr  Zr964  1  0.30916695  0.56752118  0.30372134  1.0
  Zr  Zr965  1  0.30916695  0.90085451  0.30372134  1.0
  Zr  Zr966  1  0.64250028  0.23418784  0.30372134  1.0
  Zr  Zr967  1  0.64250028  0.56752118  0.30372134  1.0
  Zr  Zr968  1  0.64250028  0.90085451  0.30372134  1.0
  Zr  Zr969  1  0.97583361  0.23418784  0.30372134  1.0
  Zr  Zr970  1  0.97583361  0.56752118  0.30372134  1.0
  Zr  Zr971  1  0.97583361  0.90085451  0.30372134  1.0
  Zr  Zr972  1  0.04280066  0.15504830  0.25218147  1.0
  Zr  Zr973  1  0.04280066  0.48838164  0.25218147  1.0
  Zr  Zr974  1  0.04280066  0.82171497  0.25218147  1.0
  Zr  Zr975  1  0.37613399  0.15504830  0.25218147  1.0
  Zr  Zr976  1  0.37613399  0.48838164  0.25218147  1.0
  Zr  Zr977  1  0.37613399  0.82171497  0.25218147  1.0
  Zr  Zr978  1  0.70946732  0.15504830  0.25218147  1.0
  Zr  Zr979  1  0.70946732  0.48838164  0.25218147  1.0
  Zr  Zr980  1  0.70946732  0.82171497  0.25218147  1.0
  Zr  Zr981  1  0.23030066  0.05088164  0.31468147  1.0
  Zr  Zr982  1  0.23030066  0.38421497  0.31468147  1.0
  Zr  Zr983  1  0.23030066  0.71754830  0.31468147  1.0
  Zr  Zr984  1  0.56363399  0.05088164  0.31468147  1.0
  Zr  Zr985  1  0.56363399  0.38421497  0.31468147  1.0
  Zr  Zr986  1  0.56363399  0.71754830  0.31468147  1.0
  Zr  Zr987  1  0.89696732  0.05088164  0.31468147  1.0
  Zr  Zr988  1  0.89696732  0.38421497  0.31468147  1.0
  Zr  Zr989  1  0.89696732  0.71754830  0.31468147  1.0
  Zr  Zr990  1  0.18769395  0.20377618  0.35549234  1.0
  Zr  Zr991  1  0.18769395  0.53710951  0.35549234  1.0
  Zr  Zr992  1  0.18769395  0.87044284  0.35549234  1.0
  Zr  Zr993  1  0.52102728  0.20377618  0.35549234  1.0
  Zr  Zr994  1  0.52102728  0.53710951  0.35549234  1.0
  Zr  Zr995  1  0.52102728  0.87044284  0.35549234  1.0
  Zr  Zr996  1  0.85436061  0.20377618  0.35549234  1.0
  Zr  Zr997  1  0.85436061  0.53710951  0.35549234  1.0
  Zr  Zr998  1  0.85436061  0.87044284  0.35549234  1.0
  Zr  Zr999  1  0.00019395  0.30794284  0.29299234  1.0
  Zr  Zr1000  1  0.00019395  0.64127618  0.29299234  1.0
  Zr  Zr1001  1  0.00019395  0.97460951  0.29299234  1.0
  Zr  Zr1002  1  0.33352728  0.30794284  0.29299234  1.0
  Zr  Zr1003  1  0.33352728  0.64127618  0.29299234  1.0
  Zr  Zr1004  1  0.33352728  0.97460951  0.29299234  1.0
  Zr  Zr1005  1  0.66686061  0.30794284  0.29299234  1.0
  Zr  Zr1006  1  0.66686061  0.64127618  0.29299234  1.0
  Zr  Zr1007  1  0.66686061  0.97460951  0.29299234  1.0
  Zr  Zr1008  1  0.09016636  0.10133976  0.31579859  1.0
  Zr  Zr1009  1  0.09016636  0.43467309  0.31579859  1.0
  Zr  Zr1010  1  0.09016636  0.76800643  0.31579859  1.0
  Zr  Zr1011  1  0.42349970  0.10133976  0.31579859  1.0
  Zr  Zr1012  1  0.42349970  0.43467309  0.31579859  1.0
  Zr  Zr1013  1  0.42349970  0.76800643  0.31579859  1.0
  Zr  Zr1014  1  0.75683303  0.10133976  0.31579859  1.0
  Zr  Zr1015  1  0.75683303  0.43467309  0.31579859  1.0
  Zr  Zr1016  1  0.75683303  0.76800643  0.31579859  1.0
  Zr  Zr1017  1  0.23599970  0.20550643  0.25329859  1.0
  Zr  Zr1018  1  0.23599970  0.53883976  0.25329859  1.0
  Zr  Zr1019  1  0.23599970  0.87217309  0.25329859  1.0
  Zr  Zr1020  1  0.56933303  0.20550643  0.25329859  1.0
  Zr  Zr1021  1  0.56933303  0.53883976  0.25329859  1.0
  Zr  Zr1022  1  0.56933303  0.87217309  0.25329859  1.0
  Zr  Zr1023  1  0.90266636  0.20550643  0.25329859  1.0
  Zr  Zr1024  1  0.90266636  0.53883976  0.25329859  1.0
  Zr  Zr1025  1  0.90266636  0.87217309  0.25329859  1.0
  Zr  Zr1026  1  0.00397059  0.16789545  0.35624978  1.0
  Zr  Zr1027  1  0.00397059  0.50122878  0.35624978  1.0
  Zr  Zr1028  1  0.00397059  0.83456211  0.35624978  1.0
  Zr  Zr1029  1  0.33730393  0.16789545  0.35624978  1.0
  Zr  Zr1030  1  0.33730393  0.50122878  0.35624978  1.0
  Zr  Zr1031  1  0.33730393  0.83456211  0.35624978  1.0
  Zr  Zr1032  1  0.67063726  0.16789545  0.35624978  1.0
  Zr  Zr1033  1  0.67063726  0.50122878  0.35624978  1.0
  Zr  Zr1034  1  0.67063726  0.83456211  0.35624978  1.0
  Zr  Zr1035  1  0.14980393  0.27206211  0.29374978  1.0
  Zr  Zr1036  1  0.14980393  0.60539545  0.29374978  1.0
  Zr  Zr1037  1  0.14980393  0.93872878  0.29374978  1.0
  Zr  Zr1038  1  0.48313726  0.27206211  0.29374978  1.0
  Zr  Zr1039  1  0.48313726  0.60539545  0.29374978  1.0
  Zr  Zr1040  1  0.48313726  0.93872878  0.29374978  1.0
  Zr  Zr1041  1  0.81647059  0.27206211  0.29374978  1.0
  Zr  Zr1042  1  0.81647059  0.60539545  0.29374978  1.0
  Zr  Zr1043  1  0.81647059  0.93872878  0.29374978  1.0
  Zr  Zr1044  1  0.20216368  0.11717403  0.26215303  1.0
  Zr  Zr1045  1  0.20216368  0.45050736  0.26215303  1.0
  Zr  Zr1046  1  0.20216368  0.78384070  0.26215303  1.0
  Zr  Zr1047  1  0.53549701  0.11717403  0.26215303  1.0
  Zr  Zr1048  1  0.53549701  0.45050736  0.26215303  1.0
  Zr  Zr1049  1  0.53549701  0.78384070  0.26215303  1.0
  Zr  Zr1050  1  0.86883034  0.11717403  0.26215303  1.0
  Zr  Zr1051  1  0.86883034  0.45050736  0.26215303  1.0
  Zr  Zr1052  1  0.86883034  0.78384070  0.26215303  1.0
  Zr  Zr1053  1  0.05633034  0.01300736  0.32465303  1.0
  Zr  Zr1054  1  0.05633034  0.34634070  0.32465303  1.0
  Zr  Zr1055  1  0.05633034  0.67967403  0.32465303  1.0
  Zr  Zr1056  1  0.38966368  0.01300736  0.32465303  1.0
  Zr  Zr1057  1  0.38966368  0.34634070  0.32465303  1.0
  Zr  Zr1058  1  0.38966368  0.67967403  0.32465303  1.0
  Zr  Zr1059  1  0.72299701  0.01300736  0.32465303  1.0
  Zr  Zr1060  1  0.72299701  0.34634070  0.32465303  1.0
  Zr  Zr1061  1  0.72299701  0.67967403  0.32465303  1.0
  Zr  Zr1062  1  0.11596791  0.18372972  0.30260422  1.0
  Zr  Zr1063  1  0.11596791  0.51706305  0.30260422  1.0
  Zr  Zr1064  1  0.11596791  0.85039639  0.30260422  1.0
  Zr  Zr1065  1  0.44930124  0.18372972  0.30260422  1.0
  Zr  Zr1066  1  0.44930124  0.51706305  0.30260422  1.0
  Zr  Zr1067  1  0.44930124  0.85039639  0.30260422  1.0
  Zr  Zr1068  1  0.78263457  0.18372972  0.30260422  1.0
  Zr  Zr1069  1  0.78263457  0.51706305  0.30260422  1.0
  Zr  Zr1070  1  0.78263457  0.85039639  0.30260422  1.0
  Zr  Zr1071  1  0.30346791  0.07956305  0.36510422  1.0
  Zr  Zr1072  1  0.30346791  0.41289639  0.36510422  1.0
  Zr  Zr1073  1  0.30346791  0.74622972  0.36510422  1.0
  Zr  Zr1074  1  0.63680124  0.07956305  0.36510422  1.0
  Zr  Zr1075  1  0.63680124  0.41289639  0.36510422  1.0
  Zr  Zr1076  1  0.63680124  0.74622972  0.36510422  1.0
  Zr  Zr1077  1  0.97013457  0.07956305  0.36510422  1.0
  Zr  Zr1078  1  0.97013457  0.41289639  0.36510422  1.0
  Zr  Zr1079  1  0.97013457  0.74622972  0.36510422  1.0
