# generated using pymatgen
data_Zr9Ni11
_symmetry_space_group_name_H-M   'P 1'
_cell_length_a   23.31779412
_cell_length_b   55.64124417
_cell_length_c   38.86299020
_cell_angle_alpha   55.63269524
_cell_angle_beta   99.99162236
_cell_angle_gamma   61.66718203
_symmetry_Int_Tables_number   1
_chemical_formula_structural   Zr9Ni11
_chemical_formula_sum   'Zr324 Ni396'
_cell_volume   29098.24281636
_cell_formula_units_Z   36
loop_
 _symmetry_equiv_pos_site_id
 _symmetry_equiv_pos_as_xyz
  1  'x, y, z'
loop_
 _atom_site_type_symbol
 _atom_site_label
 _atom_site_symmetry_multiplicity
 _atom_site_fract_x
 _atom_site_fract_y
 _atom_site_fract_z
 _atom_site_occupancy
  Zr  Zr0  1  0.00000000  0.16666667  0.09425905  1.0
  Zr  Zr1  1  0.00000000  0.50000000  0.09425905  1.0
  Zr  Zr2  1  0.00000000  0.83333333  0.09425905  1.0
  Zr  Zr3  1  0.33333333  0.16666667  0.09425905  1.0
  Zr  Zr4  1  0.33333333  0.50000000  0.09425905  1.0
  Zr  Zr5  1  0.33333333  0.83333333  0.09425905  1.0
  Zr  Zr6  1  0.66666667  0.16666667  0.09425905  1.0
  Zr  Zr7  1  0.66666667  0.50000000  0.09425905  1.0
  Zr  Zr8  1  0.66666667  0.83333333  0.09425905  1.0
  Zr  Zr9  1  0.00000000  0.00000000  0.19425905  1.0
  Zr  Zr10  1  0.00000000  0.33333333  0.19425905  1.0
  Zr  Zr11  1  0.00000000  0.66666667  0.19425905  1.0
  Zr  Zr12  1  0.33333333  0.00000000  0.19425905  1.0
  Zr  Zr13  1  0.33333333  0.33333333  0.19425905  1.0
  Zr  Zr14  1  0.33333333  0.66666667  0.19425905  1.0
  Zr  Zr15  1  0.66666667  0.00000000  0.19425905  1.0
  Zr  Zr16  1  0.66666667  0.33333333  0.19425905  1.0
  Zr  Zr17  1  0.66666667  0.66666667  0.19425905  1.0
  Zr  Zr18  1  0.25081367  0.06919650  0.02019355  1.0
  Zr  Zr19  1  0.25081367  0.40252983  0.02019355  1.0
  Zr  Zr20  1  0.25081367  0.73586317  0.02019355  1.0
  Zr  Zr21  1  0.58414700  0.06919650  0.02019355  1.0
  Zr  Zr22  1  0.58414700  0.40252983  0.02019355  1.0
  Zr  Zr23  1  0.58414700  0.73586317  0.02019355  1.0
  Zr  Zr24  1  0.91748033  0.06919650  0.02019355  1.0
  Zr  Zr25  1  0.91748033  0.40252983  0.02019355  1.0
  Zr  Zr26  1  0.91748033  0.73586317  0.02019355  1.0
  Zr  Zr27  1  0.25081367  0.23586317  0.12019355  1.0
  Zr  Zr28  1  0.25081367  0.56919650  0.12019355  1.0
  Zr  Zr29  1  0.25081367  0.90252983  0.12019355  1.0
  Zr  Zr30  1  0.58414700  0.23586317  0.12019355  1.0
  Zr  Zr31  1  0.58414700  0.56919650  0.12019355  1.0
  Zr  Zr32  1  0.58414700  0.90252983  0.12019355  1.0
  Zr  Zr33  1  0.91748033  0.23586317  0.12019355  1.0
  Zr  Zr34  1  0.91748033  0.56919650  0.12019355  1.0
  Zr  Zr35  1  0.91748033  0.90252983  0.12019355  1.0
  Zr  Zr36  1  0.19494033  0.12540683  0.08549095  1.0
  Zr  Zr37  1  0.19494033  0.45874017  0.08549095  1.0
  Zr  Zr38  1  0.19494033  0.79207350  0.08549095  1.0
  Zr  Zr39  1  0.52827367  0.12540683  0.08549095  1.0
  Zr  Zr40  1  0.52827367  0.45874017  0.08549095  1.0
  Zr  Zr41  1  0.52827367  0.79207350  0.08549095  1.0
  Zr  Zr42  1  0.86160700  0.12540683  0.08549095  1.0
  Zr  Zr43  1  0.86160700  0.45874017  0.08549095  1.0
  Zr  Zr44  1  0.86160700  0.79207350  0.08549095  1.0
  Zr  Zr45  1  0.19494033  0.29207350  0.18549095  1.0
  Zr  Zr46  1  0.19494033  0.62540683  0.18549095  1.0
  Zr  Zr47  1  0.19494033  0.95874017  0.18549095  1.0
  Zr  Zr48  1  0.52827367  0.29207350  0.18549095  1.0
  Zr  Zr49  1  0.52827367  0.62540683  0.18549095  1.0
  Zr  Zr50  1  0.52827367  0.95874017  0.18549095  1.0
  Zr  Zr51  1  0.86160700  0.29207350  0.18549095  1.0
  Zr  Zr52  1  0.86160700  0.62540683  0.18549095  1.0
  Zr  Zr53  1  0.86160700  0.95874017  0.18549095  1.0
  Zr  Zr54  1  0.13839300  0.04125983  0.00302715  1.0
  Zr  Zr55  1  0.13839300  0.37459317  0.00302715  1.0
  Zr  Zr56  1  0.13839300  0.70792650  0.00302715  1.0
  Zr  Zr57  1  0.47172633  0.04125983  0.00302715  1.0
  Zr  Zr58  1  0.47172633  0.37459317  0.00302715  1.0
  Zr  Zr59  1  0.47172633  0.70792650  0.00302715  1.0
  Zr  Zr60  1  0.80505967  0.04125983  0.00302715  1.0
  Zr  Zr61  1  0.80505967  0.37459317  0.00302715  1.0
  Zr  Zr62  1  0.80505967  0.70792650  0.00302715  1.0
  Zr  Zr63  1  0.13839300  0.20792650  0.10302715  1.0
  Zr  Zr64  1  0.13839300  0.54125983  0.10302715  1.0
  Zr  Zr65  1  0.13839300  0.87459317  0.10302715  1.0
  Zr  Zr66  1  0.47172633  0.20792650  0.10302715  1.0
  Zr  Zr67  1  0.47172633  0.54125983  0.10302715  1.0
  Zr  Zr68  1  0.47172633  0.87459317  0.10302715  1.0
  Zr  Zr69  1  0.80505967  0.20792650  0.10302715  1.0
  Zr  Zr70  1  0.80505967  0.54125983  0.10302715  1.0
  Zr  Zr71  1  0.80505967  0.87459317  0.10302715  1.0
  Zr  Zr72  1  0.08251967  0.09747017  0.06832455  1.0
  Zr  Zr73  1  0.08251967  0.43080350  0.06832455  1.0
  Zr  Zr74  1  0.08251967  0.76413683  0.06832455  1.0
  Zr  Zr75  1  0.41585300  0.09747017  0.06832455  1.0
  Zr  Zr76  1  0.41585300  0.43080350  0.06832455  1.0
  Zr  Zr77  1  0.41585300  0.76413683  0.06832455  1.0
  Zr  Zr78  1  0.74918633  0.09747017  0.06832455  1.0
  Zr  Zr79  1  0.74918633  0.43080350  0.06832455  1.0
  Zr  Zr80  1  0.74918633  0.76413683  0.06832455  1.0
  Zr  Zr81  1  0.08251967  0.26413683  0.16832455  1.0
  Zr  Zr82  1  0.08251967  0.59747017  0.16832455  1.0
  Zr  Zr83  1  0.08251967  0.93080350  0.16832455  1.0
  Zr  Zr84  1  0.41585300  0.26413683  0.16832455  1.0
  Zr  Zr85  1  0.41585300  0.59747017  0.16832455  1.0
  Zr  Zr86  1  0.41585300  0.93080350  0.16832455  1.0
  Zr  Zr87  1  0.74918633  0.26413683  0.16832455  1.0
  Zr  Zr88  1  0.74918633  0.59747017  0.16832455  1.0
  Zr  Zr89  1  0.74918633  0.93080350  0.16832455  1.0
  Zr  Zr90  1  0.22955867  0.01509983  0.10481455  1.0
  Zr  Zr91  1  0.22955867  0.34843317  0.10481455  1.0
  Zr  Zr92  1  0.22955867  0.68176650  0.10481455  1.0
  Zr  Zr93  1  0.56289200  0.01509983  0.10481455  1.0
  Zr  Zr94  1  0.56289200  0.34843317  0.10481455  1.0
  Zr  Zr95  1  0.56289200  0.68176650  0.10481455  1.0
  Zr  Zr96  1  0.89622533  0.01509983  0.10481455  1.0
  Zr  Zr97  1  0.89622533  0.34843317  0.10481455  1.0
  Zr  Zr98  1  0.89622533  0.68176650  0.10481455  1.0
  Zr  Zr99  1  0.22955867  0.18176650  0.00481455  1.0
  Zr  Zr100  1  0.22955867  0.51509983  0.00481455  1.0
  Zr  Zr101  1  0.22955867  0.84843317  0.00481455  1.0
  Zr  Zr102  1  0.56289200  0.18176650  0.00481455  1.0
  Zr  Zr103  1  0.56289200  0.51509983  0.00481455  1.0
  Zr  Zr104  1  0.56289200  0.84843317  0.00481455  1.0
  Zr  Zr105  1  0.89622533  0.18176650  0.00481455  1.0
  Zr  Zr106  1  0.89622533  0.51509983  0.00481455  1.0
  Zr  Zr107  1  0.89622533  0.84843317  0.00481455  1.0
  Zr  Zr108  1  0.30313367  0.11477933  0.16953645  1.0
  Zr  Zr109  1  0.30313367  0.44811267  0.16953645  1.0
  Zr  Zr110  1  0.30313367  0.78144600  0.16953645  1.0
  Zr  Zr111  1  0.63646700  0.11477933  0.16953645  1.0
  Zr  Zr112  1  0.63646700  0.44811267  0.16953645  1.0
  Zr  Zr113  1  0.63646700  0.78144600  0.16953645  1.0
  Zr  Zr114  1  0.96980033  0.11477933  0.16953645  1.0
  Zr  Zr115  1  0.96980033  0.44811267  0.16953645  1.0
  Zr  Zr116  1  0.96980033  0.78144600  0.16953645  1.0
  Zr  Zr117  1  0.30313367  0.28144600  0.06953645  1.0
  Zr  Zr118  1  0.30313367  0.61477933  0.06953645  1.0
  Zr  Zr119  1  0.30313367  0.94811267  0.06953645  1.0
  Zr  Zr120  1  0.63646700  0.28144600  0.06953645  1.0
  Zr  Zr121  1  0.63646700  0.61477933  0.06953645  1.0
  Zr  Zr122  1  0.63646700  0.94811267  0.06953645  1.0
  Zr  Zr123  1  0.96980033  0.28144600  0.06953645  1.0
  Zr  Zr124  1  0.96980033  0.61477933  0.06953645  1.0
  Zr  Zr125  1  0.96980033  0.94811267  0.06953645  1.0
  Zr  Zr126  1  0.03019967  0.05188733  0.11898165  1.0
  Zr  Zr127  1  0.03019967  0.38522067  0.11898165  1.0
  Zr  Zr128  1  0.03019967  0.71855400  0.11898165  1.0
  Zr  Zr129  1  0.36353300  0.05188733  0.11898165  1.0
  Zr  Zr130  1  0.36353300  0.38522067  0.11898165  1.0
  Zr  Zr131  1  0.36353300  0.71855400  0.11898165  1.0
  Zr  Zr132  1  0.69686633  0.05188733  0.11898165  1.0
  Zr  Zr133  1  0.69686633  0.38522067  0.11898165  1.0
  Zr  Zr134  1  0.69686633  0.71855400  0.11898165  1.0
  Zr  Zr135  1  0.03019967  0.21855400  0.01898165  1.0
  Zr  Zr136  1  0.03019967  0.55188733  0.01898165  1.0
  Zr  Zr137  1  0.03019967  0.88522067  0.01898165  1.0
  Zr  Zr138  1  0.36353300  0.21855400  0.01898165  1.0
  Zr  Zr139  1  0.36353300  0.55188733  0.01898165  1.0
  Zr  Zr140  1  0.36353300  0.88522067  0.01898165  1.0
  Zr  Zr141  1  0.69686633  0.21855400  0.01898165  1.0
  Zr  Zr142  1  0.69686633  0.55188733  0.01898165  1.0
  Zr  Zr143  1  0.69686633  0.88522067  0.01898165  1.0
  Zr  Zr144  1  0.10377467  0.15156683  0.18370355  1.0
  Zr  Zr145  1  0.10377467  0.48490017  0.18370355  1.0
  Zr  Zr146  1  0.10377467  0.81823350  0.18370355  1.0
  Zr  Zr147  1  0.43710800  0.15156683  0.18370355  1.0
  Zr  Zr148  1  0.43710800  0.48490017  0.18370355  1.0
  Zr  Zr149  1  0.43710800  0.81823350  0.18370355  1.0
  Zr  Zr150  1  0.77044133  0.15156683  0.18370355  1.0
  Zr  Zr151  1  0.77044133  0.48490017  0.18370355  1.0
  Zr  Zr152  1  0.77044133  0.81823350  0.18370355  1.0
  Zr  Zr153  1  0.10377467  0.31823350  0.08370355  1.0
  Zr  Zr154  1  0.10377467  0.65156683  0.08370355  1.0
  Zr  Zr155  1  0.10377467  0.98490017  0.08370355  1.0
  Zr  Zr156  1  0.43710800  0.31823350  0.08370355  1.0
  Zr  Zr157  1  0.43710800  0.65156683  0.08370355  1.0
  Zr  Zr158  1  0.43710800  0.98490017  0.08370355  1.0
  Zr  Zr159  1  0.77044133  0.31823350  0.08370355  1.0
  Zr  Zr160  1  0.77044133  0.65156683  0.08370355  1.0
  Zr  Zr161  1  0.77044133  0.98490017  0.08370355  1.0
  Ni  Ni162  1  0.16666667  0.08333333  0.14425905  1.0
  Ni  Ni163  1  0.16666667  0.41666667  0.14425905  1.0
  Ni  Ni164  1  0.16666667  0.75000000  0.14425905  1.0
  Ni  Ni165  1  0.50000000  0.08333333  0.14425905  1.0
  Ni  Ni166  1  0.50000000  0.41666667  0.14425905  1.0
  Ni  Ni167  1  0.50000000  0.75000000  0.14425905  1.0
  Ni  Ni168  1  0.83333333  0.08333333  0.14425905  1.0
  Ni  Ni169  1  0.83333333  0.41666667  0.14425905  1.0
  Ni  Ni170  1  0.83333333  0.75000000  0.14425905  1.0
  Ni  Ni171  1  0.16666667  0.25000000  0.04425905  1.0
  Ni  Ni172  1  0.16666667  0.58333333  0.04425905  1.0
  Ni  Ni173  1  0.16666667  0.91666667  0.04425905  1.0
  Ni  Ni174  1  0.50000000  0.25000000  0.04425905  1.0
  Ni  Ni175  1  0.50000000  0.58333333  0.04425905  1.0
  Ni  Ni176  1  0.50000000  0.91666667  0.04425905  1.0
  Ni  Ni177  1  0.83333333  0.25000000  0.04425905  1.0
  Ni  Ni178  1  0.83333333  0.58333333  0.04425905  1.0
  Ni  Ni179  1  0.83333333  0.91666667  0.04425905  1.0
  Ni  Ni180  1  0.08333333  0.04166667  0.06925905  1.0
  Ni  Ni181  1  0.08333333  0.37500000  0.06925905  1.0
  Ni  Ni182  1  0.08333333  0.70833333  0.06925905  1.0
  Ni  Ni183  1  0.41666667  0.04166667  0.06925905  1.0
  Ni  Ni184  1  0.41666667  0.37500000  0.06925905  1.0
  Ni  Ni185  1  0.41666667  0.70833333  0.06925905  1.0
  Ni  Ni186  1  0.75000000  0.04166667  0.06925905  1.0
  Ni  Ni187  1  0.75000000  0.37500000  0.06925905  1.0
  Ni  Ni188  1  0.75000000  0.70833333  0.06925905  1.0
  Ni  Ni189  1  0.08333333  0.20833333  0.16925905  1.0
  Ni  Ni190  1  0.08333333  0.54166667  0.16925905  1.0
  Ni  Ni191  1  0.08333333  0.87500000  0.16925905  1.0
  Ni  Ni192  1  0.41666667  0.20833333  0.16925905  1.0
  Ni  Ni193  1  0.41666667  0.54166667  0.16925905  1.0
  Ni  Ni194  1  0.41666667  0.87500000  0.16925905  1.0
  Ni  Ni195  1  0.75000000  0.20833333  0.16925905  1.0
  Ni  Ni196  1  0.75000000  0.54166667  0.16925905  1.0
  Ni  Ni197  1  0.75000000  0.87500000  0.16925905  1.0
  Ni  Ni198  1  0.25000000  0.12500000  0.01925905  1.0
  Ni  Ni199  1  0.25000000  0.45833333  0.01925905  1.0
  Ni  Ni200  1  0.25000000  0.79166667  0.01925905  1.0
  Ni  Ni201  1  0.58333333  0.12500000  0.01925905  1.0
  Ni  Ni202  1  0.58333333  0.45833333  0.01925905  1.0
  Ni  Ni203  1  0.58333333  0.79166667  0.01925905  1.0
  Ni  Ni204  1  0.91666667  0.12500000  0.01925905  1.0
  Ni  Ni205  1  0.91666667  0.45833333  0.01925905  1.0
  Ni  Ni206  1  0.91666667  0.79166667  0.01925905  1.0
  Ni  Ni207  1  0.25000000  0.29166667  0.11925905  1.0
  Ni  Ni208  1  0.25000000  0.62500000  0.11925905  1.0
  Ni  Ni209  1  0.25000000  0.95833333  0.11925905  1.0
  Ni  Ni210  1  0.58333333  0.29166667  0.11925905  1.0
  Ni  Ni211  1  0.58333333  0.62500000  0.11925905  1.0
  Ni  Ni212  1  0.58333333  0.95833333  0.11925905  1.0
  Ni  Ni213  1  0.91666667  0.29166667  0.11925905  1.0
  Ni  Ni214  1  0.91666667  0.62500000  0.11925905  1.0
  Ni  Ni215  1  0.91666667  0.95833333  0.11925905  1.0
  Ni  Ni216  1  0.22514700  0.07157150  0.08278795  1.0
  Ni  Ni217  1  0.22514700  0.40490483  0.08278795  1.0
  Ni  Ni218  1  0.22514700  0.73823817  0.08278795  1.0
  Ni  Ni219  1  0.55848033  0.07157150  0.08278795  1.0
  Ni  Ni220  1  0.55848033  0.40490483  0.08278795  1.0
  Ni  Ni221  1  0.55848033  0.73823817  0.08278795  1.0
  Ni  Ni222  1  0.89181367  0.07157150  0.08278795  1.0
  Ni  Ni223  1  0.89181367  0.40490483  0.08278795  1.0
  Ni  Ni224  1  0.89181367  0.73823817  0.08278795  1.0
  Ni  Ni225  1  0.22514700  0.23823817  0.18278795  1.0
  Ni  Ni226  1  0.22514700  0.57157150  0.18278795  1.0
  Ni  Ni227  1  0.22514700  0.90490483  0.18278795  1.0
  Ni  Ni228  1  0.55848033  0.23823817  0.18278795  1.0
  Ni  Ni229  1  0.55848033  0.57157150  0.18278795  1.0
  Ni  Ni230  1  0.55848033  0.90490483  0.18278795  1.0
  Ni  Ni231  1  0.89181367  0.23823817  0.18278795  1.0
  Ni  Ni232  1  0.89181367  0.57157150  0.18278795  1.0
  Ni  Ni233  1  0.89181367  0.90490483  0.18278795  1.0
  Ni  Ni234  1  0.19019033  0.01446467  0.16460625  1.0
  Ni  Ni235  1  0.19019033  0.34779800  0.16460625  1.0
  Ni  Ni236  1  0.19019033  0.68113133  0.16460625  1.0
  Ni  Ni237  1  0.52352367  0.01446467  0.16460625  1.0
  Ni  Ni238  1  0.52352367  0.34779800  0.16460625  1.0
  Ni  Ni239  1  0.52352367  0.68113133  0.16460625  1.0
  Ni  Ni240  1  0.85685700  0.01446467  0.16460625  1.0
  Ni  Ni241  1  0.85685700  0.34779800  0.16460625  1.0
  Ni  Ni242  1  0.85685700  0.68113133  0.16460625  1.0
  Ni  Ni243  1  0.19019033  0.18113133  0.06460625  1.0
  Ni  Ni244  1  0.19019033  0.51446467  0.06460625  1.0
  Ni  Ni245  1  0.19019033  0.84779800  0.06460625  1.0
  Ni  Ni246  1  0.52352367  0.18113133  0.06460625  1.0
  Ni  Ni247  1  0.52352367  0.51446467  0.06460625  1.0
  Ni  Ni248  1  0.52352367  0.84779800  0.06460625  1.0
  Ni  Ni249  1  0.85685700  0.18113133  0.06460625  1.0
  Ni  Ni250  1  0.85685700  0.51446467  0.06460625  1.0
  Ni  Ni251  1  0.85685700  0.84779800  0.06460625  1.0
  Ni  Ni252  1  0.00602733  0.05409317  0.18277715  1.0
  Ni  Ni253  1  0.00602733  0.38742650  0.18277715  1.0
  Ni  Ni254  1  0.00602733  0.72075983  0.18277715  1.0
  Ni  Ni255  1  0.33936067  0.05409317  0.18277715  1.0
  Ni  Ni256  1  0.33936067  0.38742650  0.18277715  1.0
  Ni  Ni257  1  0.33936067  0.72075983  0.18277715  1.0
  Ni  Ni258  1  0.67269400  0.05409317  0.18277715  1.0
  Ni  Ni259  1  0.67269400  0.38742650  0.18277715  1.0
  Ni  Ni260  1  0.67269400  0.72075983  0.18277715  1.0
  Ni  Ni261  1  0.00602733  0.22075983  0.08277715  1.0
  Ni  Ni262  1  0.00602733  0.55409317  0.08277715  1.0
  Ni  Ni263  1  0.00602733  0.88742650  0.08277715  1.0
  Ni  Ni264  1  0.33936067  0.22075983  0.08277715  1.0
  Ni  Ni265  1  0.33936067  0.55409317  0.08277715  1.0
  Ni  Ni266  1  0.33936067  0.88742650  0.08277715  1.0
  Ni  Ni267  1  0.67269400  0.22075983  0.08277715  1.0
  Ni  Ni268  1  0.67269400  0.55409317  0.08277715  1.0
  Ni  Ni269  1  0.67269400  0.88742650  0.08277715  1.0
  Ni  Ni270  1  0.30440400  0.16365300  0.16459545  1.0
  Ni  Ni271  1  0.30440400  0.49698633  0.16459545  1.0
  Ni  Ni272  1  0.30440400  0.83031967  0.16459545  1.0
  Ni  Ni273  1  0.63773733  0.16365300  0.16459545  1.0
  Ni  Ni274  1  0.63773733  0.49698633  0.16459545  1.0
  Ni  Ni275  1  0.63773733  0.83031967  0.16459545  1.0
  Ni  Ni276  1  0.97107067  0.16365300  0.16459545  1.0
  Ni  Ni277  1  0.97107067  0.49698633  0.16459545  1.0
  Ni  Ni278  1  0.97107067  0.83031967  0.16459545  1.0
  Ni  Ni279  1  0.30440400  0.33031967  0.06459545  1.0
  Ni  Ni280  1  0.30440400  0.66365300  0.06459545  1.0
  Ni  Ni281  1  0.30440400  0.99698633  0.06459545  1.0
  Ni  Ni282  1  0.63773733  0.33031967  0.06459545  1.0
  Ni  Ni283  1  0.63773733  0.66365300  0.06459545  1.0
  Ni  Ni284  1  0.63773733  0.99698633  0.06459545  1.0
  Ni  Ni285  1  0.97107067  0.33031967  0.06459545  1.0
  Ni  Ni286  1  0.97107067  0.66365300  0.06459545  1.0
  Ni  Ni287  1  0.97107067  0.99698633  0.06459545  1.0
  Ni  Ni288  1  0.10818633  0.09509517  0.00573015  1.0
  Ni  Ni289  1  0.10818633  0.42842850  0.00573015  1.0
  Ni  Ni290  1  0.10818633  0.76176183  0.00573015  1.0
  Ni  Ni291  1  0.44151967  0.09509517  0.00573015  1.0
  Ni  Ni292  1  0.44151967  0.42842850  0.00573015  1.0
  Ni  Ni293  1  0.44151967  0.76176183  0.00573015  1.0
  Ni  Ni294  1  0.77485300  0.09509517  0.00573015  1.0
  Ni  Ni295  1  0.77485300  0.42842850  0.00573015  1.0
  Ni  Ni296  1  0.77485300  0.76176183  0.00573015  1.0
  Ni  Ni297  1  0.10818633  0.26176183  0.10573015  1.0
  Ni  Ni298  1  0.10818633  0.59509517  0.10573015  1.0
  Ni  Ni299  1  0.10818633  0.92842850  0.10573015  1.0
  Ni  Ni300  1  0.44151967  0.26176183  0.10573015  1.0
  Ni  Ni301  1  0.44151967  0.59509517  0.10573015  1.0
  Ni  Ni302  1  0.44151967  0.92842850  0.10573015  1.0
  Ni  Ni303  1  0.77485300  0.26176183  0.10573015  1.0
  Ni  Ni304  1  0.77485300  0.59509517  0.10573015  1.0
  Ni  Ni305  1  0.77485300  0.92842850  0.10573015  1.0
  Ni  Ni306  1  0.14314300  0.15220200  0.12391185  1.0
  Ni  Ni307  1  0.14314300  0.48553533  0.12391185  1.0
  Ni  Ni308  1  0.14314300  0.81886867  0.12391185  1.0
  Ni  Ni309  1  0.47647633  0.15220200  0.12391185  1.0
  Ni  Ni310  1  0.47647633  0.48553533  0.12391185  1.0
  Ni  Ni311  1  0.47647633  0.81886867  0.12391185  1.0
  Ni  Ni312  1  0.80980967  0.15220200  0.12391185  1.0
  Ni  Ni313  1  0.80980967  0.48553533  0.12391185  1.0
  Ni  Ni314  1  0.80980967  0.81886867  0.12391185  1.0
  Ni  Ni315  1  0.14314300  0.31886867  0.02391185  1.0
  Ni  Ni316  1  0.14314300  0.65220200  0.02391185  1.0
  Ni  Ni317  1  0.14314300  0.98553533  0.02391185  1.0
  Ni  Ni318  1  0.47647633  0.31886867  0.02391185  1.0
  Ni  Ni319  1  0.47647633  0.65220200  0.02391185  1.0
  Ni  Ni320  1  0.47647633  0.98553533  0.02391185  1.0
  Ni  Ni321  1  0.80980967  0.31886867  0.02391185  1.0
  Ni  Ni322  1  0.80980967  0.65220200  0.02391185  1.0
  Ni  Ni323  1  0.80980967  0.98553533  0.02391185  1.0
  Ni  Ni324  1  0.32730600  0.11257350  0.10574095  1.0
  Ni  Ni325  1  0.32730600  0.44590683  0.10574095  1.0
  Ni  Ni326  1  0.32730600  0.77924017  0.10574095  1.0
  Ni  Ni327  1  0.66063933  0.11257350  0.10574095  1.0
  Ni  Ni328  1  0.66063933  0.44590683  0.10574095  1.0
  Ni  Ni329  1  0.66063933  0.77924017  0.10574095  1.0
  Ni  Ni330  1  0.99397267  0.11257350  0.10574095  1.0
  Ni  Ni331  1  0.99397267  0.44590683  0.10574095  1.0
  Ni  Ni332  1  0.99397267  0.77924017  0.10574095  1.0
  Ni  Ni333  1  0.32730600  0.27924017  0.00574095  1.0
  Ni  Ni334  1  0.32730600  0.61257350  0.00574095  1.0
  Ni  Ni335  1  0.32730600  0.94590683  0.00574095  1.0
  Ni  Ni336  1  0.66063933  0.27924017  0.00574095  1.0
  Ni  Ni337  1  0.66063933  0.61257350  0.00574095  1.0
  Ni  Ni338  1  0.66063933  0.94590683  0.00574095  1.0
  Ni  Ni339  1  0.99397267  0.27924017  0.00574095  1.0
  Ni  Ni340  1  0.99397267  0.61257350  0.00574095  1.0
  Ni  Ni341  1  0.99397267  0.94590683  0.00574095  1.0
  Ni  Ni342  1  0.02892933  0.00301367  0.12392265  1.0
  Ni  Ni343  1  0.02892933  0.33634700  0.12392265  1.0
  Ni  Ni344  1  0.02892933  0.66968033  0.12392265  1.0
  Ni  Ni345  1  0.36226267  0.00301367  0.12392265  1.0
  Ni  Ni346  1  0.36226267  0.33634700  0.12392265  1.0
  Ni  Ni347  1  0.36226267  0.66968033  0.12392265  1.0
  Ni  Ni348  1  0.69559600  0.00301367  0.12392265  1.0
  Ni  Ni349  1  0.69559600  0.33634700  0.12392265  1.0
  Ni  Ni350  1  0.69559600  0.66968033  0.12392265  1.0
  Ni  Ni351  1  0.02892933  0.16968033  0.02392265  1.0
  Ni  Ni352  1  0.02892933  0.50301367  0.02392265  1.0
  Ni  Ni353  1  0.02892933  0.83634700  0.02392265  1.0
  Ni  Ni354  1  0.36226267  0.16968033  0.02392265  1.0
  Ni  Ni355  1  0.36226267  0.50301367  0.02392265  1.0
  Ni  Ni356  1  0.36226267  0.83634700  0.02392265  1.0
  Ni  Ni357  1  0.69559600  0.16968033  0.02392265  1.0
  Ni  Ni358  1  0.69559600  0.50301367  0.02392265  1.0
  Ni  Ni359  1  0.69559600  0.83634700  0.02392265  1.0
  Zr  Zr360  1  0.00000000  0.16666667  0.29425905  1.0
  Zr  Zr361  1  0.00000000  0.50000000  0.29425905  1.0
  Zr  Zr362  1  0.00000000  0.83333333  0.29425905  1.0
  Zr  Zr363  1  0.33333333  0.16666667  0.29425905  1.0
  Zr  Zr364  1  0.33333333  0.50000000  0.29425905  1.0
  Zr  Zr365  1  0.33333333  0.83333333  0.29425905  1.0
  Zr  Zr366  1  0.66666667  0.16666667  0.29425905  1.0
  Zr  Zr367  1  0.66666667  0.50000000  0.29425905  1.0
  Zr  Zr368  1  0.66666667  0.83333333  0.29425905  1.0
  Zr  Zr369  1  0.00000000  0.00000000  0.39425905  1.0
  Zr  Zr370  1  0.00000000  0.33333333  0.39425905  1.0
  Zr  Zr371  1  0.00000000  0.66666667  0.39425905  1.0
  Zr  Zr372  1  0.33333333  0.00000000  0.39425905  1.0
  Zr  Zr373  1  0.33333333  0.33333333  0.39425905  1.0
  Zr  Zr374  1  0.33333333  0.66666667  0.39425905  1.0
  Zr  Zr375  1  0.66666667  0.00000000  0.39425905  1.0
  Zr  Zr376  1  0.66666667  0.33333333  0.39425905  1.0
  Zr  Zr377  1  0.66666667  0.66666667  0.39425905  1.0
  Zr  Zr378  1  0.25081367  0.06919650  0.22019355  1.0
  Zr  Zr379  1  0.25081367  0.40252983  0.22019355  1.0
  Zr  Zr380  1  0.25081367  0.73586317  0.22019355  1.0
  Zr  Zr381  1  0.58414700  0.06919650  0.22019355  1.0
  Zr  Zr382  1  0.58414700  0.40252983  0.22019355  1.0
  Zr  Zr383  1  0.58414700  0.73586317  0.22019355  1.0
  Zr  Zr384  1  0.91748033  0.06919650  0.22019355  1.0
  Zr  Zr385  1  0.91748033  0.40252983  0.22019355  1.0
  Zr  Zr386  1  0.91748033  0.73586317  0.22019355  1.0
  Zr  Zr387  1  0.25081367  0.23586317  0.32019355  1.0
  Zr  Zr388  1  0.25081367  0.56919650  0.32019355  1.0
  Zr  Zr389  1  0.25081367  0.90252983  0.32019355  1.0
  Zr  Zr390  1  0.58414700  0.23586317  0.32019355  1.0
  Zr  Zr391  1  0.58414700  0.56919650  0.32019355  1.0
  Zr  Zr392  1  0.58414700  0.90252983  0.32019355  1.0
  Zr  Zr393  1  0.91748033  0.23586317  0.32019355  1.0
  Zr  Zr394  1  0.91748033  0.56919650  0.32019355  1.0
  Zr  Zr395  1  0.91748033  0.90252983  0.32019355  1.0
  Zr  Zr396  1  0.19494033  0.12540683  0.28549095  1.0
  Zr  Zr397  1  0.19494033  0.45874017  0.28549095  1.0
  Zr  Zr398  1  0.19494033  0.79207350  0.28549095  1.0
  Zr  Zr399  1  0.52827367  0.12540683  0.28549095  1.0
  Zr  Zr400  1  0.52827367  0.45874017  0.28549095  1.0
  Zr  Zr401  1  0.52827367  0.79207350  0.28549095  1.0
  Zr  Zr402  1  0.86160700  0.12540683  0.28549095  1.0
  Zr  Zr403  1  0.86160700  0.45874017  0.28549095  1.0
  Zr  Zr404  1  0.86160700  0.79207350  0.28549095  1.0
  Zr  Zr405  1  0.19494033  0.29207350  0.38549095  1.0
  Zr  Zr406  1  0.19494033  0.62540683  0.38549095  1.0
  Zr  Zr407  1  0.19494033  0.95874017  0.38549095  1.0
  Zr  Zr408  1  0.52827367  0.29207350  0.38549095  1.0
  Zr  Zr409  1  0.52827367  0.62540683  0.38549095  1.0
  Zr  Zr410  1  0.52827367  0.95874017  0.38549095  1.0
  Zr  Zr411  1  0.86160700  0.29207350  0.38549095  1.0
  Zr  Zr412  1  0.86160700  0.62540683  0.38549095  1.0
  Zr  Zr413  1  0.86160700  0.95874017  0.38549095  1.0
  Zr  Zr414  1  0.13839300  0.04125983  0.20302715  1.0
  Zr  Zr415  1  0.13839300  0.37459317  0.20302715  1.0
  Zr  Zr416  1  0.13839300  0.70792650  0.20302715  1.0
  Zr  Zr417  1  0.47172633  0.04125983  0.20302715  1.0
  Zr  Zr418  1  0.47172633  0.37459317  0.20302715  1.0
  Zr  Zr419  1  0.47172633  0.70792650  0.20302715  1.0
  Zr  Zr420  1  0.80505967  0.04125983  0.20302715  1.0
  Zr  Zr421  1  0.80505967  0.37459317  0.20302715  1.0
  Zr  Zr422  1  0.80505967  0.70792650  0.20302715  1.0
  Zr  Zr423  1  0.13839300  0.20792650  0.30302715  1.0
  Zr  Zr424  1  0.13839300  0.54125983  0.30302715  1.0
  Zr  Zr425  1  0.13839300  0.87459317  0.30302715  1.0
  Zr  Zr426  1  0.47172633  0.20792650  0.30302715  1.0
  Zr  Zr427  1  0.47172633  0.54125983  0.30302715  1.0
  Zr  Zr428  1  0.47172633  0.87459317  0.30302715  1.0
  Zr  Zr429  1  0.80505967  0.20792650  0.30302715  1.0
  Zr  Zr430  1  0.80505967  0.54125983  0.30302715  1.0
  Zr  Zr431  1  0.80505967  0.87459317  0.30302715  1.0
  Zr  Zr432  1  0.08251967  0.09747017  0.26832455  1.0
  Zr  Zr433  1  0.08251967  0.43080350  0.26832455  1.0
  Zr  Zr434  1  0.08251967  0.76413683  0.26832455  1.0
  Zr  Zr435  1  0.41585300  0.09747017  0.26832455  1.0
  Zr  Zr436  1  0.41585300  0.43080350  0.26832455  1.0
  Zr  Zr437  1  0.41585300  0.76413683  0.26832455  1.0
  Zr  Zr438  1  0.74918633  0.09747017  0.26832455  1.0
  Zr  Zr439  1  0.74918633  0.43080350  0.26832455  1.0
  Zr  Zr440  1  0.74918633  0.76413683  0.26832455  1.0
  Zr  Zr441  1  0.08251967  0.26413683  0.36832455  1.0
  Zr  Zr442  1  0.08251967  0.59747017  0.36832455  1.0
  Zr  Zr443  1  0.08251967  0.93080350  0.36832455  1.0
  Zr  Zr444  1  0.41585300  0.26413683  0.36832455  1.0
  Zr  Zr445  1  0.41585300  0.59747017  0.36832455  1.0
  Zr  Zr446  1  0.41585300  0.93080350  0.36832455  1.0
  Zr  Zr447  1  0.74918633  0.26413683  0.36832455  1.0
  Zr  Zr448  1  0.74918633  0.59747017  0.36832455  1.0
  Zr  Zr449  1  0.74918633  0.93080350  0.36832455  1.0
  Zr  Zr450  1  0.22955867  0.01509983  0.30481455  1.0
  Zr  Zr451  1  0.22955867  0.34843317  0.30481455  1.0
  Zr  Zr452  1  0.22955867  0.68176650  0.30481455  1.0
  Zr  Zr453  1  0.56289200  0.01509983  0.30481455  1.0
  Zr  Zr454  1  0.56289200  0.34843317  0.30481455  1.0
  Zr  Zr455  1  0.56289200  0.68176650  0.30481455  1.0
  Zr  Zr456  1  0.89622533  0.01509983  0.30481455  1.0
  Zr  Zr457  1  0.89622533  0.34843317  0.30481455  1.0
  Zr  Zr458  1  0.89622533  0.68176650  0.30481455  1.0
  Zr  Zr459  1  0.22955867  0.18176650  0.20481455  1.0
  Zr  Zr460  1  0.22955867  0.51509983  0.20481455  1.0
  Zr  Zr461  1  0.22955867  0.84843317  0.20481455  1.0
  Zr  Zr462  1  0.56289200  0.18176650  0.20481455  1.0
  Zr  Zr463  1  0.56289200  0.51509983  0.20481455  1.0
  Zr  Zr464  1  0.56289200  0.84843317  0.20481455  1.0
  Zr  Zr465  1  0.89622533  0.18176650  0.20481455  1.0
  Zr  Zr466  1  0.89622533  0.51509983  0.20481455  1.0
  Zr  Zr467  1  0.89622533  0.84843317  0.20481455  1.0
  Zr  Zr468  1  0.30313367  0.11477933  0.36953645  1.0
  Zr  Zr469  1  0.30313367  0.44811267  0.36953645  1.0
  Zr  Zr470  1  0.30313367  0.78144600  0.36953645  1.0
  Zr  Zr471  1  0.63646700  0.11477933  0.36953645  1.0
  Zr  Zr472  1  0.63646700  0.44811267  0.36953645  1.0
  Zr  Zr473  1  0.63646700  0.78144600  0.36953645  1.0
  Zr  Zr474  1  0.96980033  0.11477933  0.36953645  1.0
  Zr  Zr475  1  0.96980033  0.44811267  0.36953645  1.0
  Zr  Zr476  1  0.96980033  0.78144600  0.36953645  1.0
  Zr  Zr477  1  0.30313367  0.28144600  0.26953645  1.0
  Zr  Zr478  1  0.30313367  0.61477933  0.26953645  1.0
  Zr  Zr479  1  0.30313367  0.94811267  0.26953645  1.0
  Zr  Zr480  1  0.63646700  0.28144600  0.26953645  1.0
  Zr  Zr481  1  0.63646700  0.61477933  0.26953645  1.0
  Zr  Zr482  1  0.63646700  0.94811267  0.26953645  1.0
  Zr  Zr483  1  0.96980033  0.28144600  0.26953645  1.0
  Zr  Zr484  1  0.96980033  0.61477933  0.26953645  1.0
  Zr  Zr485  1  0.96980033  0.94811267  0.26953645  1.0
  Zr  Zr486  1  0.03019967  0.05188733  0.31898165  1.0
  Zr  Zr487  1  0.03019967  0.38522067  0.31898165  1.0
  Zr  Zr488  1  0.03019967  0.71855400  0.31898165  1.0
  Zr  Zr489  1  0.36353300  0.05188733  0.31898165  1.0
  Zr  Zr490  1  0.36353300  0.38522067  0.31898165  1.0
  Zr  Zr491  1  0.36353300  0.71855400  0.31898165  1.0
  Zr  Zr492  1  0.69686633  0.05188733  0.31898165  1.0
  Zr  Zr493  1  0.69686633  0.38522067  0.31898165  1.0
  Zr  Zr494  1  0.69686633  0.71855400  0.31898165  1.0
  Zr  Zr495  1  0.03019967  0.21855400  0.21898165  1.0
  Zr  Zr496  1  0.03019967  0.55188733  0.21898165  1.0
  Zr  Zr497  1  0.03019967  0.88522067  0.21898165  1.0
  Zr  Zr498  1  0.36353300  0.21855400  0.21898165  1.0
  Zr  Zr499  1  0.36353300  0.55188733  0.21898165  1.0
  Zr  Zr500  1  0.36353300  0.88522067  0.21898165  1.0
  Zr  Zr501  1  0.69686633  0.21855400  0.21898165  1.0
  Zr  Zr502  1  0.69686633  0.55188733  0.21898165  1.0
  Zr  Zr503  1  0.69686633  0.88522067  0.21898165  1.0
  Zr  Zr504  1  0.10377467  0.15156683  0.38370355  1.0
  Zr  Zr505  1  0.10377467  0.48490017  0.38370355  1.0
  Zr  Zr506  1  0.10377467  0.81823350  0.38370355  1.0
  Zr  Zr507  1  0.43710800  0.15156683  0.38370355  1.0
  Zr  Zr508  1  0.43710800  0.48490017  0.38370355  1.0
  Zr  Zr509  1  0.43710800  0.81823350  0.38370355  1.0
  Zr  Zr510  1  0.77044133  0.15156683  0.38370355  1.0
  Zr  Zr511  1  0.77044133  0.48490017  0.38370355  1.0
  Zr  Zr512  1  0.77044133  0.81823350  0.38370355  1.0
  Zr  Zr513  1  0.10377467  0.31823350  0.28370355  1.0
  Zr  Zr514  1  0.10377467  0.65156683  0.28370355  1.0
  Zr  Zr515  1  0.10377467  0.98490017  0.28370355  1.0
  Zr  Zr516  1  0.43710800  0.31823350  0.28370355  1.0
  Zr  Zr517  1  0.43710800  0.65156683  0.28370355  1.0
  Zr  Zr518  1  0.43710800  0.98490017  0.28370355  1.0
  Zr  Zr519  1  0.77044133  0.31823350  0.28370355  1.0
  Zr  Zr520  1  0.77044133  0.65156683  0.28370355  1.0
  Zr  Zr521  1  0.77044133  0.98490017  0.28370355  1.0
  Ni  Ni522  1  0.16666667  0.08333333  0.34425905  1.0
  Ni  Ni523  1  0.16666667  0.41666667  0.34425905  1.0
  Ni  Ni524  1  0.16666667  0.75000000  0.34425905  1.0
  Ni  Ni525  1  0.50000000  0.08333333  0.34425905  1.0
  Ni  Ni526  1  0.50000000  0.41666667  0.34425905  1.0
  Ni  Ni527  1  0.50000000  0.75000000  0.34425905  1.0
  Ni  Ni528  1  0.83333333  0.08333333  0.34425905  1.0
  Ni  Ni529  1  0.83333333  0.41666667  0.34425905  1.0
  Ni  Ni530  1  0.83333333  0.75000000  0.34425905  1.0
  Ni  Ni531  1  0.16666667  0.25000000  0.24425905  1.0
  Ni  Ni532  1  0.16666667  0.58333333  0.24425905  1.0
  Ni  Ni533  1  0.16666667  0.91666667  0.24425905  1.0
  Ni  Ni534  1  0.50000000  0.25000000  0.24425905  1.0
  Ni  Ni535  1  0.50000000  0.58333333  0.24425905  1.0
  Ni  Ni536  1  0.50000000  0.91666667  0.24425905  1.0
  Ni  Ni537  1  0.83333333  0.25000000  0.24425905  1.0
  Ni  Ni538  1  0.83333333  0.58333333  0.24425905  1.0
  Ni  Ni539  1  0.83333333  0.91666667  0.24425905  1.0
  Ni  Ni540  1  0.08333333  0.04166667  0.26925905  1.0
  Ni  Ni541  1  0.08333333  0.37500000  0.26925905  1.0
  Ni  Ni542  1  0.08333333  0.70833333  0.26925905  1.0
  Ni  Ni543  1  0.41666667  0.04166667  0.26925905  1.0
  Ni  Ni544  1  0.41666667  0.37500000  0.26925905  1.0
  Ni  Ni545  1  0.41666667  0.70833333  0.26925905  1.0
  Ni  Ni546  1  0.75000000  0.04166667  0.26925905  1.0
  Ni  Ni547  1  0.75000000  0.37500000  0.26925905  1.0
  Ni  Ni548  1  0.75000000  0.70833333  0.26925905  1.0
  Ni  Ni549  1  0.08333333  0.20833333  0.36925905  1.0
  Ni  Ni550  1  0.08333333  0.54166667  0.36925905  1.0
  Ni  Ni551  1  0.08333333  0.87500000  0.36925905  1.0
  Ni  Ni552  1  0.41666667  0.20833333  0.36925905  1.0
  Ni  Ni553  1  0.41666667  0.54166667  0.36925905  1.0
  Ni  Ni554  1  0.41666667  0.87500000  0.36925905  1.0
  Ni  Ni555  1  0.75000000  0.20833333  0.36925905  1.0
  Ni  Ni556  1  0.75000000  0.54166667  0.36925905  1.0
  Ni  Ni557  1  0.75000000  0.87500000  0.36925905  1.0
  Ni  Ni558  1  0.25000000  0.12500000  0.21925905  1.0
  Ni  Ni559  1  0.25000000  0.45833333  0.21925905  1.0
  Ni  Ni560  1  0.25000000  0.79166667  0.21925905  1.0
  Ni  Ni561  1  0.58333333  0.12500000  0.21925905  1.0
  Ni  Ni562  1  0.58333333  0.45833333  0.21925905  1.0
  Ni  Ni563  1  0.58333333  0.79166667  0.21925905  1.0
  Ni  Ni564  1  0.91666667  0.12500000  0.21925905  1.0
  Ni  Ni565  1  0.91666667  0.45833333  0.21925905  1.0
  Ni  Ni566  1  0.91666667  0.79166667  0.21925905  1.0
  Ni  Ni567  1  0.25000000  0.29166667  0.31925905  1.0
  Ni  Ni568  1  0.25000000  0.62500000  0.31925905  1.0
  Ni  Ni569  1  0.25000000  0.95833333  0.31925905  1.0
  Ni  Ni570  1  0.58333333  0.29166667  0.31925905  1.0
  Ni  Ni571  1  0.58333333  0.62500000  0.31925905  1.0
  Ni  Ni572  1  0.58333333  0.95833333  0.31925905  1.0
  Ni  Ni573  1  0.91666667  0.29166667  0.31925905  1.0
  Ni  Ni574  1  0.91666667  0.62500000  0.31925905  1.0
  Ni  Ni575  1  0.91666667  0.95833333  0.31925905  1.0
  Ni  Ni576  1  0.22514700  0.07157150  0.28278795  1.0
  Ni  Ni577  1  0.22514700  0.40490483  0.28278795  1.0
  Ni  Ni578  1  0.22514700  0.73823817  0.28278795  1.0
  Ni  Ni579  1  0.55848033  0.07157150  0.28278795  1.0
  Ni  Ni580  1  0.55848033  0.40490483  0.28278795  1.0
  Ni  Ni581  1  0.55848033  0.73823817  0.28278795  1.0
  Ni  Ni582  1  0.89181367  0.07157150  0.28278795  1.0
  Ni  Ni583  1  0.89181367  0.40490483  0.28278795  1.0
  Ni  Ni584  1  0.89181367  0.73823817  0.28278795  1.0
  Ni  Ni585  1  0.22514700  0.23823817  0.38278795  1.0
  Ni  Ni586  1  0.22514700  0.57157150  0.38278795  1.0
  Ni  Ni587  1  0.22514700  0.90490483  0.38278795  1.0
  Ni  Ni588  1  0.55848033  0.23823817  0.38278795  1.0
  Ni  Ni589  1  0.55848033  0.57157150  0.38278795  1.0
  Ni  Ni590  1  0.55848033  0.90490483  0.38278795  1.0
  Ni  Ni591  1  0.89181367  0.23823817  0.38278795  1.0
  Ni  Ni592  1  0.89181367  0.57157150  0.38278795  1.0
  Ni  Ni593  1  0.89181367  0.90490483  0.38278795  1.0
  Ni  Ni594  1  0.19019033  0.01446467  0.36460625  1.0
  Ni  Ni595  1  0.19019033  0.34779800  0.36460625  1.0
  Ni  Ni596  1  0.19019033  0.68113133  0.36460625  1.0
  Ni  Ni597  1  0.52352367  0.01446467  0.36460625  1.0
  Ni  Ni598  1  0.52352367  0.34779800  0.36460625  1.0
  Ni  Ni599  1  0.52352367  0.68113133  0.36460625  1.0
  Ni  Ni600  1  0.85685700  0.01446467  0.36460625  1.0
  Ni  Ni601  1  0.85685700  0.34779800  0.36460625  1.0
  Ni  Ni602  1  0.85685700  0.68113133  0.36460625  1.0
  Ni  Ni603  1  0.19019033  0.18113133  0.26460625  1.0
  Ni  Ni604  1  0.19019033  0.51446467  0.26460625  1.0
  Ni  Ni605  1  0.19019033  0.84779800  0.26460625  1.0
  Ni  Ni606  1  0.52352367  0.18113133  0.26460625  1.0
  Ni  Ni607  1  0.52352367  0.51446467  0.26460625  1.0
  Ni  Ni608  1  0.52352367  0.84779800  0.26460625  1.0
  Ni  Ni609  1  0.85685700  0.18113133  0.26460625  1.0
  Ni  Ni610  1  0.85685700  0.51446467  0.26460625  1.0
  Ni  Ni611  1  0.85685700  0.84779800  0.26460625  1.0
  Ni  Ni612  1  0.00602733  0.05409317  0.38277715  1.0
  Ni  Ni613  1  0.00602733  0.38742650  0.38277715  1.0
  Ni  Ni614  1  0.00602733  0.72075983  0.38277715  1.0
  Ni  Ni615  1  0.33936067  0.05409317  0.38277715  1.0
  Ni  Ni616  1  0.33936067  0.38742650  0.38277715  1.0
  Ni  Ni617  1  0.33936067  0.72075983  0.38277715  1.0
  Ni  Ni618  1  0.67269400  0.05409317  0.38277715  1.0
  Ni  Ni619  1  0.67269400  0.38742650  0.38277715  1.0
  Ni  Ni620  1  0.67269400  0.72075983  0.38277715  1.0
  Ni  Ni621  1  0.00602733  0.22075983  0.28277715  1.0
  Ni  Ni622  1  0.00602733  0.55409317  0.28277715  1.0
  Ni  Ni623  1  0.00602733  0.88742650  0.28277715  1.0
  Ni  Ni624  1  0.33936067  0.22075983  0.28277715  1.0
  Ni  Ni625  1  0.33936067  0.55409317  0.28277715  1.0
  Ni  Ni626  1  0.33936067  0.88742650  0.28277715  1.0
  Ni  Ni627  1  0.67269400  0.22075983  0.28277715  1.0
  Ni  Ni628  1  0.67269400  0.55409317  0.28277715  1.0
  Ni  Ni629  1  0.67269400  0.88742650  0.28277715  1.0
  Ni  Ni630  1  0.30440400  0.16365300  0.36459545  1.0
  Ni  Ni631  1  0.30440400  0.49698633  0.36459545  1.0
  Ni  Ni632  1  0.30440400  0.83031967  0.36459545  1.0
  Ni  Ni633  1  0.63773733  0.16365300  0.36459545  1.0
  Ni  Ni634  1  0.63773733  0.49698633  0.36459545  1.0
  Ni  Ni635  1  0.63773733  0.83031967  0.36459545  1.0
  Ni  Ni636  1  0.97107067  0.16365300  0.36459545  1.0
  Ni  Ni637  1  0.97107067  0.49698633  0.36459545  1.0
  Ni  Ni638  1  0.97107067  0.83031967  0.36459545  1.0
  Ni  Ni639  1  0.30440400  0.33031967  0.26459545  1.0
  Ni  Ni640  1  0.30440400  0.66365300  0.26459545  1.0
  Ni  Ni641  1  0.30440400  0.99698633  0.26459545  1.0
  Ni  Ni642  1  0.63773733  0.33031967  0.26459545  1.0
  Ni  Ni643  1  0.63773733  0.66365300  0.26459545  1.0
  Ni  Ni644  1  0.63773733  0.99698633  0.26459545  1.0
  Ni  Ni645  1  0.97107067  0.33031967  0.26459545  1.0
  Ni  Ni646  1  0.97107067  0.66365300  0.26459545  1.0
  Ni  Ni647  1  0.97107067  0.99698633  0.26459545  1.0
  Ni  Ni648  1  0.10818633  0.09509517  0.20573015  1.0
  Ni  Ni649  1  0.10818633  0.42842850  0.20573015  1.0
  Ni  Ni650  1  0.10818633  0.76176183  0.20573015  1.0
  Ni  Ni651  1  0.44151967  0.09509517  0.20573015  1.0
  Ni  Ni652  1  0.44151967  0.42842850  0.20573015  1.0
  Ni  Ni653  1  0.44151967  0.76176183  0.20573015  1.0
  Ni  Ni654  1  0.77485300  0.09509517  0.20573015  1.0
  Ni  Ni655  1  0.77485300  0.42842850  0.20573015  1.0
  Ni  Ni656  1  0.77485300  0.76176183  0.20573015  1.0
  Ni  Ni657  1  0.10818633  0.26176183  0.30573015  1.0
  Ni  Ni658  1  0.10818633  0.59509517  0.30573015  1.0
  Ni  Ni659  1  0.10818633  0.92842850  0.30573015  1.0
  Ni  Ni660  1  0.44151967  0.26176183  0.30573015  1.0
  Ni  Ni661  1  0.44151967  0.59509517  0.30573015  1.0
  Ni  Ni662  1  0.44151967  0.92842850  0.30573015  1.0
  Ni  Ni663  1  0.77485300  0.26176183  0.30573015  1.0
  Ni  Ni664  1  0.77485300  0.59509517  0.30573015  1.0
  Ni  Ni665  1  0.77485300  0.92842850  0.30573015  1.0
  Ni  Ni666  1  0.14314300  0.15220200  0.32391185  1.0
  Ni  Ni667  1  0.14314300  0.48553533  0.32391185  1.0
  Ni  Ni668  1  0.14314300  0.81886867  0.32391185  1.0
  Ni  Ni669  1  0.47647633  0.15220200  0.32391185  1.0
  Ni  Ni670  1  0.47647633  0.48553533  0.32391185  1.0
  Ni  Ni671  1  0.47647633  0.81886867  0.32391185  1.0
  Ni  Ni672  1  0.80980967  0.15220200  0.32391185  1.0
  Ni  Ni673  1  0.80980967  0.48553533  0.32391185  1.0
  Ni  Ni674  1  0.80980967  0.81886867  0.32391185  1.0
  Ni  Ni675  1  0.14314300  0.31886867  0.22391185  1.0
  Ni  Ni676  1  0.14314300  0.65220200  0.22391185  1.0
  Ni  Ni677  1  0.14314300  0.98553533  0.22391185  1.0
  Ni  Ni678  1  0.47647633  0.31886867  0.22391185  1.0
  Ni  Ni679  1  0.47647633  0.65220200  0.22391185  1.0
  Ni  Ni680  1  0.47647633  0.98553533  0.22391185  1.0
  Ni  Ni681  1  0.80980967  0.31886867  0.22391185  1.0
  Ni  Ni682  1  0.80980967  0.65220200  0.22391185  1.0
  Ni  Ni683  1  0.80980967  0.98553533  0.22391185  1.0
  Ni  Ni684  1  0.32730600  0.11257350  0.30574095  1.0
  Ni  Ni685  1  0.32730600  0.44590683  0.30574095  1.0
  Ni  Ni686  1  0.32730600  0.77924017  0.30574095  1.0
  Ni  Ni687  1  0.66063933  0.11257350  0.30574095  1.0
  Ni  Ni688  1  0.66063933  0.44590683  0.30574095  1.0
  Ni  Ni689  1  0.66063933  0.77924017  0.30574095  1.0
  Ni  Ni690  1  0.99397267  0.11257350  0.30574095  1.0
  Ni  Ni691  1  0.99397267  0.44590683  0.30574095  1.0
  Ni  Ni692  1  0.99397267  0.77924017  0.30574095  1.0
  Ni  Ni693  1  0.32730600  0.27924017  0.20574095  1.0
  Ni  Ni694  1  0.32730600  0.61257350  0.20574095  1.0
  Ni  Ni695  1  0.32730600  0.94590683  0.20574095  1.0
  Ni  Ni696  1  0.66063933  0.27924017  0.20574095  1.0
  Ni  Ni697  1  0.66063933  0.61257350  0.20574095  1.0
  Ni  Ni698  1  0.66063933  0.94590683  0.20574095  1.0
  Ni  Ni699  1  0.99397267  0.27924017  0.20574095  1.0
  Ni  Ni700  1  0.99397267  0.61257350  0.20574095  1.0
  Ni  Ni701  1  0.99397267  0.94590683  0.20574095  1.0
  Ni  Ni702  1  0.02892933  0.00301367  0.32392265  1.0
  Ni  Ni703  1  0.02892933  0.33634700  0.32392265  1.0
  Ni  Ni704  1  0.02892933  0.66968033  0.32392265  1.0
  Ni  Ni705  1  0.36226267  0.00301367  0.32392265  1.0
  Ni  Ni706  1  0.36226267  0.33634700  0.32392265  1.0
  Ni  Ni707  1  0.36226267  0.66968033  0.32392265  1.0
  Ni  Ni708  1  0.69559600  0.00301367  0.32392265  1.0
  Ni  Ni709  1  0.69559600  0.33634700  0.32392265  1.0
  Ni  Ni710  1  0.69559600  0.66968033  0.32392265  1.0
  Ni  Ni711  1  0.02892933  0.16968033  0.22392265  1.0
  Ni  Ni712  1  0.02892933  0.50301367  0.22392265  1.0
  Ni  Ni713  1  0.02892933  0.83634700  0.22392265  1.0
  Ni  Ni714  1  0.36226267  0.16968033  0.22392265  1.0
  Ni  Ni715  1  0.36226267  0.50301367  0.22392265  1.0
  Ni  Ni716  1  0.36226267  0.83634700  0.22392265  1.0
  Ni  Ni717  1  0.69559600  0.16968033  0.22392265  1.0
  Ni  Ni718  1  0.69559600  0.50301367  0.22392265  1.0
  Ni  Ni719  1  0.69559600  0.83634700  0.22392265  1.0
