# generated using pymatgen
data_Zr9Ni11
_symmetry_space_group_name_H-M   'P 1'
_cell_length_a   29.97939001
_cell_length_b   48.38643585
_cell_length_c   29.98282528
_cell_angle_alpha   84.73128885
_cell_angle_beta   80.40704140
_cell_angle_gamma   71.95334859
_symmetry_Int_Tables_number   1
_chemical_formula_structural   Zr9Ni11
_chemical_formula_sum   'Zr486 Ni594'
_cell_volume   40737.53994291
_cell_formula_units_Z   54
loop_
 _symmetry_equiv_pos_site_id
 _symmetry_equiv_pos_as_xyz
  1  'x, y, z'
loop_
 _atom_site_type_symbol
 _atom_site_label
 _atom_site_symmetry_multiplicity
 _atom_site_fract_x
 _atom_site_fract_y
 _atom_site_fract_z
 _atom_site_occupancy
  Ni  Ni0  1  0.31275949  0.01406188  0.10390718  1.0
  Ni  Ni1  1  0.31275949  0.34739521  0.10390718  1.0
  Ni  Ni2  1  0.31275949  0.68072855  0.10390718  1.0
  Ni  Ni3  1  0.64609282  0.01406188  0.10390718  1.0
  Ni  Ni4  1  0.64609282  0.34739521  0.10390718  1.0
  Ni  Ni5  1  0.64609282  0.68072855  0.10390718  1.0
  Ni  Ni6  1  0.97942615  0.01406188  0.10390718  1.0
  Ni  Ni7  1  0.97942615  0.34739521  0.10390718  1.0
  Ni  Ni8  1  0.97942615  0.68072855  0.10390718  1.0
  Ni  Ni9  1  0.21752139  0.22834760  0.03247861  1.0
  Ni  Ni10  1  0.21752139  0.56168093  0.03247861  1.0
  Ni  Ni11  1  0.21752139  0.89501426  0.03247861  1.0
  Ni  Ni12  1  0.55085473  0.22834760  0.03247861  1.0
  Ni  Ni13  1  0.55085473  0.56168093  0.03247861  1.0
  Ni  Ni14  1  0.55085473  0.89501426  0.03247861  1.0
  Ni  Ni15  1  0.88418806  0.22834760  0.03247861  1.0
  Ni  Ni16  1  0.88418806  0.56168093  0.03247861  1.0
  Ni  Ni17  1  0.88418806  0.89501426  0.03247861  1.0
  Ni  Ni18  1  0.25323568  0.12715712  0.12176432  1.0
  Ni  Ni19  1  0.25323568  0.46049045  0.12176432  1.0
  Ni  Ni20  1  0.25323568  0.79382379  0.12176432  1.0
  Ni  Ni21  1  0.58656901  0.12715712  0.12176432  1.0
  Ni  Ni22  1  0.58656901  0.46049045  0.12176432  1.0
  Ni  Ni23  1  0.58656901  0.79382379  0.12176432  1.0
  Ni  Ni24  1  0.91990235  0.12715712  0.12176432  1.0
  Ni  Ni25  1  0.91990235  0.46049045  0.12176432  1.0
  Ni  Ni26  1  0.91990235  0.79382379  0.12176432  1.0
  Ni  Ni27  1  0.15799758  0.00810950  0.05033575  1.0
  Ni  Ni28  1  0.15799758  0.34144283  0.05033575  1.0
  Ni  Ni29  1  0.15799758  0.67477617  0.05033575  1.0
  Ni  Ni30  1  0.49133092  0.00810950  0.05033575  1.0
  Ni  Ni31  1  0.49133092  0.34144283  0.05033575  1.0
  Ni  Ni32  1  0.49133092  0.67477617  0.05033575  1.0
  Ni  Ni33  1  0.82466425  0.00810950  0.05033575  1.0
  Ni  Ni34  1  0.82466425  0.34144283  0.05033575  1.0
  Ni  Ni35  1  0.82466425  0.67477617  0.05033575  1.0
  Ni  Ni36  1  0.27704520  0.11525236  0.01462146  1.0
  Ni  Ni37  1  0.27704520  0.44858569  0.01462146  1.0
  Ni  Ni38  1  0.27704520  0.78191902  0.01462146  1.0
  Ni  Ni39  1  0.61037854  0.11525236  0.01462146  1.0
  Ni  Ni40  1  0.61037854  0.44858569  0.01462146  1.0
  Ni  Ni41  1  0.61037854  0.78191902  0.01462146  1.0
  Ni  Ni42  1  0.94371187  0.11525236  0.01462146  1.0
  Ni  Ni43  1  0.94371187  0.44858569  0.01462146  1.0
  Ni  Ni44  1  0.94371187  0.78191902  0.01462146  1.0
  Ni  Ni45  1  0.03894996  0.23429998  0.08605004  1.0
  Ni  Ni46  1  0.03894996  0.56763331  0.08605004  1.0
  Ni  Ni47  1  0.03894996  0.90096664  0.08605004  1.0
  Ni  Ni48  1  0.37228330  0.23429998  0.08605004  1.0
  Ni  Ni49  1  0.37228330  0.56763331  0.08605004  1.0
  Ni  Ni50  1  0.37228330  0.90096664  0.08605004  1.0
  Ni  Ni51  1  0.70561663  0.23429998  0.08605004  1.0
  Ni  Ni52  1  0.70561663  0.56763331  0.08605004  1.0
  Ni  Ni53  1  0.70561663  0.90096664  0.08605004  1.0
  Ni  Ni54  1  0.14961835  0.07815412  0.12824832  1.0
  Ni  Ni55  1  0.14961835  0.41148745  0.12824832  1.0
  Ni  Ni56  1  0.14961835  0.74482079  0.12824832  1.0
  Ni  Ni57  1  0.48295168  0.07815412  0.12824832  1.0
  Ni  Ni58  1  0.48295168  0.41148745  0.12824832  1.0
  Ni  Ni59  1  0.48295168  0.74482079  0.12824832  1.0
  Ni  Ni60  1  0.81628501  0.07815412  0.12824832  1.0
  Ni  Ni61  1  0.81628501  0.41148745  0.12824832  1.0
  Ni  Ni62  1  0.81628501  0.74482079  0.12824832  1.0
  Ni  Ni63  1  0.05438025  0.29243983  0.05681975  1.0
  Ni  Ni64  1  0.05438025  0.62577317  0.05681975  1.0
  Ni  Ni65  1  0.05438025  0.95910650  0.05681975  1.0
  Ni  Ni66  1  0.38771358  0.29243983  0.05681975  1.0
  Ni  Ni67  1  0.38771358  0.62577317  0.05681975  1.0
  Ni  Ni68  1  0.38771358  0.95910650  0.05681975  1.0
  Ni  Ni69  1  0.72104692  0.29243983  0.05681975  1.0
  Ni  Ni70  1  0.72104692  0.62577317  0.05681975  1.0
  Ni  Ni71  1  0.72104692  0.95910650  0.05681975  1.0
  Ni  Ni72  1  0.15194254  0.15157719  0.10377396  1.0
  Ni  Ni73  1  0.15194254  0.48491052  0.10377396  1.0
  Ni  Ni74  1  0.15194254  0.81824386  0.10377396  1.0
  Ni  Ni75  1  0.48527587  0.15157719  0.10377396  1.0
  Ni  Ni76  1  0.48527587  0.48491052  0.10377396  1.0
  Ni  Ni77  1  0.48527587  0.81824386  0.10377396  1.0
  Ni  Ni78  1  0.81860920  0.15157719  0.10377396  1.0
  Ni  Ni79  1  0.81860920  0.48491052  0.10377396  1.0
  Ni  Ni80  1  0.81860920  0.81824386  0.10377396  1.0
  Ni  Ni81  1  0.05670444  0.03252957  0.03234539  1.0
  Ni  Ni82  1  0.05670444  0.36586290  0.03234539  1.0
  Ni  Ni83  1  0.05670444  0.69919624  0.03234539  1.0
  Ni  Ni84  1  0.39003777  0.03252957  0.03234539  1.0
  Ni  Ni85  1  0.39003777  0.36586290  0.03234539  1.0
  Ni  Ni86  1  0.39003777  0.69919624  0.03234539  1.0
  Ni  Ni87  1  0.72337111  0.03252957  0.03234539  1.0
  Ni  Ni88  1  0.72337111  0.36586290  0.03234539  1.0
  Ni  Ni89  1  0.72337111  0.69919624  0.03234539  1.0
  Ni  Ni90  1  0.02541706  0.10062626  0.12075761  1.0
  Ni  Ni91  1  0.02541706  0.43395960  0.12075761  1.0
  Ni  Ni92  1  0.02541706  0.76729293  0.12075761  1.0
  Ni  Ni93  1  0.35875039  0.10062626  0.12075761  1.0
  Ni  Ni94  1  0.35875039  0.43395960  0.12075761  1.0
  Ni  Ni95  1  0.35875039  0.76729293  0.12075761  1.0
  Ni  Ni96  1  0.69208373  0.10062626  0.12075761  1.0
  Ni  Ni97  1  0.69208373  0.43395960  0.12075761  1.0
  Ni  Ni98  1  0.69208373  0.76729293  0.12075761  1.0
  Ni  Ni99  1  0.26351230  0.31491198  0.04932904  1.0
  Ni  Ni100  1  0.26351230  0.64824531  0.04932904  1.0
  Ni  Ni101  1  0.26351230  0.98157864  0.04932904  1.0
  Ni  Ni102  1  0.59684563  0.31491198  0.04932904  1.0
  Ni  Ni103  1  0.59684563  0.64824531  0.04932904  1.0
  Ni  Ni104  1  0.59684563  0.98157864  0.04932904  1.0
  Ni  Ni105  1  0.93017896  0.31491198  0.04932904  1.0
  Ni  Ni106  1  0.93017896  0.64824531  0.04932904  1.0
  Ni  Ni107  1  0.93017896  0.98157864  0.04932904  1.0
  Ni  Ni108  1  0.26583649  0.05500171  0.02485468  1.0
  Ni  Ni109  1  0.26583649  0.38833505  0.02485468  1.0
  Ni  Ni110  1  0.26583649  0.72166838  0.02485468  1.0
  Ni  Ni111  1  0.59916982  0.05500171  0.02485468  1.0
  Ni  Ni112  1  0.59916982  0.38833505  0.02485468  1.0
  Ni  Ni113  1  0.59916982  0.72166838  0.02485468  1.0
  Ni  Ni114  1  0.93250315  0.05500171  0.02485468  1.0
  Ni  Ni115  1  0.93250315  0.38833505  0.02485468  1.0
  Ni  Ni116  1  0.93250315  0.72166838  0.02485468  1.0
  Ni  Ni117  1  0.02774125  0.17404933  0.09628325  1.0
  Ni  Ni118  1  0.02774125  0.50738267  0.09628325  1.0
  Ni  Ni119  1  0.02774125  0.84071600  0.09628325  1.0
  Ni  Ni120  1  0.36107458  0.17404933  0.09628325  1.0
  Ni  Ni121  1  0.36107458  0.50738267  0.09628325  1.0
  Ni  Ni122  1  0.36107458  0.84071600  0.09628325  1.0
  Ni  Ni123  1  0.69440792  0.17404933  0.09628325  1.0
  Ni  Ni124  1  0.69440792  0.50738267  0.09628325  1.0
  Ni  Ni125  1  0.69440792  0.84071600  0.09628325  1.0
  Ni  Ni126  1  0.04732920  0.16425536  0.00813746  1.0
  Ni  Ni127  1  0.04732920  0.49758869  0.00813746  1.0
  Ni  Ni128  1  0.04732920  0.83092202  0.00813746  1.0
  Ni  Ni129  1  0.38066254  0.16425536  0.00813746  1.0
  Ni  Ni130  1  0.38066254  0.49758869  0.00813746  1.0
  Ni  Ni131  1  0.38066254  0.83092202  0.00813746  1.0
  Ni  Ni132  1  0.71399587  0.16425536  0.00813746  1.0
  Ni  Ni133  1  0.71399587  0.49758869  0.00813746  1.0
  Ni  Ni134  1  0.71399587  0.83092202  0.00813746  1.0
  Ni  Ni135  1  0.14256730  0.28330298  0.07956604  1.0
  Ni  Ni136  1  0.14256730  0.61663631  0.07956604  1.0
  Ni  Ni137  1  0.14256730  0.94996964  0.07956604  1.0
  Ni  Ni138  1  0.47590063  0.28330298  0.07956604  1.0
  Ni  Ni139  1  0.47590063  0.61663631  0.07956604  1.0
  Ni  Ni140  1  0.47590063  0.94996964  0.07956604  1.0
  Ni  Ni141  1  0.80923396  0.28330298  0.07956604  1.0
  Ni  Ni142  1  0.80923396  0.61663631  0.07956604  1.0
  Ni  Ni143  1  0.80923396  0.94996964  0.07956604  1.0
  Ni  Ni144  1  0.04500501  0.09083229  0.03261182  1.0
  Ni  Ni145  1  0.04500501  0.42416562  0.03261182  1.0
  Ni  Ni146  1  0.04500501  0.75749895  0.03261182  1.0
  Ni  Ni147  1  0.37833835  0.09083229  0.03261182  1.0
  Ni  Ni148  1  0.37833835  0.42416562  0.03261182  1.0
  Ni  Ni149  1  0.37833835  0.75749895  0.03261182  1.0
  Ni  Ni150  1  0.71167168  0.09083229  0.03261182  1.0
  Ni  Ni151  1  0.71167168  0.42416562  0.03261182  1.0
  Ni  Ni152  1  0.71167168  0.75749895  0.03261182  1.0
  Ni  Ni153  1  0.14024311  0.20987990  0.10404039  1.0
  Ni  Ni154  1  0.14024311  0.54321324  0.10404039  1.0
  Ni  Ni155  1  0.14024311  0.87654657  0.10404039  1.0
  Ni  Ni156  1  0.47357644  0.20987990  0.10404039  1.0
  Ni  Ni157  1  0.47357644  0.54321324  0.10404039  1.0
  Ni  Ni158  1  0.47357644  0.87654657  0.10404039  1.0
  Ni  Ni159  1  0.80690977  0.20987990  0.10404039  1.0
  Ni  Ni160  1  0.80690977  0.54321324  0.10404039  1.0
  Ni  Ni161  1  0.80690977  0.87654657  0.10404039  1.0
  Ni  Ni162  1  0.17153049  0.14178321  0.01562818  1.0
  Ni  Ni163  1  0.17153049  0.47511655  0.01562818  1.0
  Ni  Ni164  1  0.17153049  0.80844988  0.01562818  1.0
  Ni  Ni165  1  0.50486382  0.14178321  0.01562818  1.0
  Ni  Ni166  1  0.50486382  0.47511655  0.01562818  1.0
  Ni  Ni167  1  0.50486382  0.80844988  0.01562818  1.0
  Ni  Ni168  1  0.83819715  0.14178321  0.01562818  1.0
  Ni  Ni169  1  0.83819715  0.47511655  0.01562818  1.0
  Ni  Ni170  1  0.83819715  0.80844988  0.01562818  1.0
  Ni  Ni171  1  0.26676858  0.26083083  0.08705675  1.0
  Ni  Ni172  1  0.26676858  0.59416417  0.08705675  1.0
  Ni  Ni173  1  0.26676858  0.92749750  0.08705675  1.0
  Ni  Ni174  1  0.60010192  0.26083083  0.08705675  1.0
  Ni  Ni175  1  0.60010192  0.59416417  0.08705675  1.0
  Ni  Ni176  1  0.60010192  0.92749750  0.08705675  1.0
  Ni  Ni177  1  0.93343525  0.26083083  0.08705675  1.0
  Ni  Ni178  1  0.93343525  0.59416417  0.08705675  1.0
  Ni  Ni179  1  0.93343525  0.92749750  0.08705675  1.0
  Ni  Ni180  1  0.26444439  0.18740776  0.11153111  1.0
  Ni  Ni181  1  0.26444439  0.52074110  0.11153111  1.0
  Ni  Ni182  1  0.26444439  0.85407443  0.11153111  1.0
  Ni  Ni183  1  0.59777773  0.18740776  0.11153111  1.0
  Ni  Ni184  1  0.59777773  0.52074110  0.11153111  1.0
  Ni  Ni185  1  0.59777773  0.85407443  0.11153111  1.0
  Ni  Ni186  1  0.93111106  0.18740776  0.11153111  1.0
  Ni  Ni187  1  0.93111106  0.52074110  0.11153111  1.0
  Ni  Ni188  1  0.93111106  0.85407443  0.11153111  1.0
  Ni  Ni189  1  0.16920630  0.06836014  0.04010254  1.0
  Ni  Ni190  1  0.16920630  0.40169348  0.04010254  1.0
  Ni  Ni191  1  0.16920630  0.73502681  0.04010254  1.0
  Ni  Ni192  1  0.50253963  0.06836014  0.04010254  1.0
  Ni  Ni193  1  0.50253963  0.40169348  0.04010254  1.0
  Ni  Ni194  1  0.50253963  0.73502681  0.04010254  1.0
  Ni  Ni195  1  0.83587296  0.06836014  0.04010254  1.0
  Ni  Ni196  1  0.83587296  0.40169348  0.04010254  1.0
  Ni  Ni197  1  0.83587296  0.73502681  0.04010254  1.0
  Ni  Ni198  1  0.16990235  0.25215712  0.24676432  1.0
  Ni  Ni199  1  0.16990235  0.58549045  0.24676432  1.0
  Ni  Ni200  1  0.16990235  0.91882379  0.24676432  1.0
  Ni  Ni201  1  0.50323568  0.25215712  0.24676432  1.0
  Ni  Ni202  1  0.50323568  0.58549045  0.24676432  1.0
  Ni  Ni203  1  0.50323568  0.91882379  0.24676432  1.0
  Ni  Ni204  1  0.83656901  0.25215712  0.24676432  1.0
  Ni  Ni205  1  0.83656901  0.58549045  0.24676432  1.0
  Ni  Ni206  1  0.83656901  0.91882379  0.24676432  1.0
  Ni  Ni207  1  0.07466425  0.13310950  0.17533575  1.0
  Ni  Ni208  1  0.07466425  0.46644283  0.17533575  1.0
  Ni  Ni209  1  0.07466425  0.79977617  0.17533575  1.0
  Ni  Ni210  1  0.40799758  0.13310950  0.17533575  1.0
  Ni  Ni211  1  0.40799758  0.46644283  0.17533575  1.0
  Ni  Ni212  1  0.40799758  0.79977617  0.17533575  1.0
  Ni  Ni213  1  0.74133092  0.13310950  0.17533575  1.0
  Ni  Ni214  1  0.74133092  0.46644283  0.17533575  1.0
  Ni  Ni215  1  0.74133092  0.79977617  0.17533575  1.0
  Ni  Ni216  1  0.11037854  0.03191902  0.26462146  1.0
  Ni  Ni217  1  0.11037854  0.36525236  0.26462146  1.0
  Ni  Ni218  1  0.11037854  0.69858569  0.26462146  1.0
  Ni  Ni219  1  0.44371187  0.03191902  0.26462146  1.0
  Ni  Ni220  1  0.44371187  0.36525236  0.26462146  1.0
  Ni  Ni221  1  0.44371187  0.69858569  0.26462146  1.0
  Ni  Ni222  1  0.77704520  0.03191902  0.26462146  1.0
  Ni  Ni223  1  0.77704520  0.36525236  0.26462146  1.0
  Ni  Ni224  1  0.77704520  0.69858569  0.26462146  1.0
  Ni  Ni225  1  0.01514044  0.24620474  0.19319289  1.0
  Ni  Ni226  1  0.01514044  0.57953807  0.19319289  1.0
  Ni  Ni227  1  0.01514044  0.91287140  0.19319289  1.0
  Ni  Ni228  1  0.34847377  0.24620474  0.19319289  1.0
  Ni  Ni229  1  0.34847377  0.57953807  0.19319289  1.0
  Ni  Ni230  1  0.34847377  0.91287140  0.19319289  1.0
  Ni  Ni231  1  0.68180711  0.24620474  0.19319289  1.0
  Ni  Ni232  1  0.68180711  0.57953807  0.19319289  1.0
  Ni  Ni233  1  0.68180711  0.91287140  0.19319289  1.0
  Ni  Ni234  1  0.13418806  0.02001426  0.15747861  1.0
  Ni  Ni235  1  0.13418806  0.35334760  0.15747861  1.0
  Ni  Ni236  1  0.13418806  0.68668093  0.15747861  1.0
  Ni  Ni237  1  0.46752139  0.02001426  0.15747861  1.0
  Ni  Ni238  1  0.46752139  0.35334760  0.15747861  1.0
  Ni  Ni239  1  0.46752139  0.68668093  0.15747861  1.0
  Ni  Ni240  1  0.80085473  0.02001426  0.15747861  1.0
  Ni  Ni241  1  0.80085473  0.35334760  0.15747861  1.0
  Ni  Ni242  1  0.80085473  0.68668093  0.15747861  1.0
  Ni  Ni243  1  0.22942615  0.13906188  0.22890718  1.0
  Ni  Ni244  1  0.22942615  0.47239521  0.22890718  1.0
  Ni  Ni245  1  0.22942615  0.80572855  0.22890718  1.0
  Ni  Ni246  1  0.56275949  0.13906188  0.22890718  1.0
  Ni  Ni247  1  0.56275949  0.47239521  0.22890718  1.0
  Ni  Ni248  1  0.56275949  0.80572855  0.22890718  1.0
  Ni  Ni249  1  0.89609282  0.13906188  0.22890718  1.0
  Ni  Ni250  1  0.89609282  0.47239521  0.22890718  1.0
  Ni  Ni251  1  0.89609282  0.80572855  0.22890718  1.0
  Ni  Ni252  1  0.00676120  0.31624936  0.27110546  1.0
  Ni  Ni253  1  0.00676120  0.64958269  0.27110546  1.0
  Ni  Ni254  1  0.00676120  0.98291602  0.27110546  1.0
  Ni  Ni255  1  0.34009454  0.31624936  0.27110546  1.0
  Ni  Ni256  1  0.34009454  0.64958269  0.27110546  1.0
  Ni  Ni257  1  0.34009454  0.98291602  0.27110546  1.0
  Ni  Ni258  1  0.67342787  0.31624936  0.27110546  1.0
  Ni  Ni259  1  0.67342787  0.64958269  0.27110546  1.0
  Ni  Ni260  1  0.67342787  0.98291602  0.27110546  1.0
  Ni  Ni261  1  0.24485644  0.19720174  0.19967689  1.0
  Ni  Ni262  1  0.24485644  0.53053507  0.19967689  1.0
  Ni  Ni263  1  0.24485644  0.86386840  0.19967689  1.0
  Ni  Ni264  1  0.57818977  0.19720174  0.19967689  1.0
  Ni  Ni265  1  0.57818977  0.53053507  0.19967689  1.0
  Ni  Ni266  1  0.57818977  0.86386840  0.19967689  1.0
  Ni  Ni267  1  0.91152311  0.19720174  0.19967689  1.0
  Ni  Ni268  1  0.91152311  0.53053507  0.19967689  1.0
  Ni  Ni269  1  0.91152311  0.86386840  0.19967689  1.0
  Ni  Ni270  1  0.00908539  0.05633910  0.24663111  1.0
  Ni  Ni271  1  0.00908539  0.38967243  0.24663111  1.0
  Ni  Ni272  1  0.00908539  0.72300576  0.24663111  1.0
  Ni  Ni273  1  0.34241873  0.05633910  0.24663111  1.0
  Ni  Ni274  1  0.34241873  0.38967243  0.24663111  1.0
  Ni  Ni275  1  0.34241873  0.72300576  0.24663111  1.0
  Ni  Ni276  1  0.67575206  0.05633910  0.24663111  1.0
  Ni  Ni277  1  0.67575206  0.38967243  0.24663111  1.0
  Ni  Ni278  1  0.67575206  0.72300576  0.24663111  1.0
  Ni  Ni279  1  0.24718063  0.27062481  0.17520254  1.0
  Ni  Ni280  1  0.24718063  0.60395814  0.17520254  1.0
  Ni  Ni281  1  0.24718063  0.93729148  0.17520254  1.0
  Ni  Ni282  1  0.58051396  0.27062481  0.17520254  1.0
  Ni  Ni283  1  0.58051396  0.60395814  0.17520254  1.0
  Ni  Ni284  1  0.58051396  0.93729148  0.17520254  1.0
  Ni  Ni285  1  0.91384730  0.27062481  0.17520254  1.0
  Ni  Ni286  1  0.91384730  0.60395814  0.17520254  1.0
  Ni  Ni287  1  0.91384730  0.93729148  0.17520254  1.0
  Ni  Ni288  1  0.21589325  0.00538817  0.26361475  1.0
  Ni  Ni289  1  0.21589325  0.33872150  0.26361475  1.0
  Ni  Ni290  1  0.21589325  0.67205483  0.26361475  1.0
  Ni  Ni291  1  0.54922658  0.00538817  0.26361475  1.0
  Ni  Ni292  1  0.54922658  0.33872150  0.26361475  1.0
  Ni  Ni293  1  0.54922658  0.67205483  0.26361475  1.0
  Ni  Ni294  1  0.88255992  0.00538817  0.26361475  1.0
  Ni  Ni295  1  0.88255992  0.33872150  0.26361475  1.0
  Ni  Ni296  1  0.88255992  0.67205483  0.26361475  1.0
  Ni  Ni297  1  0.12065515  0.21967388  0.19218618  1.0
  Ni  Ni298  1  0.12065515  0.55300721  0.19218618  1.0
  Ni  Ni299  1  0.12065515  0.88634055  0.19218618  1.0
  Ni  Ni300  1  0.45398849  0.21967388  0.19218618  1.0
  Ni  Ni301  1  0.45398849  0.55300721  0.19218618  1.0
  Ni  Ni302  1  0.45398849  0.88634055  0.19218618  1.0
  Ni  Ni303  1  0.78732182  0.21967388  0.19218618  1.0
  Ni  Ni304  1  0.78732182  0.55300721  0.19218618  1.0
  Ni  Ni305  1  0.78732182  0.88634055  0.19218618  1.0
  Ni  Ni306  1  0.12297935  0.29309695  0.16771182  1.0
  Ni  Ni307  1  0.12297935  0.62643029  0.16771182  1.0
  Ni  Ni308  1  0.12297935  0.95976362  0.16771182  1.0
  Ni  Ni309  1  0.45631268  0.29309695  0.16771182  1.0
  Ni  Ni310  1  0.45631268  0.62643029  0.16771182  1.0
  Ni  Ni311  1  0.45631268  0.95976362  0.16771182  1.0
  Ni  Ni312  1  0.78964601  0.29309695  0.16771182  1.0
  Ni  Ni313  1  0.78964601  0.62643029  0.16771182  1.0
  Ni  Ni314  1  0.78964601  0.95976362  0.16771182  1.0
  Ni  Ni315  1  0.21821744  0.07881124  0.23914039  1.0
  Ni  Ni316  1  0.21821744  0.41214457  0.23914039  1.0
  Ni  Ni317  1  0.21821744  0.74547790  0.23914039  1.0
  Ni  Ni318  1  0.55155077  0.07881124  0.23914039  1.0
  Ni  Ni319  1  0.55155077  0.41214457  0.23914039  1.0
  Ni  Ni320  1  0.55155077  0.74547790  0.23914039  1.0
  Ni  Ni321  1  0.88488411  0.07881124  0.23914039  1.0
  Ni  Ni322  1  0.88488411  0.41214457  0.23914039  1.0
  Ni  Ni323  1  0.88488411  0.74547790  0.23914039  1.0
  Ni  Ni324  1  0.23780539  0.06901726  0.15099461  1.0
  Ni  Ni325  1  0.23780539  0.40235060  0.15099461  1.0
  Ni  Ni326  1  0.23780539  0.73568393  0.15099461  1.0
  Ni  Ni327  1  0.57113873  0.06901726  0.15099461  1.0
  Ni  Ni328  1  0.57113873  0.40235060  0.15099461  1.0
  Ni  Ni329  1  0.57113873  0.73568393  0.15099461  1.0
  Ni  Ni330  1  0.90447206  0.06901726  0.15099461  1.0
  Ni  Ni331  1  0.90447206  0.40235060  0.15099461  1.0
  Ni  Ni332  1  0.90447206  0.73568393  0.15099461  1.0
  Ni  Ni333  1  0.33304349  0.18806488  0.22242318  1.0
  Ni  Ni334  1  0.33304349  0.52139821  0.22242318  1.0
  Ni  Ni335  1  0.33304349  0.85473155  0.22242318  1.0
  Ni  Ni336  1  0.66637682  0.18806488  0.22242318  1.0
  Ni  Ni337  1  0.66637682  0.52139821  0.22242318  1.0
  Ni  Ni338  1  0.66637682  0.85473155  0.22242318  1.0
  Ni  Ni339  1  0.99971015  0.18806488  0.22242318  1.0
  Ni  Ni340  1  0.99971015  0.52139821  0.22242318  1.0
  Ni  Ni341  1  0.99971015  0.85473155  0.22242318  1.0
  Ni  Ni342  1  0.23548120  0.32892752  0.17546896  1.0
  Ni  Ni343  1  0.23548120  0.66226086  0.17546896  1.0
  Ni  Ni344  1  0.23548120  0.99559419  0.17546896  1.0
  Ni  Ni345  1  0.56881454  0.32892752  0.17546896  1.0
  Ni  Ni346  1  0.56881454  0.66226086  0.17546896  1.0
  Ni  Ni347  1  0.56881454  0.99559419  0.17546896  1.0
  Ni  Ni348  1  0.90214787  0.32892752  0.17546896  1.0
  Ni  Ni349  1  0.90214787  0.66226086  0.17546896  1.0
  Ni  Ni350  1  0.90214787  0.99559419  0.17546896  1.0
  Ni  Ni351  1  0.33071930  0.11464181  0.24689754  1.0
  Ni  Ni352  1  0.33071930  0.44797514  0.24689754  1.0
  Ni  Ni353  1  0.33071930  0.78130848  0.24689754  1.0
  Ni  Ni354  1  0.66405263  0.11464181  0.24689754  1.0
  Ni  Ni355  1  0.66405263  0.44797514  0.24689754  1.0
  Ni  Ni356  1  0.66405263  0.78130848  0.24689754  1.0
  Ni  Ni357  1  0.99738596  0.11464181  0.24689754  1.0
  Ni  Ni358  1  0.99738596  0.44797514  0.24689754  1.0
  Ni  Ni359  1  0.99738596  0.78130848  0.24689754  1.0
  Ni  Ni360  1  0.02867335  0.04654512  0.15848532  1.0
  Ni  Ni361  1  0.02867335  0.37987845  0.15848532  1.0
  Ni  Ni362  1  0.02867335  0.71321179  0.15848532  1.0
  Ni  Ni363  1  0.36200668  0.04654512  0.15848532  1.0
  Ni  Ni364  1  0.36200668  0.37987845  0.15848532  1.0
  Ni  Ni365  1  0.36200668  0.71321179  0.15848532  1.0
  Ni  Ni366  1  0.69534001  0.04654512  0.15848532  1.0
  Ni  Ni367  1  0.69534001  0.37987845  0.15848532  1.0
  Ni  Ni368  1  0.69534001  0.71321179  0.15848532  1.0
  Ni  Ni369  1  0.12391144  0.16559274  0.22991389  1.0
  Ni  Ni370  1  0.12391144  0.49892607  0.22991389  1.0
  Ni  Ni371  1  0.12391144  0.83225940  0.22991389  1.0
  Ni  Ni372  1  0.45724477  0.16559274  0.22991389  1.0
  Ni  Ni373  1  0.45724477  0.49892607  0.22991389  1.0
  Ni  Ni374  1  0.45724477  0.83225940  0.22991389  1.0
  Ni  Ni375  1  0.79057811  0.16559274  0.22991389  1.0
  Ni  Ni376  1  0.79057811  0.49892607  0.22991389  1.0
  Ni  Ni377  1  0.79057811  0.83225940  0.22991389  1.0
  Ni  Ni378  1  0.12158725  0.09216967  0.25438825  1.0
  Ni  Ni379  1  0.12158725  0.42550300  0.25438825  1.0
  Ni  Ni380  1  0.12158725  0.75883633  0.25438825  1.0
  Ni  Ni381  1  0.45492058  0.09216967  0.25438825  1.0
  Ni  Ni382  1  0.45492058  0.42550300  0.25438825  1.0
  Ni  Ni383  1  0.45492058  0.75883633  0.25438825  1.0
  Ni  Ni384  1  0.78825392  0.09216967  0.25438825  1.0
  Ni  Ni385  1  0.78825392  0.42550300  0.25438825  1.0
  Ni  Ni386  1  0.78825392  0.75883633  0.25438825  1.0
  Ni  Ni387  1  0.02634915  0.30645538  0.18295968  1.0
  Ni  Ni388  1  0.02634915  0.63978871  0.18295968  1.0
  Ni  Ni389  1  0.02634915  0.97312205  0.18295968  1.0
  Ni  Ni390  1  0.35968249  0.30645538  0.18295968  1.0
  Ni  Ni391  1  0.35968249  0.63978871  0.18295968  1.0
  Ni  Ni392  1  0.35968249  0.97312205  0.18295968  1.0
  Ni  Ni393  1  0.69301582  0.30645538  0.18295968  1.0
  Ni  Ni394  1  0.69301582  0.63978871  0.18295968  1.0
  Ni  Ni395  1  0.69301582  0.97312205  0.18295968  1.0
  Ni  Ni396  1  0.02704520  0.15691902  0.38962146  1.0
  Ni  Ni397  1  0.02704520  0.49025236  0.38962146  1.0
  Ni  Ni398  1  0.02704520  0.82358569  0.38962146  1.0
  Ni  Ni399  1  0.36037854  0.15691902  0.38962146  1.0
  Ni  Ni400  1  0.36037854  0.49025236  0.38962146  1.0
  Ni  Ni401  1  0.36037854  0.82358569  0.38962146  1.0
  Ni  Ni402  1  0.69371187  0.15691902  0.38962146  1.0
  Ni  Ni403  1  0.69371187  0.49025236  0.38962146  1.0
  Ni  Ni404  1  0.69371187  0.82358569  0.38962146  1.0
  Ni  Ni405  1  0.26514044  0.03787140  0.31819289  1.0
  Ni  Ni406  1  0.26514044  0.37120474  0.31819289  1.0
  Ni  Ni407  1  0.26514044  0.70453807  0.31819289  1.0
  Ni  Ni408  1  0.59847377  0.03787140  0.31819289  1.0
  Ni  Ni409  1  0.59847377  0.37120474  0.31819289  1.0
  Ni  Ni410  1  0.59847377  0.70453807  0.31819289  1.0
  Ni  Ni411  1  0.93180711  0.03787140  0.31819289  1.0
  Ni  Ni412  1  0.93180711  0.37120474  0.31819289  1.0
  Ni  Ni413  1  0.93180711  0.70453807  0.31819289  1.0
  Ni  Ni414  1  0.30085473  0.27001426  0.40747861  1.0
  Ni  Ni415  1  0.30085473  0.60334760  0.40747861  1.0
  Ni  Ni416  1  0.30085473  0.93668093  0.40747861  1.0
  Ni  Ni417  1  0.63418806  0.27001426  0.40747861  1.0
  Ni  Ni418  1  0.63418806  0.60334760  0.40747861  1.0
  Ni  Ni419  1  0.63418806  0.93668093  0.40747861  1.0
  Ni  Ni420  1  0.96752139  0.27001426  0.40747861  1.0
  Ni  Ni421  1  0.96752139  0.60334760  0.40747861  1.0
  Ni  Ni422  1  0.96752139  0.93668093  0.40747861  1.0
  Ni  Ni423  1  0.20561663  0.15096664  0.33605004  1.0
  Ni  Ni424  1  0.20561663  0.48429998  0.33605004  1.0
  Ni  Ni425  1  0.20561663  0.81763331  0.33605004  1.0
  Ni  Ni426  1  0.53894996  0.15096664  0.33605004  1.0
  Ni  Ni427  1  0.53894996  0.48429998  0.33605004  1.0
  Ni  Ni428  1  0.53894996  0.81763331  0.33605004  1.0
  Ni  Ni429  1  0.87228330  0.15096664  0.33605004  1.0
  Ni  Ni430  1  0.87228330  0.48429998  0.33605004  1.0
  Ni  Ni431  1  0.87228330  0.81763331  0.33605004  1.0
  Ni  Ni432  1  0.32466425  0.25810950  0.30033575  1.0
  Ni  Ni433  1  0.32466425  0.59144283  0.30033575  1.0
  Ni  Ni434  1  0.32466425  0.92477617  0.30033575  1.0
  Ni  Ni435  1  0.65799758  0.25810950  0.30033575  1.0
  Ni  Ni436  1  0.65799758  0.59144283  0.30033575  1.0
  Ni  Ni437  1  0.65799758  0.92477617  0.30033575  1.0
  Ni  Ni438  1  0.99133092  0.25810950  0.30033575  1.0
  Ni  Ni439  1  0.99133092  0.59144283  0.30033575  1.0
  Ni  Ni440  1  0.99133092  0.92477617  0.30033575  1.0
  Ni  Ni441  1  0.08656901  0.04382379  0.37176432  1.0
  Ni  Ni442  1  0.08656901  0.37715712  0.37176432  1.0
  Ni  Ni443  1  0.08656901  0.71049045  0.37176432  1.0
  Ni  Ni444  1  0.41990235  0.04382379  0.37176432  1.0
  Ni  Ni445  1  0.41990235  0.37715712  0.37176432  1.0
  Ni  Ni446  1  0.41990235  0.71049045  0.37176432  1.0
  Ni  Ni447  1  0.75323568  0.04382379  0.37176432  1.0
  Ni  Ni448  1  0.75323568  0.37715712  0.37176432  1.0
  Ni  Ni449  1  0.75323568  0.71049045  0.37176432  1.0
  Ni  Ni450  1  0.19723739  0.22101126  0.41396261  1.0
  Ni  Ni451  1  0.19723739  0.55434460  0.41396261  1.0
  Ni  Ni452  1  0.19723739  0.88767793  0.41396261  1.0
  Ni  Ni453  1  0.53057073  0.22101126  0.41396261  1.0
  Ni  Ni454  1  0.53057073  0.55434460  0.41396261  1.0
  Ni  Ni455  1  0.53057073  0.88767793  0.41396261  1.0
  Ni  Ni456  1  0.86390406  0.22101126  0.41396261  1.0
  Ni  Ni457  1  0.86390406  0.55434460  0.41396261  1.0
  Ni  Ni458  1  0.86390406  0.88767793  0.41396261  1.0
  Ni  Ni459  1  0.10199930  0.10196364  0.34253404  1.0
  Ni  Ni460  1  0.10199930  0.43529698  0.34253404  1.0
  Ni  Ni461  1  0.10199930  0.76863031  0.34253404  1.0
  Ni  Ni462  1  0.43533263  0.10196364  0.34253404  1.0
  Ni  Ni463  1  0.43533263  0.43529698  0.34253404  1.0
  Ni  Ni464  1  0.43533263  0.76863031  0.34253404  1.0
  Ni  Ni465  1  0.76866596  0.10196364  0.34253404  1.0
  Ni  Ni466  1  0.76866596  0.43529698  0.34253404  1.0
  Ni  Ni467  1  0.76866596  0.76863031  0.34253404  1.0
  Ni  Ni468  1  0.19956158  0.29443433  0.38948825  1.0
  Ni  Ni469  1  0.19956158  0.62776767  0.38948825  1.0
  Ni  Ni470  1  0.19956158  0.96110100  0.38948825  1.0
  Ni  Ni471  1  0.53289492  0.29443433  0.38948825  1.0
  Ni  Ni472  1  0.53289492  0.62776767  0.38948825  1.0
  Ni  Ni473  1  0.53289492  0.96110100  0.38948825  1.0
  Ni  Ni474  1  0.86622825  0.29443433  0.38948825  1.0
  Ni  Ni475  1  0.86622825  0.62776767  0.38948825  1.0
  Ni  Ni476  1  0.86622825  0.96110100  0.38948825  1.0
  Ni  Ni477  1  0.10432349  0.17538671  0.31805968  1.0
  Ni  Ni478  1  0.10432349  0.50872005  0.31805968  1.0
  Ni  Ni479  1  0.10432349  0.84205338  0.31805968  1.0
  Ni  Ni480  1  0.43765682  0.17538671  0.31805968  1.0
  Ni  Ni481  1  0.43765682  0.50872005  0.31805968  1.0
  Ni  Ni482  1  0.43765682  0.84205338  0.31805968  1.0
  Ni  Ni483  1  0.77099015  0.17538671  0.31805968  1.0
  Ni  Ni484  1  0.77099015  0.50872005  0.31805968  1.0
  Ni  Ni485  1  0.77099015  0.84205338  0.31805968  1.0
  Ni  Ni486  1  0.07303611  0.24348340  0.40647189  1.0
  Ni  Ni487  1  0.07303611  0.57681674  0.40647189  1.0
  Ni  Ni488  1  0.07303611  0.91015007  0.40647189  1.0
  Ni  Ni489  1  0.40636944  0.24348340  0.40647189  1.0
  Ni  Ni490  1  0.40636944  0.57681674  0.40647189  1.0
  Ni  Ni491  1  0.40636944  0.91015007  0.40647189  1.0
  Ni  Ni492  1  0.73970277  0.24348340  0.40647189  1.0
  Ni  Ni493  1  0.73970277  0.57681674  0.40647189  1.0
  Ni  Ni494  1  0.73970277  0.91015007  0.40647189  1.0
  Ni  Ni495  1  0.31113135  0.12443579  0.33504332  1.0
  Ni  Ni496  1  0.31113135  0.45776912  0.33504332  1.0
  Ni  Ni497  1  0.31113135  0.79110245  0.33504332  1.0
  Ni  Ni498  1  0.64446468  0.12443579  0.33504332  1.0
  Ni  Ni499  1  0.64446468  0.45776912  0.33504332  1.0
  Ni  Ni500  1  0.64446468  0.79110245  0.33504332  1.0
  Ni  Ni501  1  0.97779801  0.12443579  0.33504332  1.0
  Ni  Ni502  1  0.97779801  0.45776912  0.33504332  1.0
  Ni  Ni503  1  0.97779801  0.79110245  0.33504332  1.0
  Ni  Ni504  1  0.31345554  0.19785886  0.31056896  1.0
  Ni  Ni505  1  0.31345554  0.53119219  0.31056896  1.0
  Ni  Ni506  1  0.31345554  0.86452552  0.31056896  1.0
  Ni  Ni507  1  0.64678887  0.19785886  0.31056896  1.0
  Ni  Ni508  1  0.64678887  0.53119219  0.31056896  1.0
  Ni  Ni509  1  0.64678887  0.86452552  0.31056896  1.0
  Ni  Ni510  1  0.98012220  0.19785886  0.31056896  1.0
  Ni  Ni511  1  0.98012220  0.53119219  0.31056896  1.0
  Ni  Ni512  1  0.98012220  0.86452552  0.31056896  1.0
  Ni  Ni513  1  0.07536030  0.31690648  0.38199754  1.0
  Ni  Ni514  1  0.07536030  0.65023981  0.38199754  1.0
  Ni  Ni515  1  0.07536030  0.98357314  0.38199754  1.0
  Ni  Ni516  1  0.40869363  0.31690648  0.38199754  1.0
  Ni  Ni517  1  0.40869363  0.65023981  0.38199754  1.0
  Ni  Ni518  1  0.40869363  0.98357314  0.38199754  1.0
  Ni  Ni519  1  0.74202696  0.31690648  0.38199754  1.0
  Ni  Ni520  1  0.74202696  0.65023981  0.38199754  1.0
  Ni  Ni521  1  0.74202696  0.98357314  0.38199754  1.0
  Ni  Ni522  1  0.09494825  0.30711250  0.29385175  1.0
  Ni  Ni523  1  0.09494825  0.64044583  0.29385175  1.0
  Ni  Ni524  1  0.09494825  0.97377917  0.29385175  1.0
  Ni  Ni525  1  0.42828158  0.30711250  0.29385175  1.0
  Ni  Ni526  1  0.42828158  0.64044583  0.29385175  1.0
  Ni  Ni527  1  0.42828158  0.97377917  0.29385175  1.0
  Ni  Ni528  1  0.76161492  0.30711250  0.29385175  1.0
  Ni  Ni529  1  0.76161492  0.64044583  0.29385175  1.0
  Ni  Ni530  1  0.76161492  0.97377917  0.29385175  1.0
  Ni  Ni531  1  0.19018635  0.09282679  0.36528032  1.0
  Ni  Ni532  1  0.19018635  0.42616012  0.36528032  1.0
  Ni  Ni533  1  0.19018635  0.75949345  0.36528032  1.0
  Ni  Ni534  1  0.52351968  0.09282679  0.36528032  1.0
  Ni  Ni535  1  0.52351968  0.42616012  0.36528032  1.0
  Ni  Ni536  1  0.52351968  0.75949345  0.36528032  1.0
  Ni  Ni537  1  0.85685301  0.09282679  0.36528032  1.0
  Ni  Ni538  1  0.85685301  0.42616012  0.36528032  1.0
  Ni  Ni539  1  0.85685301  0.75949345  0.36528032  1.0
  Ni  Ni540  1  0.09262406  0.23368943  0.31832611  1.0
  Ni  Ni541  1  0.09262406  0.56702276  0.31832611  1.0
  Ni  Ni542  1  0.09262406  0.90035610  0.31832611  1.0
  Ni  Ni543  1  0.42595739  0.23368943  0.31832611  1.0
  Ni  Ni544  1  0.42595739  0.56702276  0.31832611  1.0
  Ni  Ni545  1  0.42595739  0.90035610  0.31832611  1.0
  Ni  Ni546  1  0.75929073  0.23368943  0.31832611  1.0
  Ni  Ni547  1  0.75929073  0.56702276  0.31832611  1.0
  Ni  Ni548  1  0.75929073  0.90035610  0.31832611  1.0
  Ni  Ni549  1  0.18786215  0.01940371  0.38975468  1.0
  Ni  Ni550  1  0.18786215  0.35273705  0.38975468  1.0
  Ni  Ni551  1  0.18786215  0.68607038  0.38975468  1.0
  Ni  Ni552  1  0.52119549  0.01940371  0.38975468  1.0
  Ni  Ni553  1  0.52119549  0.35273705  0.38975468  1.0
  Ni  Ni554  1  0.52119549  0.68607038  0.38975468  1.0
  Ni  Ni555  1  0.85452882  0.01940371  0.38975468  1.0
  Ni  Ni556  1  0.85452882  0.35273705  0.38975468  1.0
  Ni  Ni557  1  0.85452882  0.68607038  0.38975468  1.0
  Ni  Ni558  1  0.21914954  0.28464036  0.30134246  1.0
  Ni  Ni559  1  0.21914954  0.61797369  0.30134246  1.0
  Ni  Ni560  1  0.21914954  0.95130702  0.30134246  1.0
  Ni  Ni561  1  0.55248287  0.28464036  0.30134246  1.0
  Ni  Ni562  1  0.55248287  0.61797369  0.30134246  1.0
  Ni  Ni563  1  0.55248287  0.95130702  0.30134246  1.0
  Ni  Ni564  1  0.88581620  0.28464036  0.30134246  1.0
  Ni  Ni565  1  0.88581620  0.61797369  0.30134246  1.0
  Ni  Ni566  1  0.88581620  0.95130702  0.30134246  1.0
  Ni  Ni567  1  0.31438763  0.07035464  0.37277104  1.0
  Ni  Ni568  1  0.31438763  0.40368798  0.37277104  1.0
  Ni  Ni569  1  0.31438763  0.73702131  0.37277104  1.0
  Ni  Ni570  1  0.64772096  0.07035464  0.37277104  1.0
  Ni  Ni571  1  0.64772096  0.40368798  0.37277104  1.0
  Ni  Ni572  1  0.64772096  0.73702131  0.37277104  1.0
  Ni  Ni573  1  0.98105430  0.07035464  0.37277104  1.0
  Ni  Ni574  1  0.98105430  0.40368798  0.37277104  1.0
  Ni  Ni575  1  0.98105430  0.73702131  0.37277104  1.0
  Ni  Ni576  1  0.31206344  0.33026490  0.39724539  1.0
  Ni  Ni577  1  0.31206344  0.66359824  0.39724539  1.0
  Ni  Ni578  1  0.31206344  0.99693157  0.39724539  1.0
  Ni  Ni579  1  0.64539677  0.33026490  0.39724539  1.0
  Ni  Ni580  1  0.64539677  0.66359824  0.39724539  1.0
  Ni  Ni581  1  0.64539677  0.99693157  0.39724539  1.0
  Ni  Ni582  1  0.97873011  0.33026490  0.39724539  1.0
  Ni  Ni583  1  0.97873011  0.66359824  0.39724539  1.0
  Ni  Ni584  1  0.97873011  0.99693157  0.39724539  1.0
  Ni  Ni585  1  0.21682535  0.21121729  0.32581682  1.0
  Ni  Ni586  1  0.21682535  0.54455062  0.32581682  1.0
  Ni  Ni587  1  0.21682535  0.87788395  0.32581682  1.0
  Ni  Ni588  1  0.55015868  0.21121729  0.32581682  1.0
  Ni  Ni589  1  0.55015868  0.54455062  0.32581682  1.0
  Ni  Ni590  1  0.55015868  0.87788395  0.32581682  1.0
  Ni  Ni591  1  0.88349201  0.21121729  0.32581682  1.0
  Ni  Ni592  1  0.88349201  0.54455062  0.32581682  1.0
  Ni  Ni593  1  0.88349201  0.87788395  0.32581682  1.0
  Zr  Zr594  1  0.09847377  0.12120474  0.06819289  1.0
  Zr  Zr595  1  0.09847377  0.45453807  0.06819289  1.0
  Zr  Zr596  1  0.09847377  0.78787140  0.06819289  1.0
  Zr  Zr597  1  0.43180711  0.12120474  0.06819289  1.0
  Zr  Zr598  1  0.43180711  0.45453807  0.06819289  1.0
  Zr  Zr599  1  0.43180711  0.78787140  0.06819289  1.0
  Zr  Zr600  1  0.76514044  0.12120474  0.06819289  1.0
  Zr  Zr601  1  0.76514044  0.45453807  0.06819289  1.0
  Zr  Zr602  1  0.76514044  0.78787140  0.06819289  1.0
  Zr  Zr603  1  0.19371187  0.24025236  0.13962146  1.0
  Zr  Zr604  1  0.19371187  0.57358569  0.13962146  1.0
  Zr  Zr605  1  0.19371187  0.90691902  0.13962146  1.0
  Zr  Zr606  1  0.52704520  0.24025236  0.13962146  1.0
  Zr  Zr607  1  0.52704520  0.57358569  0.13962146  1.0
  Zr  Zr608  1  0.52704520  0.90691902  0.13962146  1.0
  Zr  Zr609  1  0.86037854  0.24025236  0.13962146  1.0
  Zr  Zr610  1  0.86037854  0.57358569  0.13962146  1.0
  Zr  Zr611  1  0.86037854  0.90691902  0.13962146  1.0
  Zr  Zr612  1  0.22053430  0.03223781  0.09784854  1.0
  Zr  Zr613  1  0.22053430  0.36557114  0.09784854  1.0
  Zr  Zr614  1  0.22053430  0.69890448  0.09784854  1.0
  Zr  Zr615  1  0.55386763  0.03223781  0.09784854  1.0
  Zr  Zr616  1  0.55386763  0.36557114  0.09784854  1.0
  Zr  Zr617  1  0.55386763  0.69890448  0.09784854  1.0
  Zr  Zr618  1  0.88720096  0.03223781  0.09784854  1.0
  Zr  Zr619  1  0.88720096  0.36557114  0.09784854  1.0
  Zr  Zr620  1  0.88720096  0.69890448  0.09784854  1.0
  Zr  Zr621  1  0.12529620  0.24652352  0.02641996  1.0
  Zr  Zr622  1  0.12529620  0.57985686  0.02641996  1.0
  Zr  Zr623  1  0.12529620  0.91319019  0.02641996  1.0
  Zr  Zr624  1  0.45862954  0.24652352  0.02641996  1.0
  Zr  Zr625  1  0.45862954  0.57985686  0.02641996  1.0
  Zr  Zr626  1  0.45862954  0.91319019  0.02641996  1.0
  Zr  Zr627  1  0.79196287  0.24652352  0.02641996  1.0
  Zr  Zr628  1  0.79196287  0.57985686  0.02641996  1.0
  Zr  Zr629  1  0.79196287  0.91319019  0.02641996  1.0
  Zr  Zr630  1  0.21328973  0.17425310  0.05051011  1.0
  Zr  Zr631  1  0.21328973  0.50758643  0.05051011  1.0
  Zr  Zr632  1  0.21328973  0.84091976  0.05051011  1.0
  Zr  Zr633  1  0.54662306  0.17425310  0.05051011  1.0
  Zr  Zr634  1  0.54662306  0.50758643  0.05051011  1.0
  Zr  Zr635  1  0.54662306  0.84091976  0.05051011  1.0
  Zr  Zr636  1  0.87995639  0.17425310  0.05051011  1.0
  Zr  Zr637  1  0.87995639  0.50758643  0.05051011  1.0
  Zr  Zr638  1  0.87995639  0.84091976  0.05051011  1.0
  Zr  Zr639  1  0.30852782  0.29330071  0.12193868  1.0
  Zr  Zr640  1  0.30852782  0.62663405  0.12193868  1.0
  Zr  Zr641  1  0.30852782  0.95996738  0.12193868  1.0
  Zr  Zr642  1  0.64186115  0.29330071  0.12193868  1.0
  Zr  Zr643  1  0.64186115  0.62663405  0.12193868  1.0
  Zr  Zr644  1  0.64186115  0.95996738  0.12193868  1.0
  Zr  Zr645  1  0.97519449  0.29330071  0.12193868  1.0
  Zr  Zr646  1  0.97519449  0.62663405  0.12193868  1.0
  Zr  Zr647  1  0.97519449  0.95996738  0.12193868  1.0
  Zr  Zr648  1  0.31699115  0.06815638  0.08587568  1.0
  Zr  Zr649  1  0.31699115  0.40148971  0.08587568  1.0
  Zr  Zr650  1  0.31699115  0.73482305  0.08587568  1.0
  Zr  Zr651  1  0.65032449  0.06815638  0.08587568  1.0
  Zr  Zr652  1  0.65032449  0.40148971  0.08587568  1.0
  Zr  Zr653  1  0.65032449  0.73482305  0.08587568  1.0
  Zr  Zr654  1  0.98365782  0.06815638  0.08587568  1.0
  Zr  Zr655  1  0.98365782  0.40148971  0.08587568  1.0
  Zr  Zr656  1  0.98365782  0.73482305  0.08587568  1.0
  Zr  Zr657  1  0.22175306  0.28244210  0.01444711  1.0
  Zr  Zr658  1  0.22175306  0.61577543  0.01444711  1.0
  Zr  Zr659  1  0.22175306  0.94910876  0.01444711  1.0
  Zr  Zr660  1  0.55508639  0.28244210  0.01444711  1.0
  Zr  Zr661  1  0.55508639  0.61577543  0.01444711  1.0
  Zr  Zr662  1  0.55508639  0.94910876  0.01444711  1.0
  Zr  Zr663  1  0.88841973  0.28244210  0.01444711  1.0
  Zr  Zr664  1  0.88841973  0.61577543  0.01444711  1.0
  Zr  Zr665  1  0.88841973  0.94910876  0.01444711  1.0
  Zr  Zr666  1  0.30974658  0.21017167  0.03853725  1.0
  Zr  Zr667  1  0.30974658  0.54350500  0.03853725  1.0
  Zr  Zr668  1  0.30974658  0.87683833  0.03853725  1.0
  Zr  Zr669  1  0.64307992  0.21017167  0.03853725  1.0
  Zr  Zr670  1  0.64307992  0.54350500  0.03853725  1.0
  Zr  Zr671  1  0.64307992  0.87683833  0.03853725  1.0
  Zr  Zr672  1  0.97641325  0.21017167  0.03853725  1.0
  Zr  Zr673  1  0.97641325  0.54350500  0.03853725  1.0
  Zr  Zr674  1  0.97641325  0.87683833  0.03853725  1.0
  Zr  Zr675  1  0.07165135  0.32921929  0.10996582  1.0
  Zr  Zr676  1  0.07165135  0.66255262  0.10996582  1.0
  Zr  Zr677  1  0.07165135  0.99588595  0.10996582  1.0
  Zr  Zr678  1  0.40498468  0.32921929  0.10996582  1.0
  Zr  Zr679  1  0.40498468  0.66255262  0.10996582  1.0
  Zr  Zr680  1  0.40498468  0.99588595  0.10996582  1.0
  Zr  Zr681  1  0.73831801  0.32921929  0.10996582  1.0
  Zr  Zr682  1  0.73831801  0.66255262  0.10996582  1.0
  Zr  Zr683  1  0.73831801  0.99588595  0.10996582  1.0
  Zr  Zr684  1  0.21087692  0.10179067  0.07466425  1.0
  Zr  Zr685  1  0.21087692  0.43512400  0.07466425  1.0
  Zr  Zr686  1  0.21087692  0.76845733  0.07466425  1.0
  Zr  Zr687  1  0.54421025  0.10179067  0.07466425  1.0
  Zr  Zr688  1  0.54421025  0.43512400  0.07466425  1.0
  Zr  Zr689  1  0.54421025  0.76845733  0.07466425  1.0
  Zr  Zr690  1  0.87754358  0.10179067  0.07466425  1.0
  Zr  Zr691  1  0.87754358  0.43512400  0.07466425  1.0
  Zr  Zr692  1  0.87754358  0.76845733  0.07466425  1.0
  Zr  Zr693  1  0.11563882  0.31607638  0.00323568  1.0
  Zr  Zr694  1  0.11563882  0.64940971  0.00323568  1.0
  Zr  Zr695  1  0.11563882  0.98274305  0.00323568  1.0
  Zr  Zr696  1  0.44897215  0.31607638  0.00323568  1.0
  Zr  Zr697  1  0.44897215  0.64940971  0.00323568  1.0
  Zr  Zr698  1  0.44897215  0.98274305  0.00323568  1.0
  Zr  Zr699  1  0.78230549  0.31607638  0.00323568  1.0
  Zr  Zr700  1  0.78230549  0.64940971  0.00323568  1.0
  Zr  Zr701  1  0.78230549  0.98274305  0.00323568  1.0
  Zr  Zr702  1  0.19426163  0.30696464  0.11738404  1.0
  Zr  Zr703  1  0.19426163  0.64029798  0.11738404  1.0
  Zr  Zr704  1  0.19426163  0.97363131  0.11738404  1.0
  Zr  Zr705  1  0.52759496  0.30696464  0.11738404  1.0
  Zr  Zr706  1  0.52759496  0.64029798  0.11738404  1.0
  Zr  Zr707  1  0.52759496  0.97363131  0.11738404  1.0
  Zr  Zr708  1  0.86092830  0.30696464  0.11738404  1.0
  Zr  Zr709  1  0.86092830  0.64029798  0.11738404  1.0
  Zr  Zr710  1  0.86092830  0.97363131  0.11738404  1.0
  Zr  Zr711  1  0.09902354  0.18791702  0.04595546  1.0
  Zr  Zr712  1  0.09902354  0.52125036  0.04595546  1.0
  Zr  Zr713  1  0.09902354  0.85458369  0.04595546  1.0
  Zr  Zr714  1  0.43235687  0.18791702  0.04595546  1.0
  Zr  Zr715  1  0.43235687  0.52125036  0.04595546  1.0
  Zr  Zr716  1  0.43235687  0.85458369  0.04595546  1.0
  Zr  Zr717  1  0.76569020  0.18791702  0.04595546  1.0
  Zr  Zr718  1  0.76569020  0.52125036  0.04595546  1.0
  Zr  Zr719  1  0.76569020  0.85458369  0.04595546  1.0
  Zr  Zr720  1  0.00268592  0.26877817  0.01900175  1.0
  Zr  Zr721  1  0.00268592  0.60211150  0.01900175  1.0
  Zr  Zr722  1  0.00268592  0.93544483  0.01900175  1.0
  Zr  Zr723  1  0.33601925  0.26877817  0.01900175  1.0
  Zr  Zr724  1  0.33601925  0.60211150  0.01900175  1.0
  Zr  Zr725  1  0.33601925  0.93544483  0.01900175  1.0
  Zr  Zr726  1  0.66935258  0.26877817  0.01900175  1.0
  Zr  Zr727  1  0.66935258  0.60211150  0.01900175  1.0
  Zr  Zr728  1  0.66935258  0.93544483  0.01900175  1.0
  Zr  Zr729  1  0.09792401  0.05449245  0.09043032  1.0
  Zr  Zr730  1  0.09792401  0.38782579  0.09043032  1.0
  Zr  Zr731  1  0.09792401  0.72115912  0.09043032  1.0
  Zr  Zr732  1  0.43125735  0.05449245  0.09043032  1.0
  Zr  Zr733  1  0.43125735  0.38782579  0.09043032  1.0
  Zr  Zr734  1  0.43125735  0.72115912  0.09043032  1.0
  Zr  Zr735  1  0.76459068  0.05449245  0.09043032  1.0
  Zr  Zr736  1  0.76459068  0.38782579  0.09043032  1.0
  Zr  Zr737  1  0.76459068  0.72115912  0.09043032  1.0
  Zr  Zr738  1  0.31940396  0.14061881  0.06172154  1.0
  Zr  Zr739  1  0.31940396  0.47395214  0.06172154  1.0
  Zr  Zr740  1  0.31940396  0.80728548  0.06172154  1.0
  Zr  Zr741  1  0.65273730  0.14061881  0.06172154  1.0
  Zr  Zr742  1  0.65273730  0.47395214  0.06172154  1.0
  Zr  Zr743  1  0.65273730  0.80728548  0.06172154  1.0
  Zr  Zr744  1  0.98607063  0.14061881  0.06172154  1.0
  Zr  Zr745  1  0.98607063  0.47395214  0.06172154  1.0
  Zr  Zr746  1  0.98607063  0.80728548  0.06172154  1.0
  Zr  Zr747  1  0.08130873  0.25966643  0.13315011  1.0
  Zr  Zr748  1  0.08130873  0.59299976  0.13315011  1.0
  Zr  Zr749  1  0.08130873  0.92633310  0.13315011  1.0
  Zr  Zr750  1  0.41464206  0.25966643  0.13315011  1.0
  Zr  Zr751  1  0.41464206  0.59299976  0.13315011  1.0
  Zr  Zr752  1  0.41464206  0.92633310  0.13315011  1.0
  Zr  Zr753  1  0.74797539  0.25966643  0.13315011  1.0
  Zr  Zr754  1  0.74797539  0.59299976  0.13315011  1.0
  Zr  Zr755  1  0.74797539  0.92633310  0.13315011  1.0
  Zr  Zr756  1  0.28894996  0.02596664  0.21105004  1.0
  Zr  Zr757  1  0.28894996  0.35929998  0.21105004  1.0
  Zr  Zr758  1  0.28894996  0.69263331  0.21105004  1.0
  Zr  Zr759  1  0.62228330  0.02596664  0.21105004  1.0
  Zr  Zr760  1  0.62228330  0.35929998  0.21105004  1.0
  Zr  Zr761  1  0.62228330  0.69263331  0.21105004  1.0
  Zr  Zr762  1  0.95561663  0.02596664  0.21105004  1.0
  Zr  Zr763  1  0.95561663  0.35929998  0.21105004  1.0
  Zr  Zr764  1  0.95561663  0.69263331  0.21105004  1.0
  Zr  Zr765  1  0.05085473  0.14501426  0.28247861  1.0
  Zr  Zr766  1  0.05085473  0.47834760  0.28247861  1.0
  Zr  Zr767  1  0.05085473  0.81168093  0.28247861  1.0
  Zr  Zr768  1  0.38418806  0.14501426  0.28247861  1.0
  Zr  Zr769  1  0.38418806  0.47834760  0.28247861  1.0
  Zr  Zr770  1  0.38418806  0.81168093  0.28247861  1.0
  Zr  Zr771  1  0.71752139  0.14501426  0.28247861  1.0
  Zr  Zr772  1  0.71752139  0.47834760  0.28247861  1.0
  Zr  Zr773  1  0.71752139  0.81168093  0.28247861  1.0
  Zr  Zr774  1  0.07767715  0.27033305  0.24070568  1.0
  Zr  Zr775  1  0.07767715  0.60366638  0.24070568  1.0
  Zr  Zr776  1  0.07767715  0.93699971  0.24070568  1.0
  Zr  Zr777  1  0.41101049  0.27033305  0.24070568  1.0
  Zr  Zr778  1  0.41101049  0.60366638  0.24070568  1.0
  Zr  Zr779  1  0.41101049  0.93699971  0.24070568  1.0
  Zr  Zr780  1  0.74434382  0.27033305  0.24070568  1.0
  Zr  Zr781  1  0.74434382  0.60366638  0.24070568  1.0
  Zr  Zr782  1  0.74434382  0.93699971  0.24070568  1.0
  Zr  Zr783  1  0.31577239  0.15128543  0.16927711  1.0
  Zr  Zr784  1  0.31577239  0.48461876  0.16927711  1.0
  Zr  Zr785  1  0.31577239  0.81795210  0.16927711  1.0
  Zr  Zr786  1  0.64910573  0.15128543  0.16927711  1.0
  Zr  Zr787  1  0.64910573  0.48461876  0.16927711  1.0
  Zr  Zr788  1  0.64910573  0.81795210  0.16927711  1.0
  Zr  Zr789  1  0.98243906  0.15128543  0.16927711  1.0
  Zr  Zr790  1  0.98243906  0.48461876  0.16927711  1.0
  Zr  Zr791  1  0.98243906  0.81795210  0.16927711  1.0
  Zr  Zr792  1  0.07043258  0.07901500  0.19336725  1.0
  Zr  Zr793  1  0.07043258  0.41234833  0.19336725  1.0
  Zr  Zr794  1  0.07043258  0.74568167  0.19336725  1.0
  Zr  Zr795  1  0.40376592  0.07901500  0.19336725  1.0
  Zr  Zr796  1  0.40376592  0.41234833  0.19336725  1.0
  Zr  Zr797  1  0.40376592  0.74568167  0.19336725  1.0
  Zr  Zr798  1  0.73709925  0.07901500  0.19336725  1.0
  Zr  Zr799  1  0.73709925  0.41234833  0.19336725  1.0
  Zr  Zr800  1  0.73709925  0.74568167  0.19336725  1.0
  Zr  Zr801  1  0.16567068  0.19806262  0.26479582  1.0
  Zr  Zr802  1  0.16567068  0.53139595  0.26479582  1.0
  Zr  Zr803  1  0.16567068  0.86472929  0.26479582  1.0
  Zr  Zr804  1  0.49900401  0.19806262  0.26479582  1.0
  Zr  Zr805  1  0.49900401  0.53139595  0.26479582  1.0
  Zr  Zr806  1  0.49900401  0.86472929  0.26479582  1.0
  Zr  Zr807  1  0.83233735  0.19806262  0.26479582  1.0
  Zr  Zr808  1  0.83233735  0.53139595  0.26479582  1.0
  Zr  Zr809  1  0.83233735  0.86472929  0.26479582  1.0
  Zr  Zr810  1  0.17413401  0.30625162  0.22873282  1.0
  Zr  Zr811  1  0.17413401  0.63958495  0.22873282  1.0
  Zr  Zr812  1  0.17413401  0.97291829  0.22873282  1.0
  Zr  Zr813  1  0.50746735  0.30625162  0.22873282  1.0
  Zr  Zr814  1  0.50746735  0.63958495  0.22873282  1.0
  Zr  Zr815  1  0.50746735  0.97291829  0.22873282  1.0
  Zr  Zr816  1  0.84080068  0.30625162  0.22873282  1.0
  Zr  Zr817  1  0.84080068  0.63958495  0.22873282  1.0
  Zr  Zr818  1  0.84080068  0.97291829  0.22873282  1.0
  Zr  Zr819  1  0.07889592  0.18720400  0.15730425  1.0
  Zr  Zr820  1  0.07889592  0.52053733  0.15730425  1.0
  Zr  Zr821  1  0.07889592  0.85387067  0.15730425  1.0
  Zr  Zr822  1  0.41222925  0.18720400  0.15730425  1.0
  Zr  Zr823  1  0.41222925  0.52053733  0.15730425  1.0
  Zr  Zr824  1  0.41222925  0.85387067  0.15730425  1.0
  Zr  Zr825  1  0.74556258  0.18720400  0.15730425  1.0
  Zr  Zr826  1  0.74556258  0.52053733  0.15730425  1.0
  Zr  Zr827  1  0.74556258  0.85387067  0.15730425  1.0
  Zr  Zr828  1  0.16688944  0.11493357  0.18139439  1.0
  Zr  Zr829  1  0.16688944  0.44826690  0.18139439  1.0
  Zr  Zr830  1  0.16688944  0.78160024  0.18139439  1.0
  Zr  Zr831  1  0.50022277  0.11493357  0.18139439  1.0
  Zr  Zr832  1  0.50022277  0.44826690  0.18139439  1.0
  Zr  Zr833  1  0.50022277  0.78160024  0.18139439  1.0
  Zr  Zr834  1  0.83355611  0.11493357  0.18139439  1.0
  Zr  Zr835  1  0.83355611  0.44826690  0.18139439  1.0
  Zr  Zr836  1  0.83355611  0.78160024  0.18139439  1.0
  Zr  Zr837  1  0.26212754  0.23398119  0.25282296  1.0
  Zr  Zr838  1  0.26212754  0.56731452  0.25282296  1.0
  Zr  Zr839  1  0.26212754  0.90064786  0.25282296  1.0
  Zr  Zr840  1  0.59546087  0.23398119  0.25282296  1.0
  Zr  Zr841  1  0.59546087  0.56731452  0.25282296  1.0
  Zr  Zr842  1  0.59546087  0.90064786  0.25282296  1.0
  Zr  Zr843  1  0.92879420  0.23398119  0.25282296  1.0
  Zr  Zr844  1  0.92879420  0.56731452  0.25282296  1.0
  Zr  Zr845  1  0.92879420  0.90064786  0.25282296  1.0
  Zr  Zr846  1  0.06801977  0.00655257  0.21752139  1.0
  Zr  Zr847  1  0.06801977  0.33988590  0.21752139  1.0
  Zr  Zr848  1  0.06801977  0.67321924  0.21752139  1.0
  Zr  Zr849  1  0.40135311  0.00655257  0.21752139  1.0
  Zr  Zr850  1  0.40135311  0.33988590  0.21752139  1.0
  Zr  Zr851  1  0.40135311  0.67321924  0.21752139  1.0
  Zr  Zr852  1  0.73468644  0.00655257  0.21752139  1.0
  Zr  Zr853  1  0.73468644  0.33988590  0.21752139  1.0
  Zr  Zr854  1  0.73468644  0.67321924  0.21752139  1.0
  Zr  Zr855  1  0.30611501  0.22083829  0.14609282  1.0
  Zr  Zr856  1  0.30611501  0.55417162  0.14609282  1.0
  Zr  Zr857  1  0.30611501  0.88750495  0.14609282  1.0
  Zr  Zr858  1  0.63944835  0.22083829  0.14609282  1.0
  Zr  Zr859  1  0.63944835  0.55417162  0.14609282  1.0
  Zr  Zr860  1  0.63944835  0.88750495  0.14609282  1.0
  Zr  Zr861  1  0.97278168  0.22083829  0.14609282  1.0
  Zr  Zr862  1  0.97278168  0.55417162  0.14609282  1.0
  Zr  Zr863  1  0.97278168  0.88750495  0.14609282  1.0
  Zr  Zr864  1  0.05140449  0.21172655  0.26024118  1.0
  Zr  Zr865  1  0.05140449  0.54505988  0.26024118  1.0
  Zr  Zr866  1  0.05140449  0.87839321  0.26024118  1.0
  Zr  Zr867  1  0.38473782  0.21172655  0.26024118  1.0
  Zr  Zr868  1  0.38473782  0.54505988  0.26024118  1.0
  Zr  Zr869  1  0.38473782  0.87839321  0.26024118  1.0
  Zr  Zr870  1  0.71807115  0.21172655  0.26024118  1.0
  Zr  Zr871  1  0.71807115  0.54505988  0.26024118  1.0
  Zr  Zr872  1  0.71807115  0.87839321  0.26024118  1.0
  Zr  Zr873  1  0.28949973  0.09267893  0.18881261  1.0
  Zr  Zr874  1  0.28949973  0.42601226  0.18881261  1.0
  Zr  Zr875  1  0.28949973  0.75934560  0.18881261  1.0
  Zr  Zr876  1  0.62283306  0.09267893  0.18881261  1.0
  Zr  Zr877  1  0.62283306  0.42601226  0.18881261  1.0
  Zr  Zr878  1  0.62283306  0.75934560  0.18881261  1.0
  Zr  Zr879  1  0.95616639  0.09267893  0.18881261  1.0
  Zr  Zr880  1  0.95616639  0.42601226  0.18881261  1.0
  Zr  Zr881  1  0.95616639  0.75934560  0.18881261  1.0
  Zr  Zr882  1  0.19316211  0.17354007  0.16185889  1.0
  Zr  Zr883  1  0.19316211  0.50687340  0.16185889  1.0
  Zr  Zr884  1  0.19316211  0.84020674  0.16185889  1.0
  Zr  Zr885  1  0.52649544  0.17354007  0.16185889  1.0
  Zr  Zr886  1  0.52649544  0.50687340  0.16185889  1.0
  Zr  Zr887  1  0.52649544  0.84020674  0.16185889  1.0
  Zr  Zr888  1  0.85982877  0.17354007  0.16185889  1.0
  Zr  Zr889  1  0.85982877  0.50687340  0.16185889  1.0
  Zr  Zr890  1  0.85982877  0.84020674  0.16185889  1.0
  Zr  Zr891  1  0.28840020  0.29258769  0.23328746  1.0
  Zr  Zr892  1  0.28840020  0.62592102  0.23328746  1.0
  Zr  Zr893  1  0.28840020  0.95925436  0.23328746  1.0
  Zr  Zr894  1  0.62173354  0.29258769  0.23328746  1.0
  Zr  Zr895  1  0.62173354  0.62592102  0.23328746  1.0
  Zr  Zr896  1  0.62173354  0.95925436  0.23328746  1.0
  Zr  Zr897  1  0.95506687  0.29258769  0.23328746  1.0
  Zr  Zr898  1  0.95506687  0.62592102  0.23328746  1.0
  Zr  Zr899  1  0.95506687  0.95925436  0.23328746  1.0
  Zr  Zr900  1  0.17654682  0.04538071  0.20457868  1.0
  Zr  Zr901  1  0.17654682  0.37871405  0.20457868  1.0
  Zr  Zr902  1  0.17654682  0.71204738  0.20457868  1.0
  Zr  Zr903  1  0.50988015  0.04538071  0.20457868  1.0
  Zr  Zr904  1  0.50988015  0.37871405  0.20457868  1.0
  Zr  Zr905  1  0.50988015  0.71204738  0.20457868  1.0
  Zr  Zr906  1  0.84321349  0.04538071  0.20457868  1.0
  Zr  Zr907  1  0.84321349  0.37871405  0.20457868  1.0
  Zr  Zr908  1  0.84321349  0.71204738  0.20457868  1.0
  Zr  Zr909  1  0.27178492  0.16442833  0.27600725  1.0
  Zr  Zr910  1  0.27178492  0.49776167  0.27600725  1.0
  Zr  Zr911  1  0.27178492  0.83109500  0.27600725  1.0
  Zr  Zr912  1  0.60511825  0.16442833  0.27600725  1.0
  Zr  Zr913  1  0.60511825  0.49776167  0.27600725  1.0
  Zr  Zr914  1  0.60511825  0.83109500  0.27600725  1.0
  Zr  Zr915  1  0.93845158  0.16442833  0.27600725  1.0
  Zr  Zr916  1  0.93845158  0.49776167  0.27600725  1.0
  Zr  Zr917  1  0.93845158  0.83109500  0.27600725  1.0
  Zr  Zr918  1  0.14609282  0.26406188  0.35390718  1.0
  Zr  Zr919  1  0.14609282  0.59739521  0.35390718  1.0
  Zr  Zr920  1  0.14609282  0.93072855  0.35390718  1.0
  Zr  Zr921  1  0.47942615  0.26406188  0.35390718  1.0
  Zr  Zr922  1  0.47942615  0.59739521  0.35390718  1.0
  Zr  Zr923  1  0.47942615  0.93072855  0.35390718  1.0
  Zr  Zr924  1  0.81275949  0.26406188  0.35390718  1.0
  Zr  Zr925  1  0.81275949  0.59739521  0.35390718  1.0
  Zr  Zr926  1  0.81275949  0.93072855  0.35390718  1.0
  Zr  Zr927  1  0.24133092  0.04977617  0.42533575  1.0
  Zr  Zr928  1  0.24133092  0.38310950  0.42533575  1.0
  Zr  Zr929  1  0.24133092  0.71644283  0.42533575  1.0
  Zr  Zr930  1  0.57466425  0.04977617  0.42533575  1.0
  Zr  Zr931  1  0.57466425  0.38310950  0.42533575  1.0
  Zr  Zr932  1  0.57466425  0.71644283  0.42533575  1.0
  Zr  Zr933  1  0.90799758  0.04977617  0.42533575  1.0
  Zr  Zr934  1  0.90799758  0.38310950  0.42533575  1.0
  Zr  Zr935  1  0.90799758  0.71644283  0.42533575  1.0
  Zr  Zr936  1  0.26815335  0.17509495  0.38356282  1.0
  Zr  Zr937  1  0.26815335  0.50842829  0.38356282  1.0
  Zr  Zr938  1  0.26815335  0.84176162  0.38356282  1.0
  Zr  Zr939  1  0.60148668  0.17509495  0.38356282  1.0
  Zr  Zr940  1  0.60148668  0.50842829  0.38356282  1.0
  Zr  Zr941  1  0.60148668  0.84176162  0.38356282  1.0
  Zr  Zr942  1  0.93482001  0.17509495  0.38356282  1.0
  Zr  Zr943  1  0.93482001  0.50842829  0.38356282  1.0
  Zr  Zr944  1  0.93482001  0.84176162  0.38356282  1.0
  Zr  Zr945  1  0.17291525  0.05604733  0.31213425  1.0
  Zr  Zr946  1  0.17291525  0.38938067  0.31213425  1.0
  Zr  Zr947  1  0.17291525  0.72271400  0.31213425  1.0
  Zr  Zr948  1  0.50624858  0.05604733  0.31213425  1.0
  Zr  Zr949  1  0.50624858  0.38938067  0.31213425  1.0
  Zr  Zr950  1  0.50624858  0.72271400  0.31213425  1.0
  Zr  Zr951  1  0.83958192  0.05604733  0.31213425  1.0
  Zr  Zr952  1  0.83958192  0.38938067  0.31213425  1.0
  Zr  Zr953  1  0.83958192  0.72271400  0.31213425  1.0
  Zr  Zr954  1  0.26090877  0.31711024  0.33622439  1.0
  Zr  Zr955  1  0.26090877  0.65044357  0.33622439  1.0
  Zr  Zr956  1  0.26090877  0.98377690  0.33622439  1.0
  Zr  Zr957  1  0.59424211  0.31711024  0.33622439  1.0
  Zr  Zr958  1  0.59424211  0.65044357  0.33622439  1.0
  Zr  Zr959  1  0.59424211  0.98377690  0.33622439  1.0
  Zr  Zr960  1  0.92757544  0.31711024  0.33622439  1.0
  Zr  Zr961  1  0.92757544  0.65044357  0.33622439  1.0
  Zr  Zr962  1  0.92757544  0.98377690  0.33622439  1.0
  Zr  Zr963  1  0.02281354  0.10282452  0.40765296  1.0
  Zr  Zr964  1  0.02281354  0.43615786  0.40765296  1.0
  Zr  Zr965  1  0.02281354  0.76949119  0.40765296  1.0
  Zr  Zr966  1  0.35614687  0.10282452  0.40765296  1.0
  Zr  Zr967  1  0.35614687  0.43615786  0.40765296  1.0
  Zr  Zr968  1  0.35614687  0.76949119  0.40765296  1.0
  Zr  Zr969  1  0.68948020  0.10282452  0.40765296  1.0
  Zr  Zr970  1  0.68948020  0.43615786  0.40765296  1.0
  Zr  Zr971  1  0.68948020  0.76949119  0.40765296  1.0
  Zr  Zr972  1  0.03127687  0.21101352  0.37158996  1.0
  Zr  Zr973  1  0.03127687  0.54434686  0.37158996  1.0
  Zr  Zr974  1  0.03127687  0.87768019  0.37158996  1.0
  Zr  Zr975  1  0.36461020  0.21101352  0.37158996  1.0
  Zr  Zr976  1  0.36461020  0.54434686  0.37158996  1.0
  Zr  Zr977  1  0.36461020  0.87768019  0.37158996  1.0
  Zr  Zr978  1  0.69794354  0.21101352  0.37158996  1.0
  Zr  Zr979  1  0.69794354  0.54434686  0.37158996  1.0
  Zr  Zr980  1  0.69794354  0.87768019  0.37158996  1.0
  Zr  Zr981  1  0.26937211  0.09196590  0.30016139  1.0
  Zr  Zr982  1  0.26937211  0.42529924  0.30016139  1.0
  Zr  Zr983  1  0.26937211  0.75863257  0.30016139  1.0
  Zr  Zr984  1  0.60270544  0.09196590  0.30016139  1.0
  Zr  Zr985  1  0.60270544  0.42529924  0.30016139  1.0
  Zr  Zr986  1  0.60270544  0.75863257  0.30016139  1.0
  Zr  Zr987  1  0.93603877  0.09196590  0.30016139  1.0
  Zr  Zr988  1  0.93603877  0.42529924  0.30016139  1.0
  Zr  Zr989  1  0.93603877  0.75863257  0.30016139  1.0
  Zr  Zr990  1  0.02403230  0.01969548  0.32425154  1.0
  Zr  Zr991  1  0.02403230  0.35302881  0.32425154  1.0
  Zr  Zr992  1  0.02403230  0.68636214  0.32425154  1.0
  Zr  Zr993  1  0.35736563  0.01969548  0.32425154  1.0
  Zr  Zr994  1  0.35736563  0.35302881  0.32425154  1.0
  Zr  Zr995  1  0.35736563  0.68636214  0.32425154  1.0
  Zr  Zr996  1  0.69069896  0.01969548  0.32425154  1.0
  Zr  Zr997  1  0.69069896  0.35302881  0.32425154  1.0
  Zr  Zr998  1  0.69069896  0.68636214  0.32425154  1.0
  Zr  Zr999  1  0.11927039  0.13874310  0.39568011  1.0
  Zr  Zr1000  1  0.11927039  0.47207643  0.39568011  1.0
  Zr  Zr1001  1  0.11927039  0.80540976  0.39568011  1.0
  Zr  Zr1002  1  0.45260373  0.13874310  0.39568011  1.0
  Zr  Zr1003  1  0.45260373  0.47207643  0.39568011  1.0
  Zr  Zr1004  1  0.45260373  0.80540976  0.39568011  1.0
  Zr  Zr1005  1  0.78593706  0.13874310  0.39568011  1.0
  Zr  Zr1006  1  0.78593706  0.47207643  0.39568011  1.0
  Zr  Zr1007  1  0.78593706  0.80540976  0.39568011  1.0
  Zr  Zr1008  1  0.25849596  0.24464781  0.36037854  1.0
  Zr  Zr1009  1  0.25849596  0.57798114  0.36037854  1.0
  Zr  Zr1010  1  0.25849596  0.91131448  0.36037854  1.0
  Zr  Zr1011  1  0.59182930  0.24464781  0.36037854  1.0
  Zr  Zr1012  1  0.59182930  0.57798114  0.36037854  1.0
  Zr  Zr1013  1  0.59182930  0.91131448  0.36037854  1.0
  Zr  Zr1014  1  0.92516263  0.24464781  0.36037854  1.0
  Zr  Zr1015  1  0.92516263  0.57798114  0.36037854  1.0
  Zr  Zr1016  1  0.92516263  0.91131448  0.36037854  1.0
  Zr  Zr1017  1  0.16325787  0.12560019  0.28894996  1.0
  Zr  Zr1018  1  0.16325787  0.45893352  0.28894996  1.0
  Zr  Zr1019  1  0.16325787  0.79226686  0.28894996  1.0
  Zr  Zr1020  1  0.49659120  0.12560019  0.28894996  1.0
  Zr  Zr1021  1  0.49659120  0.45893352  0.28894996  1.0
  Zr  Zr1022  1  0.49659120  0.79226686  0.28894996  1.0
  Zr  Zr1023  1  0.82992454  0.12560019  0.28894996  1.0
  Zr  Zr1024  1  0.82992454  0.45893352  0.28894996  1.0
  Zr  Zr1025  1  0.82992454  0.79226686  0.28894996  1.0
  Zr  Zr1026  1  0.24188068  0.11648845  0.40309832  1.0
  Zr  Zr1027  1  0.24188068  0.44982179  0.40309832  1.0
  Zr  Zr1028  1  0.24188068  0.78315512  0.40309832  1.0
  Zr  Zr1029  1  0.57521401  0.11648845  0.40309832  1.0
  Zr  Zr1030  1  0.57521401  0.44982179  0.40309832  1.0
  Zr  Zr1031  1  0.57521401  0.78315512  0.40309832  1.0
  Zr  Zr1032  1  0.90854735  0.11648845  0.40309832  1.0
  Zr  Zr1033  1  0.90854735  0.44982179  0.40309832  1.0
  Zr  Zr1034  1  0.90854735  0.78315512  0.40309832  1.0
  Zr  Zr1035  1  0.14664258  0.33077417  0.33166975  1.0
  Zr  Zr1036  1  0.14664258  0.66410750  0.33166975  1.0
  Zr  Zr1037  1  0.14664258  0.99744083  0.33166975  1.0
  Zr  Zr1038  1  0.47997592  0.33077417  0.33166975  1.0
  Zr  Zr1039  1  0.47997592  0.66410750  0.33166975  1.0
  Zr  Zr1040  1  0.47997592  0.99744083  0.33166975  1.0
  Zr  Zr1041  1  0.81330925  0.33077417  0.33166975  1.0
  Zr  Zr1042  1  0.81330925  0.66410750  0.33166975  1.0
  Zr  Zr1043  1  0.81330925  0.99744083  0.33166975  1.0
  Zr  Zr1044  1  0.05030496  0.07830198  0.30471604  1.0
  Zr  Zr1045  1  0.05030496  0.41163531  0.30471604  1.0
  Zr  Zr1046  1  0.05030496  0.74496864  0.30471604  1.0
  Zr  Zr1047  1  0.38363830  0.07830198  0.30471604  1.0
  Zr  Zr1048  1  0.38363830  0.41163531  0.30471604  1.0
  Zr  Zr1049  1  0.38363830  0.74496864  0.30471604  1.0
  Zr  Zr1050  1  0.71697163  0.07830198  0.30471604  1.0
  Zr  Zr1051  1  0.71697163  0.41163531  0.30471604  1.0
  Zr  Zr1052  1  0.71697163  0.74496864  0.30471604  1.0
  Zr  Zr1053  1  0.14554306  0.19734960  0.37614461  1.0
  Zr  Zr1054  1  0.14554306  0.53068293  0.37614461  1.0
  Zr  Zr1055  1  0.14554306  0.86401626  0.37614461  1.0
  Zr  Zr1056  1  0.47887639  0.19734960  0.37614461  1.0
  Zr  Zr1057  1  0.47887639  0.53068293  0.37614461  1.0
  Zr  Zr1058  1  0.47887639  0.86401626  0.37614461  1.0
  Zr  Zr1059  1  0.81220973  0.19734960  0.37614461  1.0
  Zr  Zr1060  1  0.81220973  0.53068293  0.37614461  1.0
  Zr  Zr1061  1  0.81220973  0.86401626  0.37614461  1.0
  Zr  Zr1062  1  0.03368968  0.28347595  0.34743582  1.0
  Zr  Zr1063  1  0.03368968  0.61680929  0.34743582  1.0
  Zr  Zr1064  1  0.03368968  0.95014262  0.34743582  1.0
  Zr  Zr1065  1  0.36702301  0.28347595  0.34743582  1.0
  Zr  Zr1066  1  0.36702301  0.61680929  0.34743582  1.0
  Zr  Zr1067  1  0.36702301  0.95014262  0.34743582  1.0
  Zr  Zr1068  1  0.70035635  0.28347595  0.34743582  1.0
  Zr  Zr1069  1  0.70035635  0.61680929  0.34743582  1.0
  Zr  Zr1070  1  0.70035635  0.95014262  0.34743582  1.0
  Zr  Zr1071  1  0.12892777  0.06919024  0.41886439  1.0
  Zr  Zr1072  1  0.12892777  0.40252357  0.41886439  1.0
  Zr  Zr1073  1  0.12892777  0.73585690  0.41886439  1.0
  Zr  Zr1074  1  0.46226111  0.06919024  0.41886439  1.0
  Zr  Zr1075  1  0.46226111  0.40252357  0.41886439  1.0
  Zr  Zr1076  1  0.46226111  0.73585690  0.41886439  1.0
  Zr  Zr1077  1  0.79559444  0.06919024  0.41886439  1.0
  Zr  Zr1078  1  0.79559444  0.40252357  0.41886439  1.0
  Zr  Zr1079  1  0.79559444  0.73585690  0.41886439  1.0
