# generated using pymatgen
data_Zr9Ni11
_symmetry_space_group_name_H-M   'P 1'
_cell_length_a   23.31779412
_cell_length_b   42.39725995
_cell_length_c   77.72598040
_cell_angle_alpha   155.38377018
_cell_angle_beta   99.99162236
_cell_angle_gamma   90.00000000
_symmetry_Int_Tables_number   1
_chemical_formula_structural   Zr9Ni11
_chemical_formula_sum   'Zr324 Ni396'
_cell_volume   29098.24281636
_cell_formula_units_Z   36
loop_
 _symmetry_equiv_pos_site_id
 _symmetry_equiv_pos_as_xyz
  1  'x, y, z'
loop_
 _atom_site_type_symbol
 _atom_site_label
 _atom_site_symmetry_multiplicity
 _atom_site_fract_x
 _atom_site_fract_y
 _atom_site_fract_z
 _atom_site_occupancy
  Zr  Zr0  1  0.00000000  0.00000000  0.09656470  1.0
  Zr  Zr1  1  0.00000000  0.33333333  0.09656470  1.0
  Zr  Zr2  1  0.00000000  0.66666667  0.09656470  1.0
  Zr  Zr3  1  0.33333333  0.00000000  0.09656470  1.0
  Zr  Zr4  1  0.33333333  0.33333333  0.09656470  1.0
  Zr  Zr5  1  0.33333333  0.66666667  0.09656470  1.0
  Zr  Zr6  1  0.66666667  0.00000000  0.09656470  1.0
  Zr  Zr7  1  0.66666667  0.33333333  0.09656470  1.0
  Zr  Zr8  1  0.66666667  0.66666667  0.09656470  1.0
  Zr  Zr9  1  0.22091267  0.08251967  0.06283850  1.0
  Zr  Zr10  1  0.22091267  0.41585300  0.06283850  1.0
  Zr  Zr11  1  0.22091267  0.74918633  0.06283850  1.0
  Zr  Zr12  1  0.55424600  0.08251967  0.06283850  1.0
  Zr  Zr13  1  0.55424600  0.41585300  0.06283850  1.0
  Zr  Zr14  1  0.55424600  0.74918633  0.06283850  1.0
  Zr  Zr15  1  0.88757933  0.08251967  0.06283850  1.0
  Zr  Zr16  1  0.88757933  0.41585300  0.06283850  1.0
  Zr  Zr17  1  0.88757933  0.74918633  0.06283850  1.0
  Zr  Zr18  1  0.05587333  0.13839300  0.01332670  1.0
  Zr  Zr19  1  0.05587333  0.47172633  0.01332670  1.0
  Zr  Zr20  1  0.05587333  0.80505967  0.01332670  1.0
  Zr  Zr21  1  0.38920667  0.13839300  0.01332670  1.0
  Zr  Zr22  1  0.38920667  0.47172633  0.01332670  1.0
  Zr  Zr23  1  0.38920667  0.80505967  0.01332670  1.0
  Zr  Zr24  1  0.72254000  0.13839300  0.01332670  1.0
  Zr  Zr25  1  0.72254000  0.47172633  0.01332670  1.0
  Zr  Zr26  1  0.72254000  0.80505967  0.01332670  1.0
  Zr  Zr27  1  0.27746000  0.19494033  0.07980270  1.0
  Zr  Zr28  1  0.27746000  0.52827367  0.07980270  1.0
  Zr  Zr29  1  0.27746000  0.86160700  0.07980270  1.0
  Zr  Zr30  1  0.61079333  0.19494033  0.07980270  1.0
  Zr  Zr31  1  0.61079333  0.52827367  0.07980270  1.0
  Zr  Zr32  1  0.61079333  0.86160700  0.07980270  1.0
  Zr  Zr33  1  0.94412667  0.19494033  0.07980270  1.0
  Zr  Zr34  1  0.94412667  0.52827367  0.07980270  1.0
  Zr  Zr35  1  0.94412667  0.86160700  0.07980270  1.0
  Zr  Zr36  1  0.11242067  0.25081367  0.03029090  1.0
  Zr  Zr37  1  0.11242067  0.58414700  0.03029090  1.0
  Zr  Zr38  1  0.11242067  0.91748033  0.03029090  1.0
  Zr  Zr39  1  0.44575400  0.25081367  0.03029090  1.0
  Zr  Zr40  1  0.44575400  0.58414700  0.03029090  1.0
  Zr  Zr41  1  0.44575400  0.91748033  0.03029090  1.0
  Zr  Zr42  1  0.77908733  0.25081367  0.03029090  1.0
  Zr  Zr43  1  0.77908733  0.58414700  0.03029090  1.0
  Zr  Zr44  1  0.77908733  0.91748033  0.03029090  1.0
  Zr  Zr45  1  0.13397433  0.10377467  0.03675700  1.0
  Zr  Zr46  1  0.13397433  0.43710800  0.03675700  1.0
  Zr  Zr47  1  0.13397433  0.77044133  0.03675700  1.0
  Zr  Zr48  1  0.46730767  0.10377467  0.03675700  1.0
  Zr  Zr49  1  0.46730767  0.43710800  0.03675700  1.0
  Zr  Zr50  1  0.46730767  0.77044133  0.03675700  1.0
  Zr  Zr51  1  0.80064100  0.10377467  0.03675700  1.0
  Zr  Zr52  1  0.80064100  0.43710800  0.03675700  1.0
  Zr  Zr53  1  0.80064100  0.77044133  0.03675700  1.0
  Zr  Zr54  1  0.25975833  0.03019967  0.07449220  1.0
  Zr  Zr55  1  0.25975833  0.36353300  0.07449220  1.0
  Zr  Zr56  1  0.25975833  0.69686633  0.07449220  1.0
  Zr  Zr57  1  0.59309167  0.03019967  0.07449220  1.0
  Zr  Zr58  1  0.59309167  0.36353300  0.07449220  1.0
  Zr  Zr59  1  0.59309167  0.69686633  0.07449220  1.0
  Zr  Zr60  1  0.92642500  0.03019967  0.07449220  1.0
  Zr  Zr61  1  0.92642500  0.36353300  0.07449220  1.0
  Zr  Zr62  1  0.92642500  0.69686633  0.07449220  1.0
  Zr  Zr63  1  0.07357500  0.30313367  0.01863720  1.0
  Zr  Zr64  1  0.07357500  0.63646700  0.01863720  1.0
  Zr  Zr65  1  0.07357500  0.96980033  0.01863720  1.0
  Zr  Zr66  1  0.40690833  0.30313367  0.01863720  1.0
  Zr  Zr67  1  0.40690833  0.63646700  0.01863720  1.0
  Zr  Zr68  1  0.40690833  0.96980033  0.01863720  1.0
  Zr  Zr69  1  0.74024167  0.30313367  0.01863720  1.0
  Zr  Zr70  1  0.74024167  0.63646700  0.01863720  1.0
  Zr  Zr71  1  0.74024167  0.96980033  0.01863720  1.0
  Zr  Zr72  1  0.19935900  0.22955867  0.05637240  1.0
  Zr  Zr73  1  0.19935900  0.56289200  0.05637240  1.0
  Zr  Zr74  1  0.19935900  0.89622533  0.05637240  1.0
  Zr  Zr75  1  0.53269233  0.22955867  0.05637240  1.0
  Zr  Zr76  1  0.53269233  0.56289200  0.05637240  1.0
  Zr  Zr77  1  0.53269233  0.89622533  0.05637240  1.0
  Zr  Zr78  1  0.86602567  0.22955867  0.05637240  1.0
  Zr  Zr79  1  0.86602567  0.56289200  0.05637240  1.0
  Zr  Zr80  1  0.86602567  0.89622533  0.05637240  1.0
  Ni  Ni81  1  0.00000000  0.16666667  0.09656470  1.0
  Ni  Ni82  1  0.00000000  0.50000000  0.09656470  1.0
  Ni  Ni83  1  0.00000000  0.83333333  0.09656470  1.0
  Ni  Ni84  1  0.33333333  0.16666667  0.09656470  1.0
  Ni  Ni85  1  0.33333333  0.50000000  0.09656470  1.0
  Ni  Ni86  1  0.33333333  0.83333333  0.09656470  1.0
  Ni  Ni87  1  0.66666667  0.16666667  0.09656470  1.0
  Ni  Ni88  1  0.66666667  0.50000000  0.09656470  1.0
  Ni  Ni89  1  0.66666667  0.83333333  0.09656470  1.0
  Ni  Ni90  1  0.16666667  0.25000000  0.09656470  1.0
  Ni  Ni91  1  0.16666667  0.58333333  0.09656470  1.0
  Ni  Ni92  1  0.16666667  0.91666667  0.09656470  1.0
  Ni  Ni93  1  0.50000000  0.25000000  0.09656470  1.0
  Ni  Ni94  1  0.50000000  0.58333333  0.09656470  1.0
  Ni  Ni95  1  0.50000000  0.91666667  0.09656470  1.0
  Ni  Ni96  1  0.83333333  0.25000000  0.09656470  1.0
  Ni  Ni97  1  0.83333333  0.58333333  0.09656470  1.0
  Ni  Ni98  1  0.83333333  0.91666667  0.09656470  1.0
  Ni  Ni99  1  0.16666667  0.08333333  0.09656470  1.0
  Ni  Ni100  1  0.16666667  0.41666667  0.09656470  1.0
  Ni  Ni101  1  0.16666667  0.75000000  0.09656470  1.0
  Ni  Ni102  1  0.50000000  0.08333333  0.09656470  1.0
  Ni  Ni103  1  0.50000000  0.41666667  0.09656470  1.0
  Ni  Ni104  1  0.50000000  0.75000000  0.09656470  1.0
  Ni  Ni105  1  0.83333333  0.08333333  0.09656470  1.0
  Ni  Ni106  1  0.83333333  0.41666667  0.09656470  1.0
  Ni  Ni107  1  0.83333333  0.75000000  0.09656470  1.0
  Ni  Ni108  1  0.11421367  0.10818633  0.07196350  1.0
  Ni  Ni109  1  0.11421367  0.44151967  0.07196350  1.0
  Ni  Ni110  1  0.11421367  0.77485300  0.07196350  1.0
  Ni  Ni111  1  0.44754700  0.10818633  0.07196350  1.0
  Ni  Ni112  1  0.44754700  0.44151967  0.07196350  1.0
  Ni  Ni113  1  0.44754700  0.77485300  0.07196350  1.0
  Ni  Ni114  1  0.78088033  0.10818633  0.07196350  1.0
  Ni  Ni115  1  0.78088033  0.44151967  0.07196350  1.0
  Ni  Ni116  1  0.78088033  0.77485300  0.07196350  1.0
  Ni  Ni117  1  0.03495667  0.14314300  0.04818640  1.0
  Ni  Ni118  1  0.03495667  0.47647633  0.04818640  1.0
  Ni  Ni119  1  0.03495667  0.80980967  0.04818640  1.0
  Ni  Ni120  1  0.36829000  0.14314300  0.04818640  1.0
  Ni  Ni121  1  0.36829000  0.47647633  0.04818640  1.0
  Ni  Ni122  1  0.36829000  0.80980967  0.04818640  1.0
  Ni  Ni123  1  0.70162333  0.14314300  0.04818640  1.0
  Ni  Ni124  1  0.70162333  0.47647633  0.04818640  1.0
  Ni  Ni125  1  0.70162333  0.80980967  0.04818640  1.0
  Ni  Ni126  1  0.29837667  0.32730600  0.02721240  1.0
  Ni  Ni127  1  0.29837667  0.66063933  0.02721240  1.0
  Ni  Ni128  1  0.29837667  0.99397267  0.02721240  1.0
  Ni  Ni129  1  0.63171000  0.32730600  0.02721240  1.0
  Ni  Ni130  1  0.63171000  0.66063933  0.02721240  1.0
  Ni  Ni131  1  0.63171000  0.99397267  0.02721240  1.0
  Ni  Ni132  1  0.96504333  0.32730600  0.02721240  1.0
  Ni  Ni133  1  0.96504333  0.66063933  0.02721240  1.0
  Ni  Ni134  1  0.96504333  0.99397267  0.02721240  1.0
  Ni  Ni135  1  0.21911967  0.02892933  0.00343530  1.0
  Ni  Ni136  1  0.21911967  0.36226267  0.00343530  1.0
  Ni  Ni137  1  0.21911967  0.69559600  0.00343530  1.0
  Ni  Ni138  1  0.55245300  0.02892933  0.00343530  1.0
  Ni  Ni139  1  0.55245300  0.36226267  0.00343530  1.0
  Ni  Ni140  1  0.55245300  0.69559600  0.00343530  1.0
  Ni  Ni141  1  0.88578633  0.02892933  0.00343530  1.0
  Ni  Ni142  1  0.88578633  0.36226267  0.00343530  1.0
  Ni  Ni143  1  0.88578633  0.69559600  0.00343530  1.0
  Ni  Ni144  1  0.21911967  0.22514700  0.02116590  1.0
  Ni  Ni145  1  0.21911967  0.55848033  0.02116590  1.0
  Ni  Ni146  1  0.21911967  0.89181367  0.02116590  1.0
  Ni  Ni147  1  0.55245300  0.22514700  0.02116590  1.0
  Ni  Ni148  1  0.55245300  0.55848033  0.02116590  1.0
  Ni  Ni149  1  0.55245300  0.89181367  0.02116590  1.0
  Ni  Ni150  1  0.88578633  0.22514700  0.02116590  1.0
  Ni  Ni151  1  0.88578633  0.55848033  0.02116590  1.0
  Ni  Ni152  1  0.88578633  0.89181367  0.02116590  1.0
  Ni  Ni153  1  0.29837667  0.19019033  0.04494300  1.0
  Ni  Ni154  1  0.29837667  0.52352367  0.04494300  1.0
  Ni  Ni155  1  0.29837667  0.85685700  0.04494300  1.0
  Ni  Ni156  1  0.63171000  0.19019033  0.04494300  1.0
  Ni  Ni157  1  0.63171000  0.52352367  0.04494300  1.0
  Ni  Ni158  1  0.63171000  0.85685700  0.04494300  1.0
  Ni  Ni159  1  0.96504333  0.19019033  0.04494300  1.0
  Ni  Ni160  1  0.96504333  0.52352367  0.04494300  1.0
  Ni  Ni161  1  0.96504333  0.85685700  0.04494300  1.0
  Ni  Ni162  1  0.03495667  0.00602733  0.06591700  1.0
  Ni  Ni163  1  0.03495667  0.33936067  0.06591700  1.0
  Ni  Ni164  1  0.03495667  0.67269400  0.06591700  1.0
  Ni  Ni165  1  0.36829000  0.00602733  0.06591700  1.0
  Ni  Ni166  1  0.36829000  0.33936067  0.06591700  1.0
  Ni  Ni167  1  0.36829000  0.67269400  0.06591700  1.0
  Ni  Ni168  1  0.70162333  0.00602733  0.06591700  1.0
  Ni  Ni169  1  0.70162333  0.33936067  0.06591700  1.0
  Ni  Ni170  1  0.70162333  0.67269400  0.06591700  1.0
  Ni  Ni171  1  0.11421367  0.30440400  0.08969410  1.0
  Ni  Ni172  1  0.11421367  0.63773733  0.08969410  1.0
  Ni  Ni173  1  0.11421367  0.97107067  0.08969410  1.0
  Ni  Ni174  1  0.44754700  0.30440400  0.08969410  1.0
  Ni  Ni175  1  0.44754700  0.63773733  0.08969410  1.0
  Ni  Ni176  1  0.44754700  0.97107067  0.08969410  1.0
  Ni  Ni177  1  0.78088033  0.30440400  0.08969410  1.0
  Ni  Ni178  1  0.78088033  0.63773733  0.08969410  1.0
  Ni  Ni179  1  0.78088033  0.97107067  0.08969410  1.0
  Zr  Zr180  1  0.00000000  0.00000000  0.19656470  1.0
  Zr  Zr181  1  0.00000000  0.33333333  0.19656470  1.0
  Zr  Zr182  1  0.00000000  0.66666667  0.19656470  1.0
  Zr  Zr183  1  0.33333333  0.00000000  0.19656470  1.0
  Zr  Zr184  1  0.33333333  0.33333333  0.19656470  1.0
  Zr  Zr185  1  0.33333333  0.66666667  0.19656470  1.0
  Zr  Zr186  1  0.66666667  0.00000000  0.19656470  1.0
  Zr  Zr187  1  0.66666667  0.33333333  0.19656470  1.0
  Zr  Zr188  1  0.66666667  0.66666667  0.19656470  1.0
  Zr  Zr189  1  0.22091267  0.08251967  0.16283850  1.0
  Zr  Zr190  1  0.22091267  0.41585300  0.16283850  1.0
  Zr  Zr191  1  0.22091267  0.74918633  0.16283850  1.0
  Zr  Zr192  1  0.55424600  0.08251967  0.16283850  1.0
  Zr  Zr193  1  0.55424600  0.41585300  0.16283850  1.0
  Zr  Zr194  1  0.55424600  0.74918633  0.16283850  1.0
  Zr  Zr195  1  0.88757933  0.08251967  0.16283850  1.0
  Zr  Zr196  1  0.88757933  0.41585300  0.16283850  1.0
  Zr  Zr197  1  0.88757933  0.74918633  0.16283850  1.0
  Zr  Zr198  1  0.05587333  0.13839300  0.11332670  1.0
  Zr  Zr199  1  0.05587333  0.47172633  0.11332670  1.0
  Zr  Zr200  1  0.05587333  0.80505967  0.11332670  1.0
  Zr  Zr201  1  0.38920667  0.13839300  0.11332670  1.0
  Zr  Zr202  1  0.38920667  0.47172633  0.11332670  1.0
  Zr  Zr203  1  0.38920667  0.80505967  0.11332670  1.0
  Zr  Zr204  1  0.72254000  0.13839300  0.11332670  1.0
  Zr  Zr205  1  0.72254000  0.47172633  0.11332670  1.0
  Zr  Zr206  1  0.72254000  0.80505967  0.11332670  1.0
  Zr  Zr207  1  0.27746000  0.19494033  0.17980270  1.0
  Zr  Zr208  1  0.27746000  0.52827367  0.17980270  1.0
  Zr  Zr209  1  0.27746000  0.86160700  0.17980270  1.0
  Zr  Zr210  1  0.61079333  0.19494033  0.17980270  1.0
  Zr  Zr211  1  0.61079333  0.52827367  0.17980270  1.0
  Zr  Zr212  1  0.61079333  0.86160700  0.17980270  1.0
  Zr  Zr213  1  0.94412667  0.19494033  0.17980270  1.0
  Zr  Zr214  1  0.94412667  0.52827367  0.17980270  1.0
  Zr  Zr215  1  0.94412667  0.86160700  0.17980270  1.0
  Zr  Zr216  1  0.11242067  0.25081367  0.13029090  1.0
  Zr  Zr217  1  0.11242067  0.58414700  0.13029090  1.0
  Zr  Zr218  1  0.11242067  0.91748033  0.13029090  1.0
  Zr  Zr219  1  0.44575400  0.25081367  0.13029090  1.0
  Zr  Zr220  1  0.44575400  0.58414700  0.13029090  1.0
  Zr  Zr221  1  0.44575400  0.91748033  0.13029090  1.0
  Zr  Zr222  1  0.77908733  0.25081367  0.13029090  1.0
  Zr  Zr223  1  0.77908733  0.58414700  0.13029090  1.0
  Zr  Zr224  1  0.77908733  0.91748033  0.13029090  1.0
  Zr  Zr225  1  0.13397433  0.10377467  0.13675700  1.0
  Zr  Zr226  1  0.13397433  0.43710800  0.13675700  1.0
  Zr  Zr227  1  0.13397433  0.77044133  0.13675700  1.0
  Zr  Zr228  1  0.46730767  0.10377467  0.13675700  1.0
  Zr  Zr229  1  0.46730767  0.43710800  0.13675700  1.0
  Zr  Zr230  1  0.46730767  0.77044133  0.13675700  1.0
  Zr  Zr231  1  0.80064100  0.10377467  0.13675700  1.0
  Zr  Zr232  1  0.80064100  0.43710800  0.13675700  1.0
  Zr  Zr233  1  0.80064100  0.77044133  0.13675700  1.0
  Zr  Zr234  1  0.25975833  0.03019967  0.17449220  1.0
  Zr  Zr235  1  0.25975833  0.36353300  0.17449220  1.0
  Zr  Zr236  1  0.25975833  0.69686633  0.17449220  1.0
  Zr  Zr237  1  0.59309167  0.03019967  0.17449220  1.0
  Zr  Zr238  1  0.59309167  0.36353300  0.17449220  1.0
  Zr  Zr239  1  0.59309167  0.69686633  0.17449220  1.0
  Zr  Zr240  1  0.92642500  0.03019967  0.17449220  1.0
  Zr  Zr241  1  0.92642500  0.36353300  0.17449220  1.0
  Zr  Zr242  1  0.92642500  0.69686633  0.17449220  1.0
  Zr  Zr243  1  0.07357500  0.30313367  0.11863720  1.0
  Zr  Zr244  1  0.07357500  0.63646700  0.11863720  1.0
  Zr  Zr245  1  0.07357500  0.96980033  0.11863720  1.0
  Zr  Zr246  1  0.40690833  0.30313367  0.11863720  1.0
  Zr  Zr247  1  0.40690833  0.63646700  0.11863720  1.0
  Zr  Zr248  1  0.40690833  0.96980033  0.11863720  1.0
  Zr  Zr249  1  0.74024167  0.30313367  0.11863720  1.0
  Zr  Zr250  1  0.74024167  0.63646700  0.11863720  1.0
  Zr  Zr251  1  0.74024167  0.96980033  0.11863720  1.0
  Zr  Zr252  1  0.19935900  0.22955867  0.15637240  1.0
  Zr  Zr253  1  0.19935900  0.56289200  0.15637240  1.0
  Zr  Zr254  1  0.19935900  0.89622533  0.15637240  1.0
  Zr  Zr255  1  0.53269233  0.22955867  0.15637240  1.0
  Zr  Zr256  1  0.53269233  0.56289200  0.15637240  1.0
  Zr  Zr257  1  0.53269233  0.89622533  0.15637240  1.0
  Zr  Zr258  1  0.86602567  0.22955867  0.15637240  1.0
  Zr  Zr259  1  0.86602567  0.56289200  0.15637240  1.0
  Zr  Zr260  1  0.86602567  0.89622533  0.15637240  1.0
  Ni  Ni261  1  0.00000000  0.16666667  0.19656470  1.0
  Ni  Ni262  1  0.00000000  0.50000000  0.19656470  1.0
  Ni  Ni263  1  0.00000000  0.83333333  0.19656470  1.0
  Ni  Ni264  1  0.33333333  0.16666667  0.19656470  1.0
  Ni  Ni265  1  0.33333333  0.50000000  0.19656470  1.0
  Ni  Ni266  1  0.33333333  0.83333333  0.19656470  1.0
  Ni  Ni267  1  0.66666667  0.16666667  0.19656470  1.0
  Ni  Ni268  1  0.66666667  0.50000000  0.19656470  1.0
  Ni  Ni269  1  0.66666667  0.83333333  0.19656470  1.0
  Ni  Ni270  1  0.16666667  0.25000000  0.19656470  1.0
  Ni  Ni271  1  0.16666667  0.58333333  0.19656470  1.0
  Ni  Ni272  1  0.16666667  0.91666667  0.19656470  1.0
  Ni  Ni273  1  0.50000000  0.25000000  0.19656470  1.0
  Ni  Ni274  1  0.50000000  0.58333333  0.19656470  1.0
  Ni  Ni275  1  0.50000000  0.91666667  0.19656470  1.0
  Ni  Ni276  1  0.83333333  0.25000000  0.19656470  1.0
  Ni  Ni277  1  0.83333333  0.58333333  0.19656470  1.0
  Ni  Ni278  1  0.83333333  0.91666667  0.19656470  1.0
  Ni  Ni279  1  0.16666667  0.08333333  0.19656470  1.0
  Ni  Ni280  1  0.16666667  0.41666667  0.19656470  1.0
  Ni  Ni281  1  0.16666667  0.75000000  0.19656470  1.0
  Ni  Ni282  1  0.50000000  0.08333333  0.19656470  1.0
  Ni  Ni283  1  0.50000000  0.41666667  0.19656470  1.0
  Ni  Ni284  1  0.50000000  0.75000000  0.19656470  1.0
  Ni  Ni285  1  0.83333333  0.08333333  0.19656470  1.0
  Ni  Ni286  1  0.83333333  0.41666667  0.19656470  1.0
  Ni  Ni287  1  0.83333333  0.75000000  0.19656470  1.0
  Ni  Ni288  1  0.11421367  0.10818633  0.17196350  1.0
  Ni  Ni289  1  0.11421367  0.44151967  0.17196350  1.0
  Ni  Ni290  1  0.11421367  0.77485300  0.17196350  1.0
  Ni  Ni291  1  0.44754700  0.10818633  0.17196350  1.0
  Ni  Ni292  1  0.44754700  0.44151967  0.17196350  1.0
  Ni  Ni293  1  0.44754700  0.77485300  0.17196350  1.0
  Ni  Ni294  1  0.78088033  0.10818633  0.17196350  1.0
  Ni  Ni295  1  0.78088033  0.44151967  0.17196350  1.0
  Ni  Ni296  1  0.78088033  0.77485300  0.17196350  1.0
  Ni  Ni297  1  0.03495667  0.14314300  0.14818640  1.0
  Ni  Ni298  1  0.03495667  0.47647633  0.14818640  1.0
  Ni  Ni299  1  0.03495667  0.80980967  0.14818640  1.0
  Ni  Ni300  1  0.36829000  0.14314300  0.14818640  1.0
  Ni  Ni301  1  0.36829000  0.47647633  0.14818640  1.0
  Ni  Ni302  1  0.36829000  0.80980967  0.14818640  1.0
  Ni  Ni303  1  0.70162333  0.14314300  0.14818640  1.0
  Ni  Ni304  1  0.70162333  0.47647633  0.14818640  1.0
  Ni  Ni305  1  0.70162333  0.80980967  0.14818640  1.0
  Ni  Ni306  1  0.29837667  0.32730600  0.12721240  1.0
  Ni  Ni307  1  0.29837667  0.66063933  0.12721240  1.0
  Ni  Ni308  1  0.29837667  0.99397267  0.12721240  1.0
  Ni  Ni309  1  0.63171000  0.32730600  0.12721240  1.0
  Ni  Ni310  1  0.63171000  0.66063933  0.12721240  1.0
  Ni  Ni311  1  0.63171000  0.99397267  0.12721240  1.0
  Ni  Ni312  1  0.96504333  0.32730600  0.12721240  1.0
  Ni  Ni313  1  0.96504333  0.66063933  0.12721240  1.0
  Ni  Ni314  1  0.96504333  0.99397267  0.12721240  1.0
  Ni  Ni315  1  0.21911967  0.02892933  0.10343530  1.0
  Ni  Ni316  1  0.21911967  0.36226267  0.10343530  1.0
  Ni  Ni317  1  0.21911967  0.69559600  0.10343530  1.0
  Ni  Ni318  1  0.55245300  0.02892933  0.10343530  1.0
  Ni  Ni319  1  0.55245300  0.36226267  0.10343530  1.0
  Ni  Ni320  1  0.55245300  0.69559600  0.10343530  1.0
  Ni  Ni321  1  0.88578633  0.02892933  0.10343530  1.0
  Ni  Ni322  1  0.88578633  0.36226267  0.10343530  1.0
  Ni  Ni323  1  0.88578633  0.69559600  0.10343530  1.0
  Ni  Ni324  1  0.21911967  0.22514700  0.12116590  1.0
  Ni  Ni325  1  0.21911967  0.55848033  0.12116590  1.0
  Ni  Ni326  1  0.21911967  0.89181367  0.12116590  1.0
  Ni  Ni327  1  0.55245300  0.22514700  0.12116590  1.0
  Ni  Ni328  1  0.55245300  0.55848033  0.12116590  1.0
  Ni  Ni329  1  0.55245300  0.89181367  0.12116590  1.0
  Ni  Ni330  1  0.88578633  0.22514700  0.12116590  1.0
  Ni  Ni331  1  0.88578633  0.55848033  0.12116590  1.0
  Ni  Ni332  1  0.88578633  0.89181367  0.12116590  1.0
  Ni  Ni333  1  0.29837667  0.19019033  0.14494300  1.0
  Ni  Ni334  1  0.29837667  0.52352367  0.14494300  1.0
  Ni  Ni335  1  0.29837667  0.85685700  0.14494300  1.0
  Ni  Ni336  1  0.63171000  0.19019033  0.14494300  1.0
  Ni  Ni337  1  0.63171000  0.52352367  0.14494300  1.0
  Ni  Ni338  1  0.63171000  0.85685700  0.14494300  1.0
  Ni  Ni339  1  0.96504333  0.19019033  0.14494300  1.0
  Ni  Ni340  1  0.96504333  0.52352367  0.14494300  1.0
  Ni  Ni341  1  0.96504333  0.85685700  0.14494300  1.0
  Ni  Ni342  1  0.03495667  0.00602733  0.16591700  1.0
  Ni  Ni343  1  0.03495667  0.33936067  0.16591700  1.0
  Ni  Ni344  1  0.03495667  0.67269400  0.16591700  1.0
  Ni  Ni345  1  0.36829000  0.00602733  0.16591700  1.0
  Ni  Ni346  1  0.36829000  0.33936067  0.16591700  1.0
  Ni  Ni347  1  0.36829000  0.67269400  0.16591700  1.0
  Ni  Ni348  1  0.70162333  0.00602733  0.16591700  1.0
  Ni  Ni349  1  0.70162333  0.33936067  0.16591700  1.0
  Ni  Ni350  1  0.70162333  0.67269400  0.16591700  1.0
  Ni  Ni351  1  0.11421367  0.30440400  0.18969410  1.0
  Ni  Ni352  1  0.11421367  0.63773733  0.18969410  1.0
  Ni  Ni353  1  0.11421367  0.97107067  0.18969410  1.0
  Ni  Ni354  1  0.44754700  0.30440400  0.18969410  1.0
  Ni  Ni355  1  0.44754700  0.63773733  0.18969410  1.0
  Ni  Ni356  1  0.44754700  0.97107067  0.18969410  1.0
  Ni  Ni357  1  0.78088033  0.30440400  0.18969410  1.0
  Ni  Ni358  1  0.78088033  0.63773733  0.18969410  1.0
  Ni  Ni359  1  0.78088033  0.97107067  0.18969410  1.0
  Zr  Zr360  1  0.00000000  0.00000000  0.29656470  1.0
  Zr  Zr361  1  0.00000000  0.33333333  0.29656470  1.0
  Zr  Zr362  1  0.00000000  0.66666667  0.29656470  1.0
  Zr  Zr363  1  0.33333333  0.00000000  0.29656470  1.0
  Zr  Zr364  1  0.33333333  0.33333333  0.29656470  1.0
  Zr  Zr365  1  0.33333333  0.66666667  0.29656470  1.0
  Zr  Zr366  1  0.66666667  0.00000000  0.29656470  1.0
  Zr  Zr367  1  0.66666667  0.33333333  0.29656470  1.0
  Zr  Zr368  1  0.66666667  0.66666667  0.29656470  1.0
  Zr  Zr369  1  0.22091267  0.08251967  0.26283850  1.0
  Zr  Zr370  1  0.22091267  0.41585300  0.26283850  1.0
  Zr  Zr371  1  0.22091267  0.74918633  0.26283850  1.0
  Zr  Zr372  1  0.55424600  0.08251967  0.26283850  1.0
  Zr  Zr373  1  0.55424600  0.41585300  0.26283850  1.0
  Zr  Zr374  1  0.55424600  0.74918633  0.26283850  1.0
  Zr  Zr375  1  0.88757933  0.08251967  0.26283850  1.0
  Zr  Zr376  1  0.88757933  0.41585300  0.26283850  1.0
  Zr  Zr377  1  0.88757933  0.74918633  0.26283850  1.0
  Zr  Zr378  1  0.05587333  0.13839300  0.21332670  1.0
  Zr  Zr379  1  0.05587333  0.47172633  0.21332670  1.0
  Zr  Zr380  1  0.05587333  0.80505967  0.21332670  1.0
  Zr  Zr381  1  0.38920667  0.13839300  0.21332670  1.0
  Zr  Zr382  1  0.38920667  0.47172633  0.21332670  1.0
  Zr  Zr383  1  0.38920667  0.80505967  0.21332670  1.0
  Zr  Zr384  1  0.72254000  0.13839300  0.21332670  1.0
  Zr  Zr385  1  0.72254000  0.47172633  0.21332670  1.0
  Zr  Zr386  1  0.72254000  0.80505967  0.21332670  1.0
  Zr  Zr387  1  0.27746000  0.19494033  0.27980270  1.0
  Zr  Zr388  1  0.27746000  0.52827367  0.27980270  1.0
  Zr  Zr389  1  0.27746000  0.86160700  0.27980270  1.0
  Zr  Zr390  1  0.61079333  0.19494033  0.27980270  1.0
  Zr  Zr391  1  0.61079333  0.52827367  0.27980270  1.0
  Zr  Zr392  1  0.61079333  0.86160700  0.27980270  1.0
  Zr  Zr393  1  0.94412667  0.19494033  0.27980270  1.0
  Zr  Zr394  1  0.94412667  0.52827367  0.27980270  1.0
  Zr  Zr395  1  0.94412667  0.86160700  0.27980270  1.0
  Zr  Zr396  1  0.11242067  0.25081367  0.23029090  1.0
  Zr  Zr397  1  0.11242067  0.58414700  0.23029090  1.0
  Zr  Zr398  1  0.11242067  0.91748033  0.23029090  1.0
  Zr  Zr399  1  0.44575400  0.25081367  0.23029090  1.0
  Zr  Zr400  1  0.44575400  0.58414700  0.23029090  1.0
  Zr  Zr401  1  0.44575400  0.91748033  0.23029090  1.0
  Zr  Zr402  1  0.77908733  0.25081367  0.23029090  1.0
  Zr  Zr403  1  0.77908733  0.58414700  0.23029090  1.0
  Zr  Zr404  1  0.77908733  0.91748033  0.23029090  1.0
  Zr  Zr405  1  0.13397433  0.10377467  0.23675700  1.0
  Zr  Zr406  1  0.13397433  0.43710800  0.23675700  1.0
  Zr  Zr407  1  0.13397433  0.77044133  0.23675700  1.0
  Zr  Zr408  1  0.46730767  0.10377467  0.23675700  1.0
  Zr  Zr409  1  0.46730767  0.43710800  0.23675700  1.0
  Zr  Zr410  1  0.46730767  0.77044133  0.23675700  1.0
  Zr  Zr411  1  0.80064100  0.10377467  0.23675700  1.0
  Zr  Zr412  1  0.80064100  0.43710800  0.23675700  1.0
  Zr  Zr413  1  0.80064100  0.77044133  0.23675700  1.0
  Zr  Zr414  1  0.25975833  0.03019967  0.27449220  1.0
  Zr  Zr415  1  0.25975833  0.36353300  0.27449220  1.0
  Zr  Zr416  1  0.25975833  0.69686633  0.27449220  1.0
  Zr  Zr417  1  0.59309167  0.03019967  0.27449220  1.0
  Zr  Zr418  1  0.59309167  0.36353300  0.27449220  1.0
  Zr  Zr419  1  0.59309167  0.69686633  0.27449220  1.0
  Zr  Zr420  1  0.92642500  0.03019967  0.27449220  1.0
  Zr  Zr421  1  0.92642500  0.36353300  0.27449220  1.0
  Zr  Zr422  1  0.92642500  0.69686633  0.27449220  1.0
  Zr  Zr423  1  0.07357500  0.30313367  0.21863720  1.0
  Zr  Zr424  1  0.07357500  0.63646700  0.21863720  1.0
  Zr  Zr425  1  0.07357500  0.96980033  0.21863720  1.0
  Zr  Zr426  1  0.40690833  0.30313367  0.21863720  1.0
  Zr  Zr427  1  0.40690833  0.63646700  0.21863720  1.0
  Zr  Zr428  1  0.40690833  0.96980033  0.21863720  1.0
  Zr  Zr429  1  0.74024167  0.30313367  0.21863720  1.0
  Zr  Zr430  1  0.74024167  0.63646700  0.21863720  1.0
  Zr  Zr431  1  0.74024167  0.96980033  0.21863720  1.0
  Zr  Zr432  1  0.19935900  0.22955867  0.25637240  1.0
  Zr  Zr433  1  0.19935900  0.56289200  0.25637240  1.0
  Zr  Zr434  1  0.19935900  0.89622533  0.25637240  1.0
  Zr  Zr435  1  0.53269233  0.22955867  0.25637240  1.0
  Zr  Zr436  1  0.53269233  0.56289200  0.25637240  1.0
  Zr  Zr437  1  0.53269233  0.89622533  0.25637240  1.0
  Zr  Zr438  1  0.86602567  0.22955867  0.25637240  1.0
  Zr  Zr439  1  0.86602567  0.56289200  0.25637240  1.0
  Zr  Zr440  1  0.86602567  0.89622533  0.25637240  1.0
  Ni  Ni441  1  0.00000000  0.16666667  0.29656470  1.0
  Ni  Ni442  1  0.00000000  0.50000000  0.29656470  1.0
  Ni  Ni443  1  0.00000000  0.83333333  0.29656470  1.0
  Ni  Ni444  1  0.33333333  0.16666667  0.29656470  1.0
  Ni  Ni445  1  0.33333333  0.50000000  0.29656470  1.0
  Ni  Ni446  1  0.33333333  0.83333333  0.29656470  1.0
  Ni  Ni447  1  0.66666667  0.16666667  0.29656470  1.0
  Ni  Ni448  1  0.66666667  0.50000000  0.29656470  1.0
  Ni  Ni449  1  0.66666667  0.83333333  0.29656470  1.0
  Ni  Ni450  1  0.16666667  0.25000000  0.29656470  1.0
  Ni  Ni451  1  0.16666667  0.58333333  0.29656470  1.0
  Ni  Ni452  1  0.16666667  0.91666667  0.29656470  1.0
  Ni  Ni453  1  0.50000000  0.25000000  0.29656470  1.0
  Ni  Ni454  1  0.50000000  0.58333333  0.29656470  1.0
  Ni  Ni455  1  0.50000000  0.91666667  0.29656470  1.0
  Ni  Ni456  1  0.83333333  0.25000000  0.29656470  1.0
  Ni  Ni457  1  0.83333333  0.58333333  0.29656470  1.0
  Ni  Ni458  1  0.83333333  0.91666667  0.29656470  1.0
  Ni  Ni459  1  0.16666667  0.08333333  0.29656470  1.0
  Ni  Ni460  1  0.16666667  0.41666667  0.29656470  1.0
  Ni  Ni461  1  0.16666667  0.75000000  0.29656470  1.0
  Ni  Ni462  1  0.50000000  0.08333333  0.29656470  1.0
  Ni  Ni463  1  0.50000000  0.41666667  0.29656470  1.0
  Ni  Ni464  1  0.50000000  0.75000000  0.29656470  1.0
  Ni  Ni465  1  0.83333333  0.08333333  0.29656470  1.0
  Ni  Ni466  1  0.83333333  0.41666667  0.29656470  1.0
  Ni  Ni467  1  0.83333333  0.75000000  0.29656470  1.0
  Ni  Ni468  1  0.11421367  0.10818633  0.27196350  1.0
  Ni  Ni469  1  0.11421367  0.44151967  0.27196350  1.0
  Ni  Ni470  1  0.11421367  0.77485300  0.27196350  1.0
  Ni  Ni471  1  0.44754700  0.10818633  0.27196350  1.0
  Ni  Ni472  1  0.44754700  0.44151967  0.27196350  1.0
  Ni  Ni473  1  0.44754700  0.77485300  0.27196350  1.0
  Ni  Ni474  1  0.78088033  0.10818633  0.27196350  1.0
  Ni  Ni475  1  0.78088033  0.44151967  0.27196350  1.0
  Ni  Ni476  1  0.78088033  0.77485300  0.27196350  1.0
  Ni  Ni477  1  0.03495667  0.14314300  0.24818640  1.0
  Ni  Ni478  1  0.03495667  0.47647633  0.24818640  1.0
  Ni  Ni479  1  0.03495667  0.80980967  0.24818640  1.0
  Ni  Ni480  1  0.36829000  0.14314300  0.24818640  1.0
  Ni  Ni481  1  0.36829000  0.47647633  0.24818640  1.0
  Ni  Ni482  1  0.36829000  0.80980967  0.24818640  1.0
  Ni  Ni483  1  0.70162333  0.14314300  0.24818640  1.0
  Ni  Ni484  1  0.70162333  0.47647633  0.24818640  1.0
  Ni  Ni485  1  0.70162333  0.80980967  0.24818640  1.0
  Ni  Ni486  1  0.29837667  0.32730600  0.22721240  1.0
  Ni  Ni487  1  0.29837667  0.66063933  0.22721240  1.0
  Ni  Ni488  1  0.29837667  0.99397267  0.22721240  1.0
  Ni  Ni489  1  0.63171000  0.32730600  0.22721240  1.0
  Ni  Ni490  1  0.63171000  0.66063933  0.22721240  1.0
  Ni  Ni491  1  0.63171000  0.99397267  0.22721240  1.0
  Ni  Ni492  1  0.96504333  0.32730600  0.22721240  1.0
  Ni  Ni493  1  0.96504333  0.66063933  0.22721240  1.0
  Ni  Ni494  1  0.96504333  0.99397267  0.22721240  1.0
  Ni  Ni495  1  0.21911967  0.02892933  0.20343530  1.0
  Ni  Ni496  1  0.21911967  0.36226267  0.20343530  1.0
  Ni  Ni497  1  0.21911967  0.69559600  0.20343530  1.0
  Ni  Ni498  1  0.55245300  0.02892933  0.20343530  1.0
  Ni  Ni499  1  0.55245300  0.36226267  0.20343530  1.0
  Ni  Ni500  1  0.55245300  0.69559600  0.20343530  1.0
  Ni  Ni501  1  0.88578633  0.02892933  0.20343530  1.0
  Ni  Ni502  1  0.88578633  0.36226267  0.20343530  1.0
  Ni  Ni503  1  0.88578633  0.69559600  0.20343530  1.0
  Ni  Ni504  1  0.21911967  0.22514700  0.22116590  1.0
  Ni  Ni505  1  0.21911967  0.55848033  0.22116590  1.0
  Ni  Ni506  1  0.21911967  0.89181367  0.22116590  1.0
  Ni  Ni507  1  0.55245300  0.22514700  0.22116590  1.0
  Ni  Ni508  1  0.55245300  0.55848033  0.22116590  1.0
  Ni  Ni509  1  0.55245300  0.89181367  0.22116590  1.0
  Ni  Ni510  1  0.88578633  0.22514700  0.22116590  1.0
  Ni  Ni511  1  0.88578633  0.55848033  0.22116590  1.0
  Ni  Ni512  1  0.88578633  0.89181367  0.22116590  1.0
  Ni  Ni513  1  0.29837667  0.19019033  0.24494300  1.0
  Ni  Ni514  1  0.29837667  0.52352367  0.24494300  1.0
  Ni  Ni515  1  0.29837667  0.85685700  0.24494300  1.0
  Ni  Ni516  1  0.63171000  0.19019033  0.24494300  1.0
  Ni  Ni517  1  0.63171000  0.52352367  0.24494300  1.0
  Ni  Ni518  1  0.63171000  0.85685700  0.24494300  1.0
  Ni  Ni519  1  0.96504333  0.19019033  0.24494300  1.0
  Ni  Ni520  1  0.96504333  0.52352367  0.24494300  1.0
  Ni  Ni521  1  0.96504333  0.85685700  0.24494300  1.0
  Ni  Ni522  1  0.03495667  0.00602733  0.26591700  1.0
  Ni  Ni523  1  0.03495667  0.33936067  0.26591700  1.0
  Ni  Ni524  1  0.03495667  0.67269400  0.26591700  1.0
  Ni  Ni525  1  0.36829000  0.00602733  0.26591700  1.0
  Ni  Ni526  1  0.36829000  0.33936067  0.26591700  1.0
  Ni  Ni527  1  0.36829000  0.67269400  0.26591700  1.0
  Ni  Ni528  1  0.70162333  0.00602733  0.26591700  1.0
  Ni  Ni529  1  0.70162333  0.33936067  0.26591700  1.0
  Ni  Ni530  1  0.70162333  0.67269400  0.26591700  1.0
  Ni  Ni531  1  0.11421367  0.30440400  0.28969410  1.0
  Ni  Ni532  1  0.11421367  0.63773733  0.28969410  1.0
  Ni  Ni533  1  0.11421367  0.97107067  0.28969410  1.0
  Ni  Ni534  1  0.44754700  0.30440400  0.28969410  1.0
  Ni  Ni535  1  0.44754700  0.63773733  0.28969410  1.0
  Ni  Ni536  1  0.44754700  0.97107067  0.28969410  1.0
  Ni  Ni537  1  0.78088033  0.30440400  0.28969410  1.0
  Ni  Ni538  1  0.78088033  0.63773733  0.28969410  1.0
  Ni  Ni539  1  0.78088033  0.97107067  0.28969410  1.0
  Zr  Zr540  1  0.00000000  0.00000000  0.39656470  1.0
  Zr  Zr541  1  0.00000000  0.33333333  0.39656470  1.0
  Zr  Zr542  1  0.00000000  0.66666667  0.39656470  1.0
  Zr  Zr543  1  0.33333333  0.00000000  0.39656470  1.0
  Zr  Zr544  1  0.33333333  0.33333333  0.39656470  1.0
  Zr  Zr545  1  0.33333333  0.66666667  0.39656470  1.0
  Zr  Zr546  1  0.66666667  0.00000000  0.39656470  1.0
  Zr  Zr547  1  0.66666667  0.33333333  0.39656470  1.0
  Zr  Zr548  1  0.66666667  0.66666667  0.39656470  1.0
  Zr  Zr549  1  0.22091267  0.08251967  0.36283850  1.0
  Zr  Zr550  1  0.22091267  0.41585300  0.36283850  1.0
  Zr  Zr551  1  0.22091267  0.74918633  0.36283850  1.0
  Zr  Zr552  1  0.55424600  0.08251967  0.36283850  1.0
  Zr  Zr553  1  0.55424600  0.41585300  0.36283850  1.0
  Zr  Zr554  1  0.55424600  0.74918633  0.36283850  1.0
  Zr  Zr555  1  0.88757933  0.08251967  0.36283850  1.0
  Zr  Zr556  1  0.88757933  0.41585300  0.36283850  1.0
  Zr  Zr557  1  0.88757933  0.74918633  0.36283850  1.0
  Zr  Zr558  1  0.05587333  0.13839300  0.31332670  1.0
  Zr  Zr559  1  0.05587333  0.47172633  0.31332670  1.0
  Zr  Zr560  1  0.05587333  0.80505967  0.31332670  1.0
  Zr  Zr561  1  0.38920667  0.13839300  0.31332670  1.0
  Zr  Zr562  1  0.38920667  0.47172633  0.31332670  1.0
  Zr  Zr563  1  0.38920667  0.80505967  0.31332670  1.0
  Zr  Zr564  1  0.72254000  0.13839300  0.31332670  1.0
  Zr  Zr565  1  0.72254000  0.47172633  0.31332670  1.0
  Zr  Zr566  1  0.72254000  0.80505967  0.31332670  1.0
  Zr  Zr567  1  0.27746000  0.19494033  0.37980270  1.0
  Zr  Zr568  1  0.27746000  0.52827367  0.37980270  1.0
  Zr  Zr569  1  0.27746000  0.86160700  0.37980270  1.0
  Zr  Zr570  1  0.61079333  0.19494033  0.37980270  1.0
  Zr  Zr571  1  0.61079333  0.52827367  0.37980270  1.0
  Zr  Zr572  1  0.61079333  0.86160700  0.37980270  1.0
  Zr  Zr573  1  0.94412667  0.19494033  0.37980270  1.0
  Zr  Zr574  1  0.94412667  0.52827367  0.37980270  1.0
  Zr  Zr575  1  0.94412667  0.86160700  0.37980270  1.0
  Zr  Zr576  1  0.11242067  0.25081367  0.33029090  1.0
  Zr  Zr577  1  0.11242067  0.58414700  0.33029090  1.0
  Zr  Zr578  1  0.11242067  0.91748033  0.33029090  1.0
  Zr  Zr579  1  0.44575400  0.25081367  0.33029090  1.0
  Zr  Zr580  1  0.44575400  0.58414700  0.33029090  1.0
  Zr  Zr581  1  0.44575400  0.91748033  0.33029090  1.0
  Zr  Zr582  1  0.77908733  0.25081367  0.33029090  1.0
  Zr  Zr583  1  0.77908733  0.58414700  0.33029090  1.0
  Zr  Zr584  1  0.77908733  0.91748033  0.33029090  1.0
  Zr  Zr585  1  0.13397433  0.10377467  0.33675700  1.0
  Zr  Zr586  1  0.13397433  0.43710800  0.33675700  1.0
  Zr  Zr587  1  0.13397433  0.77044133  0.33675700  1.0
  Zr  Zr588  1  0.46730767  0.10377467  0.33675700  1.0
  Zr  Zr589  1  0.46730767  0.43710800  0.33675700  1.0
  Zr  Zr590  1  0.46730767  0.77044133  0.33675700  1.0
  Zr  Zr591  1  0.80064100  0.10377467  0.33675700  1.0
  Zr  Zr592  1  0.80064100  0.43710800  0.33675700  1.0
  Zr  Zr593  1  0.80064100  0.77044133  0.33675700  1.0
  Zr  Zr594  1  0.25975833  0.03019967  0.37449220  1.0
  Zr  Zr595  1  0.25975833  0.36353300  0.37449220  1.0
  Zr  Zr596  1  0.25975833  0.69686633  0.37449220  1.0
  Zr  Zr597  1  0.59309167  0.03019967  0.37449220  1.0
  Zr  Zr598  1  0.59309167  0.36353300  0.37449220  1.0
  Zr  Zr599  1  0.59309167  0.69686633  0.37449220  1.0
  Zr  Zr600  1  0.92642500  0.03019967  0.37449220  1.0
  Zr  Zr601  1  0.92642500  0.36353300  0.37449220  1.0
  Zr  Zr602  1  0.92642500  0.69686633  0.37449220  1.0
  Zr  Zr603  1  0.07357500  0.30313367  0.31863720  1.0
  Zr  Zr604  1  0.07357500  0.63646700  0.31863720  1.0
  Zr  Zr605  1  0.07357500  0.96980033  0.31863720  1.0
  Zr  Zr606  1  0.40690833  0.30313367  0.31863720  1.0
  Zr  Zr607  1  0.40690833  0.63646700  0.31863720  1.0
  Zr  Zr608  1  0.40690833  0.96980033  0.31863720  1.0
  Zr  Zr609  1  0.74024167  0.30313367  0.31863720  1.0
  Zr  Zr610  1  0.74024167  0.63646700  0.31863720  1.0
  Zr  Zr611  1  0.74024167  0.96980033  0.31863720  1.0
  Zr  Zr612  1  0.19935900  0.22955867  0.35637240  1.0
  Zr  Zr613  1  0.19935900  0.56289200  0.35637240  1.0
  Zr  Zr614  1  0.19935900  0.89622533  0.35637240  1.0
  Zr  Zr615  1  0.53269233  0.22955867  0.35637240  1.0
  Zr  Zr616  1  0.53269233  0.56289200  0.35637240  1.0
  Zr  Zr617  1  0.53269233  0.89622533  0.35637240  1.0
  Zr  Zr618  1  0.86602567  0.22955867  0.35637240  1.0
  Zr  Zr619  1  0.86602567  0.56289200  0.35637240  1.0
  Zr  Zr620  1  0.86602567  0.89622533  0.35637240  1.0
  Ni  Ni621  1  0.00000000  0.16666667  0.39656470  1.0
  Ni  Ni622  1  0.00000000  0.50000000  0.39656470  1.0
  Ni  Ni623  1  0.00000000  0.83333333  0.39656470  1.0
  Ni  Ni624  1  0.33333333  0.16666667  0.39656470  1.0
  Ni  Ni625  1  0.33333333  0.50000000  0.39656470  1.0
  Ni  Ni626  1  0.33333333  0.83333333  0.39656470  1.0
  Ni  Ni627  1  0.66666667  0.16666667  0.39656470  1.0
  Ni  Ni628  1  0.66666667  0.50000000  0.39656470  1.0
  Ni  Ni629  1  0.66666667  0.83333333  0.39656470  1.0
  Ni  Ni630  1  0.16666667  0.25000000  0.39656470  1.0
  Ni  Ni631  1  0.16666667  0.58333333  0.39656470  1.0
  Ni  Ni632  1  0.16666667  0.91666667  0.39656470  1.0
  Ni  Ni633  1  0.50000000  0.25000000  0.39656470  1.0
  Ni  Ni634  1  0.50000000  0.58333333  0.39656470  1.0
  Ni  Ni635  1  0.50000000  0.91666667  0.39656470  1.0
  Ni  Ni636  1  0.83333333  0.25000000  0.39656470  1.0
  Ni  Ni637  1  0.83333333  0.58333333  0.39656470  1.0
  Ni  Ni638  1  0.83333333  0.91666667  0.39656470  1.0
  Ni  Ni639  1  0.16666667  0.08333333  0.39656470  1.0
  Ni  Ni640  1  0.16666667  0.41666667  0.39656470  1.0
  Ni  Ni641  1  0.16666667  0.75000000  0.39656470  1.0
  Ni  Ni642  1  0.50000000  0.08333333  0.39656470  1.0
  Ni  Ni643  1  0.50000000  0.41666667  0.39656470  1.0
  Ni  Ni644  1  0.50000000  0.75000000  0.39656470  1.0
  Ni  Ni645  1  0.83333333  0.08333333  0.39656470  1.0
  Ni  Ni646  1  0.83333333  0.41666667  0.39656470  1.0
  Ni  Ni647  1  0.83333333  0.75000000  0.39656470  1.0
  Ni  Ni648  1  0.11421367  0.10818633  0.37196350  1.0
  Ni  Ni649  1  0.11421367  0.44151967  0.37196350  1.0
  Ni  Ni650  1  0.11421367  0.77485300  0.37196350  1.0
  Ni  Ni651  1  0.44754700  0.10818633  0.37196350  1.0
  Ni  Ni652  1  0.44754700  0.44151967  0.37196350  1.0
  Ni  Ni653  1  0.44754700  0.77485300  0.37196350  1.0
  Ni  Ni654  1  0.78088033  0.10818633  0.37196350  1.0
  Ni  Ni655  1  0.78088033  0.44151967  0.37196350  1.0
  Ni  Ni656  1  0.78088033  0.77485300  0.37196350  1.0
  Ni  Ni657  1  0.03495667  0.14314300  0.34818640  1.0
  Ni  Ni658  1  0.03495667  0.47647633  0.34818640  1.0
  Ni  Ni659  1  0.03495667  0.80980967  0.34818640  1.0
  Ni  Ni660  1  0.36829000  0.14314300  0.34818640  1.0
  Ni  Ni661  1  0.36829000  0.47647633  0.34818640  1.0
  Ni  Ni662  1  0.36829000  0.80980967  0.34818640  1.0
  Ni  Ni663  1  0.70162333  0.14314300  0.34818640  1.0
  Ni  Ni664  1  0.70162333  0.47647633  0.34818640  1.0
  Ni  Ni665  1  0.70162333  0.80980967  0.34818640  1.0
  Ni  Ni666  1  0.29837667  0.32730600  0.32721240  1.0
  Ni  Ni667  1  0.29837667  0.66063933  0.32721240  1.0
  Ni  Ni668  1  0.29837667  0.99397267  0.32721240  1.0
  Ni  Ni669  1  0.63171000  0.32730600  0.32721240  1.0
  Ni  Ni670  1  0.63171000  0.66063933  0.32721240  1.0
  Ni  Ni671  1  0.63171000  0.99397267  0.32721240  1.0
  Ni  Ni672  1  0.96504333  0.32730600  0.32721240  1.0
  Ni  Ni673  1  0.96504333  0.66063933  0.32721240  1.0
  Ni  Ni674  1  0.96504333  0.99397267  0.32721240  1.0
  Ni  Ni675  1  0.21911967  0.02892933  0.30343530  1.0
  Ni  Ni676  1  0.21911967  0.36226267  0.30343530  1.0
  Ni  Ni677  1  0.21911967  0.69559600  0.30343530  1.0
  Ni  Ni678  1  0.55245300  0.02892933  0.30343530  1.0
  Ni  Ni679  1  0.55245300  0.36226267  0.30343530  1.0
  Ni  Ni680  1  0.55245300  0.69559600  0.30343530  1.0
  Ni  Ni681  1  0.88578633  0.02892933  0.30343530  1.0
  Ni  Ni682  1  0.88578633  0.36226267  0.30343530  1.0
  Ni  Ni683  1  0.88578633  0.69559600  0.30343530  1.0
  Ni  Ni684  1  0.21911967  0.22514700  0.32116590  1.0
  Ni  Ni685  1  0.21911967  0.55848033  0.32116590  1.0
  Ni  Ni686  1  0.21911967  0.89181367  0.32116590  1.0
  Ni  Ni687  1  0.55245300  0.22514700  0.32116590  1.0
  Ni  Ni688  1  0.55245300  0.55848033  0.32116590  1.0
  Ni  Ni689  1  0.55245300  0.89181367  0.32116590  1.0
  Ni  Ni690  1  0.88578633  0.22514700  0.32116590  1.0
  Ni  Ni691  1  0.88578633  0.55848033  0.32116590  1.0
  Ni  Ni692  1  0.88578633  0.89181367  0.32116590  1.0
  Ni  Ni693  1  0.29837667  0.19019033  0.34494300  1.0
  Ni  Ni694  1  0.29837667  0.52352367  0.34494300  1.0
  Ni  Ni695  1  0.29837667  0.85685700  0.34494300  1.0
  Ni  Ni696  1  0.63171000  0.19019033  0.34494300  1.0
  Ni  Ni697  1  0.63171000  0.52352367  0.34494300  1.0
  Ni  Ni698  1  0.63171000  0.85685700  0.34494300  1.0
  Ni  Ni699  1  0.96504333  0.19019033  0.34494300  1.0
  Ni  Ni700  1  0.96504333  0.52352367  0.34494300  1.0
  Ni  Ni701  1  0.96504333  0.85685700  0.34494300  1.0
  Ni  Ni702  1  0.03495667  0.00602733  0.36591700  1.0
  Ni  Ni703  1  0.03495667  0.33936067  0.36591700  1.0
  Ni  Ni704  1  0.03495667  0.67269400  0.36591700  1.0
  Ni  Ni705  1  0.36829000  0.00602733  0.36591700  1.0
  Ni  Ni706  1  0.36829000  0.33936067  0.36591700  1.0
  Ni  Ni707  1  0.36829000  0.67269400  0.36591700  1.0
  Ni  Ni708  1  0.70162333  0.00602733  0.36591700  1.0
  Ni  Ni709  1  0.70162333  0.33936067  0.36591700  1.0
  Ni  Ni710  1  0.70162333  0.67269400  0.36591700  1.0
  Ni  Ni711  1  0.11421367  0.30440400  0.38969410  1.0
  Ni  Ni712  1  0.11421367  0.63773733  0.38969410  1.0
  Ni  Ni713  1  0.11421367  0.97107067  0.38969410  1.0
  Ni  Ni714  1  0.44754700  0.30440400  0.38969410  1.0
  Ni  Ni715  1  0.44754700  0.63773733  0.38969410  1.0
  Ni  Ni716  1  0.44754700  0.97107067  0.38969410  1.0
  Ni  Ni717  1  0.78088033  0.30440400  0.38969410  1.0
  Ni  Ni718  1  0.78088033  0.63773733  0.38969410  1.0
  Ni  Ni719  1  0.78088033  0.97107067  0.38969410  1.0
