# generated using pymatgen
data_Zr9Ni11
_symmetry_space_group_name_H-M   'P 1'
_cell_length_a   36.03360100
_cell_length_b   35.72274156
_cell_length_c   54.40818628
_cell_angle_alpha   40.00418882
_cell_angle_beta   101.42035672
_cell_angle_gamma   84.80090440
_symmetry_Int_Tables_number   1
_chemical_formula_structural   Zr9Ni11
_chemical_formula_sum   'Zr486 Ni594'
_cell_volume   40737.53994291
_cell_formula_units_Z   54
loop_
 _symmetry_equiv_pos_site_id
 _symmetry_equiv_pos_as_xyz
  1  'x, y, z'
loop_
 _atom_site_type_symbol
 _atom_site_label
 _atom_site_symmetry_multiplicity
 _atom_site_fract_x
 _atom_site_fract_y
 _atom_site_fract_z
 _atom_site_occupancy
  Zr  Zr0  1  0.16666667  0.00000000  0.06978168  1.0
  Zr  Zr1  1  0.16666667  0.33333333  0.06978168  1.0
  Zr  Zr2  1  0.16666667  0.66666667  0.06978168  1.0
  Zr  Zr3  1  0.50000000  0.00000000  0.06978168  1.0
  Zr  Zr4  1  0.50000000  0.33333333  0.06978168  1.0
  Zr  Zr5  1  0.50000000  0.66666667  0.06978168  1.0
  Zr  Zr6  1  0.83333333  0.00000000  0.06978168  1.0
  Zr  Zr7  1  0.83333333  0.33333333  0.06978168  1.0
  Zr  Zr8  1  0.83333333  0.66666667  0.06978168  1.0
  Zr  Zr9  1  0.00000000  0.00000000  0.14121025  1.0
  Zr  Zr10  1  0.00000000  0.33333333  0.14121025  1.0
  Zr  Zr11  1  0.00000000  0.66666667  0.14121025  1.0
  Zr  Zr12  1  0.33333333  0.00000000  0.14121025  1.0
  Zr  Zr13  1  0.33333333  0.33333333  0.14121025  1.0
  Zr  Zr14  1  0.33333333  0.66666667  0.14121025  1.0
  Zr  Zr15  1  0.66666667  0.00000000  0.14121025  1.0
  Zr  Zr16  1  0.66666667  0.33333333  0.14121025  1.0
  Zr  Zr17  1  0.66666667  0.66666667  0.14121025  1.0
  Zr  Zr18  1  0.04125983  0.11242067  0.13465846  1.0
  Zr  Zr19  1  0.04125983  0.44575400  0.13465846  1.0
  Zr  Zr20  1  0.04125983  0.77908733  0.13465846  1.0
  Zr  Zr21  1  0.37459317  0.11242067  0.13465846  1.0
  Zr  Zr22  1  0.37459317  0.44575400  0.13465846  1.0
  Zr  Zr23  1  0.37459317  0.77908733  0.13465846  1.0
  Zr  Zr24  1  0.70792650  0.11242067  0.13465846  1.0
  Zr  Zr25  1  0.70792650  0.44575400  0.13465846  1.0
  Zr  Zr26  1  0.70792650  0.77908733  0.13465846  1.0
  Zr  Zr27  1  0.20792650  0.11242067  0.06322989  1.0
  Zr  Zr28  1  0.20792650  0.44575400  0.06322989  1.0
  Zr  Zr29  1  0.20792650  0.77908733  0.06322989  1.0
  Zr  Zr30  1  0.54125983  0.11242067  0.06322989  1.0
  Zr  Zr31  1  0.54125983  0.44575400  0.06322989  1.0
  Zr  Zr32  1  0.54125983  0.77908733  0.06322989  1.0
  Zr  Zr33  1  0.87459317  0.11242067  0.06322989  1.0
  Zr  Zr34  1  0.87459317  0.44575400  0.06322989  1.0
  Zr  Zr35  1  0.87459317  0.77908733  0.06322989  1.0
  Zr  Zr36  1  0.06919650  0.27746000  0.10013475  1.0
  Zr  Zr37  1  0.06919650  0.61079333  0.10013475  1.0
  Zr  Zr38  1  0.06919650  0.94412667  0.10013475  1.0
  Zr  Zr39  1  0.40252983  0.27746000  0.10013475  1.0
  Zr  Zr40  1  0.40252983  0.61079333  0.10013475  1.0
  Zr  Zr41  1  0.40252983  0.94412667  0.10013475  1.0
  Zr  Zr42  1  0.73586317  0.27746000  0.10013475  1.0
  Zr  Zr43  1  0.73586317  0.61079333  0.10013475  1.0
  Zr  Zr44  1  0.73586317  0.94412667  0.10013475  1.0
  Zr  Zr45  1  0.23586317  0.27746000  0.02870618  1.0
  Zr  Zr46  1  0.23586317  0.61079333  0.02870618  1.0
  Zr  Zr47  1  0.23586317  0.94412667  0.02870618  1.0
  Zr  Zr48  1  0.56919650  0.27746000  0.02870618  1.0
  Zr  Zr49  1  0.56919650  0.61079333  0.02870618  1.0
  Zr  Zr50  1  0.56919650  0.94412667  0.02870618  1.0
  Zr  Zr51  1  0.90252983  0.27746000  0.02870618  1.0
  Zr  Zr52  1  0.90252983  0.61079333  0.02870618  1.0
  Zr  Zr53  1  0.90252983  0.94412667  0.02870618  1.0
  Zr  Zr54  1  0.09747017  0.05587333  0.11085718  1.0
  Zr  Zr55  1  0.09747017  0.38920667  0.11085718  1.0
  Zr  Zr56  1  0.09747017  0.72254000  0.11085718  1.0
  Zr  Zr57  1  0.43080350  0.05587333  0.11085718  1.0
  Zr  Zr58  1  0.43080350  0.38920667  0.11085718  1.0
  Zr  Zr59  1  0.43080350  0.72254000  0.11085718  1.0
  Zr  Zr60  1  0.76413683  0.05587333  0.11085718  1.0
  Zr  Zr61  1  0.76413683  0.38920667  0.11085718  1.0
  Zr  Zr62  1  0.76413683  0.72254000  0.11085718  1.0
  Zr  Zr63  1  0.26413683  0.05587333  0.03942861  1.0
  Zr  Zr64  1  0.26413683  0.38920667  0.03942861  1.0
  Zr  Zr65  1  0.26413683  0.72254000  0.03942861  1.0
  Zr  Zr66  1  0.59747017  0.05587333  0.03942861  1.0
  Zr  Zr67  1  0.59747017  0.38920667  0.03942861  1.0
  Zr  Zr68  1  0.59747017  0.72254000  0.03942861  1.0
  Zr  Zr69  1  0.93080350  0.05587333  0.03942861  1.0
  Zr  Zr70  1  0.93080350  0.38920667  0.03942861  1.0
  Zr  Zr71  1  0.93080350  0.72254000  0.03942861  1.0
  Zr  Zr72  1  0.12540683  0.22091267  0.07633346  1.0
  Zr  Zr73  1  0.12540683  0.55424600  0.07633346  1.0
  Zr  Zr74  1  0.12540683  0.88757933  0.07633346  1.0
  Zr  Zr75  1  0.45874017  0.22091267  0.07633346  1.0
  Zr  Zr76  1  0.45874017  0.55424600  0.07633346  1.0
  Zr  Zr77  1  0.45874017  0.88757933  0.07633346  1.0
  Zr  Zr78  1  0.79207350  0.22091267  0.07633346  1.0
  Zr  Zr79  1  0.79207350  0.55424600  0.07633346  1.0
  Zr  Zr80  1  0.79207350  0.88757933  0.07633346  1.0
  Zr  Zr81  1  0.29207350  0.22091267  0.00490489  1.0
  Zr  Zr82  1  0.29207350  0.55424600  0.00490489  1.0
  Zr  Zr83  1  0.29207350  0.88757933  0.00490489  1.0
  Zr  Zr84  1  0.62540683  0.22091267  0.00490489  1.0
  Zr  Zr85  1  0.62540683  0.55424600  0.00490489  1.0
  Zr  Zr86  1  0.62540683  0.88757933  0.00490489  1.0
  Zr  Zr87  1  0.95874017  0.22091267  0.00490489  1.0
  Zr  Zr88  1  0.95874017  0.55424600  0.00490489  1.0
  Zr  Zr89  1  0.95874017  0.88757933  0.00490489  1.0
  Zr  Zr90  1  0.05188733  0.19935900  0.04647596  1.0
  Zr  Zr91  1  0.05188733  0.53269233  0.04647596  1.0
  Zr  Zr92  1  0.05188733  0.86602567  0.04647596  1.0
  Zr  Zr93  1  0.38522067  0.19935900  0.04647596  1.0
  Zr  Zr94  1  0.38522067  0.53269233  0.04647596  1.0
  Zr  Zr95  1  0.38522067  0.86602567  0.04647596  1.0
  Zr  Zr96  1  0.71855400  0.19935900  0.04647596  1.0
  Zr  Zr97  1  0.71855400  0.53269233  0.04647596  1.0
  Zr  Zr98  1  0.71855400  0.86602567  0.04647596  1.0
  Zr  Zr99  1  0.21855400  0.19935900  0.11790454  1.0
  Zr  Zr100  1  0.21855400  0.53269233  0.11790454  1.0
  Zr  Zr101  1  0.21855400  0.86602567  0.11790454  1.0
  Zr  Zr102  1  0.55188733  0.19935900  0.11790454  1.0
  Zr  Zr103  1  0.55188733  0.53269233  0.11790454  1.0
  Zr  Zr104  1  0.55188733  0.86602567  0.11790454  1.0
  Zr  Zr105  1  0.88522067  0.19935900  0.11790454  1.0
  Zr  Zr106  1  0.88522067  0.53269233  0.11790454  1.0
  Zr  Zr107  1  0.88522067  0.86602567  0.11790454  1.0
  Zr  Zr108  1  0.01509983  0.07357500  0.05873189  1.0
  Zr  Zr109  1  0.01509983  0.40690833  0.05873189  1.0
  Zr  Zr110  1  0.01509983  0.74024167  0.05873189  1.0
  Zr  Zr111  1  0.34843317  0.07357500  0.05873189  1.0
  Zr  Zr112  1  0.34843317  0.40690833  0.05873189  1.0
  Zr  Zr113  1  0.34843317  0.74024167  0.05873189  1.0
  Zr  Zr114  1  0.68176650  0.07357500  0.05873189  1.0
  Zr  Zr115  1  0.68176650  0.40690833  0.05873189  1.0
  Zr  Zr116  1  0.68176650  0.74024167  0.05873189  1.0
  Zr  Zr117  1  0.18176650  0.07357500  0.13016046  1.0
  Zr  Zr118  1  0.18176650  0.40690833  0.13016046  1.0
  Zr  Zr119  1  0.18176650  0.74024167  0.13016046  1.0
  Zr  Zr120  1  0.51509983  0.07357500  0.13016046  1.0
  Zr  Zr121  1  0.51509983  0.40690833  0.13016046  1.0
  Zr  Zr122  1  0.51509983  0.74024167  0.13016046  1.0
  Zr  Zr123  1  0.84843317  0.07357500  0.13016046  1.0
  Zr  Zr124  1  0.84843317  0.40690833  0.13016046  1.0
  Zr  Zr125  1  0.84843317  0.74024167  0.13016046  1.0
  Zr  Zr126  1  0.15156683  0.25975833  0.00940289  1.0
  Zr  Zr127  1  0.15156683  0.59309167  0.00940289  1.0
  Zr  Zr128  1  0.15156683  0.92642500  0.00940289  1.0
  Zr  Zr129  1  0.48490017  0.25975833  0.00940289  1.0
  Zr  Zr130  1  0.48490017  0.59309167  0.00940289  1.0
  Zr  Zr131  1  0.48490017  0.92642500  0.00940289  1.0
  Zr  Zr132  1  0.81823350  0.25975833  0.00940289  1.0
  Zr  Zr133  1  0.81823350  0.59309167  0.00940289  1.0
  Zr  Zr134  1  0.81823350  0.92642500  0.00940289  1.0
  Zr  Zr135  1  0.31823350  0.25975833  0.08083146  1.0
  Zr  Zr136  1  0.31823350  0.59309167  0.08083146  1.0
  Zr  Zr137  1  0.31823350  0.92642500  0.08083146  1.0
  Zr  Zr138  1  0.65156683  0.25975833  0.08083146  1.0
  Zr  Zr139  1  0.65156683  0.59309167  0.08083146  1.0
  Zr  Zr140  1  0.65156683  0.92642500  0.08083146  1.0
  Zr  Zr141  1  0.98490017  0.25975833  0.08083146  1.0
  Zr  Zr142  1  0.98490017  0.59309167  0.08083146  1.0
  Zr  Zr143  1  0.98490017  0.92642500  0.08083146  1.0
  Zr  Zr144  1  0.11477933  0.13397433  0.02165882  1.0
  Zr  Zr145  1  0.11477933  0.46730767  0.02165882  1.0
  Zr  Zr146  1  0.11477933  0.80064100  0.02165882  1.0
  Zr  Zr147  1  0.44811267  0.13397433  0.02165882  1.0
  Zr  Zr148  1  0.44811267  0.46730767  0.02165882  1.0
  Zr  Zr149  1  0.44811267  0.80064100  0.02165882  1.0
  Zr  Zr150  1  0.78144600  0.13397433  0.02165882  1.0
  Zr  Zr151  1  0.78144600  0.46730767  0.02165882  1.0
  Zr  Zr152  1  0.78144600  0.80064100  0.02165882  1.0
  Zr  Zr153  1  0.28144600  0.13397433  0.09308739  1.0
  Zr  Zr154  1  0.28144600  0.46730767  0.09308739  1.0
  Zr  Zr155  1  0.28144600  0.80064100  0.09308739  1.0
  Zr  Zr156  1  0.61477933  0.13397433  0.09308739  1.0
  Zr  Zr157  1  0.61477933  0.46730767  0.09308739  1.0
  Zr  Zr158  1  0.61477933  0.80064100  0.09308739  1.0
  Zr  Zr159  1  0.94811267  0.13397433  0.09308739  1.0
  Zr  Zr160  1  0.94811267  0.46730767  0.09308739  1.0
  Zr  Zr161  1  0.94811267  0.80064100  0.09308739  1.0
  Ni  Ni162  1  0.08333333  0.00000000  0.03406739  1.0
  Ni  Ni163  1  0.08333333  0.33333333  0.03406739  1.0
  Ni  Ni164  1  0.08333333  0.66666667  0.03406739  1.0
  Ni  Ni165  1  0.41666667  0.00000000  0.03406739  1.0
  Ni  Ni166  1  0.41666667  0.33333333  0.03406739  1.0
  Ni  Ni167  1  0.41666667  0.66666667  0.03406739  1.0
  Ni  Ni168  1  0.75000000  0.00000000  0.03406739  1.0
  Ni  Ni169  1  0.75000000  0.33333333  0.03406739  1.0
  Ni  Ni170  1  0.75000000  0.66666667  0.03406739  1.0
  Ni  Ni171  1  0.25000000  0.00000000  0.10549596  1.0
  Ni  Ni172  1  0.25000000  0.33333333  0.10549596  1.0
  Ni  Ni173  1  0.25000000  0.66666667  0.10549596  1.0
  Ni  Ni174  1  0.58333333  0.00000000  0.10549596  1.0
  Ni  Ni175  1  0.58333333  0.33333333  0.10549596  1.0
  Ni  Ni176  1  0.58333333  0.66666667  0.10549596  1.0
  Ni  Ni177  1  0.91666667  0.00000000  0.10549596  1.0
  Ni  Ni178  1  0.91666667  0.33333333  0.10549596  1.0
  Ni  Ni179  1  0.91666667  0.66666667  0.10549596  1.0
  Ni  Ni180  1  0.12500000  0.16666667  0.05192454  1.0
  Ni  Ni181  1  0.12500000  0.50000000  0.05192454  1.0
  Ni  Ni182  1  0.12500000  0.83333333  0.05192454  1.0
  Ni  Ni183  1  0.45833333  0.16666667  0.05192454  1.0
  Ni  Ni184  1  0.45833333  0.50000000  0.05192454  1.0
  Ni  Ni185  1  0.45833333  0.83333333  0.05192454  1.0
  Ni  Ni186  1  0.79166667  0.16666667  0.05192454  1.0
  Ni  Ni187  1  0.79166667  0.50000000  0.05192454  1.0
  Ni  Ni188  1  0.79166667  0.83333333  0.05192454  1.0
  Ni  Ni189  1  0.29166667  0.16666667  0.12335311  1.0
  Ni  Ni190  1  0.29166667  0.50000000  0.12335311  1.0
  Ni  Ni191  1  0.29166667  0.83333333  0.12335311  1.0
  Ni  Ni192  1  0.62500000  0.16666667  0.12335311  1.0
  Ni  Ni193  1  0.62500000  0.50000000  0.12335311  1.0
  Ni  Ni194  1  0.62500000  0.83333333  0.12335311  1.0
  Ni  Ni195  1  0.95833333  0.16666667  0.12335311  1.0
  Ni  Ni196  1  0.95833333  0.50000000  0.12335311  1.0
  Ni  Ni197  1  0.95833333  0.83333333  0.12335311  1.0
  Ni  Ni198  1  0.04166667  0.16666667  0.01621025  1.0
  Ni  Ni199  1  0.04166667  0.50000000  0.01621025  1.0
  Ni  Ni200  1  0.04166667  0.83333333  0.01621025  1.0
  Ni  Ni201  1  0.37500000  0.16666667  0.01621025  1.0
  Ni  Ni202  1  0.37500000  0.50000000  0.01621025  1.0
  Ni  Ni203  1  0.37500000  0.83333333  0.01621025  1.0
  Ni  Ni204  1  0.70833333  0.16666667  0.01621025  1.0
  Ni  Ni205  1  0.70833333  0.50000000  0.01621025  1.0
  Ni  Ni206  1  0.70833333  0.83333333  0.01621025  1.0
  Ni  Ni207  1  0.20833333  0.16666667  0.08763882  1.0
  Ni  Ni208  1  0.20833333  0.50000000  0.08763882  1.0
  Ni  Ni209  1  0.20833333  0.83333333  0.08763882  1.0
  Ni  Ni210  1  0.54166667  0.16666667  0.08763882  1.0
  Ni  Ni211  1  0.54166667  0.50000000  0.08763882  1.0
  Ni  Ni212  1  0.54166667  0.83333333  0.08763882  1.0
  Ni  Ni213  1  0.87500000  0.16666667  0.08763882  1.0
  Ni  Ni214  1  0.87500000  0.50000000  0.08763882  1.0
  Ni  Ni215  1  0.87500000  0.83333333  0.08763882  1.0
  Ni  Ni216  1  0.05409317  0.21911967  0.08546604  1.0
  Ni  Ni217  1  0.05409317  0.55245300  0.08546604  1.0
  Ni  Ni218  1  0.05409317  0.88578633  0.08546604  1.0
  Ni  Ni219  1  0.38742650  0.21911967  0.08546604  1.0
  Ni  Ni220  1  0.38742650  0.55245300  0.08546604  1.0
  Ni  Ni221  1  0.38742650  0.88578633  0.08546604  1.0
  Ni  Ni222  1  0.72075983  0.21911967  0.08546604  1.0
  Ni  Ni223  1  0.72075983  0.55245300  0.08546604  1.0
  Ni  Ni224  1  0.72075983  0.88578633  0.08546604  1.0
  Ni  Ni225  1  0.22075983  0.21911967  0.01403746  1.0
  Ni  Ni226  1  0.22075983  0.55245300  0.01403746  1.0
  Ni  Ni227  1  0.22075983  0.88578633  0.01403746  1.0
  Ni  Ni228  1  0.55409317  0.21911967  0.01403746  1.0
  Ni  Ni229  1  0.55409317  0.55245300  0.01403746  1.0
  Ni  Ni230  1  0.55409317  0.88578633  0.01403746  1.0
  Ni  Ni231  1  0.88742650  0.21911967  0.01403746  1.0
  Ni  Ni232  1  0.88742650  0.55245300  0.01403746  1.0
  Ni  Ni233  1  0.88742650  0.88578633  0.01403746  1.0
  Ni  Ni234  1  0.07157150  0.29837667  0.13791646  1.0
  Ni  Ni235  1  0.07157150  0.63171000  0.13791646  1.0
  Ni  Ni236  1  0.07157150  0.96504333  0.13791646  1.0
  Ni  Ni237  1  0.40490483  0.29837667  0.13791646  1.0
  Ni  Ni238  1  0.40490483  0.63171000  0.13791646  1.0
  Ni  Ni239  1  0.40490483  0.96504333  0.13791646  1.0
  Ni  Ni240  1  0.73823817  0.29837667  0.13791646  1.0
  Ni  Ni241  1  0.73823817  0.63171000  0.13791646  1.0
  Ni  Ni242  1  0.73823817  0.96504333  0.13791646  1.0
  Ni  Ni243  1  0.23823817  0.29837667  0.06648789  1.0
  Ni  Ni244  1  0.23823817  0.63171000  0.06648789  1.0
  Ni  Ni245  1  0.23823817  0.96504333  0.06648789  1.0
  Ni  Ni246  1  0.57157150  0.29837667  0.06648789  1.0
  Ni  Ni247  1  0.57157150  0.63171000  0.06648789  1.0
  Ni  Ni248  1  0.57157150  0.96504333  0.06648789  1.0
  Ni  Ni249  1  0.90490483  0.29837667  0.06648789  1.0
  Ni  Ni250  1  0.90490483  0.63171000  0.06648789  1.0
  Ni  Ni251  1  0.90490483  0.96504333  0.06648789  1.0
  Ni  Ni252  1  0.16365300  0.03495667  0.10245739  1.0
  Ni  Ni253  1  0.16365300  0.36829000  0.10245739  1.0
  Ni  Ni254  1  0.16365300  0.70162333  0.10245739  1.0
  Ni  Ni255  1  0.49698633  0.03495667  0.10245739  1.0
  Ni  Ni256  1  0.49698633  0.36829000  0.10245739  1.0
  Ni  Ni257  1  0.49698633  0.70162333  0.10245739  1.0
  Ni  Ni258  1  0.83031967  0.03495667  0.10245739  1.0
  Ni  Ni259  1  0.83031967  0.36829000  0.10245739  1.0
  Ni  Ni260  1  0.83031967  0.70162333  0.10245739  1.0
  Ni  Ni261  1  0.33031967  0.03495667  0.03102882  1.0
  Ni  Ni262  1  0.33031967  0.36829000  0.03102882  1.0
  Ni  Ni263  1  0.33031967  0.70162333  0.03102882  1.0
  Ni  Ni264  1  0.66365300  0.03495667  0.03102882  1.0
  Ni  Ni265  1  0.66365300  0.36829000  0.03102882  1.0
  Ni  Ni266  1  0.66365300  0.70162333  0.03102882  1.0
  Ni  Ni267  1  0.99698633  0.03495667  0.03102882  1.0
  Ni  Ni268  1  0.99698633  0.36829000  0.03102882  1.0
  Ni  Ni269  1  0.99698633  0.70162333  0.03102882  1.0
  Ni  Ni270  1  0.01446467  0.11421367  0.08347925  1.0
  Ni  Ni271  1  0.01446467  0.44754700  0.08347925  1.0
  Ni  Ni272  1  0.01446467  0.78088033  0.08347925  1.0
  Ni  Ni273  1  0.34779800  0.11421367  0.08347925  1.0
  Ni  Ni274  1  0.34779800  0.44754700  0.08347925  1.0
  Ni  Ni275  1  0.34779800  0.78088033  0.08347925  1.0
  Ni  Ni276  1  0.68113133  0.11421367  0.08347925  1.0
  Ni  Ni277  1  0.68113133  0.44754700  0.08347925  1.0
  Ni  Ni278  1  0.68113133  0.78088033  0.08347925  1.0
  Ni  Ni279  1  0.18113133  0.11421367  0.01205068  1.0
  Ni  Ni280  1  0.18113133  0.44754700  0.01205068  1.0
  Ni  Ni281  1  0.18113133  0.78088033  0.01205068  1.0
  Ni  Ni282  1  0.51446467  0.11421367  0.01205068  1.0
  Ni  Ni283  1  0.51446467  0.44754700  0.01205068  1.0
  Ni  Ni284  1  0.51446467  0.78088033  0.01205068  1.0
  Ni  Ni285  1  0.84779800  0.11421367  0.01205068  1.0
  Ni  Ni286  1  0.84779800  0.44754700  0.01205068  1.0
  Ni  Ni287  1  0.84779800  0.78088033  0.01205068  1.0
  Ni  Ni288  1  0.11257350  0.11421367  0.12552589  1.0
  Ni  Ni289  1  0.11257350  0.44754700  0.12552589  1.0
  Ni  Ni290  1  0.11257350  0.78088033  0.12552589  1.0
  Ni  Ni291  1  0.44590683  0.11421367  0.12552589  1.0
  Ni  Ni292  1  0.44590683  0.44754700  0.12552589  1.0
  Ni  Ni293  1  0.44590683  0.78088033  0.12552589  1.0
  Ni  Ni294  1  0.77924017  0.11421367  0.12552589  1.0
  Ni  Ni295  1  0.77924017  0.44754700  0.12552589  1.0
  Ni  Ni296  1  0.77924017  0.78088033  0.12552589  1.0
  Ni  Ni297  1  0.27924017  0.11421367  0.05409732  1.0
  Ni  Ni298  1  0.27924017  0.44754700  0.05409732  1.0
  Ni  Ni299  1  0.27924017  0.78088033  0.05409732  1.0
  Ni  Ni300  1  0.61257350  0.11421367  0.05409732  1.0
  Ni  Ni301  1  0.61257350  0.44754700  0.05409732  1.0
  Ni  Ni302  1  0.61257350  0.78088033  0.05409732  1.0
  Ni  Ni303  1  0.94590683  0.11421367  0.05409732  1.0
  Ni  Ni304  1  0.94590683  0.44754700  0.05409732  1.0
  Ni  Ni305  1  0.94590683  0.78088033  0.05409732  1.0
  Ni  Ni306  1  0.09509517  0.03495667  0.07307546  1.0
  Ni  Ni307  1  0.09509517  0.36829000  0.07307546  1.0
  Ni  Ni308  1  0.09509517  0.70162333  0.07307546  1.0
  Ni  Ni309  1  0.42842850  0.03495667  0.07307546  1.0
  Ni  Ni310  1  0.42842850  0.36829000  0.07307546  1.0
  Ni  Ni311  1  0.42842850  0.70162333  0.07307546  1.0
  Ni  Ni312  1  0.76176183  0.03495667  0.07307546  1.0
  Ni  Ni313  1  0.76176183  0.36829000  0.07307546  1.0
  Ni  Ni314  1  0.76176183  0.70162333  0.07307546  1.0
  Ni  Ni315  1  0.26176183  0.03495667  0.00164689  1.0
  Ni  Ni316  1  0.26176183  0.36829000  0.00164689  1.0
  Ni  Ni317  1  0.26176183  0.70162333  0.00164689  1.0
  Ni  Ni318  1  0.59509517  0.03495667  0.00164689  1.0
  Ni  Ni319  1  0.59509517  0.36829000  0.00164689  1.0
  Ni  Ni320  1  0.59509517  0.70162333  0.00164689  1.0
  Ni  Ni321  1  0.92842850  0.03495667  0.00164689  1.0
  Ni  Ni322  1  0.92842850  0.36829000  0.00164689  1.0
  Ni  Ni323  1  0.92842850  0.70162333  0.00164689  1.0
  Ni  Ni324  1  0.00301367  0.29837667  0.10853454  1.0
  Ni  Ni325  1  0.00301367  0.63171000  0.10853454  1.0
  Ni  Ni326  1  0.00301367  0.96504333  0.10853454  1.0
  Ni  Ni327  1  0.33634700  0.29837667  0.10853454  1.0
  Ni  Ni328  1  0.33634700  0.63171000  0.10853454  1.0
  Ni  Ni329  1  0.33634700  0.96504333  0.10853454  1.0
  Ni  Ni330  1  0.66968033  0.29837667  0.10853454  1.0
  Ni  Ni331  1  0.66968033  0.63171000  0.10853454  1.0
  Ni  Ni332  1  0.66968033  0.96504333  0.10853454  1.0
  Ni  Ni333  1  0.16968033  0.29837667  0.03710596  1.0
  Ni  Ni334  1  0.16968033  0.63171000  0.03710596  1.0
  Ni  Ni335  1  0.16968033  0.96504333  0.03710596  1.0
  Ni  Ni336  1  0.50301367  0.29837667  0.03710596  1.0
  Ni  Ni337  1  0.50301367  0.63171000  0.03710596  1.0
  Ni  Ni338  1  0.50301367  0.96504333  0.03710596  1.0
  Ni  Ni339  1  0.83634700  0.29837667  0.03710596  1.0
  Ni  Ni340  1  0.83634700  0.63171000  0.03710596  1.0
  Ni  Ni341  1  0.83634700  0.96504333  0.03710596  1.0
  Ni  Ni342  1  0.15220200  0.21911967  0.12751268  1.0
  Ni  Ni343  1  0.15220200  0.55245300  0.12751268  1.0
  Ni  Ni344  1  0.15220200  0.88578633  0.12751268  1.0
  Ni  Ni345  1  0.48553533  0.21911967  0.12751268  1.0
  Ni  Ni346  1  0.48553533  0.55245300  0.12751268  1.0
  Ni  Ni347  1  0.48553533  0.88578633  0.12751268  1.0
  Ni  Ni348  1  0.81886867  0.21911967  0.12751268  1.0
  Ni  Ni349  1  0.81886867  0.55245300  0.12751268  1.0
  Ni  Ni350  1  0.81886867  0.88578633  0.12751268  1.0
  Ni  Ni351  1  0.31886867  0.21911967  0.05608411  1.0
  Ni  Ni352  1  0.31886867  0.55245300  0.05608411  1.0
  Ni  Ni353  1  0.31886867  0.88578633  0.05608411  1.0
  Ni  Ni354  1  0.65220200  0.21911967  0.05608411  1.0
  Ni  Ni355  1  0.65220200  0.55245300  0.05608411  1.0
  Ni  Ni356  1  0.65220200  0.88578633  0.05608411  1.0
  Ni  Ni357  1  0.98553533  0.21911967  0.05608411  1.0
  Ni  Ni358  1  0.98553533  0.55245300  0.05608411  1.0
  Ni  Ni359  1  0.98553533  0.88578633  0.05608411  1.0
  Zr  Zr360  1  0.16666667  0.00000000  0.21263882  1.0
  Zr  Zr361  1  0.16666667  0.33333333  0.21263882  1.0
  Zr  Zr362  1  0.16666667  0.66666667  0.21263882  1.0
  Zr  Zr363  1  0.50000000  0.00000000  0.21263882  1.0
  Zr  Zr364  1  0.50000000  0.33333333  0.21263882  1.0
  Zr  Zr365  1  0.50000000  0.66666667  0.21263882  1.0
  Zr  Zr366  1  0.83333333  0.00000000  0.21263882  1.0
  Zr  Zr367  1  0.83333333  0.33333333  0.21263882  1.0
  Zr  Zr368  1  0.83333333  0.66666667  0.21263882  1.0
  Zr  Zr369  1  0.00000000  0.00000000  0.28406739  1.0
  Zr  Zr370  1  0.00000000  0.33333333  0.28406739  1.0
  Zr  Zr371  1  0.00000000  0.66666667  0.28406739  1.0
  Zr  Zr372  1  0.33333333  0.00000000  0.28406739  1.0
  Zr  Zr373  1  0.33333333  0.33333333  0.28406739  1.0
  Zr  Zr374  1  0.33333333  0.66666667  0.28406739  1.0
  Zr  Zr375  1  0.66666667  0.00000000  0.28406739  1.0
  Zr  Zr376  1  0.66666667  0.33333333  0.28406739  1.0
  Zr  Zr377  1  0.66666667  0.66666667  0.28406739  1.0
  Zr  Zr378  1  0.04125983  0.11242067  0.27751561  1.0
  Zr  Zr379  1  0.04125983  0.44575400  0.27751561  1.0
  Zr  Zr380  1  0.04125983  0.77908733  0.27751561  1.0
  Zr  Zr381  1  0.37459317  0.11242067  0.27751561  1.0
  Zr  Zr382  1  0.37459317  0.44575400  0.27751561  1.0
  Zr  Zr383  1  0.37459317  0.77908733  0.27751561  1.0
  Zr  Zr384  1  0.70792650  0.11242067  0.27751561  1.0
  Zr  Zr385  1  0.70792650  0.44575400  0.27751561  1.0
  Zr  Zr386  1  0.70792650  0.77908733  0.27751561  1.0
  Zr  Zr387  1  0.20792650  0.11242067  0.20608704  1.0
  Zr  Zr388  1  0.20792650  0.44575400  0.20608704  1.0
  Zr  Zr389  1  0.20792650  0.77908733  0.20608704  1.0
  Zr  Zr390  1  0.54125983  0.11242067  0.20608704  1.0
  Zr  Zr391  1  0.54125983  0.44575400  0.20608704  1.0
  Zr  Zr392  1  0.54125983  0.77908733  0.20608704  1.0
  Zr  Zr393  1  0.87459317  0.11242067  0.20608704  1.0
  Zr  Zr394  1  0.87459317  0.44575400  0.20608704  1.0
  Zr  Zr395  1  0.87459317  0.77908733  0.20608704  1.0
  Zr  Zr396  1  0.06919650  0.27746000  0.24299189  1.0
  Zr  Zr397  1  0.06919650  0.61079333  0.24299189  1.0
  Zr  Zr398  1  0.06919650  0.94412667  0.24299189  1.0
  Zr  Zr399  1  0.40252983  0.27746000  0.24299189  1.0
  Zr  Zr400  1  0.40252983  0.61079333  0.24299189  1.0
  Zr  Zr401  1  0.40252983  0.94412667  0.24299189  1.0
  Zr  Zr402  1  0.73586317  0.27746000  0.24299189  1.0
  Zr  Zr403  1  0.73586317  0.61079333  0.24299189  1.0
  Zr  Zr404  1  0.73586317  0.94412667  0.24299189  1.0
  Zr  Zr405  1  0.23586317  0.27746000  0.17156332  1.0
  Zr  Zr406  1  0.23586317  0.61079333  0.17156332  1.0
  Zr  Zr407  1  0.23586317  0.94412667  0.17156332  1.0
  Zr  Zr408  1  0.56919650  0.27746000  0.17156332  1.0
  Zr  Zr409  1  0.56919650  0.61079333  0.17156332  1.0
  Zr  Zr410  1  0.56919650  0.94412667  0.17156332  1.0
  Zr  Zr411  1  0.90252983  0.27746000  0.17156332  1.0
  Zr  Zr412  1  0.90252983  0.61079333  0.17156332  1.0
  Zr  Zr413  1  0.90252983  0.94412667  0.17156332  1.0
  Zr  Zr414  1  0.09747017  0.05587333  0.25371432  1.0
  Zr  Zr415  1  0.09747017  0.38920667  0.25371432  1.0
  Zr  Zr416  1  0.09747017  0.72254000  0.25371432  1.0
  Zr  Zr417  1  0.43080350  0.05587333  0.25371432  1.0
  Zr  Zr418  1  0.43080350  0.38920667  0.25371432  1.0
  Zr  Zr419  1  0.43080350  0.72254000  0.25371432  1.0
  Zr  Zr420  1  0.76413683  0.05587333  0.25371432  1.0
  Zr  Zr421  1  0.76413683  0.38920667  0.25371432  1.0
  Zr  Zr422  1  0.76413683  0.72254000  0.25371432  1.0
  Zr  Zr423  1  0.26413683  0.05587333  0.18228575  1.0
  Zr  Zr424  1  0.26413683  0.38920667  0.18228575  1.0
  Zr  Zr425  1  0.26413683  0.72254000  0.18228575  1.0
  Zr  Zr426  1  0.59747017  0.05587333  0.18228575  1.0
  Zr  Zr427  1  0.59747017  0.38920667  0.18228575  1.0
  Zr  Zr428  1  0.59747017  0.72254000  0.18228575  1.0
  Zr  Zr429  1  0.93080350  0.05587333  0.18228575  1.0
  Zr  Zr430  1  0.93080350  0.38920667  0.18228575  1.0
  Zr  Zr431  1  0.93080350  0.72254000  0.18228575  1.0
  Zr  Zr432  1  0.12540683  0.22091267  0.21919061  1.0
  Zr  Zr433  1  0.12540683  0.55424600  0.21919061  1.0
  Zr  Zr434  1  0.12540683  0.88757933  0.21919061  1.0
  Zr  Zr435  1  0.45874017  0.22091267  0.21919061  1.0
  Zr  Zr436  1  0.45874017  0.55424600  0.21919061  1.0
  Zr  Zr437  1  0.45874017  0.88757933  0.21919061  1.0
  Zr  Zr438  1  0.79207350  0.22091267  0.21919061  1.0
  Zr  Zr439  1  0.79207350  0.55424600  0.21919061  1.0
  Zr  Zr440  1  0.79207350  0.88757933  0.21919061  1.0
  Zr  Zr441  1  0.29207350  0.22091267  0.14776204  1.0
  Zr  Zr442  1  0.29207350  0.55424600  0.14776204  1.0
  Zr  Zr443  1  0.29207350  0.88757933  0.14776204  1.0
  Zr  Zr444  1  0.62540683  0.22091267  0.14776204  1.0
  Zr  Zr445  1  0.62540683  0.55424600  0.14776204  1.0
  Zr  Zr446  1  0.62540683  0.88757933  0.14776204  1.0
  Zr  Zr447  1  0.95874017  0.22091267  0.14776204  1.0
  Zr  Zr448  1  0.95874017  0.55424600  0.14776204  1.0
  Zr  Zr449  1  0.95874017  0.88757933  0.14776204  1.0
  Zr  Zr450  1  0.05188733  0.19935900  0.18933311  1.0
  Zr  Zr451  1  0.05188733  0.53269233  0.18933311  1.0
  Zr  Zr452  1  0.05188733  0.86602567  0.18933311  1.0
  Zr  Zr453  1  0.38522067  0.19935900  0.18933311  1.0
  Zr  Zr454  1  0.38522067  0.53269233  0.18933311  1.0
  Zr  Zr455  1  0.38522067  0.86602567  0.18933311  1.0
  Zr  Zr456  1  0.71855400  0.19935900  0.18933311  1.0
  Zr  Zr457  1  0.71855400  0.53269233  0.18933311  1.0
  Zr  Zr458  1  0.71855400  0.86602567  0.18933311  1.0
  Zr  Zr459  1  0.21855400  0.19935900  0.26076168  1.0
  Zr  Zr460  1  0.21855400  0.53269233  0.26076168  1.0
  Zr  Zr461  1  0.21855400  0.86602567  0.26076168  1.0
  Zr  Zr462  1  0.55188733  0.19935900  0.26076168  1.0
  Zr  Zr463  1  0.55188733  0.53269233  0.26076168  1.0
  Zr  Zr464  1  0.55188733  0.86602567  0.26076168  1.0
  Zr  Zr465  1  0.88522067  0.19935900  0.26076168  1.0
  Zr  Zr466  1  0.88522067  0.53269233  0.26076168  1.0
  Zr  Zr467  1  0.88522067  0.86602567  0.26076168  1.0
  Zr  Zr468  1  0.01509983  0.07357500  0.20158904  1.0
  Zr  Zr469  1  0.01509983  0.40690833  0.20158904  1.0
  Zr  Zr470  1  0.01509983  0.74024167  0.20158904  1.0
  Zr  Zr471  1  0.34843317  0.07357500  0.20158904  1.0
  Zr  Zr472  1  0.34843317  0.40690833  0.20158904  1.0
  Zr  Zr473  1  0.34843317  0.74024167  0.20158904  1.0
  Zr  Zr474  1  0.68176650  0.07357500  0.20158904  1.0
  Zr  Zr475  1  0.68176650  0.40690833  0.20158904  1.0
  Zr  Zr476  1  0.68176650  0.74024167  0.20158904  1.0
  Zr  Zr477  1  0.18176650  0.07357500  0.27301761  1.0
  Zr  Zr478  1  0.18176650  0.40690833  0.27301761  1.0
  Zr  Zr479  1  0.18176650  0.74024167  0.27301761  1.0
  Zr  Zr480  1  0.51509983  0.07357500  0.27301761  1.0
  Zr  Zr481  1  0.51509983  0.40690833  0.27301761  1.0
  Zr  Zr482  1  0.51509983  0.74024167  0.27301761  1.0
  Zr  Zr483  1  0.84843317  0.07357500  0.27301761  1.0
  Zr  Zr484  1  0.84843317  0.40690833  0.27301761  1.0
  Zr  Zr485  1  0.84843317  0.74024167  0.27301761  1.0
  Zr  Zr486  1  0.15156683  0.25975833  0.15226004  1.0
  Zr  Zr487  1  0.15156683  0.59309167  0.15226004  1.0
  Zr  Zr488  1  0.15156683  0.92642500  0.15226004  1.0
  Zr  Zr489  1  0.48490017  0.25975833  0.15226004  1.0
  Zr  Zr490  1  0.48490017  0.59309167  0.15226004  1.0
  Zr  Zr491  1  0.48490017  0.92642500  0.15226004  1.0
  Zr  Zr492  1  0.81823350  0.25975833  0.15226004  1.0
  Zr  Zr493  1  0.81823350  0.59309167  0.15226004  1.0
  Zr  Zr494  1  0.81823350  0.92642500  0.15226004  1.0
  Zr  Zr495  1  0.31823350  0.25975833  0.22368861  1.0
  Zr  Zr496  1  0.31823350  0.59309167  0.22368861  1.0
  Zr  Zr497  1  0.31823350  0.92642500  0.22368861  1.0
  Zr  Zr498  1  0.65156683  0.25975833  0.22368861  1.0
  Zr  Zr499  1  0.65156683  0.59309167  0.22368861  1.0
  Zr  Zr500  1  0.65156683  0.92642500  0.22368861  1.0
  Zr  Zr501  1  0.98490017  0.25975833  0.22368861  1.0
  Zr  Zr502  1  0.98490017  0.59309167  0.22368861  1.0
  Zr  Zr503  1  0.98490017  0.92642500  0.22368861  1.0
  Zr  Zr504  1  0.11477933  0.13397433  0.16451596  1.0
  Zr  Zr505  1  0.11477933  0.46730767  0.16451596  1.0
  Zr  Zr506  1  0.11477933  0.80064100  0.16451596  1.0
  Zr  Zr507  1  0.44811267  0.13397433  0.16451596  1.0
  Zr  Zr508  1  0.44811267  0.46730767  0.16451596  1.0
  Zr  Zr509  1  0.44811267  0.80064100  0.16451596  1.0
  Zr  Zr510  1  0.78144600  0.13397433  0.16451596  1.0
  Zr  Zr511  1  0.78144600  0.46730767  0.16451596  1.0
  Zr  Zr512  1  0.78144600  0.80064100  0.16451596  1.0
  Zr  Zr513  1  0.28144600  0.13397433  0.23594454  1.0
  Zr  Zr514  1  0.28144600  0.46730767  0.23594454  1.0
  Zr  Zr515  1  0.28144600  0.80064100  0.23594454  1.0
  Zr  Zr516  1  0.61477933  0.13397433  0.23594454  1.0
  Zr  Zr517  1  0.61477933  0.46730767  0.23594454  1.0
  Zr  Zr518  1  0.61477933  0.80064100  0.23594454  1.0
  Zr  Zr519  1  0.94811267  0.13397433  0.23594454  1.0
  Zr  Zr520  1  0.94811267  0.46730767  0.23594454  1.0
  Zr  Zr521  1  0.94811267  0.80064100  0.23594454  1.0
  Ni  Ni522  1  0.08333333  0.00000000  0.17692454  1.0
  Ni  Ni523  1  0.08333333  0.33333333  0.17692454  1.0
  Ni  Ni524  1  0.08333333  0.66666667  0.17692454  1.0
  Ni  Ni525  1  0.41666667  0.00000000  0.17692454  1.0
  Ni  Ni526  1  0.41666667  0.33333333  0.17692454  1.0
  Ni  Ni527  1  0.41666667  0.66666667  0.17692454  1.0
  Ni  Ni528  1  0.75000000  0.00000000  0.17692454  1.0
  Ni  Ni529  1  0.75000000  0.33333333  0.17692454  1.0
  Ni  Ni530  1  0.75000000  0.66666667  0.17692454  1.0
  Ni  Ni531  1  0.25000000  0.00000000  0.24835311  1.0
  Ni  Ni532  1  0.25000000  0.33333333  0.24835311  1.0
  Ni  Ni533  1  0.25000000  0.66666667  0.24835311  1.0
  Ni  Ni534  1  0.58333333  0.00000000  0.24835311  1.0
  Ni  Ni535  1  0.58333333  0.33333333  0.24835311  1.0
  Ni  Ni536  1  0.58333333  0.66666667  0.24835311  1.0
  Ni  Ni537  1  0.91666667  0.00000000  0.24835311  1.0
  Ni  Ni538  1  0.91666667  0.33333333  0.24835311  1.0
  Ni  Ni539  1  0.91666667  0.66666667  0.24835311  1.0
  Ni  Ni540  1  0.12500000  0.16666667  0.19478168  1.0
  Ni  Ni541  1  0.12500000  0.50000000  0.19478168  1.0
  Ni  Ni542  1  0.12500000  0.83333333  0.19478168  1.0
  Ni  Ni543  1  0.45833333  0.16666667  0.19478168  1.0
  Ni  Ni544  1  0.45833333  0.50000000  0.19478168  1.0
  Ni  Ni545  1  0.45833333  0.83333333  0.19478168  1.0
  Ni  Ni546  1  0.79166667  0.16666667  0.19478168  1.0
  Ni  Ni547  1  0.79166667  0.50000000  0.19478168  1.0
  Ni  Ni548  1  0.79166667  0.83333333  0.19478168  1.0
  Ni  Ni549  1  0.29166667  0.16666667  0.26621025  1.0
  Ni  Ni550  1  0.29166667  0.50000000  0.26621025  1.0
  Ni  Ni551  1  0.29166667  0.83333333  0.26621025  1.0
  Ni  Ni552  1  0.62500000  0.16666667  0.26621025  1.0
  Ni  Ni553  1  0.62500000  0.50000000  0.26621025  1.0
  Ni  Ni554  1  0.62500000  0.83333333  0.26621025  1.0
  Ni  Ni555  1  0.95833333  0.16666667  0.26621025  1.0
  Ni  Ni556  1  0.95833333  0.50000000  0.26621025  1.0
  Ni  Ni557  1  0.95833333  0.83333333  0.26621025  1.0
  Ni  Ni558  1  0.04166667  0.16666667  0.15906739  1.0
  Ni  Ni559  1  0.04166667  0.50000000  0.15906739  1.0
  Ni  Ni560  1  0.04166667  0.83333333  0.15906739  1.0
  Ni  Ni561  1  0.37500000  0.16666667  0.15906739  1.0
  Ni  Ni562  1  0.37500000  0.50000000  0.15906739  1.0
  Ni  Ni563  1  0.37500000  0.83333333  0.15906739  1.0
  Ni  Ni564  1  0.70833333  0.16666667  0.15906739  1.0
  Ni  Ni565  1  0.70833333  0.50000000  0.15906739  1.0
  Ni  Ni566  1  0.70833333  0.83333333  0.15906739  1.0
  Ni  Ni567  1  0.20833333  0.16666667  0.23049596  1.0
  Ni  Ni568  1  0.20833333  0.50000000  0.23049596  1.0
  Ni  Ni569  1  0.20833333  0.83333333  0.23049596  1.0
  Ni  Ni570  1  0.54166667  0.16666667  0.23049596  1.0
  Ni  Ni571  1  0.54166667  0.50000000  0.23049596  1.0
  Ni  Ni572  1  0.54166667  0.83333333  0.23049596  1.0
  Ni  Ni573  1  0.87500000  0.16666667  0.23049596  1.0
  Ni  Ni574  1  0.87500000  0.50000000  0.23049596  1.0
  Ni  Ni575  1  0.87500000  0.83333333  0.23049596  1.0
  Ni  Ni576  1  0.05409317  0.21911967  0.22832318  1.0
  Ni  Ni577  1  0.05409317  0.55245300  0.22832318  1.0
  Ni  Ni578  1  0.05409317  0.88578633  0.22832318  1.0
  Ni  Ni579  1  0.38742650  0.21911967  0.22832318  1.0
  Ni  Ni580  1  0.38742650  0.55245300  0.22832318  1.0
  Ni  Ni581  1  0.38742650  0.88578633  0.22832318  1.0
  Ni  Ni582  1  0.72075983  0.21911967  0.22832318  1.0
  Ni  Ni583  1  0.72075983  0.55245300  0.22832318  1.0
  Ni  Ni584  1  0.72075983  0.88578633  0.22832318  1.0
  Ni  Ni585  1  0.22075983  0.21911967  0.15689461  1.0
  Ni  Ni586  1  0.22075983  0.55245300  0.15689461  1.0
  Ni  Ni587  1  0.22075983  0.88578633  0.15689461  1.0
  Ni  Ni588  1  0.55409317  0.21911967  0.15689461  1.0
  Ni  Ni589  1  0.55409317  0.55245300  0.15689461  1.0
  Ni  Ni590  1  0.55409317  0.88578633  0.15689461  1.0
  Ni  Ni591  1  0.88742650  0.21911967  0.15689461  1.0
  Ni  Ni592  1  0.88742650  0.55245300  0.15689461  1.0
  Ni  Ni593  1  0.88742650  0.88578633  0.15689461  1.0
  Ni  Ni594  1  0.07157150  0.29837667  0.28077361  1.0
  Ni  Ni595  1  0.07157150  0.63171000  0.28077361  1.0
  Ni  Ni596  1  0.07157150  0.96504333  0.28077361  1.0
  Ni  Ni597  1  0.40490483  0.29837667  0.28077361  1.0
  Ni  Ni598  1  0.40490483  0.63171000  0.28077361  1.0
  Ni  Ni599  1  0.40490483  0.96504333  0.28077361  1.0
  Ni  Ni600  1  0.73823817  0.29837667  0.28077361  1.0
  Ni  Ni601  1  0.73823817  0.63171000  0.28077361  1.0
  Ni  Ni602  1  0.73823817  0.96504333  0.28077361  1.0
  Ni  Ni603  1  0.23823817  0.29837667  0.20934504  1.0
  Ni  Ni604  1  0.23823817  0.63171000  0.20934504  1.0
  Ni  Ni605  1  0.23823817  0.96504333  0.20934504  1.0
  Ni  Ni606  1  0.57157150  0.29837667  0.20934504  1.0
  Ni  Ni607  1  0.57157150  0.63171000  0.20934504  1.0
  Ni  Ni608  1  0.57157150  0.96504333  0.20934504  1.0
  Ni  Ni609  1  0.90490483  0.29837667  0.20934504  1.0
  Ni  Ni610  1  0.90490483  0.63171000  0.20934504  1.0
  Ni  Ni611  1  0.90490483  0.96504333  0.20934504  1.0
  Ni  Ni612  1  0.16365300  0.03495667  0.24531454  1.0
  Ni  Ni613  1  0.16365300  0.36829000  0.24531454  1.0
  Ni  Ni614  1  0.16365300  0.70162333  0.24531454  1.0
  Ni  Ni615  1  0.49698633  0.03495667  0.24531454  1.0
  Ni  Ni616  1  0.49698633  0.36829000  0.24531454  1.0
  Ni  Ni617  1  0.49698633  0.70162333  0.24531454  1.0
  Ni  Ni618  1  0.83031967  0.03495667  0.24531454  1.0
  Ni  Ni619  1  0.83031967  0.36829000  0.24531454  1.0
  Ni  Ni620  1  0.83031967  0.70162333  0.24531454  1.0
  Ni  Ni621  1  0.33031967  0.03495667  0.17388596  1.0
  Ni  Ni622  1  0.33031967  0.36829000  0.17388596  1.0
  Ni  Ni623  1  0.33031967  0.70162333  0.17388596  1.0
  Ni  Ni624  1  0.66365300  0.03495667  0.17388596  1.0
  Ni  Ni625  1  0.66365300  0.36829000  0.17388596  1.0
  Ni  Ni626  1  0.66365300  0.70162333  0.17388596  1.0
  Ni  Ni627  1  0.99698633  0.03495667  0.17388596  1.0
  Ni  Ni628  1  0.99698633  0.36829000  0.17388596  1.0
  Ni  Ni629  1  0.99698633  0.70162333  0.17388596  1.0
  Ni  Ni630  1  0.01446467  0.11421367  0.22633639  1.0
  Ni  Ni631  1  0.01446467  0.44754700  0.22633639  1.0
  Ni  Ni632  1  0.01446467  0.78088033  0.22633639  1.0
  Ni  Ni633  1  0.34779800  0.11421367  0.22633639  1.0
  Ni  Ni634  1  0.34779800  0.44754700  0.22633639  1.0
  Ni  Ni635  1  0.34779800  0.78088033  0.22633639  1.0
  Ni  Ni636  1  0.68113133  0.11421367  0.22633639  1.0
  Ni  Ni637  1  0.68113133  0.44754700  0.22633639  1.0
  Ni  Ni638  1  0.68113133  0.78088033  0.22633639  1.0
  Ni  Ni639  1  0.18113133  0.11421367  0.15490782  1.0
  Ni  Ni640  1  0.18113133  0.44754700  0.15490782  1.0
  Ni  Ni641  1  0.18113133  0.78088033  0.15490782  1.0
  Ni  Ni642  1  0.51446467  0.11421367  0.15490782  1.0
  Ni  Ni643  1  0.51446467  0.44754700  0.15490782  1.0
  Ni  Ni644  1  0.51446467  0.78088033  0.15490782  1.0
  Ni  Ni645  1  0.84779800  0.11421367  0.15490782  1.0
  Ni  Ni646  1  0.84779800  0.44754700  0.15490782  1.0
  Ni  Ni647  1  0.84779800  0.78088033  0.15490782  1.0
  Ni  Ni648  1  0.11257350  0.11421367  0.26838304  1.0
  Ni  Ni649  1  0.11257350  0.44754700  0.26838304  1.0
  Ni  Ni650  1  0.11257350  0.78088033  0.26838304  1.0
  Ni  Ni651  1  0.44590683  0.11421367  0.26838304  1.0
  Ni  Ni652  1  0.44590683  0.44754700  0.26838304  1.0
  Ni  Ni653  1  0.44590683  0.78088033  0.26838304  1.0
  Ni  Ni654  1  0.77924017  0.11421367  0.26838304  1.0
  Ni  Ni655  1  0.77924017  0.44754700  0.26838304  1.0
  Ni  Ni656  1  0.77924017  0.78088033  0.26838304  1.0
  Ni  Ni657  1  0.27924017  0.11421367  0.19695446  1.0
  Ni  Ni658  1  0.27924017  0.44754700  0.19695446  1.0
  Ni  Ni659  1  0.27924017  0.78088033  0.19695446  1.0
  Ni  Ni660  1  0.61257350  0.11421367  0.19695446  1.0
  Ni  Ni661  1  0.61257350  0.44754700  0.19695446  1.0
  Ni  Ni662  1  0.61257350  0.78088033  0.19695446  1.0
  Ni  Ni663  1  0.94590683  0.11421367  0.19695446  1.0
  Ni  Ni664  1  0.94590683  0.44754700  0.19695446  1.0
  Ni  Ni665  1  0.94590683  0.78088033  0.19695446  1.0
  Ni  Ni666  1  0.09509517  0.03495667  0.21593261  1.0
  Ni  Ni667  1  0.09509517  0.36829000  0.21593261  1.0
  Ni  Ni668  1  0.09509517  0.70162333  0.21593261  1.0
  Ni  Ni669  1  0.42842850  0.03495667  0.21593261  1.0
  Ni  Ni670  1  0.42842850  0.36829000  0.21593261  1.0
  Ni  Ni671  1  0.42842850  0.70162333  0.21593261  1.0
  Ni  Ni672  1  0.76176183  0.03495667  0.21593261  1.0
  Ni  Ni673  1  0.76176183  0.36829000  0.21593261  1.0
  Ni  Ni674  1  0.76176183  0.70162333  0.21593261  1.0
  Ni  Ni675  1  0.26176183  0.03495667  0.14450404  1.0
  Ni  Ni676  1  0.26176183  0.36829000  0.14450404  1.0
  Ni  Ni677  1  0.26176183  0.70162333  0.14450404  1.0
  Ni  Ni678  1  0.59509517  0.03495667  0.14450404  1.0
  Ni  Ni679  1  0.59509517  0.36829000  0.14450404  1.0
  Ni  Ni680  1  0.59509517  0.70162333  0.14450404  1.0
  Ni  Ni681  1  0.92842850  0.03495667  0.14450404  1.0
  Ni  Ni682  1  0.92842850  0.36829000  0.14450404  1.0
  Ni  Ni683  1  0.92842850  0.70162333  0.14450404  1.0
  Ni  Ni684  1  0.00301367  0.29837667  0.25139168  1.0
  Ni  Ni685  1  0.00301367  0.63171000  0.25139168  1.0
  Ni  Ni686  1  0.00301367  0.96504333  0.25139168  1.0
  Ni  Ni687  1  0.33634700  0.29837667  0.25139168  1.0
  Ni  Ni688  1  0.33634700  0.63171000  0.25139168  1.0
  Ni  Ni689  1  0.33634700  0.96504333  0.25139168  1.0
  Ni  Ni690  1  0.66968033  0.29837667  0.25139168  1.0
  Ni  Ni691  1  0.66968033  0.63171000  0.25139168  1.0
  Ni  Ni692  1  0.66968033  0.96504333  0.25139168  1.0
  Ni  Ni693  1  0.16968033  0.29837667  0.17996311  1.0
  Ni  Ni694  1  0.16968033  0.63171000  0.17996311  1.0
  Ni  Ni695  1  0.16968033  0.96504333  0.17996311  1.0
  Ni  Ni696  1  0.50301367  0.29837667  0.17996311  1.0
  Ni  Ni697  1  0.50301367  0.63171000  0.17996311  1.0
  Ni  Ni698  1  0.50301367  0.96504333  0.17996311  1.0
  Ni  Ni699  1  0.83634700  0.29837667  0.17996311  1.0
  Ni  Ni700  1  0.83634700  0.63171000  0.17996311  1.0
  Ni  Ni701  1  0.83634700  0.96504333  0.17996311  1.0
  Ni  Ni702  1  0.15220200  0.21911967  0.27036982  1.0
  Ni  Ni703  1  0.15220200  0.55245300  0.27036982  1.0
  Ni  Ni704  1  0.15220200  0.88578633  0.27036982  1.0
  Ni  Ni705  1  0.48553533  0.21911967  0.27036982  1.0
  Ni  Ni706  1  0.48553533  0.55245300  0.27036982  1.0
  Ni  Ni707  1  0.48553533  0.88578633  0.27036982  1.0
  Ni  Ni708  1  0.81886867  0.21911967  0.27036982  1.0
  Ni  Ni709  1  0.81886867  0.55245300  0.27036982  1.0
  Ni  Ni710  1  0.81886867  0.88578633  0.27036982  1.0
  Ni  Ni711  1  0.31886867  0.21911967  0.19894125  1.0
  Ni  Ni712  1  0.31886867  0.55245300  0.19894125  1.0
  Ni  Ni713  1  0.31886867  0.88578633  0.19894125  1.0
  Ni  Ni714  1  0.65220200  0.21911967  0.19894125  1.0
  Ni  Ni715  1  0.65220200  0.55245300  0.19894125  1.0
  Ni  Ni716  1  0.65220200  0.88578633  0.19894125  1.0
  Ni  Ni717  1  0.98553533  0.21911967  0.19894125  1.0
  Ni  Ni718  1  0.98553533  0.55245300  0.19894125  1.0
  Ni  Ni719  1  0.98553533  0.88578633  0.19894125  1.0
  Zr  Zr720  1  0.16666667  0.00000000  0.35549596  1.0
  Zr  Zr721  1  0.16666667  0.33333333  0.35549596  1.0
  Zr  Zr722  1  0.16666667  0.66666667  0.35549596  1.0
  Zr  Zr723  1  0.50000000  0.00000000  0.35549596  1.0
  Zr  Zr724  1  0.50000000  0.33333333  0.35549596  1.0
  Zr  Zr725  1  0.50000000  0.66666667  0.35549596  1.0
  Zr  Zr726  1  0.83333333  0.00000000  0.35549596  1.0
  Zr  Zr727  1  0.83333333  0.33333333  0.35549596  1.0
  Zr  Zr728  1  0.83333333  0.66666667  0.35549596  1.0
  Zr  Zr729  1  0.00000000  0.00000000  0.42692454  1.0
  Zr  Zr730  1  0.00000000  0.33333333  0.42692454  1.0
  Zr  Zr731  1  0.00000000  0.66666667  0.42692454  1.0
  Zr  Zr732  1  0.33333333  0.00000000  0.42692454  1.0
  Zr  Zr733  1  0.33333333  0.33333333  0.42692454  1.0
  Zr  Zr734  1  0.33333333  0.66666667  0.42692454  1.0
  Zr  Zr735  1  0.66666667  0.00000000  0.42692454  1.0
  Zr  Zr736  1  0.66666667  0.33333333  0.42692454  1.0
  Zr  Zr737  1  0.66666667  0.66666667  0.42692454  1.0
  Zr  Zr738  1  0.04125983  0.11242067  0.42037275  1.0
  Zr  Zr739  1  0.04125983  0.44575400  0.42037275  1.0
  Zr  Zr740  1  0.04125983  0.77908733  0.42037275  1.0
  Zr  Zr741  1  0.37459317  0.11242067  0.42037275  1.0
  Zr  Zr742  1  0.37459317  0.44575400  0.42037275  1.0
  Zr  Zr743  1  0.37459317  0.77908733  0.42037275  1.0
  Zr  Zr744  1  0.70792650  0.11242067  0.42037275  1.0
  Zr  Zr745  1  0.70792650  0.44575400  0.42037275  1.0
  Zr  Zr746  1  0.70792650  0.77908733  0.42037275  1.0
  Zr  Zr747  1  0.20792650  0.11242067  0.34894418  1.0
  Zr  Zr748  1  0.20792650  0.44575400  0.34894418  1.0
  Zr  Zr749  1  0.20792650  0.77908733  0.34894418  1.0
  Zr  Zr750  1  0.54125983  0.11242067  0.34894418  1.0
  Zr  Zr751  1  0.54125983  0.44575400  0.34894418  1.0
  Zr  Zr752  1  0.54125983  0.77908733  0.34894418  1.0
  Zr  Zr753  1  0.87459317  0.11242067  0.34894418  1.0
  Zr  Zr754  1  0.87459317  0.44575400  0.34894418  1.0
  Zr  Zr755  1  0.87459317  0.77908733  0.34894418  1.0
  Zr  Zr756  1  0.06919650  0.27746000  0.38584904  1.0
  Zr  Zr757  1  0.06919650  0.61079333  0.38584904  1.0
  Zr  Zr758  1  0.06919650  0.94412667  0.38584904  1.0
  Zr  Zr759  1  0.40252983  0.27746000  0.38584904  1.0
  Zr  Zr760  1  0.40252983  0.61079333  0.38584904  1.0
  Zr  Zr761  1  0.40252983  0.94412667  0.38584904  1.0
  Zr  Zr762  1  0.73586317  0.27746000  0.38584904  1.0
  Zr  Zr763  1  0.73586317  0.61079333  0.38584904  1.0
  Zr  Zr764  1  0.73586317  0.94412667  0.38584904  1.0
  Zr  Zr765  1  0.23586317  0.27746000  0.31442046  1.0
  Zr  Zr766  1  0.23586317  0.61079333  0.31442046  1.0
  Zr  Zr767  1  0.23586317  0.94412667  0.31442046  1.0
  Zr  Zr768  1  0.56919650  0.27746000  0.31442046  1.0
  Zr  Zr769  1  0.56919650  0.61079333  0.31442046  1.0
  Zr  Zr770  1  0.56919650  0.94412667  0.31442046  1.0
  Zr  Zr771  1  0.90252983  0.27746000  0.31442046  1.0
  Zr  Zr772  1  0.90252983  0.61079333  0.31442046  1.0
  Zr  Zr773  1  0.90252983  0.94412667  0.31442046  1.0
  Zr  Zr774  1  0.09747017  0.05587333  0.39657146  1.0
  Zr  Zr775  1  0.09747017  0.38920667  0.39657146  1.0
  Zr  Zr776  1  0.09747017  0.72254000  0.39657146  1.0
  Zr  Zr777  1  0.43080350  0.05587333  0.39657146  1.0
  Zr  Zr778  1  0.43080350  0.38920667  0.39657146  1.0
  Zr  Zr779  1  0.43080350  0.72254000  0.39657146  1.0
  Zr  Zr780  1  0.76413683  0.05587333  0.39657146  1.0
  Zr  Zr781  1  0.76413683  0.38920667  0.39657146  1.0
  Zr  Zr782  1  0.76413683  0.72254000  0.39657146  1.0
  Zr  Zr783  1  0.26413683  0.05587333  0.32514289  1.0
  Zr  Zr784  1  0.26413683  0.38920667  0.32514289  1.0
  Zr  Zr785  1  0.26413683  0.72254000  0.32514289  1.0
  Zr  Zr786  1  0.59747017  0.05587333  0.32514289  1.0
  Zr  Zr787  1  0.59747017  0.38920667  0.32514289  1.0
  Zr  Zr788  1  0.59747017  0.72254000  0.32514289  1.0
  Zr  Zr789  1  0.93080350  0.05587333  0.32514289  1.0
  Zr  Zr790  1  0.93080350  0.38920667  0.32514289  1.0
  Zr  Zr791  1  0.93080350  0.72254000  0.32514289  1.0
  Zr  Zr792  1  0.12540683  0.22091267  0.36204775  1.0
  Zr  Zr793  1  0.12540683  0.55424600  0.36204775  1.0
  Zr  Zr794  1  0.12540683  0.88757933  0.36204775  1.0
  Zr  Zr795  1  0.45874017  0.22091267  0.36204775  1.0
  Zr  Zr796  1  0.45874017  0.55424600  0.36204775  1.0
  Zr  Zr797  1  0.45874017  0.88757933  0.36204775  1.0
  Zr  Zr798  1  0.79207350  0.22091267  0.36204775  1.0
  Zr  Zr799  1  0.79207350  0.55424600  0.36204775  1.0
  Zr  Zr800  1  0.79207350  0.88757933  0.36204775  1.0
  Zr  Zr801  1  0.29207350  0.22091267  0.29061918  1.0
  Zr  Zr802  1  0.29207350  0.55424600  0.29061918  1.0
  Zr  Zr803  1  0.29207350  0.88757933  0.29061918  1.0
  Zr  Zr804  1  0.62540683  0.22091267  0.29061918  1.0
  Zr  Zr805  1  0.62540683  0.55424600  0.29061918  1.0
  Zr  Zr806  1  0.62540683  0.88757933  0.29061918  1.0
  Zr  Zr807  1  0.95874017  0.22091267  0.29061918  1.0
  Zr  Zr808  1  0.95874017  0.55424600  0.29061918  1.0
  Zr  Zr809  1  0.95874017  0.88757933  0.29061918  1.0
  Zr  Zr810  1  0.05188733  0.19935900  0.33219025  1.0
  Zr  Zr811  1  0.05188733  0.53269233  0.33219025  1.0
  Zr  Zr812  1  0.05188733  0.86602567  0.33219025  1.0
  Zr  Zr813  1  0.38522067  0.19935900  0.33219025  1.0
  Zr  Zr814  1  0.38522067  0.53269233  0.33219025  1.0
  Zr  Zr815  1  0.38522067  0.86602567  0.33219025  1.0
  Zr  Zr816  1  0.71855400  0.19935900  0.33219025  1.0
  Zr  Zr817  1  0.71855400  0.53269233  0.33219025  1.0
  Zr  Zr818  1  0.71855400  0.86602567  0.33219025  1.0
  Zr  Zr819  1  0.21855400  0.19935900  0.40361882  1.0
  Zr  Zr820  1  0.21855400  0.53269233  0.40361882  1.0
  Zr  Zr821  1  0.21855400  0.86602567  0.40361882  1.0
  Zr  Zr822  1  0.55188733  0.19935900  0.40361882  1.0
  Zr  Zr823  1  0.55188733  0.53269233  0.40361882  1.0
  Zr  Zr824  1  0.55188733  0.86602567  0.40361882  1.0
  Zr  Zr825  1  0.88522067  0.19935900  0.40361882  1.0
  Zr  Zr826  1  0.88522067  0.53269233  0.40361882  1.0
  Zr  Zr827  1  0.88522067  0.86602567  0.40361882  1.0
  Zr  Zr828  1  0.01509983  0.07357500  0.34444618  1.0
  Zr  Zr829  1  0.01509983  0.40690833  0.34444618  1.0
  Zr  Zr830  1  0.01509983  0.74024167  0.34444618  1.0
  Zr  Zr831  1  0.34843317  0.07357500  0.34444618  1.0
  Zr  Zr832  1  0.34843317  0.40690833  0.34444618  1.0
  Zr  Zr833  1  0.34843317  0.74024167  0.34444618  1.0
  Zr  Zr834  1  0.68176650  0.07357500  0.34444618  1.0
  Zr  Zr835  1  0.68176650  0.40690833  0.34444618  1.0
  Zr  Zr836  1  0.68176650  0.74024167  0.34444618  1.0
  Zr  Zr837  1  0.18176650  0.07357500  0.41587475  1.0
  Zr  Zr838  1  0.18176650  0.40690833  0.41587475  1.0
  Zr  Zr839  1  0.18176650  0.74024167  0.41587475  1.0
  Zr  Zr840  1  0.51509983  0.07357500  0.41587475  1.0
  Zr  Zr841  1  0.51509983  0.40690833  0.41587475  1.0
  Zr  Zr842  1  0.51509983  0.74024167  0.41587475  1.0
  Zr  Zr843  1  0.84843317  0.07357500  0.41587475  1.0
  Zr  Zr844  1  0.84843317  0.40690833  0.41587475  1.0
  Zr  Zr845  1  0.84843317  0.74024167  0.41587475  1.0
  Zr  Zr846  1  0.15156683  0.25975833  0.29511718  1.0
  Zr  Zr847  1  0.15156683  0.59309167  0.29511718  1.0
  Zr  Zr848  1  0.15156683  0.92642500  0.29511718  1.0
  Zr  Zr849  1  0.48490017  0.25975833  0.29511718  1.0
  Zr  Zr850  1  0.48490017  0.59309167  0.29511718  1.0
  Zr  Zr851  1  0.48490017  0.92642500  0.29511718  1.0
  Zr  Zr852  1  0.81823350  0.25975833  0.29511718  1.0
  Zr  Zr853  1  0.81823350  0.59309167  0.29511718  1.0
  Zr  Zr854  1  0.81823350  0.92642500  0.29511718  1.0
  Zr  Zr855  1  0.31823350  0.25975833  0.36654575  1.0
  Zr  Zr856  1  0.31823350  0.59309167  0.36654575  1.0
  Zr  Zr857  1  0.31823350  0.92642500  0.36654575  1.0
  Zr  Zr858  1  0.65156683  0.25975833  0.36654575  1.0
  Zr  Zr859  1  0.65156683  0.59309167  0.36654575  1.0
  Zr  Zr860  1  0.65156683  0.92642500  0.36654575  1.0
  Zr  Zr861  1  0.98490017  0.25975833  0.36654575  1.0
  Zr  Zr862  1  0.98490017  0.59309167  0.36654575  1.0
  Zr  Zr863  1  0.98490017  0.92642500  0.36654575  1.0
  Zr  Zr864  1  0.11477933  0.13397433  0.30737311  1.0
  Zr  Zr865  1  0.11477933  0.46730767  0.30737311  1.0
  Zr  Zr866  1  0.11477933  0.80064100  0.30737311  1.0
  Zr  Zr867  1  0.44811267  0.13397433  0.30737311  1.0
  Zr  Zr868  1  0.44811267  0.46730767  0.30737311  1.0
  Zr  Zr869  1  0.44811267  0.80064100  0.30737311  1.0
  Zr  Zr870  1  0.78144600  0.13397433  0.30737311  1.0
  Zr  Zr871  1  0.78144600  0.46730767  0.30737311  1.0
  Zr  Zr872  1  0.78144600  0.80064100  0.30737311  1.0
  Zr  Zr873  1  0.28144600  0.13397433  0.37880168  1.0
  Zr  Zr874  1  0.28144600  0.46730767  0.37880168  1.0
  Zr  Zr875  1  0.28144600  0.80064100  0.37880168  1.0
  Zr  Zr876  1  0.61477933  0.13397433  0.37880168  1.0
  Zr  Zr877  1  0.61477933  0.46730767  0.37880168  1.0
  Zr  Zr878  1  0.61477933  0.80064100  0.37880168  1.0
  Zr  Zr879  1  0.94811267  0.13397433  0.37880168  1.0
  Zr  Zr880  1  0.94811267  0.46730767  0.37880168  1.0
  Zr  Zr881  1  0.94811267  0.80064100  0.37880168  1.0
  Ni  Ni882  1  0.08333333  0.00000000  0.31978168  1.0
  Ni  Ni883  1  0.08333333  0.33333333  0.31978168  1.0
  Ni  Ni884  1  0.08333333  0.66666667  0.31978168  1.0
  Ni  Ni885  1  0.41666667  0.00000000  0.31978168  1.0
  Ni  Ni886  1  0.41666667  0.33333333  0.31978168  1.0
  Ni  Ni887  1  0.41666667  0.66666667  0.31978168  1.0
  Ni  Ni888  1  0.75000000  0.00000000  0.31978168  1.0
  Ni  Ni889  1  0.75000000  0.33333333  0.31978168  1.0
  Ni  Ni890  1  0.75000000  0.66666667  0.31978168  1.0
  Ni  Ni891  1  0.25000000  0.00000000  0.39121025  1.0
  Ni  Ni892  1  0.25000000  0.33333333  0.39121025  1.0
  Ni  Ni893  1  0.25000000  0.66666667  0.39121025  1.0
  Ni  Ni894  1  0.58333333  0.00000000  0.39121025  1.0
  Ni  Ni895  1  0.58333333  0.33333333  0.39121025  1.0
  Ni  Ni896  1  0.58333333  0.66666667  0.39121025  1.0
  Ni  Ni897  1  0.91666667  0.00000000  0.39121025  1.0
  Ni  Ni898  1  0.91666667  0.33333333  0.39121025  1.0
  Ni  Ni899  1  0.91666667  0.66666667  0.39121025  1.0
  Ni  Ni900  1  0.12500000  0.16666667  0.33763882  1.0
  Ni  Ni901  1  0.12500000  0.50000000  0.33763882  1.0
  Ni  Ni902  1  0.12500000  0.83333333  0.33763882  1.0
  Ni  Ni903  1  0.45833333  0.16666667  0.33763882  1.0
  Ni  Ni904  1  0.45833333  0.50000000  0.33763882  1.0
  Ni  Ni905  1  0.45833333  0.83333333  0.33763882  1.0
  Ni  Ni906  1  0.79166667  0.16666667  0.33763882  1.0
  Ni  Ni907  1  0.79166667  0.50000000  0.33763882  1.0
  Ni  Ni908  1  0.79166667  0.83333333  0.33763882  1.0
  Ni  Ni909  1  0.29166667  0.16666667  0.40906739  1.0
  Ni  Ni910  1  0.29166667  0.50000000  0.40906739  1.0
  Ni  Ni911  1  0.29166667  0.83333333  0.40906739  1.0
  Ni  Ni912  1  0.62500000  0.16666667  0.40906739  1.0
  Ni  Ni913  1  0.62500000  0.50000000  0.40906739  1.0
  Ni  Ni914  1  0.62500000  0.83333333  0.40906739  1.0
  Ni  Ni915  1  0.95833333  0.16666667  0.40906739  1.0
  Ni  Ni916  1  0.95833333  0.50000000  0.40906739  1.0
  Ni  Ni917  1  0.95833333  0.83333333  0.40906739  1.0
  Ni  Ni918  1  0.04166667  0.16666667  0.30192454  1.0
  Ni  Ni919  1  0.04166667  0.50000000  0.30192454  1.0
  Ni  Ni920  1  0.04166667  0.83333333  0.30192454  1.0
  Ni  Ni921  1  0.37500000  0.16666667  0.30192454  1.0
  Ni  Ni922  1  0.37500000  0.50000000  0.30192454  1.0
  Ni  Ni923  1  0.37500000  0.83333333  0.30192454  1.0
  Ni  Ni924  1  0.70833333  0.16666667  0.30192454  1.0
  Ni  Ni925  1  0.70833333  0.50000000  0.30192454  1.0
  Ni  Ni926  1  0.70833333  0.83333333  0.30192454  1.0
  Ni  Ni927  1  0.20833333  0.16666667  0.37335311  1.0
  Ni  Ni928  1  0.20833333  0.50000000  0.37335311  1.0
  Ni  Ni929  1  0.20833333  0.83333333  0.37335311  1.0
  Ni  Ni930  1  0.54166667  0.16666667  0.37335311  1.0
  Ni  Ni931  1  0.54166667  0.50000000  0.37335311  1.0
  Ni  Ni932  1  0.54166667  0.83333333  0.37335311  1.0
  Ni  Ni933  1  0.87500000  0.16666667  0.37335311  1.0
  Ni  Ni934  1  0.87500000  0.50000000  0.37335311  1.0
  Ni  Ni935  1  0.87500000  0.83333333  0.37335311  1.0
  Ni  Ni936  1  0.05409317  0.21911967  0.37118032  1.0
  Ni  Ni937  1  0.05409317  0.55245300  0.37118032  1.0
  Ni  Ni938  1  0.05409317  0.88578633  0.37118032  1.0
  Ni  Ni939  1  0.38742650  0.21911967  0.37118032  1.0
  Ni  Ni940  1  0.38742650  0.55245300  0.37118032  1.0
  Ni  Ni941  1  0.38742650  0.88578633  0.37118032  1.0
  Ni  Ni942  1  0.72075983  0.21911967  0.37118032  1.0
  Ni  Ni943  1  0.72075983  0.55245300  0.37118032  1.0
  Ni  Ni944  1  0.72075983  0.88578633  0.37118032  1.0
  Ni  Ni945  1  0.22075983  0.21911967  0.29975175  1.0
  Ni  Ni946  1  0.22075983  0.55245300  0.29975175  1.0
  Ni  Ni947  1  0.22075983  0.88578633  0.29975175  1.0
  Ni  Ni948  1  0.55409317  0.21911967  0.29975175  1.0
  Ni  Ni949  1  0.55409317  0.55245300  0.29975175  1.0
  Ni  Ni950  1  0.55409317  0.88578633  0.29975175  1.0
  Ni  Ni951  1  0.88742650  0.21911967  0.29975175  1.0
  Ni  Ni952  1  0.88742650  0.55245300  0.29975175  1.0
  Ni  Ni953  1  0.88742650  0.88578633  0.29975175  1.0
  Ni  Ni954  1  0.07157150  0.29837667  0.42363075  1.0
  Ni  Ni955  1  0.07157150  0.63171000  0.42363075  1.0
  Ni  Ni956  1  0.07157150  0.96504333  0.42363075  1.0
  Ni  Ni957  1  0.40490483  0.29837667  0.42363075  1.0
  Ni  Ni958  1  0.40490483  0.63171000  0.42363075  1.0
  Ni  Ni959  1  0.40490483  0.96504333  0.42363075  1.0
  Ni  Ni960  1  0.73823817  0.29837667  0.42363075  1.0
  Ni  Ni961  1  0.73823817  0.63171000  0.42363075  1.0
  Ni  Ni962  1  0.73823817  0.96504333  0.42363075  1.0
  Ni  Ni963  1  0.23823817  0.29837667  0.35220218  1.0
  Ni  Ni964  1  0.23823817  0.63171000  0.35220218  1.0
  Ni  Ni965  1  0.23823817  0.96504333  0.35220218  1.0
  Ni  Ni966  1  0.57157150  0.29837667  0.35220218  1.0
  Ni  Ni967  1  0.57157150  0.63171000  0.35220218  1.0
  Ni  Ni968  1  0.57157150  0.96504333  0.35220218  1.0
  Ni  Ni969  1  0.90490483  0.29837667  0.35220218  1.0
  Ni  Ni970  1  0.90490483  0.63171000  0.35220218  1.0
  Ni  Ni971  1  0.90490483  0.96504333  0.35220218  1.0
  Ni  Ni972  1  0.16365300  0.03495667  0.38817168  1.0
  Ni  Ni973  1  0.16365300  0.36829000  0.38817168  1.0
  Ni  Ni974  1  0.16365300  0.70162333  0.38817168  1.0
  Ni  Ni975  1  0.49698633  0.03495667  0.38817168  1.0
  Ni  Ni976  1  0.49698633  0.36829000  0.38817168  1.0
  Ni  Ni977  1  0.49698633  0.70162333  0.38817168  1.0
  Ni  Ni978  1  0.83031967  0.03495667  0.38817168  1.0
  Ni  Ni979  1  0.83031967  0.36829000  0.38817168  1.0
  Ni  Ni980  1  0.83031967  0.70162333  0.38817168  1.0
  Ni  Ni981  1  0.33031967  0.03495667  0.31674311  1.0
  Ni  Ni982  1  0.33031967  0.36829000  0.31674311  1.0
  Ni  Ni983  1  0.33031967  0.70162333  0.31674311  1.0
  Ni  Ni984  1  0.66365300  0.03495667  0.31674311  1.0
  Ni  Ni985  1  0.66365300  0.36829000  0.31674311  1.0
  Ni  Ni986  1  0.66365300  0.70162333  0.31674311  1.0
  Ni  Ni987  1  0.99698633  0.03495667  0.31674311  1.0
  Ni  Ni988  1  0.99698633  0.36829000  0.31674311  1.0
  Ni  Ni989  1  0.99698633  0.70162333  0.31674311  1.0
  Ni  Ni990  1  0.01446467  0.11421367  0.36919354  1.0
  Ni  Ni991  1  0.01446467  0.44754700  0.36919354  1.0
  Ni  Ni992  1  0.01446467  0.78088033  0.36919354  1.0
  Ni  Ni993  1  0.34779800  0.11421367  0.36919354  1.0
  Ni  Ni994  1  0.34779800  0.44754700  0.36919354  1.0
  Ni  Ni995  1  0.34779800  0.78088033  0.36919354  1.0
  Ni  Ni996  1  0.68113133  0.11421367  0.36919354  1.0
  Ni  Ni997  1  0.68113133  0.44754700  0.36919354  1.0
  Ni  Ni998  1  0.68113133  0.78088033  0.36919354  1.0
  Ni  Ni999  1  0.18113133  0.11421367  0.29776496  1.0
  Ni  Ni1000  1  0.18113133  0.44754700  0.29776496  1.0
  Ni  Ni1001  1  0.18113133  0.78088033  0.29776496  1.0
  Ni  Ni1002  1  0.51446467  0.11421367  0.29776496  1.0
  Ni  Ni1003  1  0.51446467  0.44754700  0.29776496  1.0
  Ni  Ni1004  1  0.51446467  0.78088033  0.29776496  1.0
  Ni  Ni1005  1  0.84779800  0.11421367  0.29776496  1.0
  Ni  Ni1006  1  0.84779800  0.44754700  0.29776496  1.0
  Ni  Ni1007  1  0.84779800  0.78088033  0.29776496  1.0
  Ni  Ni1008  1  0.11257350  0.11421367  0.41124018  1.0
  Ni  Ni1009  1  0.11257350  0.44754700  0.41124018  1.0
  Ni  Ni1010  1  0.11257350  0.78088033  0.41124018  1.0
  Ni  Ni1011  1  0.44590683  0.11421367  0.41124018  1.0
  Ni  Ni1012  1  0.44590683  0.44754700  0.41124018  1.0
  Ni  Ni1013  1  0.44590683  0.78088033  0.41124018  1.0
  Ni  Ni1014  1  0.77924017  0.11421367  0.41124018  1.0
  Ni  Ni1015  1  0.77924017  0.44754700  0.41124018  1.0
  Ni  Ni1016  1  0.77924017  0.78088033  0.41124018  1.0
  Ni  Ni1017  1  0.27924017  0.11421367  0.33981161  1.0
  Ni  Ni1018  1  0.27924017  0.44754700  0.33981161  1.0
  Ni  Ni1019  1  0.27924017  0.78088033  0.33981161  1.0
  Ni  Ni1020  1  0.61257350  0.11421367  0.33981161  1.0
  Ni  Ni1021  1  0.61257350  0.44754700  0.33981161  1.0
  Ni  Ni1022  1  0.61257350  0.78088033  0.33981161  1.0
  Ni  Ni1023  1  0.94590683  0.11421367  0.33981161  1.0
  Ni  Ni1024  1  0.94590683  0.44754700  0.33981161  1.0
  Ni  Ni1025  1  0.94590683  0.78088033  0.33981161  1.0
  Ni  Ni1026  1  0.09509517  0.03495667  0.35878975  1.0
  Ni  Ni1027  1  0.09509517  0.36829000  0.35878975  1.0
  Ni  Ni1028  1  0.09509517  0.70162333  0.35878975  1.0
  Ni  Ni1029  1  0.42842850  0.03495667  0.35878975  1.0
  Ni  Ni1030  1  0.42842850  0.36829000  0.35878975  1.0
  Ni  Ni1031  1  0.42842850  0.70162333  0.35878975  1.0
  Ni  Ni1032  1  0.76176183  0.03495667  0.35878975  1.0
  Ni  Ni1033  1  0.76176183  0.36829000  0.35878975  1.0
  Ni  Ni1034  1  0.76176183  0.70162333  0.35878975  1.0
  Ni  Ni1035  1  0.26176183  0.03495667  0.28736118  1.0
  Ni  Ni1036  1  0.26176183  0.36829000  0.28736118  1.0
  Ni  Ni1037  1  0.26176183  0.70162333  0.28736118  1.0
  Ni  Ni1038  1  0.59509517  0.03495667  0.28736118  1.0
  Ni  Ni1039  1  0.59509517  0.36829000  0.28736118  1.0
  Ni  Ni1040  1  0.59509517  0.70162333  0.28736118  1.0
  Ni  Ni1041  1  0.92842850  0.03495667  0.28736118  1.0
  Ni  Ni1042  1  0.92842850  0.36829000  0.28736118  1.0
  Ni  Ni1043  1  0.92842850  0.70162333  0.28736118  1.0
  Ni  Ni1044  1  0.00301367  0.29837667  0.39424882  1.0
  Ni  Ni1045  1  0.00301367  0.63171000  0.39424882  1.0
  Ni  Ni1046  1  0.00301367  0.96504333  0.39424882  1.0
  Ni  Ni1047  1  0.33634700  0.29837667  0.39424882  1.0
  Ni  Ni1048  1  0.33634700  0.63171000  0.39424882  1.0
  Ni  Ni1049  1  0.33634700  0.96504333  0.39424882  1.0
  Ni  Ni1050  1  0.66968033  0.29837667  0.39424882  1.0
  Ni  Ni1051  1  0.66968033  0.63171000  0.39424882  1.0
  Ni  Ni1052  1  0.66968033  0.96504333  0.39424882  1.0
  Ni  Ni1053  1  0.16968033  0.29837667  0.32282025  1.0
  Ni  Ni1054  1  0.16968033  0.63171000  0.32282025  1.0
  Ni  Ni1055  1  0.16968033  0.96504333  0.32282025  1.0
  Ni  Ni1056  1  0.50301367  0.29837667  0.32282025  1.0
  Ni  Ni1057  1  0.50301367  0.63171000  0.32282025  1.0
  Ni  Ni1058  1  0.50301367  0.96504333  0.32282025  1.0
  Ni  Ni1059  1  0.83634700  0.29837667  0.32282025  1.0
  Ni  Ni1060  1  0.83634700  0.63171000  0.32282025  1.0
  Ni  Ni1061  1  0.83634700  0.96504333  0.32282025  1.0
  Ni  Ni1062  1  0.15220200  0.21911967  0.41322696  1.0
  Ni  Ni1063  1  0.15220200  0.55245300  0.41322696  1.0
  Ni  Ni1064  1  0.15220200  0.88578633  0.41322696  1.0
  Ni  Ni1065  1  0.48553533  0.21911967  0.41322696  1.0
  Ni  Ni1066  1  0.48553533  0.55245300  0.41322696  1.0
  Ni  Ni1067  1  0.48553533  0.88578633  0.41322696  1.0
  Ni  Ni1068  1  0.81886867  0.21911967  0.41322696  1.0
  Ni  Ni1069  1  0.81886867  0.55245300  0.41322696  1.0
  Ni  Ni1070  1  0.81886867  0.88578633  0.41322696  1.0
  Ni  Ni1071  1  0.31886867  0.21911967  0.34179839  1.0
  Ni  Ni1072  1  0.31886867  0.55245300  0.34179839  1.0
  Ni  Ni1073  1  0.31886867  0.88578633  0.34179839  1.0
  Ni  Ni1074  1  0.65220200  0.21911967  0.34179839  1.0
  Ni  Ni1075  1  0.65220200  0.55245300  0.34179839  1.0
  Ni  Ni1076  1  0.65220200  0.88578633  0.34179839  1.0
  Ni  Ni1077  1  0.98553533  0.21911967  0.34179839  1.0
  Ni  Ni1078  1  0.98553533  0.55245300  0.34179839  1.0
  Ni  Ni1079  1  0.98553533  0.88578633  0.34179839  1.0
