# generated using pymatgen
data_Zr9Ni11
_symmetry_space_group_name_H-M   'P 1'
_cell_length_a   29.97939001
_cell_length_b   36.03360100
_cell_length_c   30.18536273
_cell_angle_alpha   80.89607445
_cell_angle_beta   80.47201019
_cell_angle_gamma   65.41818780
_symmetry_Int_Tables_number   1
_chemical_formula_structural   Zr9Ni11
_chemical_formula_sum   'Zr324 Ni396'
_cell_volume   29098.24281636
_cell_formula_units_Z   36
loop_
 _symmetry_equiv_pos_site_id
 _symmetry_equiv_pos_as_xyz
  1  'x, y, z'
loop_
 _atom_site_type_symbol
 _atom_site_label
 _atom_site_symmetry_multiplicity
 _atom_site_fract_x
 _atom_site_fract_y
 _atom_site_fract_z
 _atom_site_occupancy
  Ni  Ni0  1  0.05220093  0.25000000  0.95330140  1.0
  Ni  Ni1  1  0.05220093  0.58333333  0.95330140  1.0
  Ni  Ni2  1  0.05220093  0.91666667  0.95330140  1.0
  Ni  Ni3  1  0.38553427  0.25000000  0.95330140  1.0
  Ni  Ni4  1  0.38553427  0.58333333  0.95330140  1.0
  Ni  Ni5  1  0.38553427  0.91666667  0.95330140  1.0
  Ni  Ni6  1  0.71886760  0.25000000  0.95330140  1.0
  Ni  Ni7  1  0.71886760  0.58333333  0.95330140  1.0
  Ni  Ni8  1  0.71886760  0.91666667  0.95330140  1.0
  Ni  Ni9  1  0.15220093  0.08333333  0.85330140  1.0
  Ni  Ni10  1  0.15220093  0.41666667  0.85330140  1.0
  Ni  Ni11  1  0.15220093  0.75000000  0.85330140  1.0
  Ni  Ni12  1  0.48553427  0.08333333  0.85330140  1.0
  Ni  Ni13  1  0.48553427  0.41666667  0.85330140  1.0
  Ni  Ni14  1  0.48553427  0.75000000  0.85330140  1.0
  Ni  Ni15  1  0.81886760  0.08333333  0.85330140  1.0
  Ni  Ni16  1  0.81886760  0.41666667  0.85330140  1.0
  Ni  Ni17  1  0.81886760  0.75000000  0.85330140  1.0
  Ni  Ni18  1  0.29386760  0.12500000  0.87830140  1.0
  Ni  Ni19  1  0.29386760  0.45833333  0.87830140  1.0
  Ni  Ni20  1  0.29386760  0.79166667  0.87830140  1.0
  Ni  Ni21  1  0.62720093  0.12500000  0.87830140  1.0
  Ni  Ni22  1  0.62720093  0.45833333  0.87830140  1.0
  Ni  Ni23  1  0.62720093  0.79166667  0.87830140  1.0
  Ni  Ni24  1  0.96053427  0.12500000  0.87830140  1.0
  Ni  Ni25  1  0.96053427  0.45833333  0.87830140  1.0
  Ni  Ni26  1  0.96053427  0.79166667  0.87830140  1.0
  Ni  Ni27  1  0.19386760  0.29166667  0.97830140  1.0
  Ni  Ni28  1  0.19386760  0.62500000  0.97830140  1.0
  Ni  Ni29  1  0.19386760  0.95833333  0.97830140  1.0
  Ni  Ni30  1  0.52720093  0.29166667  0.97830140  1.0
  Ni  Ni31  1  0.52720093  0.62500000  0.97830140  1.0
  Ni  Ni32  1  0.52720093  0.95833333  0.97830140  1.0
  Ni  Ni33  1  0.86053427  0.29166667  0.97830140  1.0
  Ni  Ni34  1  0.86053427  0.62500000  0.97830140  1.0
  Ni  Ni35  1  0.86053427  0.95833333  0.97830140  1.0
  Ni  Ni36  1  0.24386760  0.20833333  0.92830140  1.0
  Ni  Ni37  1  0.24386760  0.54166667  0.92830140  1.0
  Ni  Ni38  1  0.24386760  0.87500000  0.92830140  1.0
  Ni  Ni39  1  0.57720093  0.20833333  0.92830140  1.0
  Ni  Ni40  1  0.57720093  0.54166667  0.92830140  1.0
  Ni  Ni41  1  0.57720093  0.87500000  0.92830140  1.0
  Ni  Ni42  1  0.91053427  0.20833333  0.92830140  1.0
  Ni  Ni43  1  0.91053427  0.54166667  0.92830140  1.0
  Ni  Ni44  1  0.91053427  0.87500000  0.92830140  1.0
  Ni  Ni45  1  0.01053427  0.04166667  0.82830140  1.0
  Ni  Ni46  1  0.01053427  0.37500000  0.82830140  1.0
  Ni  Ni47  1  0.01053427  0.70833333  0.82830140  1.0
  Ni  Ni48  1  0.34386760  0.04166667  0.82830140  1.0
  Ni  Ni49  1  0.34386760  0.37500000  0.82830140  1.0
  Ni  Ni50  1  0.34386760  0.70833333  0.82830140  1.0
  Ni  Ni51  1  0.67720093  0.04166667  0.82830140  1.0
  Ni  Ni52  1  0.67720093  0.37500000  0.82830140  1.0
  Ni  Ni53  1  0.67720093  0.70833333  0.82830140  1.0
  Ni  Ni54  1  0.15493827  0.16968033  0.81560740  1.0
  Ni  Ni55  1  0.15493827  0.50301367  0.81560740  1.0
  Ni  Ni56  1  0.15493827  0.83634700  0.81560740  1.0
  Ni  Ni57  1  0.48827160  0.16968033  0.81560740  1.0
  Ni  Ni58  1  0.48827160  0.50301367  0.81560740  1.0
  Ni  Ni59  1  0.48827160  0.83634700  0.81560740  1.0
  Ni  Ni60  1  0.82160493  0.16968033  0.81560740  1.0
  Ni  Ni61  1  0.82160493  0.50301367  0.81560740  1.0
  Ni  Ni62  1  0.82160493  0.83634700  0.81560740  1.0
  Ni  Ni63  1  0.05493827  0.00301367  0.91560740  1.0
  Ni  Ni64  1  0.05493827  0.33634700  0.91560740  1.0
  Ni  Ni65  1  0.05493827  0.66968033  0.91560740  1.0
  Ni  Ni66  1  0.38827160  0.00301367  0.91560740  1.0
  Ni  Ni67  1  0.38827160  0.33634700  0.91560740  1.0
  Ni  Ni68  1  0.38827160  0.66968033  0.91560740  1.0
  Ni  Ni69  1  0.72160493  0.00301367  0.91560740  1.0
  Ni  Ni70  1  0.72160493  0.33634700  0.91560740  1.0
  Ni  Ni71  1  0.72160493  0.66968033  0.91560740  1.0
  Ni  Ni72  1  0.20131630  0.11257350  0.91839970  1.0
  Ni  Ni73  1  0.20131630  0.44590683  0.91839970  1.0
  Ni  Ni74  1  0.20131630  0.77924017  0.91839970  1.0
  Ni  Ni75  1  0.53464963  0.11257350  0.91839970  1.0
  Ni  Ni76  1  0.53464963  0.44590683  0.91839970  1.0
  Ni  Ni77  1  0.53464963  0.77924017  0.91839970  1.0
  Ni  Ni78  1  0.86798297  0.11257350  0.91839970  1.0
  Ni  Ni79  1  0.86798297  0.44590683  0.91839970  1.0
  Ni  Ni80  1  0.86798297  0.77924017  0.91839970  1.0
  Ni  Ni81  1  0.30131630  0.27924017  0.81839970  1.0
  Ni  Ni82  1  0.30131630  0.61257350  0.81839970  1.0
  Ni  Ni83  1  0.30131630  0.94590683  0.81839970  1.0
  Ni  Ni84  1  0.63464963  0.27924017  0.81839970  1.0
  Ni  Ni85  1  0.63464963  0.61257350  0.81839970  1.0
  Ni  Ni86  1  0.63464963  0.94590683  0.81839970  1.0
  Ni  Ni87  1  0.96798297  0.27924017  0.81839970  1.0
  Ni  Ni88  1  0.96798297  0.61257350  0.81839970  1.0
  Ni  Ni89  1  0.96798297  0.94590683  0.81839970  1.0
  Ni  Ni90  1  0.04422027  0.15220200  0.84706840  1.0
  Ni  Ni91  1  0.04422027  0.48553533  0.84706840  1.0
  Ni  Ni92  1  0.04422027  0.81886867  0.84706840  1.0
  Ni  Ni93  1  0.37755360  0.15220200  0.84706840  1.0
  Ni  Ni94  1  0.37755360  0.48553533  0.84706840  1.0
  Ni  Ni95  1  0.37755360  0.81886867  0.84706840  1.0
  Ni  Ni96  1  0.71088693  0.15220200  0.84706840  1.0
  Ni  Ni97  1  0.71088693  0.48553533  0.84706840  1.0
  Ni  Ni98  1  0.71088693  0.81886867  0.84706840  1.0
  Ni  Ni99  1  0.27755360  0.31886867  0.94706840  1.0
  Ni  Ni100  1  0.27755360  0.65220200  0.94706840  1.0
  Ni  Ni101  1  0.27755360  0.98553533  0.94706840  1.0
  Ni  Ni102  1  0.61088693  0.31886867  0.94706840  1.0
  Ni  Ni103  1  0.61088693  0.65220200  0.94706840  1.0
  Ni  Ni104  1  0.61088693  0.98553533  0.94706840  1.0
  Ni  Ni105  1  0.94422027  0.31886867  0.94706840  1.0
  Ni  Ni106  1  0.94422027  0.65220200  0.94706840  1.0
  Ni  Ni107  1  0.94422027  0.98553533  0.94706840  1.0
  Ni  Ni108  1  0.19059830  0.26176183  0.84986070  1.0
  Ni  Ni109  1  0.19059830  0.59509517  0.84986070  1.0
  Ni  Ni110  1  0.19059830  0.92842850  0.84986070  1.0
  Ni  Ni111  1  0.52393163  0.26176183  0.84986070  1.0
  Ni  Ni112  1  0.52393163  0.59509517  0.84986070  1.0
  Ni  Ni113  1  0.52393163  0.92842850  0.84986070  1.0
  Ni  Ni114  1  0.85726497  0.26176183  0.84986070  1.0
  Ni  Ni115  1  0.85726497  0.59509517  0.84986070  1.0
  Ni  Ni116  1  0.85726497  0.92842850  0.84986070  1.0
  Ni  Ni117  1  0.09059830  0.09509517  0.94986070  1.0
  Ni  Ni118  1  0.09059830  0.42842850  0.94986070  1.0
  Ni  Ni119  1  0.09059830  0.76176183  0.94986070  1.0
  Ni  Ni120  1  0.42393163  0.09509517  0.94986070  1.0
  Ni  Ni121  1  0.42393163  0.42842850  0.94986070  1.0
  Ni  Ni122  1  0.42393163  0.76176183  0.94986070  1.0
  Ni  Ni123  1  0.75726497  0.09509517  0.94986070  1.0
  Ni  Ni124  1  0.75726497  0.42842850  0.94986070  1.0
  Ni  Ni125  1  0.75726497  0.76176183  0.94986070  1.0
  Ni  Ni126  1  0.04946360  0.16365300  0.99099540  1.0
  Ni  Ni127  1  0.04946360  0.49698633  0.99099540  1.0
  Ni  Ni128  1  0.04946360  0.83031967  0.99099540  1.0
  Ni  Ni129  1  0.38279693  0.16365300  0.99099540  1.0
  Ni  Ni130  1  0.38279693  0.49698633  0.99099540  1.0
  Ni  Ni131  1  0.38279693  0.83031967  0.99099540  1.0
  Ni  Ni132  1  0.71613027  0.16365300  0.99099540  1.0
  Ni  Ni133  1  0.71613027  0.49698633  0.99099540  1.0
  Ni  Ni134  1  0.71613027  0.83031967  0.99099540  1.0
  Ni  Ni135  1  0.14946360  0.33031967  0.89099540  1.0
  Ni  Ni136  1  0.14946360  0.66365300  0.89099540  1.0
  Ni  Ni137  1  0.14946360  0.99698633  0.89099540  1.0
  Ni  Ni138  1  0.48279693  0.33031967  0.89099540  1.0
  Ni  Ni139  1  0.48279693  0.66365300  0.89099540  1.0
  Ni  Ni140  1  0.48279693  0.99698633  0.89099540  1.0
  Ni  Ni141  1  0.81613027  0.33031967  0.89099540  1.0
  Ni  Ni142  1  0.81613027  0.66365300  0.89099540  1.0
  Ni  Ni143  1  0.81613027  0.99698633  0.89099540  1.0
  Ni  Ni144  1  0.00308557  0.22075983  0.88820310  1.0
  Ni  Ni145  1  0.00308557  0.55409317  0.88820310  1.0
  Ni  Ni146  1  0.00308557  0.88742650  0.88820310  1.0
  Ni  Ni147  1  0.33641890  0.22075983  0.88820310  1.0
  Ni  Ni148  1  0.33641890  0.55409317  0.88820310  1.0
  Ni  Ni149  1  0.33641890  0.88742650  0.88820310  1.0
  Ni  Ni150  1  0.66975223  0.22075983  0.88820310  1.0
  Ni  Ni151  1  0.66975223  0.55409317  0.88820310  1.0
  Ni  Ni152  1  0.66975223  0.88742650  0.88820310  1.0
  Ni  Ni153  1  0.23641890  0.05409317  0.98820310  1.0
  Ni  Ni154  1  0.23641890  0.38742650  0.98820310  1.0
  Ni  Ni155  1  0.23641890  0.72075983  0.98820310  1.0
  Ni  Ni156  1  0.56975223  0.05409317  0.98820310  1.0
  Ni  Ni157  1  0.56975223  0.38742650  0.98820310  1.0
  Ni  Ni158  1  0.56975223  0.72075983  0.98820310  1.0
  Ni  Ni159  1  0.90308557  0.05409317  0.98820310  1.0
  Ni  Ni160  1  0.90308557  0.38742650  0.98820310  1.0
  Ni  Ni161  1  0.90308557  0.72075983  0.98820310  1.0
  Ni  Ni162  1  0.16018160  0.18113133  0.95953440  1.0
  Ni  Ni163  1  0.16018160  0.51446467  0.95953440  1.0
  Ni  Ni164  1  0.16018160  0.84779800  0.95953440  1.0
  Ni  Ni165  1  0.49351493  0.18113133  0.95953440  1.0
  Ni  Ni166  1  0.49351493  0.51446467  0.95953440  1.0
  Ni  Ni167  1  0.49351493  0.84779800  0.95953440  1.0
  Ni  Ni168  1  0.82684827  0.18113133  0.95953440  1.0
  Ni  Ni169  1  0.82684827  0.51446467  0.95953440  1.0
  Ni  Ni170  1  0.82684827  0.84779800  0.95953440  1.0
  Ni  Ni171  1  0.26018160  0.01446467  0.85953440  1.0
  Ni  Ni172  1  0.26018160  0.34779800  0.85953440  1.0
  Ni  Ni173  1  0.26018160  0.68113133  0.85953440  1.0
  Ni  Ni174  1  0.59351493  0.01446467  0.85953440  1.0
  Ni  Ni175  1  0.59351493  0.34779800  0.85953440  1.0
  Ni  Ni176  1  0.59351493  0.68113133  0.85953440  1.0
  Ni  Ni177  1  0.92684827  0.01446467  0.85953440  1.0
  Ni  Ni178  1  0.92684827  0.34779800  0.85953440  1.0
  Ni  Ni179  1  0.92684827  0.68113133  0.85953440  1.0
  Ni  Ni180  1  0.01380357  0.07157150  0.95674210  1.0
  Ni  Ni181  1  0.01380357  0.40490483  0.95674210  1.0
  Ni  Ni182  1  0.01380357  0.73823817  0.95674210  1.0
  Ni  Ni183  1  0.34713690  0.07157150  0.95674210  1.0
  Ni  Ni184  1  0.34713690  0.40490483  0.95674210  1.0
  Ni  Ni185  1  0.34713690  0.73823817  0.95674210  1.0
  Ni  Ni186  1  0.68047023  0.07157150  0.95674210  1.0
  Ni  Ni187  1  0.68047023  0.40490483  0.95674210  1.0
  Ni  Ni188  1  0.68047023  0.73823817  0.95674210  1.0
  Ni  Ni189  1  0.11380357  0.23823817  0.85674210  1.0
  Ni  Ni190  1  0.11380357  0.57157150  0.85674210  1.0
  Ni  Ni191  1  0.11380357  0.90490483  0.85674210  1.0
  Ni  Ni192  1  0.44713690  0.23823817  0.85674210  1.0
  Ni  Ni193  1  0.44713690  0.57157150  0.85674210  1.0
  Ni  Ni194  1  0.44713690  0.90490483  0.85674210  1.0
  Ni  Ni195  1  0.78047023  0.23823817  0.85674210  1.0
  Ni  Ni196  1  0.78047023  0.57157150  0.85674210  1.0
  Ni  Ni197  1  0.78047023  0.90490483  0.85674210  1.0
  Ni  Ni198  1  0.25220093  0.25000000  0.75330140  1.0
  Ni  Ni199  1  0.25220093  0.58333333  0.75330140  1.0
  Ni  Ni200  1  0.25220093  0.91666667  0.75330140  1.0
  Ni  Ni201  1  0.58553427  0.25000000  0.75330140  1.0
  Ni  Ni202  1  0.58553427  0.58333333  0.75330140  1.0
  Ni  Ni203  1  0.58553427  0.91666667  0.75330140  1.0
  Ni  Ni204  1  0.91886760  0.25000000  0.75330140  1.0
  Ni  Ni205  1  0.91886760  0.58333333  0.75330140  1.0
  Ni  Ni206  1  0.91886760  0.91666667  0.75330140  1.0
  Ni  Ni207  1  0.01886760  0.08333333  0.65330140  1.0
  Ni  Ni208  1  0.01886760  0.41666667  0.65330140  1.0
  Ni  Ni209  1  0.01886760  0.75000000  0.65330140  1.0
  Ni  Ni210  1  0.35220093  0.08333333  0.65330140  1.0
  Ni  Ni211  1  0.35220093  0.41666667  0.65330140  1.0
  Ni  Ni212  1  0.35220093  0.75000000  0.65330140  1.0
  Ni  Ni213  1  0.68553427  0.08333333  0.65330140  1.0
  Ni  Ni214  1  0.68553427  0.41666667  0.65330140  1.0
  Ni  Ni215  1  0.68553427  0.75000000  0.65330140  1.0
  Ni  Ni216  1  0.16053427  0.12500000  0.67830140  1.0
  Ni  Ni217  1  0.16053427  0.45833333  0.67830140  1.0
  Ni  Ni218  1  0.16053427  0.79166667  0.67830140  1.0
  Ni  Ni219  1  0.49386760  0.12500000  0.67830140  1.0
  Ni  Ni220  1  0.49386760  0.45833333  0.67830140  1.0
  Ni  Ni221  1  0.49386760  0.79166667  0.67830140  1.0
  Ni  Ni222  1  0.82720093  0.12500000  0.67830140  1.0
  Ni  Ni223  1  0.82720093  0.45833333  0.67830140  1.0
  Ni  Ni224  1  0.82720093  0.79166667  0.67830140  1.0
  Ni  Ni225  1  0.06053427  0.29166667  0.77830140  1.0
  Ni  Ni226  1  0.06053427  0.62500000  0.77830140  1.0
  Ni  Ni227  1  0.06053427  0.95833333  0.77830140  1.0
  Ni  Ni228  1  0.39386760  0.29166667  0.77830140  1.0
  Ni  Ni229  1  0.39386760  0.62500000  0.77830140  1.0
  Ni  Ni230  1  0.39386760  0.95833333  0.77830140  1.0
  Ni  Ni231  1  0.72720093  0.29166667  0.77830140  1.0
  Ni  Ni232  1  0.72720093  0.62500000  0.77830140  1.0
  Ni  Ni233  1  0.72720093  0.95833333  0.77830140  1.0
  Ni  Ni234  1  0.11053427  0.20833333  0.72830140  1.0
  Ni  Ni235  1  0.11053427  0.54166667  0.72830140  1.0
  Ni  Ni236  1  0.11053427  0.87500000  0.72830140  1.0
  Ni  Ni237  1  0.44386760  0.20833333  0.72830140  1.0
  Ni  Ni238  1  0.44386760  0.54166667  0.72830140  1.0
  Ni  Ni239  1  0.44386760  0.87500000  0.72830140  1.0
  Ni  Ni240  1  0.77720093  0.20833333  0.72830140  1.0
  Ni  Ni241  1  0.77720093  0.54166667  0.72830140  1.0
  Ni  Ni242  1  0.77720093  0.87500000  0.72830140  1.0
  Ni  Ni243  1  0.21053427  0.04166667  0.62830140  1.0
  Ni  Ni244  1  0.21053427  0.37500000  0.62830140  1.0
  Ni  Ni245  1  0.21053427  0.70833333  0.62830140  1.0
  Ni  Ni246  1  0.54386760  0.04166667  0.62830140  1.0
  Ni  Ni247  1  0.54386760  0.37500000  0.62830140  1.0
  Ni  Ni248  1  0.54386760  0.70833333  0.62830140  1.0
  Ni  Ni249  1  0.87720093  0.04166667  0.62830140  1.0
  Ni  Ni250  1  0.87720093  0.37500000  0.62830140  1.0
  Ni  Ni251  1  0.87720093  0.70833333  0.62830140  1.0
  Ni  Ni252  1  0.02160493  0.16968033  0.61560740  1.0
  Ni  Ni253  1  0.02160493  0.50301367  0.61560740  1.0
  Ni  Ni254  1  0.02160493  0.83634700  0.61560740  1.0
  Ni  Ni255  1  0.35493827  0.16968033  0.61560740  1.0
  Ni  Ni256  1  0.35493827  0.50301367  0.61560740  1.0
  Ni  Ni257  1  0.35493827  0.83634700  0.61560740  1.0
  Ni  Ni258  1  0.68827160  0.16968033  0.61560740  1.0
  Ni  Ni259  1  0.68827160  0.50301367  0.61560740  1.0
  Ni  Ni260  1  0.68827160  0.83634700  0.61560740  1.0
  Ni  Ni261  1  0.25493827  0.00301367  0.71560740  1.0
  Ni  Ni262  1  0.25493827  0.33634700  0.71560740  1.0
  Ni  Ni263  1  0.25493827  0.66968033  0.71560740  1.0
  Ni  Ni264  1  0.58827160  0.00301367  0.71560740  1.0
  Ni  Ni265  1  0.58827160  0.33634700  0.71560740  1.0
  Ni  Ni266  1  0.58827160  0.66968033  0.71560740  1.0
  Ni  Ni267  1  0.92160493  0.00301367  0.71560740  1.0
  Ni  Ni268  1  0.92160493  0.33634700  0.71560740  1.0
  Ni  Ni269  1  0.92160493  0.66968033  0.71560740  1.0
  Ni  Ni270  1  0.06798297  0.11257350  0.71839970  1.0
  Ni  Ni271  1  0.06798297  0.44590683  0.71839970  1.0
  Ni  Ni272  1  0.06798297  0.77924017  0.71839970  1.0
  Ni  Ni273  1  0.40131630  0.11257350  0.71839970  1.0
  Ni  Ni274  1  0.40131630  0.44590683  0.71839970  1.0
  Ni  Ni275  1  0.40131630  0.77924017  0.71839970  1.0
  Ni  Ni276  1  0.73464963  0.11257350  0.71839970  1.0
  Ni  Ni277  1  0.73464963  0.44590683  0.71839970  1.0
  Ni  Ni278  1  0.73464963  0.77924017  0.71839970  1.0
  Ni  Ni279  1  0.16798297  0.27924017  0.61839970  1.0
  Ni  Ni280  1  0.16798297  0.61257350  0.61839970  1.0
  Ni  Ni281  1  0.16798297  0.94590683  0.61839970  1.0
  Ni  Ni282  1  0.50131630  0.27924017  0.61839970  1.0
  Ni  Ni283  1  0.50131630  0.61257350  0.61839970  1.0
  Ni  Ni284  1  0.50131630  0.94590683  0.61839970  1.0
  Ni  Ni285  1  0.83464963  0.27924017  0.61839970  1.0
  Ni  Ni286  1  0.83464963  0.61257350  0.61839970  1.0
  Ni  Ni287  1  0.83464963  0.94590683  0.61839970  1.0
  Ni  Ni288  1  0.24422027  0.15220200  0.64706840  1.0
  Ni  Ni289  1  0.24422027  0.48553533  0.64706840  1.0
  Ni  Ni290  1  0.24422027  0.81886867  0.64706840  1.0
  Ni  Ni291  1  0.57755360  0.15220200  0.64706840  1.0
  Ni  Ni292  1  0.57755360  0.48553533  0.64706840  1.0
  Ni  Ni293  1  0.57755360  0.81886867  0.64706840  1.0
  Ni  Ni294  1  0.91088693  0.15220200  0.64706840  1.0
  Ni  Ni295  1  0.91088693  0.48553533  0.64706840  1.0
  Ni  Ni296  1  0.91088693  0.81886867  0.64706840  1.0
  Ni  Ni297  1  0.14422027  0.31886867  0.74706840  1.0
  Ni  Ni298  1  0.14422027  0.65220200  0.74706840  1.0
  Ni  Ni299  1  0.14422027  0.98553533  0.74706840  1.0
  Ni  Ni300  1  0.47755360  0.31886867  0.74706840  1.0
  Ni  Ni301  1  0.47755360  0.65220200  0.74706840  1.0
  Ni  Ni302  1  0.47755360  0.98553533  0.74706840  1.0
  Ni  Ni303  1  0.81088693  0.31886867  0.74706840  1.0
  Ni  Ni304  1  0.81088693  0.65220200  0.74706840  1.0
  Ni  Ni305  1  0.81088693  0.98553533  0.74706840  1.0
  Ni  Ni306  1  0.05726497  0.26176183  0.64986070  1.0
  Ni  Ni307  1  0.05726497  0.59509517  0.64986070  1.0
  Ni  Ni308  1  0.05726497  0.92842850  0.64986070  1.0
  Ni  Ni309  1  0.39059830  0.26176183  0.64986070  1.0
  Ni  Ni310  1  0.39059830  0.59509517  0.64986070  1.0
  Ni  Ni311  1  0.39059830  0.92842850  0.64986070  1.0
  Ni  Ni312  1  0.72393163  0.26176183  0.64986070  1.0
  Ni  Ni313  1  0.72393163  0.59509517  0.64986070  1.0
  Ni  Ni314  1  0.72393163  0.92842850  0.64986070  1.0
  Ni  Ni315  1  0.29059830  0.09509517  0.74986070  1.0
  Ni  Ni316  1  0.29059830  0.42842850  0.74986070  1.0
  Ni  Ni317  1  0.29059830  0.76176183  0.74986070  1.0
  Ni  Ni318  1  0.62393163  0.09509517  0.74986070  1.0
  Ni  Ni319  1  0.62393163  0.42842850  0.74986070  1.0
  Ni  Ni320  1  0.62393163  0.76176183  0.74986070  1.0
  Ni  Ni321  1  0.95726497  0.09509517  0.74986070  1.0
  Ni  Ni322  1  0.95726497  0.42842850  0.74986070  1.0
  Ni  Ni323  1  0.95726497  0.76176183  0.74986070  1.0
  Ni  Ni324  1  0.24946360  0.16365300  0.79099540  1.0
  Ni  Ni325  1  0.24946360  0.49698633  0.79099540  1.0
  Ni  Ni326  1  0.24946360  0.83031967  0.79099540  1.0
  Ni  Ni327  1  0.58279693  0.16365300  0.79099540  1.0
  Ni  Ni328  1  0.58279693  0.49698633  0.79099540  1.0
  Ni  Ni329  1  0.58279693  0.83031967  0.79099540  1.0
  Ni  Ni330  1  0.91613027  0.16365300  0.79099540  1.0
  Ni  Ni331  1  0.91613027  0.49698633  0.79099540  1.0
  Ni  Ni332  1  0.91613027  0.83031967  0.79099540  1.0
  Ni  Ni333  1  0.01613027  0.33031967  0.69099540  1.0
  Ni  Ni334  1  0.01613027  0.66365300  0.69099540  1.0
  Ni  Ni335  1  0.01613027  0.99698633  0.69099540  1.0
  Ni  Ni336  1  0.34946360  0.33031967  0.69099540  1.0
  Ni  Ni337  1  0.34946360  0.66365300  0.69099540  1.0
  Ni  Ni338  1  0.34946360  0.99698633  0.69099540  1.0
  Ni  Ni339  1  0.68279693  0.33031967  0.69099540  1.0
  Ni  Ni340  1  0.68279693  0.66365300  0.69099540  1.0
  Ni  Ni341  1  0.68279693  0.99698633  0.69099540  1.0
  Ni  Ni342  1  0.20308557  0.22075983  0.68820310  1.0
  Ni  Ni343  1  0.20308557  0.55409317  0.68820310  1.0
  Ni  Ni344  1  0.20308557  0.88742650  0.68820310  1.0
  Ni  Ni345  1  0.53641890  0.22075983  0.68820310  1.0
  Ni  Ni346  1  0.53641890  0.55409317  0.68820310  1.0
  Ni  Ni347  1  0.53641890  0.88742650  0.68820310  1.0
  Ni  Ni348  1  0.86975223  0.22075983  0.68820310  1.0
  Ni  Ni349  1  0.86975223  0.55409317  0.68820310  1.0
  Ni  Ni350  1  0.86975223  0.88742650  0.68820310  1.0
  Ni  Ni351  1  0.10308557  0.05409317  0.78820310  1.0
  Ni  Ni352  1  0.10308557  0.38742650  0.78820310  1.0
  Ni  Ni353  1  0.10308557  0.72075983  0.78820310  1.0
  Ni  Ni354  1  0.43641890  0.05409317  0.78820310  1.0
  Ni  Ni355  1  0.43641890  0.38742650  0.78820310  1.0
  Ni  Ni356  1  0.43641890  0.72075983  0.78820310  1.0
  Ni  Ni357  1  0.76975223  0.05409317  0.78820310  1.0
  Ni  Ni358  1  0.76975223  0.38742650  0.78820310  1.0
  Ni  Ni359  1  0.76975223  0.72075983  0.78820310  1.0
  Ni  Ni360  1  0.02684827  0.18113133  0.75953440  1.0
  Ni  Ni361  1  0.02684827  0.51446467  0.75953440  1.0
  Ni  Ni362  1  0.02684827  0.84779800  0.75953440  1.0
  Ni  Ni363  1  0.36018160  0.18113133  0.75953440  1.0
  Ni  Ni364  1  0.36018160  0.51446467  0.75953440  1.0
  Ni  Ni365  1  0.36018160  0.84779800  0.75953440  1.0
  Ni  Ni366  1  0.69351493  0.18113133  0.75953440  1.0
  Ni  Ni367  1  0.69351493  0.51446467  0.75953440  1.0
  Ni  Ni368  1  0.69351493  0.84779800  0.75953440  1.0
  Ni  Ni369  1  0.12684827  0.01446467  0.65953440  1.0
  Ni  Ni370  1  0.12684827  0.34779800  0.65953440  1.0
  Ni  Ni371  1  0.12684827  0.68113133  0.65953440  1.0
  Ni  Ni372  1  0.46018160  0.01446467  0.65953440  1.0
  Ni  Ni373  1  0.46018160  0.34779800  0.65953440  1.0
  Ni  Ni374  1  0.46018160  0.68113133  0.65953440  1.0
  Ni  Ni375  1  0.79351493  0.01446467  0.65953440  1.0
  Ni  Ni376  1  0.79351493  0.34779800  0.65953440  1.0
  Ni  Ni377  1  0.79351493  0.68113133  0.65953440  1.0
  Ni  Ni378  1  0.21380357  0.07157150  0.75674210  1.0
  Ni  Ni379  1  0.21380357  0.40490483  0.75674210  1.0
  Ni  Ni380  1  0.21380357  0.73823817  0.75674210  1.0
  Ni  Ni381  1  0.54713690  0.07157150  0.75674210  1.0
  Ni  Ni382  1  0.54713690  0.40490483  0.75674210  1.0
  Ni  Ni383  1  0.54713690  0.73823817  0.75674210  1.0
  Ni  Ni384  1  0.88047023  0.07157150  0.75674210  1.0
  Ni  Ni385  1  0.88047023  0.40490483  0.75674210  1.0
  Ni  Ni386  1  0.88047023  0.73823817  0.75674210  1.0
  Ni  Ni387  1  0.31380357  0.23823817  0.65674210  1.0
  Ni  Ni388  1  0.31380357  0.57157150  0.65674210  1.0
  Ni  Ni389  1  0.31380357  0.90490483  0.65674210  1.0
  Ni  Ni390  1  0.64713690  0.23823817  0.65674210  1.0
  Ni  Ni391  1  0.64713690  0.57157150  0.65674210  1.0
  Ni  Ni392  1  0.64713690  0.90490483  0.65674210  1.0
  Ni  Ni393  1  0.98047023  0.23823817  0.65674210  1.0
  Ni  Ni394  1  0.98047023  0.57157150  0.65674210  1.0
  Ni  Ni395  1  0.98047023  0.90490483  0.65674210  1.0
  Zr  Zr396  1  0.10220093  0.16666667  0.90330140  1.0
  Zr  Zr397  1  0.10220093  0.50000000  0.90330140  1.0
  Zr  Zr398  1  0.10220093  0.83333333  0.90330140  1.0
  Zr  Zr399  1  0.43553427  0.16666667  0.90330140  1.0
  Zr  Zr400  1  0.43553427  0.50000000  0.90330140  1.0
  Zr  Zr401  1  0.43553427  0.83333333  0.90330140  1.0
  Zr  Zr402  1  0.76886760  0.16666667  0.90330140  1.0
  Zr  Zr403  1  0.76886760  0.50000000  0.90330140  1.0
  Zr  Zr404  1  0.76886760  0.83333333  0.90330140  1.0
  Zr  Zr405  1  0.20220093  0.33333333  0.80330140  1.0
  Zr  Zr406  1  0.20220093  0.66666667  0.80330140  1.0
  Zr  Zr407  1  0.20220093  0.00000000  0.80330140  1.0
  Zr  Zr408  1  0.53553427  0.33333333  0.80330140  1.0
  Zr  Zr409  1  0.53553427  0.66666667  0.80330140  1.0
  Zr  Zr410  1  0.53553427  0.00000000  0.80330140  1.0
  Zr  Zr411  1  0.86886760  0.33333333  0.80330140  1.0
  Zr  Zr412  1  0.86886760  0.66666667  0.80330140  1.0
  Zr  Zr413  1  0.86886760  0.00000000  0.80330140  1.0
  Zr  Zr414  1  0.30421463  0.23586317  0.97874770  1.0
  Zr  Zr415  1  0.30421463  0.56919650  0.97874770  1.0
  Zr  Zr416  1  0.30421463  0.90252983  0.97874770  1.0
  Zr  Zr417  1  0.63754797  0.23586317  0.97874770  1.0
  Zr  Zr418  1  0.63754797  0.56919650  0.97874770  1.0
  Zr  Zr419  1  0.63754797  0.90252983  0.97874770  1.0
  Zr  Zr420  1  0.97088130  0.23586317  0.97874770  1.0
  Zr  Zr421  1  0.97088130  0.56919650  0.97874770  1.0
  Zr  Zr422  1  0.97088130  0.90252983  0.97874770  1.0
  Zr  Zr423  1  0.07088130  0.06919650  0.87874770  1.0
  Zr  Zr424  1  0.07088130  0.40252983  0.87874770  1.0
  Zr  Zr425  1  0.07088130  0.73586317  0.87874770  1.0
  Zr  Zr426  1  0.40421463  0.06919650  0.87874770  1.0
  Zr  Zr427  1  0.40421463  0.40252983  0.87874770  1.0
  Zr  Zr428  1  0.40421463  0.73586317  0.87874770  1.0
  Zr  Zr429  1  0.73754797  0.06919650  0.87874770  1.0
  Zr  Zr430  1  0.73754797  0.40252983  0.87874770  1.0
  Zr  Zr431  1  0.73754797  0.73586317  0.87874770  1.0
  Zr  Zr432  1  0.24884590  0.12540683  0.97756910  1.0
  Zr  Zr433  1  0.24884590  0.45874017  0.97756910  1.0
  Zr  Zr434  1  0.24884590  0.79207350  0.97756910  1.0
  Zr  Zr435  1  0.58217923  0.12540683  0.97756910  1.0
  Zr  Zr436  1  0.58217923  0.45874017  0.97756910  1.0
  Zr  Zr437  1  0.58217923  0.79207350  0.97756910  1.0
  Zr  Zr438  1  0.91551257  0.12540683  0.97756910  1.0
  Zr  Zr439  1  0.91551257  0.45874017  0.97756910  1.0
  Zr  Zr440  1  0.91551257  0.79207350  0.97756910  1.0
  Zr  Zr441  1  0.01551257  0.29207350  0.87756910  1.0
  Zr  Zr442  1  0.01551257  0.62540683  0.87756910  1.0
  Zr  Zr443  1  0.01551257  0.95874017  0.87756910  1.0
  Zr  Zr444  1  0.34884590  0.29207350  0.87756910  1.0
  Zr  Zr445  1  0.34884590  0.62540683  0.87756910  1.0
  Zr  Zr446  1  0.34884590  0.95874017  0.87756910  1.0
  Zr  Zr447  1  0.68217923  0.29207350  0.87756910  1.0
  Zr  Zr448  1  0.68217923  0.62540683  0.87756910  1.0
  Zr  Zr449  1  0.68217923  0.95874017  0.87756910  1.0
  Zr  Zr450  1  0.28888930  0.20792650  0.82903370  1.0
  Zr  Zr451  1  0.28888930  0.54125983  0.82903370  1.0
  Zr  Zr452  1  0.28888930  0.87459317  0.82903370  1.0
  Zr  Zr453  1  0.62222263  0.20792650  0.82903370  1.0
  Zr  Zr454  1  0.62222263  0.54125983  0.82903370  1.0
  Zr  Zr455  1  0.62222263  0.87459317  0.82903370  1.0
  Zr  Zr456  1  0.95555597  0.20792650  0.82903370  1.0
  Zr  Zr457  1  0.95555597  0.54125983  0.82903370  1.0
  Zr  Zr458  1  0.95555597  0.87459317  0.82903370  1.0
  Zr  Zr459  1  0.18888930  0.04125983  0.92903370  1.0
  Zr  Zr460  1  0.18888930  0.37459317  0.92903370  1.0
  Zr  Zr461  1  0.18888930  0.70792650  0.92903370  1.0
  Zr  Zr462  1  0.52222263  0.04125983  0.92903370  1.0
  Zr  Zr463  1  0.52222263  0.37459317  0.92903370  1.0
  Zr  Zr464  1  0.52222263  0.70792650  0.92903370  1.0
  Zr  Zr465  1  0.85555597  0.04125983  0.92903370  1.0
  Zr  Zr466  1  0.85555597  0.37459317  0.92903370  1.0
  Zr  Zr467  1  0.85555597  0.70792650  0.92903370  1.0
  Zr  Zr468  1  0.23352057  0.09747017  0.82785510  1.0
  Zr  Zr469  1  0.23352057  0.43080350  0.82785510  1.0
  Zr  Zr470  1  0.23352057  0.76413683  0.82785510  1.0
  Zr  Zr471  1  0.56685390  0.09747017  0.82785510  1.0
  Zr  Zr472  1  0.56685390  0.43080350  0.82785510  1.0
  Zr  Zr473  1  0.56685390  0.76413683  0.82785510  1.0
  Zr  Zr474  1  0.90018723  0.09747017  0.82785510  1.0
  Zr  Zr475  1  0.90018723  0.43080350  0.82785510  1.0
  Zr  Zr476  1  0.90018723  0.76413683  0.82785510  1.0
  Zr  Zr477  1  0.13352057  0.26413683  0.92785510  1.0
  Zr  Zr478  1  0.13352057  0.59747017  0.92785510  1.0
  Zr  Zr479  1  0.13352057  0.93080350  0.92785510  1.0
  Zr  Zr480  1  0.46685390  0.26413683  0.92785510  1.0
  Zr  Zr481  1  0.46685390  0.59747017  0.92785510  1.0
  Zr  Zr482  1  0.46685390  0.93080350  0.92785510  1.0
  Zr  Zr483  1  0.80018723  0.26413683  0.92785510  1.0
  Zr  Zr484  1  0.80018723  0.59747017  0.92785510  1.0
  Zr  Zr485  1  0.80018723  0.93080350  0.92785510  1.0
  Zr  Zr486  1  0.20295563  0.18176650  0.87612170  1.0
  Zr  Zr487  1  0.20295563  0.51509983  0.87612170  1.0
  Zr  Zr488  1  0.20295563  0.84843317  0.87612170  1.0
  Zr  Zr489  1  0.53628897  0.18176650  0.87612170  1.0
  Zr  Zr490  1  0.53628897  0.51509983  0.87612170  1.0
  Zr  Zr491  1  0.53628897  0.84843317  0.87612170  1.0
  Zr  Zr492  1  0.86962230  0.18176650  0.87612170  1.0
  Zr  Zr493  1  0.86962230  0.51509983  0.87612170  1.0
  Zr  Zr494  1  0.86962230  0.84843317  0.87612170  1.0
  Zr  Zr495  1  0.10295563  0.01509983  0.97612170  1.0
  Zr  Zr496  1  0.10295563  0.34843317  0.97612170  1.0
  Zr  Zr497  1  0.10295563  0.68176650  0.97612170  1.0
  Zr  Zr498  1  0.43628897  0.01509983  0.97612170  1.0
  Zr  Zr499  1  0.43628897  0.34843317  0.97612170  1.0
  Zr  Zr500  1  0.43628897  0.68176650  0.97612170  1.0
  Zr  Zr501  1  0.76962230  0.01509983  0.97612170  1.0
  Zr  Zr502  1  0.76962230  0.34843317  0.97612170  1.0
  Zr  Zr503  1  0.76962230  0.68176650  0.97612170  1.0
  Zr  Zr504  1  0.24277807  0.28144600  0.89669860  1.0
  Zr  Zr505  1  0.24277807  0.61477933  0.89669860  1.0
  Zr  Zr506  1  0.24277807  0.94811267  0.89669860  1.0
  Zr  Zr507  1  0.57611140  0.28144600  0.89669860  1.0
  Zr  Zr508  1  0.57611140  0.61477933  0.89669860  1.0
  Zr  Zr509  1  0.57611140  0.94811267  0.89669860  1.0
  Zr  Zr510  1  0.90944473  0.28144600  0.89669860  1.0
  Zr  Zr511  1  0.90944473  0.61477933  0.89669860  1.0
  Zr  Zr512  1  0.90944473  0.94811267  0.89669860  1.0
  Zr  Zr513  1  0.14277807  0.11477933  0.99669860  1.0
  Zr  Zr514  1  0.14277807  0.44811267  0.99669860  1.0
  Zr  Zr515  1  0.14277807  0.78144600  0.99669860  1.0
  Zr  Zr516  1  0.47611140  0.11477933  0.99669860  1.0
  Zr  Zr517  1  0.47611140  0.44811267  0.99669860  1.0
  Zr  Zr518  1  0.47611140  0.78144600  0.99669860  1.0
  Zr  Zr519  1  0.80944473  0.11477933  0.99669860  1.0
  Zr  Zr520  1  0.80944473  0.44811267  0.99669860  1.0
  Zr  Zr521  1  0.80944473  0.78144600  0.99669860  1.0
  Zr  Zr522  1  0.29495713  0.05188733  0.90990420  1.0
  Zr  Zr523  1  0.29495713  0.38522067  0.90990420  1.0
  Zr  Zr524  1  0.29495713  0.71855400  0.90990420  1.0
  Zr  Zr525  1  0.62829047  0.05188733  0.90990420  1.0
  Zr  Zr526  1  0.62829047  0.38522067  0.90990420  1.0
  Zr  Zr527  1  0.62829047  0.71855400  0.90990420  1.0
  Zr  Zr528  1  0.96162380  0.05188733  0.90990420  1.0
  Zr  Zr529  1  0.96162380  0.38522067  0.90990420  1.0
  Zr  Zr530  1  0.96162380  0.71855400  0.90990420  1.0
  Zr  Zr531  1  0.06162380  0.21855400  0.80990420  1.0
  Zr  Zr532  1  0.06162380  0.55188733  0.80990420  1.0
  Zr  Zr533  1  0.06162380  0.88522067  0.80990420  1.0
  Zr  Zr534  1  0.39495713  0.21855400  0.80990420  1.0
  Zr  Zr535  1  0.39495713  0.55188733  0.80990420  1.0
  Zr  Zr536  1  0.39495713  0.88522067  0.80990420  1.0
  Zr  Zr537  1  0.72829047  0.21855400  0.80990420  1.0
  Zr  Zr538  1  0.72829047  0.55188733  0.80990420  1.0
  Zr  Zr539  1  0.72829047  0.88522067  0.80990420  1.0
  Zr  Zr540  1  0.00144623  0.15156683  0.93048110  1.0
  Zr  Zr541  1  0.00144623  0.48490017  0.93048110  1.0
  Zr  Zr542  1  0.00144623  0.81823350  0.93048110  1.0
  Zr  Zr543  1  0.33477957  0.15156683  0.93048110  1.0
  Zr  Zr544  1  0.33477957  0.48490017  0.93048110  1.0
  Zr  Zr545  1  0.33477957  0.81823350  0.93048110  1.0
  Zr  Zr546  1  0.66811290  0.15156683  0.93048110  1.0
  Zr  Zr547  1  0.66811290  0.48490017  0.93048110  1.0
  Zr  Zr548  1  0.66811290  0.81823350  0.93048110  1.0
  Zr  Zr549  1  0.10144623  0.31823350  0.83048110  1.0
  Zr  Zr550  1  0.10144623  0.65156683  0.83048110  1.0
  Zr  Zr551  1  0.10144623  0.98490017  0.83048110  1.0
  Zr  Zr552  1  0.43477957  0.31823350  0.83048110  1.0
  Zr  Zr553  1  0.43477957  0.65156683  0.83048110  1.0
  Zr  Zr554  1  0.43477957  0.98490017  0.83048110  1.0
  Zr  Zr555  1  0.76811290  0.31823350  0.83048110  1.0
  Zr  Zr556  1  0.76811290  0.65156683  0.83048110  1.0
  Zr  Zr557  1  0.76811290  0.98490017  0.83048110  1.0
  Zr  Zr558  1  0.30220093  0.16666667  0.70330140  1.0
  Zr  Zr559  1  0.30220093  0.50000000  0.70330140  1.0
  Zr  Zr560  1  0.30220093  0.83333333  0.70330140  1.0
  Zr  Zr561  1  0.63553427  0.16666667  0.70330140  1.0
  Zr  Zr562  1  0.63553427  0.50000000  0.70330140  1.0
  Zr  Zr563  1  0.63553427  0.83333333  0.70330140  1.0
  Zr  Zr564  1  0.96886760  0.16666667  0.70330140  1.0
  Zr  Zr565  1  0.96886760  0.50000000  0.70330140  1.0
  Zr  Zr566  1  0.96886760  0.83333333  0.70330140  1.0
  Zr  Zr567  1  0.06886760  0.00000000  0.60330140  1.0
  Zr  Zr568  1  0.06886760  0.33333333  0.60330140  1.0
  Zr  Zr569  1  0.06886760  0.66666667  0.60330140  1.0
  Zr  Zr570  1  0.40220093  0.00000000  0.60330140  1.0
  Zr  Zr571  1  0.40220093  0.33333333  0.60330140  1.0
  Zr  Zr572  1  0.40220093  0.66666667  0.60330140  1.0
  Zr  Zr573  1  0.73553427  0.00000000  0.60330140  1.0
  Zr  Zr574  1  0.73553427  0.33333333  0.60330140  1.0
  Zr  Zr575  1  0.73553427  0.66666667  0.60330140  1.0
  Zr  Zr576  1  0.17088130  0.23586317  0.77874770  1.0
  Zr  Zr577  1  0.17088130  0.56919650  0.77874770  1.0
  Zr  Zr578  1  0.17088130  0.90252983  0.77874770  1.0
  Zr  Zr579  1  0.50421463  0.23586317  0.77874770  1.0
  Zr  Zr580  1  0.50421463  0.56919650  0.77874770  1.0
  Zr  Zr581  1  0.50421463  0.90252983  0.77874770  1.0
  Zr  Zr582  1  0.83754797  0.23586317  0.77874770  1.0
  Zr  Zr583  1  0.83754797  0.56919650  0.77874770  1.0
  Zr  Zr584  1  0.83754797  0.90252983  0.77874770  1.0
  Zr  Zr585  1  0.27088130  0.06919650  0.67874770  1.0
  Zr  Zr586  1  0.27088130  0.40252983  0.67874770  1.0
  Zr  Zr587  1  0.27088130  0.73586317  0.67874770  1.0
  Zr  Zr588  1  0.60421463  0.06919650  0.67874770  1.0
  Zr  Zr589  1  0.60421463  0.40252983  0.67874770  1.0
  Zr  Zr590  1  0.60421463  0.73586317  0.67874770  1.0
  Zr  Zr591  1  0.93754797  0.06919650  0.67874770  1.0
  Zr  Zr592  1  0.93754797  0.40252983  0.67874770  1.0
  Zr  Zr593  1  0.93754797  0.73586317  0.67874770  1.0
  Zr  Zr594  1  0.11551257  0.12540683  0.77756910  1.0
  Zr  Zr595  1  0.11551257  0.45874017  0.77756910  1.0
  Zr  Zr596  1  0.11551257  0.79207350  0.77756910  1.0
  Zr  Zr597  1  0.44884590  0.12540683  0.77756910  1.0
  Zr  Zr598  1  0.44884590  0.45874017  0.77756910  1.0
  Zr  Zr599  1  0.44884590  0.79207350  0.77756910  1.0
  Zr  Zr600  1  0.78217923  0.12540683  0.77756910  1.0
  Zr  Zr601  1  0.78217923  0.45874017  0.77756910  1.0
  Zr  Zr602  1  0.78217923  0.79207350  0.77756910  1.0
  Zr  Zr603  1  0.21551257  0.29207350  0.67756910  1.0
  Zr  Zr604  1  0.21551257  0.62540683  0.67756910  1.0
  Zr  Zr605  1  0.21551257  0.95874017  0.67756910  1.0
  Zr  Zr606  1  0.54884590  0.29207350  0.67756910  1.0
  Zr  Zr607  1  0.54884590  0.62540683  0.67756910  1.0
  Zr  Zr608  1  0.54884590  0.95874017  0.67756910  1.0
  Zr  Zr609  1  0.88217923  0.29207350  0.67756910  1.0
  Zr  Zr610  1  0.88217923  0.62540683  0.67756910  1.0
  Zr  Zr611  1  0.88217923  0.95874017  0.67756910  1.0
  Zr  Zr612  1  0.15555597  0.20792650  0.62903370  1.0
  Zr  Zr613  1  0.15555597  0.54125983  0.62903370  1.0
  Zr  Zr614  1  0.15555597  0.87459317  0.62903370  1.0
  Zr  Zr615  1  0.48888930  0.20792650  0.62903370  1.0
  Zr  Zr616  1  0.48888930  0.54125983  0.62903370  1.0
  Zr  Zr617  1  0.48888930  0.87459317  0.62903370  1.0
  Zr  Zr618  1  0.82222263  0.20792650  0.62903370  1.0
  Zr  Zr619  1  0.82222263  0.54125983  0.62903370  1.0
  Zr  Zr620  1  0.82222263  0.87459317  0.62903370  1.0
  Zr  Zr621  1  0.05555597  0.04125983  0.72903370  1.0
  Zr  Zr622  1  0.05555597  0.37459317  0.72903370  1.0
  Zr  Zr623  1  0.05555597  0.70792650  0.72903370  1.0
  Zr  Zr624  1  0.38888930  0.04125983  0.72903370  1.0
  Zr  Zr625  1  0.38888930  0.37459317  0.72903370  1.0
  Zr  Zr626  1  0.38888930  0.70792650  0.72903370  1.0
  Zr  Zr627  1  0.72222263  0.04125983  0.72903370  1.0
  Zr  Zr628  1  0.72222263  0.37459317  0.72903370  1.0
  Zr  Zr629  1  0.72222263  0.70792650  0.72903370  1.0
  Zr  Zr630  1  0.10018723  0.09747017  0.62785510  1.0
  Zr  Zr631  1  0.10018723  0.43080350  0.62785510  1.0
  Zr  Zr632  1  0.10018723  0.76413683  0.62785510  1.0
  Zr  Zr633  1  0.43352057  0.09747017  0.62785510  1.0
  Zr  Zr634  1  0.43352057  0.43080350  0.62785510  1.0
  Zr  Zr635  1  0.43352057  0.76413683  0.62785510  1.0
  Zr  Zr636  1  0.76685390  0.09747017  0.62785510  1.0
  Zr  Zr637  1  0.76685390  0.43080350  0.62785510  1.0
  Zr  Zr638  1  0.76685390  0.76413683  0.62785510  1.0
  Zr  Zr639  1  0.00018723  0.26413683  0.72785510  1.0
  Zr  Zr640  1  0.00018723  0.59747017  0.72785510  1.0
  Zr  Zr641  1  0.00018723  0.93080350  0.72785510  1.0
  Zr  Zr642  1  0.33352057  0.26413683  0.72785510  1.0
  Zr  Zr643  1  0.33352057  0.59747017  0.72785510  1.0
  Zr  Zr644  1  0.33352057  0.93080350  0.72785510  1.0
  Zr  Zr645  1  0.66685390  0.26413683  0.72785510  1.0
  Zr  Zr646  1  0.66685390  0.59747017  0.72785510  1.0
  Zr  Zr647  1  0.66685390  0.93080350  0.72785510  1.0
  Zr  Zr648  1  0.06962230  0.18176650  0.67612170  1.0
  Zr  Zr649  1  0.06962230  0.51509983  0.67612170  1.0
  Zr  Zr650  1  0.06962230  0.84843317  0.67612170  1.0
  Zr  Zr651  1  0.40295563  0.18176650  0.67612170  1.0
  Zr  Zr652  1  0.40295563  0.51509983  0.67612170  1.0
  Zr  Zr653  1  0.40295563  0.84843317  0.67612170  1.0
  Zr  Zr654  1  0.73628897  0.18176650  0.67612170  1.0
  Zr  Zr655  1  0.73628897  0.51509983  0.67612170  1.0
  Zr  Zr656  1  0.73628897  0.84843317  0.67612170  1.0
  Zr  Zr657  1  0.30295563  0.01509983  0.77612170  1.0
  Zr  Zr658  1  0.30295563  0.34843317  0.77612170  1.0
  Zr  Zr659  1  0.30295563  0.68176650  0.77612170  1.0
  Zr  Zr660  1  0.63628897  0.01509983  0.77612170  1.0
  Zr  Zr661  1  0.63628897  0.34843317  0.77612170  1.0
  Zr  Zr662  1  0.63628897  0.68176650  0.77612170  1.0
  Zr  Zr663  1  0.96962230  0.01509983  0.77612170  1.0
  Zr  Zr664  1  0.96962230  0.34843317  0.77612170  1.0
  Zr  Zr665  1  0.96962230  0.68176650  0.77612170  1.0
  Zr  Zr666  1  0.10944473  0.28144600  0.69669860  1.0
  Zr  Zr667  1  0.10944473  0.61477933  0.69669860  1.0
  Zr  Zr668  1  0.10944473  0.94811267  0.69669860  1.0
  Zr  Zr669  1  0.44277807  0.28144600  0.69669860  1.0
  Zr  Zr670  1  0.44277807  0.61477933  0.69669860  1.0
  Zr  Zr671  1  0.44277807  0.94811267  0.69669860  1.0
  Zr  Zr672  1  0.77611140  0.28144600  0.69669860  1.0
  Zr  Zr673  1  0.77611140  0.61477933  0.69669860  1.0
  Zr  Zr674  1  0.77611140  0.94811267  0.69669860  1.0
  Zr  Zr675  1  0.00944473  0.11477933  0.79669860  1.0
  Zr  Zr676  1  0.00944473  0.44811267  0.79669860  1.0
  Zr  Zr677  1  0.00944473  0.78144600  0.79669860  1.0
  Zr  Zr678  1  0.34277807  0.11477933  0.79669860  1.0
  Zr  Zr679  1  0.34277807  0.44811267  0.79669860  1.0
  Zr  Zr680  1  0.34277807  0.78144600  0.79669860  1.0
  Zr  Zr681  1  0.67611140  0.11477933  0.79669860  1.0
  Zr  Zr682  1  0.67611140  0.44811267  0.79669860  1.0
  Zr  Zr683  1  0.67611140  0.78144600  0.79669860  1.0
  Zr  Zr684  1  0.16162380  0.05188733  0.70990420  1.0
  Zr  Zr685  1  0.16162380  0.38522067  0.70990420  1.0
  Zr  Zr686  1  0.16162380  0.71855400  0.70990420  1.0
  Zr  Zr687  1  0.49495713  0.05188733  0.70990420  1.0
  Zr  Zr688  1  0.49495713  0.38522067  0.70990420  1.0
  Zr  Zr689  1  0.49495713  0.71855400  0.70990420  1.0
  Zr  Zr690  1  0.82829047  0.05188733  0.70990420  1.0
  Zr  Zr691  1  0.82829047  0.38522067  0.70990420  1.0
  Zr  Zr692  1  0.82829047  0.71855400  0.70990420  1.0
  Zr  Zr693  1  0.26162380  0.21855400  0.60990420  1.0
  Zr  Zr694  1  0.26162380  0.55188733  0.60990420  1.0
  Zr  Zr695  1  0.26162380  0.88522067  0.60990420  1.0
  Zr  Zr696  1  0.59495713  0.21855400  0.60990420  1.0
  Zr  Zr697  1  0.59495713  0.55188733  0.60990420  1.0
  Zr  Zr698  1  0.59495713  0.88522067  0.60990420  1.0
  Zr  Zr699  1  0.92829047  0.21855400  0.60990420  1.0
  Zr  Zr700  1  0.92829047  0.55188733  0.60990420  1.0
  Zr  Zr701  1  0.92829047  0.88522067  0.60990420  1.0
  Zr  Zr702  1  0.20144623  0.15156683  0.73048110  1.0
  Zr  Zr703  1  0.20144623  0.48490017  0.73048110  1.0
  Zr  Zr704  1  0.20144623  0.81823350  0.73048110  1.0
  Zr  Zr705  1  0.53477957  0.15156683  0.73048110  1.0
  Zr  Zr706  1  0.53477957  0.48490017  0.73048110  1.0
  Zr  Zr707  1  0.53477957  0.81823350  0.73048110  1.0
  Zr  Zr708  1  0.86811290  0.15156683  0.73048110  1.0
  Zr  Zr709  1  0.86811290  0.48490017  0.73048110  1.0
  Zr  Zr710  1  0.86811290  0.81823350  0.73048110  1.0
  Zr  Zr711  1  0.30144623  0.31823350  0.63048110  1.0
  Zr  Zr712  1  0.30144623  0.65156683  0.63048110  1.0
  Zr  Zr713  1  0.30144623  0.98490017  0.63048110  1.0
  Zr  Zr714  1  0.63477957  0.31823350  0.63048110  1.0
  Zr  Zr715  1  0.63477957  0.65156683  0.63048110  1.0
  Zr  Zr716  1  0.63477957  0.98490017  0.63048110  1.0
  Zr  Zr717  1  0.96811290  0.31823350  0.63048110  1.0
  Zr  Zr718  1  0.96811290  0.65156683  0.63048110  1.0
  Zr  Zr719  1  0.96811290  0.98490017  0.63048110  1.0
