# generated using pymatgen
data_Zr9Ni11
_symmetry_space_group_name_H-M   'P 1'
_cell_length_a   42.39725995
_cell_length_b   55.64124417
_cell_length_c   54.40818628
_cell_angle_alpha   55.63269524
_cell_angle_beta   90.00000000
_cell_angle_gamma   40.36134330
_symmetry_Int_Tables_number   1
_chemical_formula_structural   Zr9Ni11
_chemical_formula_sum   'Zr486 Ni594'
_cell_volume   40737.53994291
_cell_formula_units_Z   54
loop_
 _symmetry_equiv_pos_site_id
 _symmetry_equiv_pos_as_xyz
  1  'x, y, z'
loop_
 _atom_site_type_symbol
 _atom_site_label
 _atom_site_symmetry_multiplicity
 _atom_site_fract_x
 _atom_site_fract_y
 _atom_site_fract_z
 _atom_site_occupancy
  Zr  Zr0  1  0.00000000  0.16666667  0.06797368  1.0
  Zr  Zr1  1  0.00000000  0.50000000  0.06797368  1.0
  Zr  Zr2  1  0.00000000  0.83333333  0.06797368  1.0
  Zr  Zr3  1  0.33333333  0.16666667  0.06797368  1.0
  Zr  Zr4  1  0.33333333  0.50000000  0.06797368  1.0
  Zr  Zr5  1  0.33333333  0.83333333  0.06797368  1.0
  Zr  Zr6  1  0.66666667  0.16666667  0.06797368  1.0
  Zr  Zr7  1  0.66666667  0.50000000  0.06797368  1.0
  Zr  Zr8  1  0.66666667  0.83333333  0.06797368  1.0
  Zr  Zr9  1  0.00000000  0.00000000  0.13940225  1.0
  Zr  Zr10  1  0.00000000  0.33333333  0.13940225  1.0
  Zr  Zr11  1  0.00000000  0.66666667  0.13940225  1.0
  Zr  Zr12  1  0.33333333  0.00000000  0.13940225  1.0
  Zr  Zr13  1  0.33333333  0.33333333  0.13940225  1.0
  Zr  Zr14  1  0.33333333  0.66666667  0.13940225  1.0
  Zr  Zr15  1  0.66666667  0.00000000  0.13940225  1.0
  Zr  Zr16  1  0.66666667  0.33333333  0.13940225  1.0
  Zr  Zr17  1  0.66666667  0.66666667  0.13940225  1.0
  Zr  Zr18  1  0.25081367  0.27712300  0.06881554  1.0
  Zr  Zr19  1  0.25081367  0.61045633  0.06881554  1.0
  Zr  Zr20  1  0.25081367  0.94378967  0.06881554  1.0
  Zr  Zr21  1  0.58414700  0.27712300  0.06881554  1.0
  Zr  Zr22  1  0.58414700  0.61045633  0.06881554  1.0
  Zr  Zr23  1  0.58414700  0.94378967  0.06881554  1.0
  Zr  Zr24  1  0.91748033  0.27712300  0.06881554  1.0
  Zr  Zr25  1  0.91748033  0.61045633  0.06881554  1.0
  Zr  Zr26  1  0.91748033  0.94378967  0.06881554  1.0
  Zr  Zr27  1  0.25081367  0.11045633  0.14024411  1.0
  Zr  Zr28  1  0.25081367  0.44378967  0.14024411  1.0
  Zr  Zr29  1  0.25081367  0.77712300  0.14024411  1.0
  Zr  Zr30  1  0.58414700  0.11045633  0.14024411  1.0
  Zr  Zr31  1  0.58414700  0.44378967  0.14024411  1.0
  Zr  Zr32  1  0.58414700  0.77712300  0.14024411  1.0
  Zr  Zr33  1  0.91748033  0.11045633  0.14024411  1.0
  Zr  Zr34  1  0.91748033  0.44378967  0.14024411  1.0
  Zr  Zr35  1  0.91748033  0.77712300  0.14024411  1.0
  Zr  Zr36  1  0.19494033  0.02793667  0.10348368  1.0
  Zr  Zr37  1  0.19494033  0.36127000  0.10348368  1.0
  Zr  Zr38  1  0.19494033  0.69460333  0.10348368  1.0
  Zr  Zr39  1  0.52827367  0.02793667  0.10348368  1.0
  Zr  Zr40  1  0.52827367  0.36127000  0.10348368  1.0
  Zr  Zr41  1  0.52827367  0.69460333  0.10348368  1.0
  Zr  Zr42  1  0.86160700  0.02793667  0.10348368  1.0
  Zr  Zr43  1  0.86160700  0.36127000  0.10348368  1.0
  Zr  Zr44  1  0.86160700  0.69460333  0.10348368  1.0
  Zr  Zr45  1  0.19494033  0.19460333  0.03205511  1.0
  Zr  Zr46  1  0.19494033  0.52793667  0.03205511  1.0
  Zr  Zr47  1  0.19494033  0.86127000  0.03205511  1.0
  Zr  Zr48  1  0.52827367  0.19460333  0.03205511  1.0
  Zr  Zr49  1  0.52827367  0.52793667  0.03205511  1.0
  Zr  Zr50  1  0.52827367  0.86127000  0.03205511  1.0
  Zr  Zr51  1  0.86160700  0.19460333  0.03205511  1.0
  Zr  Zr52  1  0.86160700  0.52793667  0.03205511  1.0
  Zr  Zr53  1  0.86160700  0.86127000  0.03205511  1.0
  Zr  Zr54  1  0.13839300  0.30539667  0.03246368  1.0
  Zr  Zr55  1  0.13839300  0.63873000  0.03246368  1.0
  Zr  Zr56  1  0.13839300  0.97206333  0.03246368  1.0
  Zr  Zr57  1  0.47172633  0.30539667  0.03246368  1.0
  Zr  Zr58  1  0.47172633  0.63873000  0.03246368  1.0
  Zr  Zr59  1  0.47172633  0.97206333  0.03246368  1.0
  Zr  Zr60  1  0.80505967  0.30539667  0.03246368  1.0
  Zr  Zr61  1  0.80505967  0.63873000  0.03246368  1.0
  Zr  Zr62  1  0.80505967  0.97206333  0.03246368  1.0
  Zr  Zr63  1  0.13839300  0.13873000  0.10389225  1.0
  Zr  Zr64  1  0.13839300  0.47206333  0.10389225  1.0
  Zr  Zr65  1  0.13839300  0.80539667  0.10389225  1.0
  Zr  Zr66  1  0.47172633  0.13873000  0.10389225  1.0
  Zr  Zr67  1  0.47172633  0.47206333  0.10389225  1.0
  Zr  Zr68  1  0.47172633  0.80539667  0.10389225  1.0
  Zr  Zr69  1  0.80505967  0.13873000  0.10389225  1.0
  Zr  Zr70  1  0.80505967  0.47206333  0.10389225  1.0
  Zr  Zr71  1  0.80505967  0.80539667  0.10389225  1.0
  Zr  Zr72  1  0.08251967  0.05621033  0.06713182  1.0
  Zr  Zr73  1  0.08251967  0.38954367  0.06713182  1.0
  Zr  Zr74  1  0.08251967  0.72287700  0.06713182  1.0
  Zr  Zr75  1  0.41585300  0.05621033  0.06713182  1.0
  Zr  Zr76  1  0.41585300  0.38954367  0.06713182  1.0
  Zr  Zr77  1  0.41585300  0.72287700  0.06713182  1.0
  Zr  Zr78  1  0.74918633  0.05621033  0.06713182  1.0
  Zr  Zr79  1  0.74918633  0.38954367  0.06713182  1.0
  Zr  Zr80  1  0.74918633  0.72287700  0.06713182  1.0
  Zr  Zr81  1  0.08251967  0.22287700  0.13856039  1.0
  Zr  Zr82  1  0.08251967  0.55621033  0.13856039  1.0
  Zr  Zr83  1  0.08251967  0.88954367  0.13856039  1.0
  Zr  Zr84  1  0.41585300  0.22287700  0.13856039  1.0
  Zr  Zr85  1  0.41585300  0.55621033  0.13856039  1.0
  Zr  Zr86  1  0.41585300  0.88954367  0.13856039  1.0
  Zr  Zr87  1  0.74918633  0.22287700  0.13856039  1.0
  Zr  Zr88  1  0.74918633  0.55621033  0.13856039  1.0
  Zr  Zr89  1  0.74918633  0.88954367  0.13856039  1.0
  Zr  Zr90  1  0.22955867  0.23365383  0.12470446  1.0
  Zr  Zr91  1  0.22955867  0.56698717  0.12470446  1.0
  Zr  Zr92  1  0.22955867  0.90032050  0.12470446  1.0
  Zr  Zr93  1  0.56289200  0.23365383  0.12470446  1.0
  Zr  Zr94  1  0.56289200  0.56698717  0.12470446  1.0
  Zr  Zr95  1  0.56289200  0.90032050  0.12470446  1.0
  Zr  Zr96  1  0.89622533  0.23365383  0.12470446  1.0
  Zr  Zr97  1  0.89622533  0.56698717  0.12470446  1.0
  Zr  Zr98  1  0.89622533  0.90032050  0.12470446  1.0
  Zr  Zr99  1  0.22955867  0.06698717  0.05327589  1.0
  Zr  Zr100  1  0.22955867  0.40032050  0.05327589  1.0
  Zr  Zr101  1  0.22955867  0.73365383  0.05327589  1.0
  Zr  Zr102  1  0.56289200  0.06698717  0.05327589  1.0
  Zr  Zr103  1  0.56289200  0.40032050  0.05327589  1.0
  Zr  Zr104  1  0.56289200  0.73365383  0.05327589  1.0
  Zr  Zr105  1  0.89622533  0.06698717  0.05327589  1.0
  Zr  Zr106  1  0.89622533  0.40032050  0.05327589  1.0
  Zr  Zr107  1  0.89622533  0.73365383  0.05327589  1.0
  Zr  Zr108  1  0.30313367  0.29654583  0.04384332  1.0
  Zr  Zr109  1  0.30313367  0.62987917  0.04384332  1.0
  Zr  Zr110  1  0.30313367  0.96321250  0.04384332  1.0
  Zr  Zr111  1  0.63646700  0.29654583  0.04384332  1.0
  Zr  Zr112  1  0.63646700  0.62987917  0.04384332  1.0
  Zr  Zr113  1  0.63646700  0.96321250  0.04384332  1.0
  Zr  Zr114  1  0.96980033  0.29654583  0.04384332  1.0
  Zr  Zr115  1  0.96980033  0.62987917  0.04384332  1.0
  Zr  Zr116  1  0.96980033  0.96321250  0.04384332  1.0
  Zr  Zr117  1  0.30313367  0.12987917  0.11527189  1.0
  Zr  Zr118  1  0.30313367  0.46321250  0.11527189  1.0
  Zr  Zr119  1  0.30313367  0.79654583  0.11527189  1.0
  Zr  Zr120  1  0.63646700  0.12987917  0.11527189  1.0
  Zr  Zr121  1  0.63646700  0.46321250  0.11527189  1.0
  Zr  Zr122  1  0.63646700  0.79654583  0.11527189  1.0
  Zr  Zr123  1  0.96980033  0.12987917  0.11527189  1.0
  Zr  Zr124  1  0.96980033  0.46321250  0.11527189  1.0
  Zr  Zr125  1  0.96980033  0.79654583  0.11527189  1.0
  Zr  Zr126  1  0.03019967  0.03678750  0.09210404  1.0
  Zr  Zr127  1  0.03019967  0.37012083  0.09210404  1.0
  Zr  Zr128  1  0.03019967  0.70345417  0.09210404  1.0
  Zr  Zr129  1  0.36353300  0.03678750  0.09210404  1.0
  Zr  Zr130  1  0.36353300  0.37012083  0.09210404  1.0
  Zr  Zr131  1  0.36353300  0.70345417  0.09210404  1.0
  Zr  Zr132  1  0.69686633  0.03678750  0.09210404  1.0
  Zr  Zr133  1  0.69686633  0.37012083  0.09210404  1.0
  Zr  Zr134  1  0.69686633  0.70345417  0.09210404  1.0
  Zr  Zr135  1  0.03019967  0.20345417  0.02067546  1.0
  Zr  Zr136  1  0.03019967  0.53678750  0.02067546  1.0
  Zr  Zr137  1  0.03019967  0.87012083  0.02067546  1.0
  Zr  Zr138  1  0.36353300  0.20345417  0.02067546  1.0
  Zr  Zr139  1  0.36353300  0.53678750  0.02067546  1.0
  Zr  Zr140  1  0.36353300  0.87012083  0.02067546  1.0
  Zr  Zr141  1  0.69686633  0.20345417  0.02067546  1.0
  Zr  Zr142  1  0.69686633  0.53678750  0.02067546  1.0
  Zr  Zr143  1  0.69686633  0.87012083  0.02067546  1.0
  Zr  Zr144  1  0.10377467  0.09967950  0.01124289  1.0
  Zr  Zr145  1  0.10377467  0.43301283  0.01124289  1.0
  Zr  Zr146  1  0.10377467  0.76634617  0.01124289  1.0
  Zr  Zr147  1  0.43710800  0.09967950  0.01124289  1.0
  Zr  Zr148  1  0.43710800  0.43301283  0.01124289  1.0
  Zr  Zr149  1  0.43710800  0.76634617  0.01124289  1.0
  Zr  Zr150  1  0.77044133  0.09967950  0.01124289  1.0
  Zr  Zr151  1  0.77044133  0.43301283  0.01124289  1.0
  Zr  Zr152  1  0.77044133  0.76634617  0.01124289  1.0
  Zr  Zr153  1  0.10377467  0.26634617  0.08267146  1.0
  Zr  Zr154  1  0.10377467  0.59967950  0.08267146  1.0
  Zr  Zr155  1  0.10377467  0.93301283  0.08267146  1.0
  Zr  Zr156  1  0.43710800  0.26634617  0.08267146  1.0
  Zr  Zr157  1  0.43710800  0.59967950  0.08267146  1.0
  Zr  Zr158  1  0.43710800  0.93301283  0.08267146  1.0
  Zr  Zr159  1  0.77044133  0.26634617  0.08267146  1.0
  Zr  Zr160  1  0.77044133  0.59967950  0.08267146  1.0
  Zr  Zr161  1  0.77044133  0.93301283  0.08267146  1.0
  Ni  Ni162  1  0.16666667  0.00000000  0.13940225  1.0
  Ni  Ni163  1  0.16666667  0.33333333  0.13940225  1.0
  Ni  Ni164  1  0.16666667  0.66666667  0.13940225  1.0
  Ni  Ni165  1  0.50000000  0.00000000  0.13940225  1.0
  Ni  Ni166  1  0.50000000  0.33333333  0.13940225  1.0
  Ni  Ni167  1  0.50000000  0.66666667  0.13940225  1.0
  Ni  Ni168  1  0.83333333  0.00000000  0.13940225  1.0
  Ni  Ni169  1  0.83333333  0.33333333  0.13940225  1.0
  Ni  Ni170  1  0.83333333  0.66666667  0.13940225  1.0
  Ni  Ni171  1  0.16666667  0.16666667  0.06797368  1.0
  Ni  Ni172  1  0.16666667  0.50000000  0.06797368  1.0
  Ni  Ni173  1  0.16666667  0.83333333  0.06797368  1.0
  Ni  Ni174  1  0.50000000  0.16666667  0.06797368  1.0
  Ni  Ni175  1  0.50000000  0.50000000  0.06797368  1.0
  Ni  Ni176  1  0.50000000  0.83333333  0.06797368  1.0
  Ni  Ni177  1  0.83333333  0.16666667  0.06797368  1.0
  Ni  Ni178  1  0.83333333  0.50000000  0.06797368  1.0
  Ni  Ni179  1  0.83333333  0.83333333  0.06797368  1.0
  Ni  Ni180  1  0.08333333  0.00000000  0.06797368  1.0
  Ni  Ni181  1  0.08333333  0.33333333  0.06797368  1.0
  Ni  Ni182  1  0.08333333  0.66666667  0.06797368  1.0
  Ni  Ni183  1  0.41666667  0.00000000  0.06797368  1.0
  Ni  Ni184  1  0.41666667  0.33333333  0.06797368  1.0
  Ni  Ni185  1  0.41666667  0.66666667  0.06797368  1.0
  Ni  Ni186  1  0.75000000  0.00000000  0.06797368  1.0
  Ni  Ni187  1  0.75000000  0.33333333  0.06797368  1.0
  Ni  Ni188  1  0.75000000  0.66666667  0.06797368  1.0
  Ni  Ni189  1  0.08333333  0.16666667  0.13940225  1.0
  Ni  Ni190  1  0.08333333  0.50000000  0.13940225  1.0
  Ni  Ni191  1  0.08333333  0.83333333  0.13940225  1.0
  Ni  Ni192  1  0.41666667  0.16666667  0.13940225  1.0
  Ni  Ni193  1  0.41666667  0.50000000  0.13940225  1.0
  Ni  Ni194  1  0.41666667  0.83333333  0.13940225  1.0
  Ni  Ni195  1  0.75000000  0.16666667  0.13940225  1.0
  Ni  Ni196  1  0.75000000  0.50000000  0.13940225  1.0
  Ni  Ni197  1  0.75000000  0.83333333  0.13940225  1.0
  Ni  Ni198  1  0.25000000  0.00000000  0.06797368  1.0
  Ni  Ni199  1  0.25000000  0.33333333  0.06797368  1.0
  Ni  Ni200  1  0.25000000  0.66666667  0.06797368  1.0
  Ni  Ni201  1  0.58333333  0.00000000  0.06797368  1.0
  Ni  Ni202  1  0.58333333  0.33333333  0.06797368  1.0
  Ni  Ni203  1  0.58333333  0.66666667  0.06797368  1.0
  Ni  Ni204  1  0.91666667  0.00000000  0.06797368  1.0
  Ni  Ni205  1  0.91666667  0.33333333  0.06797368  1.0
  Ni  Ni206  1  0.91666667  0.66666667  0.06797368  1.0
  Ni  Ni207  1  0.25000000  0.16666667  0.13940225  1.0
  Ni  Ni208  1  0.25000000  0.50000000  0.13940225  1.0
  Ni  Ni209  1  0.25000000  0.83333333  0.13940225  1.0
  Ni  Ni210  1  0.58333333  0.16666667  0.13940225  1.0
  Ni  Ni211  1  0.58333333  0.50000000  0.13940225  1.0
  Ni  Ni212  1  0.58333333  0.83333333  0.13940225  1.0
  Ni  Ni213  1  0.91666667  0.16666667  0.13940225  1.0
  Ni  Ni214  1  0.91666667  0.50000000  0.13940225  1.0
  Ni  Ni215  1  0.91666667  0.83333333  0.13940225  1.0
  Ni  Ni216  1  0.22514700  0.29233133  0.10802582  1.0
  Ni  Ni217  1  0.22514700  0.62566467  0.10802582  1.0
  Ni  Ni218  1  0.22514700  0.95899800  0.10802582  1.0
  Ni  Ni219  1  0.55848033  0.29233133  0.10802582  1.0
  Ni  Ni220  1  0.55848033  0.62566467  0.10802582  1.0
  Ni  Ni221  1  0.55848033  0.95899800  0.10802582  1.0
  Ni  Ni222  1  0.89181367  0.29233133  0.10802582  1.0
  Ni  Ni223  1  0.89181367  0.62566467  0.10802582  1.0
  Ni  Ni224  1  0.89181367  0.95899800  0.10802582  1.0
  Ni  Ni225  1  0.22514700  0.12566467  0.03659725  1.0
  Ni  Ni226  1  0.22514700  0.45899800  0.03659725  1.0
  Ni  Ni227  1  0.22514700  0.79233133  0.03659725  1.0
  Ni  Ni228  1  0.55848033  0.12566467  0.03659725  1.0
  Ni  Ni229  1  0.55848033  0.45899800  0.03659725  1.0
  Ni  Ni230  1  0.55848033  0.79233133  0.03659725  1.0
  Ni  Ni231  1  0.89181367  0.12566467  0.03659725  1.0
  Ni  Ni232  1  0.89181367  0.45899800  0.03659725  1.0
  Ni  Ni233  1  0.89181367  0.79233133  0.03659725  1.0
  Ni  Ni234  1  0.19019033  0.25270283  0.01611961  1.0
  Ni  Ni235  1  0.19019033  0.58603617  0.01611961  1.0
  Ni  Ni236  1  0.19019033  0.91936950  0.01611961  1.0
  Ni  Ni237  1  0.52352367  0.25270283  0.01611961  1.0
  Ni  Ni238  1  0.52352367  0.58603617  0.01611961  1.0
  Ni  Ni239  1  0.52352367  0.91936950  0.01611961  1.0
  Ni  Ni240  1  0.85685700  0.25270283  0.01611961  1.0
  Ni  Ni241  1  0.85685700  0.58603617  0.01611961  1.0
  Ni  Ni242  1  0.85685700  0.91936950  0.01611961  1.0
  Ni  Ni243  1  0.19019033  0.08603617  0.08754818  1.0
  Ni  Ni244  1  0.19019033  0.41936950  0.08754818  1.0
  Ni  Ni245  1  0.19019033  0.75270283  0.08754818  1.0
  Ni  Ni246  1  0.52352367  0.08603617  0.08754818  1.0
  Ni  Ni247  1  0.52352367  0.41936950  0.08754818  1.0
  Ni  Ni248  1  0.52352367  0.75270283  0.08754818  1.0
  Ni  Ni249  1  0.85685700  0.08603617  0.08754818  1.0
  Ni  Ni250  1  0.85685700  0.41936950  0.08754818  1.0
  Ni  Ni251  1  0.85685700  0.75270283  0.08754818  1.0
  Ni  Ni252  1  0.00602733  0.05107950  0.13249246  1.0
  Ni  Ni253  1  0.00602733  0.38441283  0.13249246  1.0
  Ni  Ni254  1  0.00602733  0.71774617  0.13249246  1.0
  Ni  Ni255  1  0.33936067  0.05107950  0.13249246  1.0
  Ni  Ni256  1  0.33936067  0.38441283  0.13249246  1.0
  Ni  Ni257  1  0.33936067  0.71774617  0.13249246  1.0
  Ni  Ni258  1  0.67269400  0.05107950  0.13249246  1.0
  Ni  Ni259  1  0.67269400  0.38441283  0.13249246  1.0
  Ni  Ni260  1  0.67269400  0.71774617  0.13249246  1.0
  Ni  Ni261  1  0.00602733  0.21774617  0.06106389  1.0
  Ni  Ni262  1  0.00602733  0.55107950  0.06106389  1.0
  Ni  Ni263  1  0.00602733  0.88441283  0.06106389  1.0
  Ni  Ni264  1  0.33936067  0.21774617  0.06106389  1.0
  Ni  Ni265  1  0.33936067  0.55107950  0.06106389  1.0
  Ni  Ni266  1  0.33936067  0.88441283  0.06106389  1.0
  Ni  Ni267  1  0.67269400  0.21774617  0.06106389  1.0
  Ni  Ni268  1  0.67269400  0.55107950  0.06106389  1.0
  Ni  Ni269  1  0.67269400  0.88441283  0.06106389  1.0
  Ni  Ni270  1  0.30440400  0.01145100  0.04058625  1.0
  Ni  Ni271  1  0.30440400  0.34478433  0.04058625  1.0
  Ni  Ni272  1  0.30440400  0.67811767  0.04058625  1.0
  Ni  Ni273  1  0.63773733  0.01145100  0.04058625  1.0
  Ni  Ni274  1  0.63773733  0.34478433  0.04058625  1.0
  Ni  Ni275  1  0.63773733  0.67811767  0.04058625  1.0
  Ni  Ni276  1  0.97107067  0.01145100  0.04058625  1.0
  Ni  Ni277  1  0.97107067  0.34478433  0.04058625  1.0
  Ni  Ni278  1  0.97107067  0.67811767  0.04058625  1.0
  Ni  Ni279  1  0.30440400  0.17811767  0.11201482  1.0
  Ni  Ni280  1  0.30440400  0.51145100  0.11201482  1.0
  Ni  Ni281  1  0.30440400  0.84478433  0.11201482  1.0
  Ni  Ni282  1  0.63773733  0.17811767  0.11201482  1.0
  Ni  Ni283  1  0.63773733  0.51145100  0.11201482  1.0
  Ni  Ni284  1  0.63773733  0.84478433  0.11201482  1.0
  Ni  Ni285  1  0.97107067  0.17811767  0.11201482  1.0
  Ni  Ni286  1  0.97107067  0.51145100  0.11201482  1.0
  Ni  Ni287  1  0.97107067  0.84478433  0.11201482  1.0
  Ni  Ni288  1  0.10818633  0.04100200  0.02792154  1.0
  Ni  Ni289  1  0.10818633  0.37433533  0.02792154  1.0
  Ni  Ni290  1  0.10818633  0.70766867  0.02792154  1.0
  Ni  Ni291  1  0.44151967  0.04100200  0.02792154  1.0
  Ni  Ni292  1  0.44151967  0.37433533  0.02792154  1.0
  Ni  Ni293  1  0.44151967  0.70766867  0.02792154  1.0
  Ni  Ni294  1  0.77485300  0.04100200  0.02792154  1.0
  Ni  Ni295  1  0.77485300  0.37433533  0.02792154  1.0
  Ni  Ni296  1  0.77485300  0.70766867  0.02792154  1.0
  Ni  Ni297  1  0.10818633  0.20766867  0.09935011  1.0
  Ni  Ni298  1  0.10818633  0.54100200  0.09935011  1.0
  Ni  Ni299  1  0.10818633  0.87433533  0.09935011  1.0
  Ni  Ni300  1  0.44151967  0.20766867  0.09935011  1.0
  Ni  Ni301  1  0.44151967  0.54100200  0.09935011  1.0
  Ni  Ni302  1  0.44151967  0.87433533  0.09935011  1.0
  Ni  Ni303  1  0.77485300  0.20766867  0.09935011  1.0
  Ni  Ni304  1  0.77485300  0.54100200  0.09935011  1.0
  Ni  Ni305  1  0.77485300  0.87433533  0.09935011  1.0
  Ni  Ni306  1  0.14314300  0.08063050  0.11982775  1.0
  Ni  Ni307  1  0.14314300  0.41396383  0.11982775  1.0
  Ni  Ni308  1  0.14314300  0.74729717  0.11982775  1.0
  Ni  Ni309  1  0.47647633  0.08063050  0.11982775  1.0
  Ni  Ni310  1  0.47647633  0.41396383  0.11982775  1.0
  Ni  Ni311  1  0.47647633  0.74729717  0.11982775  1.0
  Ni  Ni312  1  0.80980967  0.08063050  0.11982775  1.0
  Ni  Ni313  1  0.80980967  0.41396383  0.11982775  1.0
  Ni  Ni314  1  0.80980967  0.74729717  0.11982775  1.0
  Ni  Ni315  1  0.14314300  0.24729717  0.04839918  1.0
  Ni  Ni316  1  0.14314300  0.58063050  0.04839918  1.0
  Ni  Ni317  1  0.14314300  0.91396383  0.04839918  1.0
  Ni  Ni318  1  0.47647633  0.24729717  0.04839918  1.0
  Ni  Ni319  1  0.47647633  0.58063050  0.04839918  1.0
  Ni  Ni320  1  0.47647633  0.91396383  0.04839918  1.0
  Ni  Ni321  1  0.80980967  0.24729717  0.04839918  1.0
  Ni  Ni322  1  0.80980967  0.58063050  0.04839918  1.0
  Ni  Ni323  1  0.80980967  0.91396383  0.04839918  1.0
  Ni  Ni324  1  0.32730600  0.28225383  0.00345489  1.0
  Ni  Ni325  1  0.32730600  0.61558717  0.00345489  1.0
  Ni  Ni326  1  0.32730600  0.94892050  0.00345489  1.0
  Ni  Ni327  1  0.66063933  0.28225383  0.00345489  1.0
  Ni  Ni328  1  0.66063933  0.61558717  0.00345489  1.0
  Ni  Ni329  1  0.66063933  0.94892050  0.00345489  1.0
  Ni  Ni330  1  0.99397267  0.28225383  0.00345489  1.0
  Ni  Ni331  1  0.99397267  0.61558717  0.00345489  1.0
  Ni  Ni332  1  0.99397267  0.94892050  0.00345489  1.0
  Ni  Ni333  1  0.32730600  0.11558717  0.07488346  1.0
  Ni  Ni334  1  0.32730600  0.44892050  0.07488346  1.0
  Ni  Ni335  1  0.32730600  0.78225383  0.07488346  1.0
  Ni  Ni336  1  0.66063933  0.11558717  0.07488346  1.0
  Ni  Ni337  1  0.66063933  0.44892050  0.07488346  1.0
  Ni  Ni338  1  0.66063933  0.78225383  0.07488346  1.0
  Ni  Ni339  1  0.99397267  0.11558717  0.07488346  1.0
  Ni  Ni340  1  0.99397267  0.44892050  0.07488346  1.0
  Ni  Ni341  1  0.99397267  0.78225383  0.07488346  1.0
  Ni  Ni342  1  0.02892933  0.32188233  0.09536111  1.0
  Ni  Ni343  1  0.02892933  0.65521567  0.09536111  1.0
  Ni  Ni344  1  0.02892933  0.98854900  0.09536111  1.0
  Ni  Ni345  1  0.36226267  0.32188233  0.09536111  1.0
  Ni  Ni346  1  0.36226267  0.65521567  0.09536111  1.0
  Ni  Ni347  1  0.36226267  0.98854900  0.09536111  1.0
  Ni  Ni348  1  0.69559600  0.32188233  0.09536111  1.0
  Ni  Ni349  1  0.69559600  0.65521567  0.09536111  1.0
  Ni  Ni350  1  0.69559600  0.98854900  0.09536111  1.0
  Ni  Ni351  1  0.02892933  0.15521567  0.02393254  1.0
  Ni  Ni352  1  0.02892933  0.48854900  0.02393254  1.0
  Ni  Ni353  1  0.02892933  0.82188233  0.02393254  1.0
  Ni  Ni354  1  0.36226267  0.15521567  0.02393254  1.0
  Ni  Ni355  1  0.36226267  0.48854900  0.02393254  1.0
  Ni  Ni356  1  0.36226267  0.82188233  0.02393254  1.0
  Ni  Ni357  1  0.69559600  0.15521567  0.02393254  1.0
  Ni  Ni358  1  0.69559600  0.48854900  0.02393254  1.0
  Ni  Ni359  1  0.69559600  0.82188233  0.02393254  1.0
  Zr  Zr360  1  0.00000000  0.16666667  0.21083082  1.0
  Zr  Zr361  1  0.00000000  0.50000000  0.21083082  1.0
  Zr  Zr362  1  0.00000000  0.83333333  0.21083082  1.0
  Zr  Zr363  1  0.33333333  0.16666667  0.21083082  1.0
  Zr  Zr364  1  0.33333333  0.50000000  0.21083082  1.0
  Zr  Zr365  1  0.33333333  0.83333333  0.21083082  1.0
  Zr  Zr366  1  0.66666667  0.16666667  0.21083082  1.0
  Zr  Zr367  1  0.66666667  0.50000000  0.21083082  1.0
  Zr  Zr368  1  0.66666667  0.83333333  0.21083082  1.0
  Zr  Zr369  1  0.00000000  0.00000000  0.28225939  1.0
  Zr  Zr370  1  0.00000000  0.33333333  0.28225939  1.0
  Zr  Zr371  1  0.00000000  0.66666667  0.28225939  1.0
  Zr  Zr372  1  0.33333333  0.00000000  0.28225939  1.0
  Zr  Zr373  1  0.33333333  0.33333333  0.28225939  1.0
  Zr  Zr374  1  0.33333333  0.66666667  0.28225939  1.0
  Zr  Zr375  1  0.66666667  0.00000000  0.28225939  1.0
  Zr  Zr376  1  0.66666667  0.33333333  0.28225939  1.0
  Zr  Zr377  1  0.66666667  0.66666667  0.28225939  1.0
  Zr  Zr378  1  0.25081367  0.27712300  0.21167268  1.0
  Zr  Zr379  1  0.25081367  0.61045633  0.21167268  1.0
  Zr  Zr380  1  0.25081367  0.94378967  0.21167268  1.0
  Zr  Zr381  1  0.58414700  0.27712300  0.21167268  1.0
  Zr  Zr382  1  0.58414700  0.61045633  0.21167268  1.0
  Zr  Zr383  1  0.58414700  0.94378967  0.21167268  1.0
  Zr  Zr384  1  0.91748033  0.27712300  0.21167268  1.0
  Zr  Zr385  1  0.91748033  0.61045633  0.21167268  1.0
  Zr  Zr386  1  0.91748033  0.94378967  0.21167268  1.0
  Zr  Zr387  1  0.25081367  0.11045633  0.28310125  1.0
  Zr  Zr388  1  0.25081367  0.44378967  0.28310125  1.0
  Zr  Zr389  1  0.25081367  0.77712300  0.28310125  1.0
  Zr  Zr390  1  0.58414700  0.11045633  0.28310125  1.0
  Zr  Zr391  1  0.58414700  0.44378967  0.28310125  1.0
  Zr  Zr392  1  0.58414700  0.77712300  0.28310125  1.0
  Zr  Zr393  1  0.91748033  0.11045633  0.28310125  1.0
  Zr  Zr394  1  0.91748033  0.44378967  0.28310125  1.0
  Zr  Zr395  1  0.91748033  0.77712300  0.28310125  1.0
  Zr  Zr396  1  0.19494033  0.02793667  0.24634082  1.0
  Zr  Zr397  1  0.19494033  0.36127000  0.24634082  1.0
  Zr  Zr398  1  0.19494033  0.69460333  0.24634082  1.0
  Zr  Zr399  1  0.52827367  0.02793667  0.24634082  1.0
  Zr  Zr400  1  0.52827367  0.36127000  0.24634082  1.0
  Zr  Zr401  1  0.52827367  0.69460333  0.24634082  1.0
  Zr  Zr402  1  0.86160700  0.02793667  0.24634082  1.0
  Zr  Zr403  1  0.86160700  0.36127000  0.24634082  1.0
  Zr  Zr404  1  0.86160700  0.69460333  0.24634082  1.0
  Zr  Zr405  1  0.19494033  0.19460333  0.17491225  1.0
  Zr  Zr406  1  0.19494033  0.52793667  0.17491225  1.0
  Zr  Zr407  1  0.19494033  0.86127000  0.17491225  1.0
  Zr  Zr408  1  0.52827367  0.19460333  0.17491225  1.0
  Zr  Zr409  1  0.52827367  0.52793667  0.17491225  1.0
  Zr  Zr410  1  0.52827367  0.86127000  0.17491225  1.0
  Zr  Zr411  1  0.86160700  0.19460333  0.17491225  1.0
  Zr  Zr412  1  0.86160700  0.52793667  0.17491225  1.0
  Zr  Zr413  1  0.86160700  0.86127000  0.17491225  1.0
  Zr  Zr414  1  0.13839300  0.30539667  0.17532082  1.0
  Zr  Zr415  1  0.13839300  0.63873000  0.17532082  1.0
  Zr  Zr416  1  0.13839300  0.97206333  0.17532082  1.0
  Zr  Zr417  1  0.47172633  0.30539667  0.17532082  1.0
  Zr  Zr418  1  0.47172633  0.63873000  0.17532082  1.0
  Zr  Zr419  1  0.47172633  0.97206333  0.17532082  1.0
  Zr  Zr420  1  0.80505967  0.30539667  0.17532082  1.0
  Zr  Zr421  1  0.80505967  0.63873000  0.17532082  1.0
  Zr  Zr422  1  0.80505967  0.97206333  0.17532082  1.0
  Zr  Zr423  1  0.13839300  0.13873000  0.24674939  1.0
  Zr  Zr424  1  0.13839300  0.47206333  0.24674939  1.0
  Zr  Zr425  1  0.13839300  0.80539667  0.24674939  1.0
  Zr  Zr426  1  0.47172633  0.13873000  0.24674939  1.0
  Zr  Zr427  1  0.47172633  0.47206333  0.24674939  1.0
  Zr  Zr428  1  0.47172633  0.80539667  0.24674939  1.0
  Zr  Zr429  1  0.80505967  0.13873000  0.24674939  1.0
  Zr  Zr430  1  0.80505967  0.47206333  0.24674939  1.0
  Zr  Zr431  1  0.80505967  0.80539667  0.24674939  1.0
  Zr  Zr432  1  0.08251967  0.05621033  0.20998896  1.0
  Zr  Zr433  1  0.08251967  0.38954367  0.20998896  1.0
  Zr  Zr434  1  0.08251967  0.72287700  0.20998896  1.0
  Zr  Zr435  1  0.41585300  0.05621033  0.20998896  1.0
  Zr  Zr436  1  0.41585300  0.38954367  0.20998896  1.0
  Zr  Zr437  1  0.41585300  0.72287700  0.20998896  1.0
  Zr  Zr438  1  0.74918633  0.05621033  0.20998896  1.0
  Zr  Zr439  1  0.74918633  0.38954367  0.20998896  1.0
  Zr  Zr440  1  0.74918633  0.72287700  0.20998896  1.0
  Zr  Zr441  1  0.08251967  0.22287700  0.28141754  1.0
  Zr  Zr442  1  0.08251967  0.55621033  0.28141754  1.0
  Zr  Zr443  1  0.08251967  0.88954367  0.28141754  1.0
  Zr  Zr444  1  0.41585300  0.22287700  0.28141754  1.0
  Zr  Zr445  1  0.41585300  0.55621033  0.28141754  1.0
  Zr  Zr446  1  0.41585300  0.88954367  0.28141754  1.0
  Zr  Zr447  1  0.74918633  0.22287700  0.28141754  1.0
  Zr  Zr448  1  0.74918633  0.55621033  0.28141754  1.0
  Zr  Zr449  1  0.74918633  0.88954367  0.28141754  1.0
  Zr  Zr450  1  0.22955867  0.23365383  0.26756161  1.0
  Zr  Zr451  1  0.22955867  0.56698717  0.26756161  1.0
  Zr  Zr452  1  0.22955867  0.90032050  0.26756161  1.0
  Zr  Zr453  1  0.56289200  0.23365383  0.26756161  1.0
  Zr  Zr454  1  0.56289200  0.56698717  0.26756161  1.0
  Zr  Zr455  1  0.56289200  0.90032050  0.26756161  1.0
  Zr  Zr456  1  0.89622533  0.23365383  0.26756161  1.0
  Zr  Zr457  1  0.89622533  0.56698717  0.26756161  1.0
  Zr  Zr458  1  0.89622533  0.90032050  0.26756161  1.0
  Zr  Zr459  1  0.22955867  0.06698717  0.19613304  1.0
  Zr  Zr460  1  0.22955867  0.40032050  0.19613304  1.0
  Zr  Zr461  1  0.22955867  0.73365383  0.19613304  1.0
  Zr  Zr462  1  0.56289200  0.06698717  0.19613304  1.0
  Zr  Zr463  1  0.56289200  0.40032050  0.19613304  1.0
  Zr  Zr464  1  0.56289200  0.73365383  0.19613304  1.0
  Zr  Zr465  1  0.89622533  0.06698717  0.19613304  1.0
  Zr  Zr466  1  0.89622533  0.40032050  0.19613304  1.0
  Zr  Zr467  1  0.89622533  0.73365383  0.19613304  1.0
  Zr  Zr468  1  0.30313367  0.29654583  0.18670046  1.0
  Zr  Zr469  1  0.30313367  0.62987917  0.18670046  1.0
  Zr  Zr470  1  0.30313367  0.96321250  0.18670046  1.0
  Zr  Zr471  1  0.63646700  0.29654583  0.18670046  1.0
  Zr  Zr472  1  0.63646700  0.62987917  0.18670046  1.0
  Zr  Zr473  1  0.63646700  0.96321250  0.18670046  1.0
  Zr  Zr474  1  0.96980033  0.29654583  0.18670046  1.0
  Zr  Zr475  1  0.96980033  0.62987917  0.18670046  1.0
  Zr  Zr476  1  0.96980033  0.96321250  0.18670046  1.0
  Zr  Zr477  1  0.30313367  0.12987917  0.25812904  1.0
  Zr  Zr478  1  0.30313367  0.46321250  0.25812904  1.0
  Zr  Zr479  1  0.30313367  0.79654583  0.25812904  1.0
  Zr  Zr480  1  0.63646700  0.12987917  0.25812904  1.0
  Zr  Zr481  1  0.63646700  0.46321250  0.25812904  1.0
  Zr  Zr482  1  0.63646700  0.79654583  0.25812904  1.0
  Zr  Zr483  1  0.96980033  0.12987917  0.25812904  1.0
  Zr  Zr484  1  0.96980033  0.46321250  0.25812904  1.0
  Zr  Zr485  1  0.96980033  0.79654583  0.25812904  1.0
  Zr  Zr486  1  0.03019967  0.03678750  0.23496118  1.0
  Zr  Zr487  1  0.03019967  0.37012083  0.23496118  1.0
  Zr  Zr488  1  0.03019967  0.70345417  0.23496118  1.0
  Zr  Zr489  1  0.36353300  0.03678750  0.23496118  1.0
  Zr  Zr490  1  0.36353300  0.37012083  0.23496118  1.0
  Zr  Zr491  1  0.36353300  0.70345417  0.23496118  1.0
  Zr  Zr492  1  0.69686633  0.03678750  0.23496118  1.0
  Zr  Zr493  1  0.69686633  0.37012083  0.23496118  1.0
  Zr  Zr494  1  0.69686633  0.70345417  0.23496118  1.0
  Zr  Zr495  1  0.03019967  0.20345417  0.16353261  1.0
  Zr  Zr496  1  0.03019967  0.53678750  0.16353261  1.0
  Zr  Zr497  1  0.03019967  0.87012083  0.16353261  1.0
  Zr  Zr498  1  0.36353300  0.20345417  0.16353261  1.0
  Zr  Zr499  1  0.36353300  0.53678750  0.16353261  1.0
  Zr  Zr500  1  0.36353300  0.87012083  0.16353261  1.0
  Zr  Zr501  1  0.69686633  0.20345417  0.16353261  1.0
  Zr  Zr502  1  0.69686633  0.53678750  0.16353261  1.0
  Zr  Zr503  1  0.69686633  0.87012083  0.16353261  1.0
  Zr  Zr504  1  0.10377467  0.09967950  0.15410004  1.0
  Zr  Zr505  1  0.10377467  0.43301283  0.15410004  1.0
  Zr  Zr506  1  0.10377467  0.76634617  0.15410004  1.0
  Zr  Zr507  1  0.43710800  0.09967950  0.15410004  1.0
  Zr  Zr508  1  0.43710800  0.43301283  0.15410004  1.0
  Zr  Zr509  1  0.43710800  0.76634617  0.15410004  1.0
  Zr  Zr510  1  0.77044133  0.09967950  0.15410004  1.0
  Zr  Zr511  1  0.77044133  0.43301283  0.15410004  1.0
  Zr  Zr512  1  0.77044133  0.76634617  0.15410004  1.0
  Zr  Zr513  1  0.10377467  0.26634617  0.22552861  1.0
  Zr  Zr514  1  0.10377467  0.59967950  0.22552861  1.0
  Zr  Zr515  1  0.10377467  0.93301283  0.22552861  1.0
  Zr  Zr516  1  0.43710800  0.26634617  0.22552861  1.0
  Zr  Zr517  1  0.43710800  0.59967950  0.22552861  1.0
  Zr  Zr518  1  0.43710800  0.93301283  0.22552861  1.0
  Zr  Zr519  1  0.77044133  0.26634617  0.22552861  1.0
  Zr  Zr520  1  0.77044133  0.59967950  0.22552861  1.0
  Zr  Zr521  1  0.77044133  0.93301283  0.22552861  1.0
  Ni  Ni522  1  0.16666667  0.00000000  0.28225939  1.0
  Ni  Ni523  1  0.16666667  0.33333333  0.28225939  1.0
  Ni  Ni524  1  0.16666667  0.66666667  0.28225939  1.0
  Ni  Ni525  1  0.50000000  0.00000000  0.28225939  1.0
  Ni  Ni526  1  0.50000000  0.33333333  0.28225939  1.0
  Ni  Ni527  1  0.50000000  0.66666667  0.28225939  1.0
  Ni  Ni528  1  0.83333333  0.00000000  0.28225939  1.0
  Ni  Ni529  1  0.83333333  0.33333333  0.28225939  1.0
  Ni  Ni530  1  0.83333333  0.66666667  0.28225939  1.0
  Ni  Ni531  1  0.16666667  0.16666667  0.21083082  1.0
  Ni  Ni532  1  0.16666667  0.50000000  0.21083082  1.0
  Ni  Ni533  1  0.16666667  0.83333333  0.21083082  1.0
  Ni  Ni534  1  0.50000000  0.16666667  0.21083082  1.0
  Ni  Ni535  1  0.50000000  0.50000000  0.21083082  1.0
  Ni  Ni536  1  0.50000000  0.83333333  0.21083082  1.0
  Ni  Ni537  1  0.83333333  0.16666667  0.21083082  1.0
  Ni  Ni538  1  0.83333333  0.50000000  0.21083082  1.0
  Ni  Ni539  1  0.83333333  0.83333333  0.21083082  1.0
  Ni  Ni540  1  0.08333333  0.00000000  0.21083082  1.0
  Ni  Ni541  1  0.08333333  0.33333333  0.21083082  1.0
  Ni  Ni542  1  0.08333333  0.66666667  0.21083082  1.0
  Ni  Ni543  1  0.41666667  0.00000000  0.21083082  1.0
  Ni  Ni544  1  0.41666667  0.33333333  0.21083082  1.0
  Ni  Ni545  1  0.41666667  0.66666667  0.21083082  1.0
  Ni  Ni546  1  0.75000000  0.00000000  0.21083082  1.0
  Ni  Ni547  1  0.75000000  0.33333333  0.21083082  1.0
  Ni  Ni548  1  0.75000000  0.66666667  0.21083082  1.0
  Ni  Ni549  1  0.08333333  0.16666667  0.28225939  1.0
  Ni  Ni550  1  0.08333333  0.50000000  0.28225939  1.0
  Ni  Ni551  1  0.08333333  0.83333333  0.28225939  1.0
  Ni  Ni552  1  0.41666667  0.16666667  0.28225939  1.0
  Ni  Ni553  1  0.41666667  0.50000000  0.28225939  1.0
  Ni  Ni554  1  0.41666667  0.83333333  0.28225939  1.0
  Ni  Ni555  1  0.75000000  0.16666667  0.28225939  1.0
  Ni  Ni556  1  0.75000000  0.50000000  0.28225939  1.0
  Ni  Ni557  1  0.75000000  0.83333333  0.28225939  1.0
  Ni  Ni558  1  0.25000000  0.00000000  0.21083082  1.0
  Ni  Ni559  1  0.25000000  0.33333333  0.21083082  1.0
  Ni  Ni560  1  0.25000000  0.66666667  0.21083082  1.0
  Ni  Ni561  1  0.58333333  0.00000000  0.21083082  1.0
  Ni  Ni562  1  0.58333333  0.33333333  0.21083082  1.0
  Ni  Ni563  1  0.58333333  0.66666667  0.21083082  1.0
  Ni  Ni564  1  0.91666667  0.00000000  0.21083082  1.0
  Ni  Ni565  1  0.91666667  0.33333333  0.21083082  1.0
  Ni  Ni566  1  0.91666667  0.66666667  0.21083082  1.0
  Ni  Ni567  1  0.25000000  0.16666667  0.28225939  1.0
  Ni  Ni568  1  0.25000000  0.50000000  0.28225939  1.0
  Ni  Ni569  1  0.25000000  0.83333333  0.28225939  1.0
  Ni  Ni570  1  0.58333333  0.16666667  0.28225939  1.0
  Ni  Ni571  1  0.58333333  0.50000000  0.28225939  1.0
  Ni  Ni572  1  0.58333333  0.83333333  0.28225939  1.0
  Ni  Ni573  1  0.91666667  0.16666667  0.28225939  1.0
  Ni  Ni574  1  0.91666667  0.50000000  0.28225939  1.0
  Ni  Ni575  1  0.91666667  0.83333333  0.28225939  1.0
  Ni  Ni576  1  0.22514700  0.29233133  0.25088296  1.0
  Ni  Ni577  1  0.22514700  0.62566467  0.25088296  1.0
  Ni  Ni578  1  0.22514700  0.95899800  0.25088296  1.0
  Ni  Ni579  1  0.55848033  0.29233133  0.25088296  1.0
  Ni  Ni580  1  0.55848033  0.62566467  0.25088296  1.0
  Ni  Ni581  1  0.55848033  0.95899800  0.25088296  1.0
  Ni  Ni582  1  0.89181367  0.29233133  0.25088296  1.0
  Ni  Ni583  1  0.89181367  0.62566467  0.25088296  1.0
  Ni  Ni584  1  0.89181367  0.95899800  0.25088296  1.0
  Ni  Ni585  1  0.22514700  0.12566467  0.17945439  1.0
  Ni  Ni586  1  0.22514700  0.45899800  0.17945439  1.0
  Ni  Ni587  1  0.22514700  0.79233133  0.17945439  1.0
  Ni  Ni588  1  0.55848033  0.12566467  0.17945439  1.0
  Ni  Ni589  1  0.55848033  0.45899800  0.17945439  1.0
  Ni  Ni590  1  0.55848033  0.79233133  0.17945439  1.0
  Ni  Ni591  1  0.89181367  0.12566467  0.17945439  1.0
  Ni  Ni592  1  0.89181367  0.45899800  0.17945439  1.0
  Ni  Ni593  1  0.89181367  0.79233133  0.17945439  1.0
  Ni  Ni594  1  0.19019033  0.25270283  0.15897675  1.0
  Ni  Ni595  1  0.19019033  0.58603617  0.15897675  1.0
  Ni  Ni596  1  0.19019033  0.91936950  0.15897675  1.0
  Ni  Ni597  1  0.52352367  0.25270283  0.15897675  1.0
  Ni  Ni598  1  0.52352367  0.58603617  0.15897675  1.0
  Ni  Ni599  1  0.52352367  0.91936950  0.15897675  1.0
  Ni  Ni600  1  0.85685700  0.25270283  0.15897675  1.0
  Ni  Ni601  1  0.85685700  0.58603617  0.15897675  1.0
  Ni  Ni602  1  0.85685700  0.91936950  0.15897675  1.0
  Ni  Ni603  1  0.19019033  0.08603617  0.23040532  1.0
  Ni  Ni604  1  0.19019033  0.41936950  0.23040532  1.0
  Ni  Ni605  1  0.19019033  0.75270283  0.23040532  1.0
  Ni  Ni606  1  0.52352367  0.08603617  0.23040532  1.0
  Ni  Ni607  1  0.52352367  0.41936950  0.23040532  1.0
  Ni  Ni608  1  0.52352367  0.75270283  0.23040532  1.0
  Ni  Ni609  1  0.85685700  0.08603617  0.23040532  1.0
  Ni  Ni610  1  0.85685700  0.41936950  0.23040532  1.0
  Ni  Ni611  1  0.85685700  0.75270283  0.23040532  1.0
  Ni  Ni612  1  0.00602733  0.05107950  0.27534961  1.0
  Ni  Ni613  1  0.00602733  0.38441283  0.27534961  1.0
  Ni  Ni614  1  0.00602733  0.71774617  0.27534961  1.0
  Ni  Ni615  1  0.33936067  0.05107950  0.27534961  1.0
  Ni  Ni616  1  0.33936067  0.38441283  0.27534961  1.0
  Ni  Ni617  1  0.33936067  0.71774617  0.27534961  1.0
  Ni  Ni618  1  0.67269400  0.05107950  0.27534961  1.0
  Ni  Ni619  1  0.67269400  0.38441283  0.27534961  1.0
  Ni  Ni620  1  0.67269400  0.71774617  0.27534961  1.0
  Ni  Ni621  1  0.00602733  0.21774617  0.20392104  1.0
  Ni  Ni622  1  0.00602733  0.55107950  0.20392104  1.0
  Ni  Ni623  1  0.00602733  0.88441283  0.20392104  1.0
  Ni  Ni624  1  0.33936067  0.21774617  0.20392104  1.0
  Ni  Ni625  1  0.33936067  0.55107950  0.20392104  1.0
  Ni  Ni626  1  0.33936067  0.88441283  0.20392104  1.0
  Ni  Ni627  1  0.67269400  0.21774617  0.20392104  1.0
  Ni  Ni628  1  0.67269400  0.55107950  0.20392104  1.0
  Ni  Ni629  1  0.67269400  0.88441283  0.20392104  1.0
  Ni  Ni630  1  0.30440400  0.01145100  0.18344339  1.0
  Ni  Ni631  1  0.30440400  0.34478433  0.18344339  1.0
  Ni  Ni632  1  0.30440400  0.67811767  0.18344339  1.0
  Ni  Ni633  1  0.63773733  0.01145100  0.18344339  1.0
  Ni  Ni634  1  0.63773733  0.34478433  0.18344339  1.0
  Ni  Ni635  1  0.63773733  0.67811767  0.18344339  1.0
  Ni  Ni636  1  0.97107067  0.01145100  0.18344339  1.0
  Ni  Ni637  1  0.97107067  0.34478433  0.18344339  1.0
  Ni  Ni638  1  0.97107067  0.67811767  0.18344339  1.0
  Ni  Ni639  1  0.30440400  0.17811767  0.25487196  1.0
  Ni  Ni640  1  0.30440400  0.51145100  0.25487196  1.0
  Ni  Ni641  1  0.30440400  0.84478433  0.25487196  1.0
  Ni  Ni642  1  0.63773733  0.17811767  0.25487196  1.0
  Ni  Ni643  1  0.63773733  0.51145100  0.25487196  1.0
  Ni  Ni644  1  0.63773733  0.84478433  0.25487196  1.0
  Ni  Ni645  1  0.97107067  0.17811767  0.25487196  1.0
  Ni  Ni646  1  0.97107067  0.51145100  0.25487196  1.0
  Ni  Ni647  1  0.97107067  0.84478433  0.25487196  1.0
  Ni  Ni648  1  0.10818633  0.04100200  0.17077868  1.0
  Ni  Ni649  1  0.10818633  0.37433533  0.17077868  1.0
  Ni  Ni650  1  0.10818633  0.70766867  0.17077868  1.0
  Ni  Ni651  1  0.44151967  0.04100200  0.17077868  1.0
  Ni  Ni652  1  0.44151967  0.37433533  0.17077868  1.0
  Ni  Ni653  1  0.44151967  0.70766867  0.17077868  1.0
  Ni  Ni654  1  0.77485300  0.04100200  0.17077868  1.0
  Ni  Ni655  1  0.77485300  0.37433533  0.17077868  1.0
  Ni  Ni656  1  0.77485300  0.70766867  0.17077868  1.0
  Ni  Ni657  1  0.10818633  0.20766867  0.24220725  1.0
  Ni  Ni658  1  0.10818633  0.54100200  0.24220725  1.0
  Ni  Ni659  1  0.10818633  0.87433533  0.24220725  1.0
  Ni  Ni660  1  0.44151967  0.20766867  0.24220725  1.0
  Ni  Ni661  1  0.44151967  0.54100200  0.24220725  1.0
  Ni  Ni662  1  0.44151967  0.87433533  0.24220725  1.0
  Ni  Ni663  1  0.77485300  0.20766867  0.24220725  1.0
  Ni  Ni664  1  0.77485300  0.54100200  0.24220725  1.0
  Ni  Ni665  1  0.77485300  0.87433533  0.24220725  1.0
  Ni  Ni666  1  0.14314300  0.08063050  0.26268489  1.0
  Ni  Ni667  1  0.14314300  0.41396383  0.26268489  1.0
  Ni  Ni668  1  0.14314300  0.74729717  0.26268489  1.0
  Ni  Ni669  1  0.47647633  0.08063050  0.26268489  1.0
  Ni  Ni670  1  0.47647633  0.41396383  0.26268489  1.0
  Ni  Ni671  1  0.47647633  0.74729717  0.26268489  1.0
  Ni  Ni672  1  0.80980967  0.08063050  0.26268489  1.0
  Ni  Ni673  1  0.80980967  0.41396383  0.26268489  1.0
  Ni  Ni674  1  0.80980967  0.74729717  0.26268489  1.0
  Ni  Ni675  1  0.14314300  0.24729717  0.19125632  1.0
  Ni  Ni676  1  0.14314300  0.58063050  0.19125632  1.0
  Ni  Ni677  1  0.14314300  0.91396383  0.19125632  1.0
  Ni  Ni678  1  0.47647633  0.24729717  0.19125632  1.0
  Ni  Ni679  1  0.47647633  0.58063050  0.19125632  1.0
  Ni  Ni680  1  0.47647633  0.91396383  0.19125632  1.0
  Ni  Ni681  1  0.80980967  0.24729717  0.19125632  1.0
  Ni  Ni682  1  0.80980967  0.58063050  0.19125632  1.0
  Ni  Ni683  1  0.80980967  0.91396383  0.19125632  1.0
  Ni  Ni684  1  0.32730600  0.28225383  0.14631204  1.0
  Ni  Ni685  1  0.32730600  0.61558717  0.14631204  1.0
  Ni  Ni686  1  0.32730600  0.94892050  0.14631204  1.0
  Ni  Ni687  1  0.66063933  0.28225383  0.14631204  1.0
  Ni  Ni688  1  0.66063933  0.61558717  0.14631204  1.0
  Ni  Ni689  1  0.66063933  0.94892050  0.14631204  1.0
  Ni  Ni690  1  0.99397267  0.28225383  0.14631204  1.0
  Ni  Ni691  1  0.99397267  0.61558717  0.14631204  1.0
  Ni  Ni692  1  0.99397267  0.94892050  0.14631204  1.0
  Ni  Ni693  1  0.32730600  0.11558717  0.21774061  1.0
  Ni  Ni694  1  0.32730600  0.44892050  0.21774061  1.0
  Ni  Ni695  1  0.32730600  0.78225383  0.21774061  1.0
  Ni  Ni696  1  0.66063933  0.11558717  0.21774061  1.0
  Ni  Ni697  1  0.66063933  0.44892050  0.21774061  1.0
  Ni  Ni698  1  0.66063933  0.78225383  0.21774061  1.0
  Ni  Ni699  1  0.99397267  0.11558717  0.21774061  1.0
  Ni  Ni700  1  0.99397267  0.44892050  0.21774061  1.0
  Ni  Ni701  1  0.99397267  0.78225383  0.21774061  1.0
  Ni  Ni702  1  0.02892933  0.32188233  0.23821825  1.0
  Ni  Ni703  1  0.02892933  0.65521567  0.23821825  1.0
  Ni  Ni704  1  0.02892933  0.98854900  0.23821825  1.0
  Ni  Ni705  1  0.36226267  0.32188233  0.23821825  1.0
  Ni  Ni706  1  0.36226267  0.65521567  0.23821825  1.0
  Ni  Ni707  1  0.36226267  0.98854900  0.23821825  1.0
  Ni  Ni708  1  0.69559600  0.32188233  0.23821825  1.0
  Ni  Ni709  1  0.69559600  0.65521567  0.23821825  1.0
  Ni  Ni710  1  0.69559600  0.98854900  0.23821825  1.0
  Ni  Ni711  1  0.02892933  0.15521567  0.16678968  1.0
  Ni  Ni712  1  0.02892933  0.48854900  0.16678968  1.0
  Ni  Ni713  1  0.02892933  0.82188233  0.16678968  1.0
  Ni  Ni714  1  0.36226267  0.15521567  0.16678968  1.0
  Ni  Ni715  1  0.36226267  0.48854900  0.16678968  1.0
  Ni  Ni716  1  0.36226267  0.82188233  0.16678968  1.0
  Ni  Ni717  1  0.69559600  0.15521567  0.16678968  1.0
  Ni  Ni718  1  0.69559600  0.48854900  0.16678968  1.0
  Ni  Ni719  1  0.69559600  0.82188233  0.16678968  1.0
  Zr  Zr720  1  0.00000000  0.16666667  0.35368796  1.0
  Zr  Zr721  1  0.00000000  0.50000000  0.35368796  1.0
  Zr  Zr722  1  0.00000000  0.83333333  0.35368796  1.0
  Zr  Zr723  1  0.33333333  0.16666667  0.35368796  1.0
  Zr  Zr724  1  0.33333333  0.50000000  0.35368796  1.0
  Zr  Zr725  1  0.33333333  0.83333333  0.35368796  1.0
  Zr  Zr726  1  0.66666667  0.16666667  0.35368796  1.0
  Zr  Zr727  1  0.66666667  0.50000000  0.35368796  1.0
  Zr  Zr728  1  0.66666667  0.83333333  0.35368796  1.0
  Zr  Zr729  1  0.00000000  0.00000000  0.42511654  1.0
  Zr  Zr730  1  0.00000000  0.33333333  0.42511654  1.0
  Zr  Zr731  1  0.00000000  0.66666667  0.42511654  1.0
  Zr  Zr732  1  0.33333333  0.00000000  0.42511654  1.0
  Zr  Zr733  1  0.33333333  0.33333333  0.42511654  1.0
  Zr  Zr734  1  0.33333333  0.66666667  0.42511654  1.0
  Zr  Zr735  1  0.66666667  0.00000000  0.42511654  1.0
  Zr  Zr736  1  0.66666667  0.33333333  0.42511654  1.0
  Zr  Zr737  1  0.66666667  0.66666667  0.42511654  1.0
  Zr  Zr738  1  0.25081367  0.27712300  0.35452982  1.0
  Zr  Zr739  1  0.25081367  0.61045633  0.35452982  1.0
  Zr  Zr740  1  0.25081367  0.94378967  0.35452982  1.0
  Zr  Zr741  1  0.58414700  0.27712300  0.35452982  1.0
  Zr  Zr742  1  0.58414700  0.61045633  0.35452982  1.0
  Zr  Zr743  1  0.58414700  0.94378967  0.35452982  1.0
  Zr  Zr744  1  0.91748033  0.27712300  0.35452982  1.0
  Zr  Zr745  1  0.91748033  0.61045633  0.35452982  1.0
  Zr  Zr746  1  0.91748033  0.94378967  0.35452982  1.0
  Zr  Zr747  1  0.25081367  0.11045633  0.42595839  1.0
  Zr  Zr748  1  0.25081367  0.44378967  0.42595839  1.0
  Zr  Zr749  1  0.25081367  0.77712300  0.42595839  1.0
  Zr  Zr750  1  0.58414700  0.11045633  0.42595839  1.0
  Zr  Zr751  1  0.58414700  0.44378967  0.42595839  1.0
  Zr  Zr752  1  0.58414700  0.77712300  0.42595839  1.0
  Zr  Zr753  1  0.91748033  0.11045633  0.42595839  1.0
  Zr  Zr754  1  0.91748033  0.44378967  0.42595839  1.0
  Zr  Zr755  1  0.91748033  0.77712300  0.42595839  1.0
  Zr  Zr756  1  0.19494033  0.02793667  0.38919796  1.0
  Zr  Zr757  1  0.19494033  0.36127000  0.38919796  1.0
  Zr  Zr758  1  0.19494033  0.69460333  0.38919796  1.0
  Zr  Zr759  1  0.52827367  0.02793667  0.38919796  1.0
  Zr  Zr760  1  0.52827367  0.36127000  0.38919796  1.0
  Zr  Zr761  1  0.52827367  0.69460333  0.38919796  1.0
  Zr  Zr762  1  0.86160700  0.02793667  0.38919796  1.0
  Zr  Zr763  1  0.86160700  0.36127000  0.38919796  1.0
  Zr  Zr764  1  0.86160700  0.69460333  0.38919796  1.0
  Zr  Zr765  1  0.19494033  0.19460333  0.31776939  1.0
  Zr  Zr766  1  0.19494033  0.52793667  0.31776939  1.0
  Zr  Zr767  1  0.19494033  0.86127000  0.31776939  1.0
  Zr  Zr768  1  0.52827367  0.19460333  0.31776939  1.0
  Zr  Zr769  1  0.52827367  0.52793667  0.31776939  1.0
  Zr  Zr770  1  0.52827367  0.86127000  0.31776939  1.0
  Zr  Zr771  1  0.86160700  0.19460333  0.31776939  1.0
  Zr  Zr772  1  0.86160700  0.52793667  0.31776939  1.0
  Zr  Zr773  1  0.86160700  0.86127000  0.31776939  1.0
  Zr  Zr774  1  0.13839300  0.30539667  0.31817796  1.0
  Zr  Zr775  1  0.13839300  0.63873000  0.31817796  1.0
  Zr  Zr776  1  0.13839300  0.97206333  0.31817796  1.0
  Zr  Zr777  1  0.47172633  0.30539667  0.31817796  1.0
  Zr  Zr778  1  0.47172633  0.63873000  0.31817796  1.0
  Zr  Zr779  1  0.47172633  0.97206333  0.31817796  1.0
  Zr  Zr780  1  0.80505967  0.30539667  0.31817796  1.0
  Zr  Zr781  1  0.80505967  0.63873000  0.31817796  1.0
  Zr  Zr782  1  0.80505967  0.97206333  0.31817796  1.0
  Zr  Zr783  1  0.13839300  0.13873000  0.38960654  1.0
  Zr  Zr784  1  0.13839300  0.47206333  0.38960654  1.0
  Zr  Zr785  1  0.13839300  0.80539667  0.38960654  1.0
  Zr  Zr786  1  0.47172633  0.13873000  0.38960654  1.0
  Zr  Zr787  1  0.47172633  0.47206333  0.38960654  1.0
  Zr  Zr788  1  0.47172633  0.80539667  0.38960654  1.0
  Zr  Zr789  1  0.80505967  0.13873000  0.38960654  1.0
  Zr  Zr790  1  0.80505967  0.47206333  0.38960654  1.0
  Zr  Zr791  1  0.80505967  0.80539667  0.38960654  1.0
  Zr  Zr792  1  0.08251967  0.05621033  0.35284611  1.0
  Zr  Zr793  1  0.08251967  0.38954367  0.35284611  1.0
  Zr  Zr794  1  0.08251967  0.72287700  0.35284611  1.0
  Zr  Zr795  1  0.41585300  0.05621033  0.35284611  1.0
  Zr  Zr796  1  0.41585300  0.38954367  0.35284611  1.0
  Zr  Zr797  1  0.41585300  0.72287700  0.35284611  1.0
  Zr  Zr798  1  0.74918633  0.05621033  0.35284611  1.0
  Zr  Zr799  1  0.74918633  0.38954367  0.35284611  1.0
  Zr  Zr800  1  0.74918633  0.72287700  0.35284611  1.0
  Zr  Zr801  1  0.08251967  0.22287700  0.42427468  1.0
  Zr  Zr802  1  0.08251967  0.55621033  0.42427468  1.0
  Zr  Zr803  1  0.08251967  0.88954367  0.42427468  1.0
  Zr  Zr804  1  0.41585300  0.22287700  0.42427468  1.0
  Zr  Zr805  1  0.41585300  0.55621033  0.42427468  1.0
  Zr  Zr806  1  0.41585300  0.88954367  0.42427468  1.0
  Zr  Zr807  1  0.74918633  0.22287700  0.42427468  1.0
  Zr  Zr808  1  0.74918633  0.55621033  0.42427468  1.0
  Zr  Zr809  1  0.74918633  0.88954367  0.42427468  1.0
  Zr  Zr810  1  0.22955867  0.23365383  0.41041875  1.0
  Zr  Zr811  1  0.22955867  0.56698717  0.41041875  1.0
  Zr  Zr812  1  0.22955867  0.90032050  0.41041875  1.0
  Zr  Zr813  1  0.56289200  0.23365383  0.41041875  1.0
  Zr  Zr814  1  0.56289200  0.56698717  0.41041875  1.0
  Zr  Zr815  1  0.56289200  0.90032050  0.41041875  1.0
  Zr  Zr816  1  0.89622533  0.23365383  0.41041875  1.0
  Zr  Zr817  1  0.89622533  0.56698717  0.41041875  1.0
  Zr  Zr818  1  0.89622533  0.90032050  0.41041875  1.0
  Zr  Zr819  1  0.22955867  0.06698717  0.33899018  1.0
  Zr  Zr820  1  0.22955867  0.40032050  0.33899018  1.0
  Zr  Zr821  1  0.22955867  0.73365383  0.33899018  1.0
  Zr  Zr822  1  0.56289200  0.06698717  0.33899018  1.0
  Zr  Zr823  1  0.56289200  0.40032050  0.33899018  1.0
  Zr  Zr824  1  0.56289200  0.73365383  0.33899018  1.0
  Zr  Zr825  1  0.89622533  0.06698717  0.33899018  1.0
  Zr  Zr826  1  0.89622533  0.40032050  0.33899018  1.0
  Zr  Zr827  1  0.89622533  0.73365383  0.33899018  1.0
  Zr  Zr828  1  0.30313367  0.29654583  0.32955761  1.0
  Zr  Zr829  1  0.30313367  0.62987917  0.32955761  1.0
  Zr  Zr830  1  0.30313367  0.96321250  0.32955761  1.0
  Zr  Zr831  1  0.63646700  0.29654583  0.32955761  1.0
  Zr  Zr832  1  0.63646700  0.62987917  0.32955761  1.0
  Zr  Zr833  1  0.63646700  0.96321250  0.32955761  1.0
  Zr  Zr834  1  0.96980033  0.29654583  0.32955761  1.0
  Zr  Zr835  1  0.96980033  0.62987917  0.32955761  1.0
  Zr  Zr836  1  0.96980033  0.96321250  0.32955761  1.0
  Zr  Zr837  1  0.30313367  0.12987917  0.40098618  1.0
  Zr  Zr838  1  0.30313367  0.46321250  0.40098618  1.0
  Zr  Zr839  1  0.30313367  0.79654583  0.40098618  1.0
  Zr  Zr840  1  0.63646700  0.12987917  0.40098618  1.0
  Zr  Zr841  1  0.63646700  0.46321250  0.40098618  1.0
  Zr  Zr842  1  0.63646700  0.79654583  0.40098618  1.0
  Zr  Zr843  1  0.96980033  0.12987917  0.40098618  1.0
  Zr  Zr844  1  0.96980033  0.46321250  0.40098618  1.0
  Zr  Zr845  1  0.96980033  0.79654583  0.40098618  1.0
  Zr  Zr846  1  0.03019967  0.03678750  0.37781832  1.0
  Zr  Zr847  1  0.03019967  0.37012083  0.37781832  1.0
  Zr  Zr848  1  0.03019967  0.70345417  0.37781832  1.0
  Zr  Zr849  1  0.36353300  0.03678750  0.37781832  1.0
  Zr  Zr850  1  0.36353300  0.37012083  0.37781832  1.0
  Zr  Zr851  1  0.36353300  0.70345417  0.37781832  1.0
  Zr  Zr852  1  0.69686633  0.03678750  0.37781832  1.0
  Zr  Zr853  1  0.69686633  0.37012083  0.37781832  1.0
  Zr  Zr854  1  0.69686633  0.70345417  0.37781832  1.0
  Zr  Zr855  1  0.03019967  0.20345417  0.30638975  1.0
  Zr  Zr856  1  0.03019967  0.53678750  0.30638975  1.0
  Zr  Zr857  1  0.03019967  0.87012083  0.30638975  1.0
  Zr  Zr858  1  0.36353300  0.20345417  0.30638975  1.0
  Zr  Zr859  1  0.36353300  0.53678750  0.30638975  1.0
  Zr  Zr860  1  0.36353300  0.87012083  0.30638975  1.0
  Zr  Zr861  1  0.69686633  0.20345417  0.30638975  1.0
  Zr  Zr862  1  0.69686633  0.53678750  0.30638975  1.0
  Zr  Zr863  1  0.69686633  0.87012083  0.30638975  1.0
  Zr  Zr864  1  0.10377467  0.09967950  0.29695718  1.0
  Zr  Zr865  1  0.10377467  0.43301283  0.29695718  1.0
  Zr  Zr866  1  0.10377467  0.76634617  0.29695718  1.0
  Zr  Zr867  1  0.43710800  0.09967950  0.29695718  1.0
  Zr  Zr868  1  0.43710800  0.43301283  0.29695718  1.0
  Zr  Zr869  1  0.43710800  0.76634617  0.29695718  1.0
  Zr  Zr870  1  0.77044133  0.09967950  0.29695718  1.0
  Zr  Zr871  1  0.77044133  0.43301283  0.29695718  1.0
  Zr  Zr872  1  0.77044133  0.76634617  0.29695718  1.0
  Zr  Zr873  1  0.10377467  0.26634617  0.36838575  1.0
  Zr  Zr874  1  0.10377467  0.59967950  0.36838575  1.0
  Zr  Zr875  1  0.10377467  0.93301283  0.36838575  1.0
  Zr  Zr876  1  0.43710800  0.26634617  0.36838575  1.0
  Zr  Zr877  1  0.43710800  0.59967950  0.36838575  1.0
  Zr  Zr878  1  0.43710800  0.93301283  0.36838575  1.0
  Zr  Zr879  1  0.77044133  0.26634617  0.36838575  1.0
  Zr  Zr880  1  0.77044133  0.59967950  0.36838575  1.0
  Zr  Zr881  1  0.77044133  0.93301283  0.36838575  1.0
  Ni  Ni882  1  0.16666667  0.00000000  0.42511654  1.0
  Ni  Ni883  1  0.16666667  0.33333333  0.42511654  1.0
  Ni  Ni884  1  0.16666667  0.66666667  0.42511654  1.0
  Ni  Ni885  1  0.50000000  0.00000000  0.42511654  1.0
  Ni  Ni886  1  0.50000000  0.33333333  0.42511654  1.0
  Ni  Ni887  1  0.50000000  0.66666667  0.42511654  1.0
  Ni  Ni888  1  0.83333333  0.00000000  0.42511654  1.0
  Ni  Ni889  1  0.83333333  0.33333333  0.42511654  1.0
  Ni  Ni890  1  0.83333333  0.66666667  0.42511654  1.0
  Ni  Ni891  1  0.16666667  0.16666667  0.35368796  1.0
  Ni  Ni892  1  0.16666667  0.50000000  0.35368796  1.0
  Ni  Ni893  1  0.16666667  0.83333333  0.35368796  1.0
  Ni  Ni894  1  0.50000000  0.16666667  0.35368796  1.0
  Ni  Ni895  1  0.50000000  0.50000000  0.35368796  1.0
  Ni  Ni896  1  0.50000000  0.83333333  0.35368796  1.0
  Ni  Ni897  1  0.83333333  0.16666667  0.35368796  1.0
  Ni  Ni898  1  0.83333333  0.50000000  0.35368796  1.0
  Ni  Ni899  1  0.83333333  0.83333333  0.35368796  1.0
  Ni  Ni900  1  0.08333333  0.00000000  0.35368796  1.0
  Ni  Ni901  1  0.08333333  0.33333333  0.35368796  1.0
  Ni  Ni902  1  0.08333333  0.66666667  0.35368796  1.0
  Ni  Ni903  1  0.41666667  0.00000000  0.35368796  1.0
  Ni  Ni904  1  0.41666667  0.33333333  0.35368796  1.0
  Ni  Ni905  1  0.41666667  0.66666667  0.35368796  1.0
  Ni  Ni906  1  0.75000000  0.00000000  0.35368796  1.0
  Ni  Ni907  1  0.75000000  0.33333333  0.35368796  1.0
  Ni  Ni908  1  0.75000000  0.66666667  0.35368796  1.0
  Ni  Ni909  1  0.08333333  0.16666667  0.42511654  1.0
  Ni  Ni910  1  0.08333333  0.50000000  0.42511654  1.0
  Ni  Ni911  1  0.08333333  0.83333333  0.42511654  1.0
  Ni  Ni912  1  0.41666667  0.16666667  0.42511654  1.0
  Ni  Ni913  1  0.41666667  0.50000000  0.42511654  1.0
  Ni  Ni914  1  0.41666667  0.83333333  0.42511654  1.0
  Ni  Ni915  1  0.75000000  0.16666667  0.42511654  1.0
  Ni  Ni916  1  0.75000000  0.50000000  0.42511654  1.0
  Ni  Ni917  1  0.75000000  0.83333333  0.42511654  1.0
  Ni  Ni918  1  0.25000000  0.00000000  0.35368796  1.0
  Ni  Ni919  1  0.25000000  0.33333333  0.35368796  1.0
  Ni  Ni920  1  0.25000000  0.66666667  0.35368796  1.0
  Ni  Ni921  1  0.58333333  0.00000000  0.35368796  1.0
  Ni  Ni922  1  0.58333333  0.33333333  0.35368796  1.0
  Ni  Ni923  1  0.58333333  0.66666667  0.35368796  1.0
  Ni  Ni924  1  0.91666667  0.00000000  0.35368796  1.0
  Ni  Ni925  1  0.91666667  0.33333333  0.35368796  1.0
  Ni  Ni926  1  0.91666667  0.66666667  0.35368796  1.0
  Ni  Ni927  1  0.25000000  0.16666667  0.42511654  1.0
  Ni  Ni928  1  0.25000000  0.50000000  0.42511654  1.0
  Ni  Ni929  1  0.25000000  0.83333333  0.42511654  1.0
  Ni  Ni930  1  0.58333333  0.16666667  0.42511654  1.0
  Ni  Ni931  1  0.58333333  0.50000000  0.42511654  1.0
  Ni  Ni932  1  0.58333333  0.83333333  0.42511654  1.0
  Ni  Ni933  1  0.91666667  0.16666667  0.42511654  1.0
  Ni  Ni934  1  0.91666667  0.50000000  0.42511654  1.0
  Ni  Ni935  1  0.91666667  0.83333333  0.42511654  1.0
  Ni  Ni936  1  0.22514700  0.29233133  0.39374011  1.0
  Ni  Ni937  1  0.22514700  0.62566467  0.39374011  1.0
  Ni  Ni938  1  0.22514700  0.95899800  0.39374011  1.0
  Ni  Ni939  1  0.55848033  0.29233133  0.39374011  1.0
  Ni  Ni940  1  0.55848033  0.62566467  0.39374011  1.0
  Ni  Ni941  1  0.55848033  0.95899800  0.39374011  1.0
  Ni  Ni942  1  0.89181367  0.29233133  0.39374011  1.0
  Ni  Ni943  1  0.89181367  0.62566467  0.39374011  1.0
  Ni  Ni944  1  0.89181367  0.95899800  0.39374011  1.0
  Ni  Ni945  1  0.22514700  0.12566467  0.32231154  1.0
  Ni  Ni946  1  0.22514700  0.45899800  0.32231154  1.0
  Ni  Ni947  1  0.22514700  0.79233133  0.32231154  1.0
  Ni  Ni948  1  0.55848033  0.12566467  0.32231154  1.0
  Ni  Ni949  1  0.55848033  0.45899800  0.32231154  1.0
  Ni  Ni950  1  0.55848033  0.79233133  0.32231154  1.0
  Ni  Ni951  1  0.89181367  0.12566467  0.32231154  1.0
  Ni  Ni952  1  0.89181367  0.45899800  0.32231154  1.0
  Ni  Ni953  1  0.89181367  0.79233133  0.32231154  1.0
  Ni  Ni954  1  0.19019033  0.25270283  0.30183389  1.0
  Ni  Ni955  1  0.19019033  0.58603617  0.30183389  1.0
  Ni  Ni956  1  0.19019033  0.91936950  0.30183389  1.0
  Ni  Ni957  1  0.52352367  0.25270283  0.30183389  1.0
  Ni  Ni958  1  0.52352367  0.58603617  0.30183389  1.0
  Ni  Ni959  1  0.52352367  0.91936950  0.30183389  1.0
  Ni  Ni960  1  0.85685700  0.25270283  0.30183389  1.0
  Ni  Ni961  1  0.85685700  0.58603617  0.30183389  1.0
  Ni  Ni962  1  0.85685700  0.91936950  0.30183389  1.0
  Ni  Ni963  1  0.19019033  0.08603617  0.37326246  1.0
  Ni  Ni964  1  0.19019033  0.41936950  0.37326246  1.0
  Ni  Ni965  1  0.19019033  0.75270283  0.37326246  1.0
  Ni  Ni966  1  0.52352367  0.08603617  0.37326246  1.0
  Ni  Ni967  1  0.52352367  0.41936950  0.37326246  1.0
  Ni  Ni968  1  0.52352367  0.75270283  0.37326246  1.0
  Ni  Ni969  1  0.85685700  0.08603617  0.37326246  1.0
  Ni  Ni970  1  0.85685700  0.41936950  0.37326246  1.0
  Ni  Ni971  1  0.85685700  0.75270283  0.37326246  1.0
  Ni  Ni972  1  0.00602733  0.05107950  0.41820675  1.0
  Ni  Ni973  1  0.00602733  0.38441283  0.41820675  1.0
  Ni  Ni974  1  0.00602733  0.71774617  0.41820675  1.0
  Ni  Ni975  1  0.33936067  0.05107950  0.41820675  1.0
  Ni  Ni976  1  0.33936067  0.38441283  0.41820675  1.0
  Ni  Ni977  1  0.33936067  0.71774617  0.41820675  1.0
  Ni  Ni978  1  0.67269400  0.05107950  0.41820675  1.0
  Ni  Ni979  1  0.67269400  0.38441283  0.41820675  1.0
  Ni  Ni980  1  0.67269400  0.71774617  0.41820675  1.0
  Ni  Ni981  1  0.00602733  0.21774617  0.34677818  1.0
  Ni  Ni982  1  0.00602733  0.55107950  0.34677818  1.0
  Ni  Ni983  1  0.00602733  0.88441283  0.34677818  1.0
  Ni  Ni984  1  0.33936067  0.21774617  0.34677818  1.0
  Ni  Ni985  1  0.33936067  0.55107950  0.34677818  1.0
  Ni  Ni986  1  0.33936067  0.88441283  0.34677818  1.0
  Ni  Ni987  1  0.67269400  0.21774617  0.34677818  1.0
  Ni  Ni988  1  0.67269400  0.55107950  0.34677818  1.0
  Ni  Ni989  1  0.67269400  0.88441283  0.34677818  1.0
  Ni  Ni990  1  0.30440400  0.01145100  0.32630054  1.0
  Ni  Ni991  1  0.30440400  0.34478433  0.32630054  1.0
  Ni  Ni992  1  0.30440400  0.67811767  0.32630054  1.0
  Ni  Ni993  1  0.63773733  0.01145100  0.32630054  1.0
  Ni  Ni994  1  0.63773733  0.34478433  0.32630054  1.0
  Ni  Ni995  1  0.63773733  0.67811767  0.32630054  1.0
  Ni  Ni996  1  0.97107067  0.01145100  0.32630054  1.0
  Ni  Ni997  1  0.97107067  0.34478433  0.32630054  1.0
  Ni  Ni998  1  0.97107067  0.67811767  0.32630054  1.0
  Ni  Ni999  1  0.30440400  0.17811767  0.39772911  1.0
  Ni  Ni1000  1  0.30440400  0.51145100  0.39772911  1.0
  Ni  Ni1001  1  0.30440400  0.84478433  0.39772911  1.0
  Ni  Ni1002  1  0.63773733  0.17811767  0.39772911  1.0
  Ni  Ni1003  1  0.63773733  0.51145100  0.39772911  1.0
  Ni  Ni1004  1  0.63773733  0.84478433  0.39772911  1.0
  Ni  Ni1005  1  0.97107067  0.17811767  0.39772911  1.0
  Ni  Ni1006  1  0.97107067  0.51145100  0.39772911  1.0
  Ni  Ni1007  1  0.97107067  0.84478433  0.39772911  1.0
  Ni  Ni1008  1  0.10818633  0.04100200  0.31363582  1.0
  Ni  Ni1009  1  0.10818633  0.37433533  0.31363582  1.0
  Ni  Ni1010  1  0.10818633  0.70766867  0.31363582  1.0
  Ni  Ni1011  1  0.44151967  0.04100200  0.31363582  1.0
  Ni  Ni1012  1  0.44151967  0.37433533  0.31363582  1.0
  Ni  Ni1013  1  0.44151967  0.70766867  0.31363582  1.0
  Ni  Ni1014  1  0.77485300  0.04100200  0.31363582  1.0
  Ni  Ni1015  1  0.77485300  0.37433533  0.31363582  1.0
  Ni  Ni1016  1  0.77485300  0.70766867  0.31363582  1.0
  Ni  Ni1017  1  0.10818633  0.20766867  0.38506439  1.0
  Ni  Ni1018  1  0.10818633  0.54100200  0.38506439  1.0
  Ni  Ni1019  1  0.10818633  0.87433533  0.38506439  1.0
  Ni  Ni1020  1  0.44151967  0.20766867  0.38506439  1.0
  Ni  Ni1021  1  0.44151967  0.54100200  0.38506439  1.0
  Ni  Ni1022  1  0.44151967  0.87433533  0.38506439  1.0
  Ni  Ni1023  1  0.77485300  0.20766867  0.38506439  1.0
  Ni  Ni1024  1  0.77485300  0.54100200  0.38506439  1.0
  Ni  Ni1025  1  0.77485300  0.87433533  0.38506439  1.0
  Ni  Ni1026  1  0.14314300  0.08063050  0.40554204  1.0
  Ni  Ni1027  1  0.14314300  0.41396383  0.40554204  1.0
  Ni  Ni1028  1  0.14314300  0.74729717  0.40554204  1.0
  Ni  Ni1029  1  0.47647633  0.08063050  0.40554204  1.0
  Ni  Ni1030  1  0.47647633  0.41396383  0.40554204  1.0
  Ni  Ni1031  1  0.47647633  0.74729717  0.40554204  1.0
  Ni  Ni1032  1  0.80980967  0.08063050  0.40554204  1.0
  Ni  Ni1033  1  0.80980967  0.41396383  0.40554204  1.0
  Ni  Ni1034  1  0.80980967  0.74729717  0.40554204  1.0
  Ni  Ni1035  1  0.14314300  0.24729717  0.33411346  1.0
  Ni  Ni1036  1  0.14314300  0.58063050  0.33411346  1.0
  Ni  Ni1037  1  0.14314300  0.91396383  0.33411346  1.0
  Ni  Ni1038  1  0.47647633  0.24729717  0.33411346  1.0
  Ni  Ni1039  1  0.47647633  0.58063050  0.33411346  1.0
  Ni  Ni1040  1  0.47647633  0.91396383  0.33411346  1.0
  Ni  Ni1041  1  0.80980967  0.24729717  0.33411346  1.0
  Ni  Ni1042  1  0.80980967  0.58063050  0.33411346  1.0
  Ni  Ni1043  1  0.80980967  0.91396383  0.33411346  1.0
  Ni  Ni1044  1  0.32730600  0.28225383  0.28916918  1.0
  Ni  Ni1045  1  0.32730600  0.61558717  0.28916918  1.0
  Ni  Ni1046  1  0.32730600  0.94892050  0.28916918  1.0
  Ni  Ni1047  1  0.66063933  0.28225383  0.28916918  1.0
  Ni  Ni1048  1  0.66063933  0.61558717  0.28916918  1.0
  Ni  Ni1049  1  0.66063933  0.94892050  0.28916918  1.0
  Ni  Ni1050  1  0.99397267  0.28225383  0.28916918  1.0
  Ni  Ni1051  1  0.99397267  0.61558717  0.28916918  1.0
  Ni  Ni1052  1  0.99397267  0.94892050  0.28916918  1.0
  Ni  Ni1053  1  0.32730600  0.11558717  0.36059775  1.0
  Ni  Ni1054  1  0.32730600  0.44892050  0.36059775  1.0
  Ni  Ni1055  1  0.32730600  0.78225383  0.36059775  1.0
  Ni  Ni1056  1  0.66063933  0.11558717  0.36059775  1.0
  Ni  Ni1057  1  0.66063933  0.44892050  0.36059775  1.0
  Ni  Ni1058  1  0.66063933  0.78225383  0.36059775  1.0
  Ni  Ni1059  1  0.99397267  0.11558717  0.36059775  1.0
  Ni  Ni1060  1  0.99397267  0.44892050  0.36059775  1.0
  Ni  Ni1061  1  0.99397267  0.78225383  0.36059775  1.0
  Ni  Ni1062  1  0.02892933  0.32188233  0.38107539  1.0
  Ni  Ni1063  1  0.02892933  0.65521567  0.38107539  1.0
  Ni  Ni1064  1  0.02892933  0.98854900  0.38107539  1.0
  Ni  Ni1065  1  0.36226267  0.32188233  0.38107539  1.0
  Ni  Ni1066  1  0.36226267  0.65521567  0.38107539  1.0
  Ni  Ni1067  1  0.36226267  0.98854900  0.38107539  1.0
  Ni  Ni1068  1  0.69559600  0.32188233  0.38107539  1.0
  Ni  Ni1069  1  0.69559600  0.65521567  0.38107539  1.0
  Ni  Ni1070  1  0.69559600  0.98854900  0.38107539  1.0
  Ni  Ni1071  1  0.02892933  0.15521567  0.30964682  1.0
  Ni  Ni1072  1  0.02892933  0.48854900  0.30964682  1.0
  Ni  Ni1073  1  0.02892933  0.82188233  0.30964682  1.0
  Ni  Ni1074  1  0.36226267  0.15521567  0.30964682  1.0
  Ni  Ni1075  1  0.36226267  0.48854900  0.30964682  1.0
  Ni  Ni1076  1  0.36226267  0.82188233  0.30964682  1.0
  Ni  Ni1077  1  0.69559600  0.15521567  0.30964682  1.0
  Ni  Ni1078  1  0.69559600  0.48854900  0.30964682  1.0
  Ni  Ni1079  1  0.69559600  0.82188233  0.30964682  1.0
